Measurement: Raman, 514 nm, unoriented, Raman Data Processed
Mineral: Epidote
Rruff sample: R050202
Ideal chemistry: Ca_2_Fe^3+^Al_2_(Si_2_O_7_)(SiO_4_)O(OH)
Locality: Iron Cap mine, Landsman Camp, Graham County, Arizona, USA
Source: Bob Downs
Description: Green colored prismatic single crystal associated with quartz, diopside and tremolite
Measured chemistry: Ca_2.00_Al_2.00_(Fe^3+^_0.68_Al_0.32_)(SiO_4_)(Si_2_O_7_)O(OH)
Raman shift (cm-1)	intensity
52.866	0
57.065	144.409
61.262	126.759
65.458	54.674
69.651	181.257
73.842	1212.42
78.031	3522.32
82.218	8571.44
86.404	16194
90.587	23769.8
94.768	26573.5
98.947	26175.1
103.124	14663.2
107.3	7763.3
111.473	5376.82
115.644	4333.75
119.813	3529.35
123.981	3489.06
128.146	3907.47
132.309	4248.42
136.47	4028.61
140.63	3385.85
144.787	3120.56
148.942	3230.31
153.096	3430.98
157.247	4069.07
161.396	5722.9
165.544	7175.7
169.689	6610.61
173.833	4607.74
177.974	2675.14
182.114	2090.82
186.251	2578.78
190.387	2712.06
194.52	2766.65
198.652	3969.1
202.782	5474.16
206.909	5835.26
211.035	4991.88
215.159	5174.57
219.281	6592.28
223.4	8972.9
227.518	11113.3
231.634	10478.1
235.748	7871.7
239.86	7788.57
243.97	8985.65
248.079	8247.46
252.185	6722.67
256.289	5713.99
260.391	4967.17
264.492	5836.98
268.59	10741.3
272.687	20616.9
276.781	25273.7
280.874	15609.7
284.964	8433.83
289.053	6221.96
293.14	6114.99
297.225	7174.66
301.308	7544.92
305.389	6264.74
309.468	5278.17
313.545	4929.24
317.62	3823.96
321.693	2601.32
325.765	2340.32
329.834	1742.95
333.902	611.194
337.967	442.002
342.031	954.455
346.093	525.012
350.153	153.086
354.21	258.063
358.267	320.042
362.321	47.226
366.373	458.047
370.423	331.777
374.471	80.727
378.518	60.909
382.563	760.859
386.605	3036.53
390.646	4713.21
394.685	3210.99
398.722	1619.99
402.757	937.296
406.79	1365.07
410.821	3152.31
414.851	7487.04
418.878	18290.1
422.904	35446.6
426.927	40860.4
430.949	29682.6
434.969	22178.9
438.987	19688.6
443.003	20590.4
447.018	29083.2
451.03	40092
455.041	46366.6
459.049	46133.9
463.056	35280.9
467.061	22530.3
471.064	13949.1
475.065	8471.29
479.064	5894.76
483.062	4931.43
487.057	4970.28
491.051	5437.7
495.043	6269.38
499.032	8082.38
503.02	10324
507.007	11215.6
510.991	10717.7
514.973	9666.27
518.954	12499.5
522.933	17851.5
526.91	13979.3
530.885	6961.11
534.858	3400.06
538.829	2252.33
542.799	2166.48
546.766	2754.42
550.732	4214.32
554.696	6876.27
558.658	14092.9
562.618	33315.1
566.576	49578.2
570.533	29500.2
574.488	13878
578.44	9566.13
582.391	10287.6
586.341	13615.5
590.288	18617.7
594.233	25527.4
598.177	34822.3
602.119	34501.5
606.059	26992.7
609.997	20703.6
613.933	16448.4
617.868	11820.7
621.801	7453.93
625.731	4914.61
629.66	3269.61
633.588	2323.88
637.513	1681.92
641.437	1221.29
645.358	784.287
649.278	684.989
653.196	807.369
657.113	887.563
661.027	1253.64
664.94	1437.89
668.851	1322.53
672.76	1322.09
676.667	1670.78
680.572	2067.46
684.476	2762.72
688.378	2831.43
692.278	2274.61
696.176	1175.51
700.072	652.923
703.967	202.708
707.86	124.84
711.751	161.925
715.64	68.181
719.527	161.24
723.413	241.452
727.297	195.011
731.179	148.89
735.059	199.008
738.937	188.438
742.814	182.966
746.689	173.183
750.562	217.541
754.433	141.208
758.303	113.913
762.17	132.571
766.036	133.13
769.901	20.343
773.763	71.038
777.624	127.175
781.482	130.206
785.339	171.209
789.195	224.292
793.048	360.564
796.9	467.083
800.75	534.88
804.598	732.971
808.445	842.363
812.289	1138.07
816.132	1537.08
819.973	2151.4
823.813	3394.01
827.65	4530.93
831.486	5237.28
835.32	4993.71
839.152	4402.58
842.983	4098.79
846.812	4193.36
850.639	4715.3
854.464	5589.62
858.288	7011.38
862.11	8695.7
865.93	10291.2
869.748	11654.1
873.564	11697
877.379	10925.5
881.192	10855.5
885.004	12148.2
888.813	14081.9
892.621	14112.6
896.427	13943.1
900.232	16050
904.034	20820.5
907.835	28035.8
911.634	35901.9
915.432	42292.5
919.227	40337.9
923.021	30249.8
926.813	20914.3
930.604	14130
934.393	10164.7
938.18	7866.81
941.965	6671.52
945.749	5887.37
949.53	5853.29
953.311	6117.67
957.089	6948.44
960.866	7165.55
964.641	6663.05
968.414	6126.94
972.185	7136.22
975.955	10855.9
979.723	16582
983.49	17798.5
987.254	11682.5
991.017	6897.88
994.779	4413.76
998.538	2982.13
1002.3	1983.01
1006.05	1532.2
1009.81	1111.81
1013.56	1243.83
1017.31	1439.34
1021.06	2074.78
1024.81	2421.72
1028.55	2971.91
1032.3	4279.03
1036.04	6954.17
1039.78	10365.1
1043.52	12412.3
1047.26	11493.2
1050.99	9158.77
1054.73	7760.06
1058.46	8289.76
1062.19	8940.24
1065.92	7771.02
1069.65	7079.16
1073.37	8845.54
1077.1	13302.4
1080.82	20764.6
1084.54	32580.4
1088.26	38655.3
1091.97	26740.4
1095.69	12515.8
1099.4	5565.62
1103.12	3121.72
1106.83	1958.85
1110.54	1351.39
1114.24	1140.9
1117.95	825.477
1121.65	814.406
1125.35	702.466
1129.06	582.845
1132.75	458.846
1136.45	555.685
1140.15	253.099
1143.84	168.192
1147.53	155.409
1151.22	11.826
1154.91	85.467
1158.6	53.665
1162.28	65.055
1165.97	12.878
1169.65	1.818
1173.33	97.444
1177.01	77.519
1180.69	131.374
1184.36	38.686
1188.04	70.858
1191.71	72.713
1195.38	113.827
1199.05	98.004
1202.71	32.345
1206.38	20.754
1210.04	99.22
1213.71	44.662
1217.37	18.043
1221.03	31.937
1224.68	78.322
1228.34	30.301
1231.99	122.839
1235.65	120.928
1239.3	11.596
1242.95	79.735
1246.59	202.421
1250.24	248.599
1253.88	181.333
1257.53	87.595
1261.17	146.302
1264.81	113.439
1268.45	192.201
1272.08	187.174
1275.72	145.652
1279.35	180.156
1282.98	205.166
1286.61	163.464
1290.24	208.108
1293.87	145.13
1297.49	135.286
1301.11	262.51
1304.73	214.83
1308.36	198.396
1311.97	174.399
1315.59	235.684
1319.2	201.647
1322.82	45.898
1326.43	190.077
1330.04	129.673
1333.65	138.978
1337.26	159.972
1340.86	176.486
1344.47	143.694
1348.07	225.611
1351.67	268.417
1355.27	309.921
1358.87	400.773
1362.46	329.615
1366.06	398.457
1369.65	399.675
1373.24	370.519
1376.83	394.528
1380.42	397.995
1384	368.456
1387.59	214.656
1391.17	267.601
1394.75	254.673
1398.33	217.409
1401.91	261.792
1405.49	228.771
1409.06	232.378
1412.64	242.732
1416.21	152.275
1419.78	268.704
1423.35	85.549
1426.91	145.549
1430.48	141.746
1434.05	222.693
1437.61	158.33
1441.17	165.127
1444.73	158.323
1448.29	228.992
1451.84	247.99
1455.4	295.34
1458.95	242.726
1462.5	118.304
1466.05	114.252
1469.6	160.554
1473.15	106.639
1476.69	63.299
1480.24	112.666
1483.78	189.204
1487.32	129.686
1490.86	132.499
1494.39	108.202
1497.93	9.191
1501.46	159.248
1505	155.823
1508.53	62.186
1512.06	84.587
1515.59	0.342
