Measurement: Raman, 532 nm, unoriented, Raman Data Processed
Mineral: Epididymite
Rruff sample: R070580
Ideal chemistry: Na_2_Be_2_Si_6_O_15_H_2_O
Locality: Narsarsuk, Narsaq, Kitaa, Greenland
Source: James Shigley
Description: A translucent to white elongated prism.
Measured chemistry: (Na_1.97_K_0.03_)_Σ=2_Be_2_Si_6.00_O_15_·H_2_O; trace amounts of Al; Be and H_2_O assumed by stoichiometry
Raman shift (cm-1)	intensity
144.827	0
147.719	435.877
150.612	1911.75
153.505	2220.59
156.398	1239.83
159.29	423.94
162.183	40.7751
165.076	24.6521
167.968	14.5579
170.861	34.979
173.754	39.2363
176.646	205.603
179.539	453.151
182.432	860.781
185.324	1300.77
188.217	1764.62
191.11	2343.01
194.002	3115.25
196.895	3893.64
199.788	4220.83
202.681	3617.35
205.573	2439.01
208.466	1541.99
211.359	1024.51
214.251	863.644
217.144	890.148
220.037	1011.89
222.929	1580.48
225.822	2493.72
228.715	3543.09
231.608	4814.49
234.5	6353.71
237.393	8875.84
240.286	11724.3
243.178	13627.6
246.071	11882.3
248.964	9003.61
251.857	7862.36
254.749	7441.81
257.642	7139.39
260.535	7307.47
263.427	7297.71
266.32	6856.81
269.213	6221.38
272.105	4725.47
274.998	2663.18
277.891	1411.35
280.784	828.727
283.676	701.216
286.569	744.16
289.462	295.489
292.354	55.2602
295.247	98.7883
298.14	156.265
301.032	150.71
303.925	60.4783
306.818	54.9587
309.711	177.576
312.603	357.384
315.496	596.329
318.389	846.204
321.281	1167.3
324.174	1514.28
327.067	2218.21
329.959	2923.16
332.852	3861.04
335.745	4507.26
338.637	5376.62
341.53	6537.03
344.423	8628.15
347.316	10139.2
350.208	7189.02
353.101	4723.97
355.994	3499.31
358.886	3099.09
361.779	2967.42
364.672	3226.36
367.565	4047.72
370.457	4877.74
373.35	6041.29
376.243	7681.98
379.135	10092.5
382.028	12360.2
384.921	10653
387.813	7106.94
390.706	4737.03
393.599	4216.58
396.491	4708.58
399.384	5488.89
402.277	7117.6
405.17	10646.1
408.062	18168.8
410.955	18157.6
413.848	7255.44
416.74	2309.07
419.633	791.614
422.526	91.3123
425.418	130.055
428.311	186.516
431.204	167.945
434.096	64.5857
436.989	67.1787
439.882	77.0786
442.775	19.0105
445.667	204.26
448.56	151.466
451.453	10.9363
454.345	94.5281
457.238	602.126
460.131	1484.32
463.024	2535.55
465.916	3395.91
468.809	4440
471.702	5958.73
474.594	9610.81
477.487	13401.9
480.38	9536.14
483.272	4872.99
486.165	3710.58
489.058	3004.76
491.95	1721.81
494.843	1394.63
497.736	1610.56
500.629	2630.04
503.521	5008.84
506.414	9916.44
509.307	15331.7
512.199	21232.5
515.092	30503.2
517.985	46795.5
520.877	66523.6
523.77	53456.3
526.663	25707.4
529.556	12037.4
532.448	6303.21
535.341	3570.8
538.234	2190.94
541.126	1387.64
544.019	854.805
546.912	509.195
549.804	289.042
552.697	162.253
555.59	3.21558
558.482	9.00854
561.375	124.453
564.268	71.917
567.161	141.563
570.053	422.389
572.946	1034.68
575.839	1605.81
578.731	2343.7
581.624	3776.09
584.517	5881.72
587.409	5749.94
590.302	2940.12
593.195	1150.55
596.088	478.681
598.98	204.606
601.873	59.4321
604.766	62.823
607.658	2.20264
610.551	27.79
613.444	97.4001
616.337	208.601
619.229	363.681
622.122	615.923
625.015	761.506
627.907	927.178
630.8	1122.29
633.693	1435.87
636.585	1365.1
639.478	792.104
642.371	322.597
645.264	164.37
648.156	84.6389
651.049	11.3237
653.942	59.7505
656.834	40.1287
659.727	69.4026
662.62	17.4395
665.512	18.3625
668.405	0.174316
671.298	18.9736
674.19	34.6423
677.083	36.8518
679.976	21.4829
682.869	67.6611
685.761	52.5615
688.654	60.511
691.547	9.83521
694.439	49.2969
697.332	56.5915
700.225	44.3611
703.117	19.6558
706.01	44.0395
708.903	25.4216
711.795	28.9341
714.688	51.2585
717.581	42.373
720.474	4.40674
723.366	24.0342
726.259	8.6709
729.152	31.3479
732.044	16.4416
734.937	80.6611
737.83	26.2847
740.722	104.119
743.615	172.336
746.508	210.452
749.401	377.5
752.293	599.733
755.186	800.311
758.079	847.101
760.971	703.75
763.864	581.94
766.757	465.78
769.649	397.151
772.542	279.765
775.435	182.767
778.328	161.114
781.22	249.992
784.113	267.84
787.006	392.726
789.898	526.212
792.791	515.408
795.684	759.025
798.577	935.895
801.469	819.334
804.362	476.633
807.255	303.611
810.147	253.947
813.04	226.494
815.933	369.265
818.825	353.241
821.718	304.66
824.611	166.307
827.504	86.5381
830.396	65.2014
833.289	0.803711
836.182	23.062
839.074	31.6409
841.967	0.499512
844.86	23.7632
847.752	6.11939
850.645	34.6182
853.538	47.3035
856.43	26.8274
859.323	40.01
862.216	30.262
865.109	37.2556
868.001	113.573
870.894	81.9807
873.787	142.049
876.679	175.164
879.572	193.445
882.465	133.446
885.357	155.025
888.25	97.6272
891.143	91.2007
894.035	103.885
896.928	113.156
899.821	90.2463
902.714	130.086
905.606	104.287
908.499	98.3171
911.392	104.494
914.284	105.769
917.177	114.8
920.07	93.739
922.962	99.783
925.855	98.7329
928.748	106.003
931.641	140.602
934.533	124.324
937.426	129.538
940.319	82.1738
943.211	120.816
946.104	80.0195
948.997	53.76
951.889	19.1555
954.782	72.0666
957.675	28.24
960.568	17.8311
963.46	40.665
966.353	77.9228
969.246	19.5659
972.138	15.1091
975.031	2.52685
977.924	25.0666
980.817	12
983.709	1.30127
986.602	19.7339
989.495	39.4875
992.387	61.0466
995.28	105.611
998.173	182.346
1001.07	387.756
1003.96	588.606
1006.85	885.531
1009.74	1129.07
1012.64	1078.52
1015.53	709.57
1018.42	399.675
1021.31	164.129
1024.21	77.1511
1027.1	8.8125
1029.99	14.5015
1032.88	63.813
1035.78	180.5
1038.67	326.703
1041.56	584.926
1044.46	824.331
1047.35	1092.41
1050.24	1256.77
1053.13	1212.51
1056.03	1111.11
1058.92	983.271
1061.81	929.95
1064.7	829.23
1067.6	865.096
1070.49	868.94
1073.38	615.307
1076.28	503.474
1079.17	218.031
1082.06	96.656
1084.95	40.563
1087.85	2.02173
1090.74	6.01343
1093.63	13.5837
1096.52	13.346
1099.42	93.1274
1102.31	274.375
1105.2	410.187
1108.1	655.567
1110.99	877.522
1113.88	1453.34
1116.77	1976.56
1119.67	2481.34
1122.56	3049.1
1125.45	3967.11
1128.34	5167.38
1131.24	6770.35
1134.13	8615.81
1137.02	10141.4
1139.91	10778
1142.81	9837.69
1145.7	7952.48
1148.59	5604.05
1151.49	3752.57
1154.38	2453.81
1157.27	1616.9
1160.16	1058.4
1163.06	793.708
1165.95	528.201
1168.84	371.886
1171.73	287.197
1174.63	189.363
1177.52	166.078
1180.41	138.154
1183.31	42.5593
1186.2	59.7647
1189.09	23.4731
1191.98	7.05884
1194.88	9.58374
1197.77	10.8472
1200.66	1.84399
1203.55	5.15771
1206.45	50.8042
1209.34	43.1782
1212.23	6.43359
1215.12	38.1301
1218.02	33.1079
1220.91	0.329346
1223.8	14.4431
1226.7	16.6782
1229.59	8.56006
1232.48	6.52148
1235.37	81.4697
1238.27	118.323
1241.16	49.0151
1244.05	106.056
1246.94	76.0854
1249.84	86.1494
1252.73	50.6941
1255.62	115.015
1258.52	96.886
1261.41	50.3799
1264.3	57.0398
1267.19	12.5
1270.09	41.1555
1272.98	22.8008
1275.87	47.8054
1278.76	0.404785
1281.66	38.7151
