Measurement: Raman, 780 nm, unoriented, Raman Data Processed
Mineral: Epidote
Rruff sample: R040089
Ideal chemistry: Ca_2_Fe^3+^Al_2_(Si_2_O_7_)(SiO_4_)O(OH)
Locality: Grafton County, New Hampshire, USA
Source: University of Arizona Mineral Museum
Description: Dark green coarsely crystalline massive
Measured chemistry: Ca_2.00_(Al_2.36_Fe^3+^_0.64_)[Si_2.00_O_7_][Si_1.00_O_4_]O(OH)
Raman shift (cm-1)	intensity
133.023	0
135.915	22.8084
138.808	207.93
141.701	431.035
144.594	511.918
147.486	644.622
150.379	933.057
153.272	940.1
156.164	854.133
159.057	709.279
161.95	766.032
164.842	667.092
167.735	660.505
170.628	610.625
173.52	581.701
176.413	458.252
179.306	238.207
182.199	42.762
185.091	28.9197
187.984	63.0667
190.877	6.95117
193.769	9.71216
196.662	31.4102
199.555	20.4199
202.447	79.5581
205.34	290.157
208.233	341.834
211.126	268.789
214.018	82.7297
216.911	31.9348
219.804	40.3933
222.696	55.5049
225.589	161.549
228.482	486.958
231.375	943.378
234.267	1318.67
237.16	1619.79
240.053	1619.16
242.945	1742.71
245.838	2027.56
248.731	2299.76
251.623	2241.93
254.516	1571.67
257.409	934.712
260.301	624.304
263.194	646.374
266.087	1007.89
268.98	1626.56
271.872	2468.66
274.765	3759.11
277.658	4133.95
280.55	3039
283.443	1816.64
286.336	1058.51
289.228	703.54
292.121	427.419
295.014	304.427
297.907	248.006
300.799	384.278
303.692	467.332
306.585	560.715
309.477	571.156
312.37	521.738
315.263	418.969
318.156	539.293
321.048	528.883
323.941	504.092
326.834	606.858
329.726	832.642
332.619	1397.22
335.512	1807.26
338.404	1905.02
341.297	1589.88
344.19	1222.74
347.082	1225.64
349.975	1568.92
352.868	1728.93
355.761	1323.08
358.653	861.517
361.546	623.144
364.439	550.107
367.331	663.253
370.224	699.616
373.117	583.808
376.01	332.554
378.902	51.8213
381.795	95.8184
384.688	54.8943
387.58	134.073
390.473	461.31
393.366	675.529
396.258	654.645
399.151	336.868
402.044	50.8391
404.937	197.869
407.829	171.056
410.722	8.67383
413.615	444.666
416.507	1163.13
419.4	2180.66
422.293	3668.69
425.185	5612.21
428.078	6823.73
430.971	6327.02
433.863	5352.89
436.756	4823.29
439.649	5217.64
442.542	6242.82
445.434	7984.02
448.327	9878.23
451.22	11992.4
454.112	13417
457.005	13851
459.898	13431.2
462.791	12512.5
465.683	11345.1
468.576	10025.5
471.469	8318.45
474.361	6645.74
477.254	5355.09
480.147	4286.79
483.039	3353.93
485.932	2793.17
488.825	2313.67
491.717	1899.11
494.61	1614.68
497.503	1512.8
500.396	1601.35
503.288	1811.98
506.181	2205.05
509.074	2290.83
511.966	2046.72
514.859	1557.29
517.752	971.703
520.644	493.486
523.537	182.675
526.43	29.3262
529.323	19.8516
532.215	110.813
535.108	117.352
538.001	98.5345
540.893	7.5387
543.786	42.1359
546.679	155.057
549.572	304.059
552.464	534.3
555.357	881.272
558.25	1508.79
561.142	2407.13
564.035	3614.14
566.928	5486.04
569.82	6788.28
572.713	5263.98
575.606	2860.75
578.499	1617.19
581.391	1221.3
584.284	1217.33
587.177	1344.57
590.069	1671.31
592.962	2085.79
595.855	2422.07
598.747	2997.82
601.64	3649.73
604.533	3899.54
607.426	3498.03
610.318	2710.75
613.211	2086.99
616.104	1630.1
618.996	1182.34
621.889	758.936
624.782	450.228
627.674	275.881
630.567	159.242
633.46	58.6389
636.352	33.1289
639.245	20.8032
642.138	55.3234
645.031	34.4443
647.923	27.433
650.816	19.6811
653.709	76.6183
656.601	197.698
659.494	249.852
662.387	321.27
665.279	336.078
668.172	370.547
671.065	377.194
673.958	401.78
676.85	560.705
679.743	749.562
682.636	945.565
685.528	1217.87
688.421	1428.25
691.314	1464.43
694.207	1267.55
697.099	1072.14
699.992	821.549
702.885	606.669
705.777	451.366
708.67	312.333
711.563	182.148
714.455	127.461
717.348	87.0057
720.241	25.5092
723.134	88.5142
726.026	63.4435
728.919	16.0193
731.812	36.647
734.704	13.0307
737.597	42.8433
740.49	92.8986
743.382	86.6357
746.275	102.265
749.168	94.704
752.061	90.3615
754.953	96.6716
757.846	112.314
760.739	79.5382
763.631	99.199
766.524	92.4661
769.417	77.1999
772.309	69.5048
775.202	71.3998
778.095	49.2024
780.987	50.8825
783.88	59.0102
786.773	25.9364
789.666	9.37927
792.558	20.9467
795.451	34.1545
798.344	30.5191
801.236	8.82825
804.129	16.5295
807.022	25.6373
809.914	28.1313
812.807	32.6718
815.7	17.6046
818.593	4.54187
821.485	54.2127
824.378	35.7632
827.271	114.951
830.163	113.583
833.056	112.033
835.949	121.263
838.841	123.684
841.734	164.135
844.627	196.9
847.519	227.227
850.412	289.43
853.305	469.739
856.198	728.49
859.09	1066.93
861.983	1562.14
864.876	2183.19
867.768	2810.44
870.661	3262.45
873.554	3296.54
876.447	3364.7
879.339	3519.83
882.232	3803.55
885.125	4128.96
888.017	4555.32
890.91	4920.3
893.803	4920.57
896.695	4333.67
899.588	3434.36
902.481	2860.58
905.374	2592.36
908.266	2687.86
911.159	2944.82
914.052	2992.12
916.944	2966.76
919.837	2575.28
922.73	2138.23
925.622	1544.01
928.515	1114.58
931.408	737.304
934.301	464.523
937.193	249.687
940.086	107.668
942.979	25.1124
945.871	38.2349
948.764	19.4115
951.657	59.3787
954.549	207.848
957.442	319.099
960.335	382.639
963.227	402.122
966.12	450.959
969.013	532.091
971.906	740.43
974.798	1206.25
977.691	1842.14
980.584	2587.21
983.476	3080.32
986.369	2844.41
989.262	1985.79
992.154	1169.83
995.047	655.474
997.94	301.301
1000.83	92.985
1003.73	3.02942
1006.62	76.6534
1009.51	87.8585
1012.4	40.4125
1015.3	75.7307
1018.19	240.338
1021.08	450.659
1023.97	594.995
1026.87	674.858
1029.76	665.38
1032.65	637.445
1035.55	723.502
1038.44	875.337
1041.33	1053.21
1044.22	1231.3
1047.12	1277.66
1050.01	1265.93
1052.9	1127.97
1055.79	1014.55
1058.69	852.241
1061.58	775.085
1064.47	658.647
1067.37	534.716
1070.26	614.323
1073.15	796.17
1076.04	1161.91
1078.94	1722.63
1081.83	2438.14
1084.72	3328.48
1087.61	4123.57
1090.51	4467.75
1093.4	3969.68
1096.29	2653
1099.18	1402.61
1102.08	710.652
1104.97	373.283
1107.86	221.661
1110.76	147.943
1113.65	88.697
1116.54	72.3441
1119.43	39.1416
1122.33	32.551
1125.22	11.2676
1128.11	28.3234
1131	6.52386
1133.9	24.4781
1136.79	3.18567
1139.68	8.46429
1142.58	9.73291
1145.47	2.11536
1148.36	6.8717
1151.25	9.4837
1154.15	6.83881
1157.04	18.4507
1159.93	7.61188
1162.82	2.27716
1165.72	14.2881
1168.61	2.125
1171.5	38.7383
1174.39	20.3857
1177.29	6.22513
1180.18	24.8462
1183.07	34.1294
1185.96	39.5304
1188.86	61.2099
1191.75	40.1934
1194.64	33.6131
1197.54	34.6758
1200.43	43.1962
1203.32	28.341
1206.21	40.1408
1209.11	41.9709
1212	40.9958
1214.89	42.2166
1217.79	39.0988
1220.68	20.9775
1223.57	80.7762
1226.46	22.1202
1229.36	41.2745
1232.25	34.4762
1235.14	24.6806
1238.03	36.862
1240.93	1.6077
1243.82	32.7017
1246.71	7.10071
1249.61	7.19369
1252.5	24.4917
1255.39	22.1944
1258.28	11.898
1261.18	2.97635
1264.07	5.90408
1266.96	5.96298
