Measurement: Raman, 514 nm, unoriented, Raman Data Processed
Mineral: Epidote
Rruff sample: R040089
Ideal chemistry: Ca_2_Fe^3+^Al_2_(Si_2_O_7_)(SiO_4_)O(OH)
Locality: Grafton County, New Hampshire, USA
Source: University of Arizona Mineral Museum
Description: Dark green coarsely crystalline massive
Measured chemistry: Ca_2.00_(Al_2.36_Fe^3+^_0.64_)[Si_2.00_O_7_][Si_1.00_O_4_]O(OH)
Raman shift (cm-1)	intensity
111.473	0
115.644	285.344
119.813	138.81
123.981	956.096
128.146	1848.86
132.309	2947.82
136.47	3444
140.63	3649.28
144.787	3534.28
148.942	3125.8
153.096	2568.91
157.247	3854.03
161.396	7041.6
165.544	9081.99
169.689	7116.02
173.833	4568.54
177.974	2804.07
182.114	1640.18
186.251	1106.86
190.387	520.393
194.52	396.156
198.652	334.334
202.782	268.336
206.909	569.278
211.035	83.907
215.159	238.341
219.281	178.101
223.4	172.596
227.518	815.557
231.634	1801.83
235.748	3435.46
239.86	6204.45
243.97	10071.8
248.079	12129.7
252.185	9707.3
256.289	6242.98
260.391	4324.89
264.492	3288.05
268.59	3291.74
272.687	3358.07
276.781	2966
280.874	2662.77
284.964	2882.78
289.053	3397.92
293.14	4443.36
297.225	4588.27
301.308	3291.48
305.389	2094.58
309.468	1508.02
313.545	1308.03
317.62	1570.71
321.693	1860.46
325.765	2428.22
329.834	3250.75
333.902	4532.14
337.967	6387.09
342.031	8546.55
346.093	13175.5
350.153	15343.9
354.21	11836.7
358.267	6762.87
362.321	3633.43
366.373	2041.37
370.423	1162.67
374.471	363.503
378.518	116.312
382.563	168.103
386.605	56.049
390.646	181.588
394.685	44.479
398.722	47.724
402.757	152.742
406.79	145.094
410.821	147.619
414.851	260.589
418.878	1331.23
422.904	3035
426.927	4462.68
430.949	5140.85
434.969	6299.6
438.987	8109.08
443.003	12084.2
447.018	18770.9
451.03	21385.3
455.041	18773.4
459.049	14798.1
463.056	11802.4
467.061	9492.31
471.064	7320.73
475.065	6022.65
479.064	4934.12
483.062	4432.08
487.057	4407.49
491.051	3916.27
495.043	3748.42
499.032	4000.92
503.02	4919.73
507.007	6067.82
510.991	6868.9
514.973	5861.78
518.954	4471.64
522.933	3963.72
526.91	3530.02
530.885	2136.54
534.858	829.293
538.829	305.17
542.799	107.372
546.766	316.557
550.732	510.104
554.696	1182.41
558.658	2580.82
562.618	5639.05
566.576	10435.5
570.533	9481.9
574.488	4216.46
578.44	2159.38
582.391	1861.2
586.341	1923.68
590.288	3007.74
594.233	3735.88
598.177	5595.83
602.119	6914.3
606.059	6045.36
609.997	4436.43
613.933	3326.43
617.868	2526.8
621.801	1637.18
625.731	1013.66
629.66	785.445
633.588	847.261
637.513	456.908
641.437	557.519
645.358	553.42
649.278	675.616
653.196	701.876
657.113	890.374
661.027	996.945
664.94	785.121
668.851	844.229
672.76	790.802
676.667	850.057
680.572	1112.98
684.476	1414.57
688.378	1588.81
692.278	1444.7
696.176	1381.25
700.072	1187.65
703.967	961.779
707.86	752.666
711.751	532.137
715.64	309.187
719.527	226.934
723.413	123.48
727.297	3.92
731.179	96.95
735.059	24.45
738.937	12.285
742.814	4.441
746.689	10.192
750.562	15.737
754.433	95.407
758.303	41.116
762.17	153.893
766.036	78.09
769.901	197.457
773.763	161.121
777.624	0.992
781.482	19.924
785.339	121.867
789.195	130.911
793.048	111.021
796.9	67.855
800.75	21.927
804.598	85.272
808.445	359.962
812.289	210.044
816.132	409.546
819.973	422.507
823.813	588.935
827.65	767.856
831.486	1002.28
835.32	898.201
839.152	1274.63
842.983	1617.68
846.812	1956.34
850.639	1952.58
854.464	2544.53
858.288	3604.1
862.11	4617.19
865.93	6358.81
869.748	8159.02
873.564	9552.27
877.379	11124.7
881.192	12454.3
885.004	12014.6
888.813	11768.1
892.621	11374.6
896.427	9423.96
900.232	7134.83
904.034	5777.86
907.835	5717.19
911.634	5894.17
915.432	5870.68
919.227	4828.64
923.021	3740.03
926.813	2657.31
930.604	2134.2
934.393	1523.21
938.18	1177.25
941.965	1117.73
945.749	968.765
949.53	769.054
953.311	871.748
957.089	880.588
960.866	682.175
964.641	764.996
968.414	942.685
972.185	1289.75
975.955	1762.2
979.723	2629.65
983.49	3248.89
987.254	2872.78
991.017	1951.16
994.779	1202.09
998.538	937.796
1002.3	649.535
1006.05	674.835
1009.81	567.781
1013.56	913.41
1017.31	1091.89
1021.06	1870.57
1024.81	1822.49
1028.55	1778.32
1032.3	1566.9
1036.04	1716.25
1039.78	1638.12
1043.52	1721.96
1047.26	1652.04
1050.99	1817.44
1054.73	1486.73
1058.46	1389.8
1062.19	1304.12
1065.92	1254.52
1069.65	1303.11
1073.37	1411.62
1077.1	1681.57
1080.82	2203.1
1084.54	2811.77
1088.26	3826.06
1091.97	3902.47
1095.69	2600.45
1099.4	1568.94
1103.12	986.27
1106.83	877.123
1110.54	388.738
1114.24	468.342
1117.95	363.197
1121.65	232.465
1125.35	195.711
1129.06	294.973
1132.75	174.182
1136.45	215.023
1140.15	225.414
1143.84	7.221
1147.53	0.48
1151.22	62.842
1154.91	341.01
1158.6	61.41
1162.28	75.404
1165.97	4.021
1169.65	34.857
1173.33	92.025
1177.01	28.285
1180.69	29.832
1184.36	6.549
1188.04	56.307
1191.71	53.324
1195.38	32.416
1199.05	262.393
1202.71	74.242
1206.38	314.471
1210.04	273.699
1213.71	48.613
1217.37	172.197
1221.03	8.561
1224.68	98.248
1228.34	136.637
1231.99	168.559
1235.65	331.062
1239.3	297.111
1242.95	271.752
1246.59	142.016
1250.24	46.893
1253.88	233.379
1257.53	273.482
1261.17	323.215
1264.81	320.586
1268.45	332.902
1272.08	342.438
1275.72	250.969
1279.35	245.252
1282.98	403.012
1286.61	437.635
1290.24	614.064
1293.87	384.938
1297.49	501.275
1301.11	822.205
1304.73	397.613
1308.36	501.08
1311.97	834.842
1315.59	506.5
1319.2	755.643
1322.82	714.92
1326.43	653.455
1330.04	612.375
1333.65	783.133
1337.26	730.428
1340.86	716.449
1344.47	527.473
1348.07	688.943
1351.67	685.537
1355.27	655.932
1358.87	663.629
1362.46	731.402
1366.06	586.455
1369.65	564.352
1373.24	463.475
1376.83	420.365
1380.42	280.191
1384	396.482
1387.59	501.268
1391.17	187.912
1394.75	343.146
1398.33	371.229
1401.91	321.451
1405.49	85.166
1409.06	113.729
1412.64	242.828
1416.21	201.004
1419.78	229.309
1423.35	430.014
1426.91	295.953
1430.48	95.619
1434.05	238.289
1437.61	419.986
1441.17	105.373
1444.73	160.465
1448.29	231.221
1451.84	8.248
1455.4	233.266
1458.95	151.902
1462.5	443.775
1466.05	392.871
1469.6	67.352
1473.15	404.566
1476.69	412.891
1480.24	231.523
1483.78	242.318
1487.32	163.156
1490.86	163.184
1494.39	258.473
1497.93	347.738
1501.46	7.23
1505	0
