Measurement: Raman, 785 nm, unoriented, Raman Data Processed
Mineral: Epidote
Rruff sample: R040092
Ideal chemistry: Ca_2_Fe^3+^Al_2_(Si_2_O_7_)(SiO_4_)O(OH)
Locality: Nahant, Massachusetts, USA
Source: University of Arizona Mineral Museum
Description: Green prismatic crystals imbedded in quartz
Measured chemistry: Ca_2.01_Al_2.00_Fe_1.00_(Si_1.00_O_4_)(Si_1.97_Fe_0.02_Al_0.01_Ti_0.01_O_7_)O(OH)
Raman shift (cm-1)	intensity
127.415	0
130.308	220.292
133.2	200.832
136.093	18.5715
138.986	50.0168
141.878	340.282
144.771	938.849
147.664	1140.59
150.556	985.51
153.449	970.434
156.342	913.401
159.234	1170.06
162.127	1573.37
165.02	2033.92
167.913	2510.3
170.805	2733.69
173.698	2374.52
176.591	1566.71
179.483	1075.28
182.376	880.116
185.269	850.401
188.161	672.297
191.054	289.432
193.947	122.007
196.84	146.03
199.732	232.533
202.625	205.868
205.518	78.7319
208.41	17.0251
211.303	9.58394
214.196	47.062
217.089	223.984
219.981	575.581
222.874	1033.84
225.767	1549.78
228.659	1733.92
231.552	1462.69
234.445	1077.99
237.337	1129.46
240.23	1240.92
243.123	902.277
246.016	400.431
248.908	166.775
251.801	158.212
254.694	185.408
257.586	52.5568
260.479	-20.3436
263.372	38.245
266.264	357.099
269.157	1041.97
272.05	1890
274.942	2246.74
277.835	1547.67
280.728	821.214
283.621	513.505
286.513	358.291
289.406	316.619
292.299	442.974
295.191	595.377
298.084	674.603
300.977	616.891
303.87	653.691
306.762	872.409
309.655	1084.13
312.548	1232.6
315.44	876.877
318.333	409.245
321.226	308.346
324.118	297.805
327.011	252.871
329.904	182.772
332.796	69.9399
335.689	65.4853
338.582	322.76
341.474	787.61
344.367	1530.01
347.26	2037.25
350.153	1986.87
353.045	1384.01
355.938	826.488
358.831	590.841
361.723	557.202
364.616	488.374
367.509	383.003
370.402	182.989
373.294	30.6111
376.187	-17.9875
379.08	-4.33877
381.972	102.37
384.865	238.167
387.758	350.951
390.651	276.478
393.543	79.6636
396.436	33.4912
399.329	10.0915
402.221	4.98644
405.114	19.3477
408.007	48.3599
410.899	263.823
413.792	623.183
416.685	1257.27
419.577	2117.95
422.47	2980.07
425.363	3250.7
428.256	3101.15
431.148	3299.4
434.041	3548.96
436.934	3011.65
439.826	2471.05
442.719	2606.34
445.612	3227.97
448.505	4156.83
451.397	4754.53
454.29	4778.66
457.183	3997.7
460.075	2683.96
462.968	1659.97
465.861	1004.08
468.753	649.6
471.646	396.187
474.539	234.071
477.432	181.285
480.324	172.628
483.217	243.713
486.11	308.072
489.002	396.138
491.895	616.253
494.788	960.02
497.68	1349.29
500.573	1659.37
503.466	1840.41
506.358	1860.25
509.251	1652.1
512.144	1237.52
515.037	880.888
517.929	691.932
520.822	544.354
523.715	385.959
526.607	185.925
529.5	33.9376
532.393	-3.12337
535.285	-0.812337
538.178	30.2077
541.071	87.6755
543.964	282.583
546.856	487.8
549.749	668.806
552.642	889.48
555.534	1434.34
558.427	2255.91
561.32	3334.93
564.212	3843.2
567.105	2778.58
569.998	1888.66
572.891	1655.27
575.783	1762.57
578.676	1965.46
581.569	2198.19
584.461	2446.01
587.354	2602.17
590.247	2764.64
593.139	3163.87
596.032	3540.58
598.925	3329.95
601.817	2704.88
604.71	2141.6
607.603	1851.83
610.496	1635.4
613.388	1394.75
616.281	951.441
619.174	569.824
622.066	270.395
624.959	132.763
627.852	7.16968
630.745	25.0698
633.637	25.2539
636.53	31.1111
639.423	25.9123
642.315	14.7363
645.208	10.1503
648.101	0.09314
650.993	8.28345
653.886	22.389
656.779	59.6461
659.672	112.193
662.564	142.422
665.457	166.958
668.35	204.832
671.242	231.219
674.135	256.019
677.028	334.987
679.92	432.249
682.813	479.463
685.706	573.838
688.598	545.447
691.491	437.442
694.384	303.344
697.277	256.98
700.169	207.481
703.062	138.507
705.955	105.697
708.847	131.649
711.74	113.407
714.633	78.4409
717.525	81.9156
720.418	87.6371
723.311	93.2936
726.204	106.775
729.096	103.703
731.989	120.704
734.882	116.717
737.774	124.769
740.667	129.881
743.56	128.171
746.452	145.296
749.345	149.666
752.238	134.455
755.131	117.952
758.023	138.758
760.916	104.283
763.809	74.6052
766.701	64.5804
769.594	72.7919
772.487	43.7199
775.38	41.2732
778.272	28.3577
781.165	14.3024
784.058	7.13696
786.95	11.1628
789.843	31.1073
792.736	23.0701
795.628	22.8325
798.521	38.0424
801.414	40.0591
804.307	12.6422
807.199	89.6145
810.092	150.064
812.985	230.379
815.877	169.892
818.77	201.303
821.663	228.258
824.555	309.625
827.448	377.279
830.341	364.005
833.234	299.733
836.126	235.698
839.019	148.372
841.912	160.377
844.804	186.721
847.697	254.203
850.59	326.273
853.482	386.299
856.375	433.404
859.268	530.31
862.16	567.265
865.053	625.224
867.946	730.335
870.839	870.613
873.731	990.428
876.624	1187.98
879.517	1451.95
882.409	1663.97
885.302	1738.8
888.195	1674.03
891.087	1578.13
893.98	1557.42
896.873	1615.37
899.766	1884.98
902.658	2411.67
905.551	3137.48
908.444	4171.19
911.336	5226.94
914.229	5650.28
917.122	4998.98
920.014	3618.07
922.907	2383.24
925.8	1515.96
928.693	952.64
931.585	586.021
934.478	280.624
937.371	80.1162
940.263	3.01392
943.156	41.7614
946.049	37.7151
948.942	41.3589
951.834	28.7101
954.727	128.148
957.62	162.069
960.512	146.088
963.405	132.959
966.298	140.524
969.19	249.195
972.083	469.89
974.976	798.711
977.869	1009.5
980.761	920.223
983.654	626.24
986.547	332.261
989.439	223.761
992.332	74.1924
995.225	76.1564
998.117	11.7826
1001.01	28.7157
1003.9	26.5173
1006.79	45.0083
1009.69	6.28857
1012.58	38.668
1015.47	94.293
1018.37	142.953
1021.26	122.001
1024.15	144.462
1027.04	269.429
1029.94	347.597
1032.83	455.909
1035.72	627.251
1038.62	708.496
1041.51	744.777
1044.4	650.671
1047.29	565.323
1050.19	508.961
1053.08	541.536
1055.97	546.987
1058.86	644.687
1061.76	589.999
1064.65	497.782
1067.54	422.945
1070.43	470.203
1073.33	533.644
1076.22	771.045
1079.11	1116.16
1082.01	1541.35
1084.9	1763.79
1087.79	1287.41
1090.68	706.385
1093.58	397.237
1096.47	253.334
1099.36	171.708
1102.26	146.452
1105.15	94.3907
1108.04	79.6172
1110.93	61.2417
1113.83	23.1755
1116.72	44.3364
1119.61	12.7173
1122.5	5.5636
1125.4	25.8795
1128.29	19.0353
1131.18	2.34729
1134.07	39.7098
1136.97	3.45239
1139.86	15.7119
1142.75	21.7101
1145.64	4.19556
1148.54	9.9043
1151.43	9.48596
1154.32	8.55884
1157.22	47.2424
1160.11	21.4545
1163	44.7875
1165.89	31.5371
1168.79	34.2361
1171.68	40.4562
1174.57	15.1633
1177.46	28.8326
1180.36	24.255
1183.25	41.6977
1186.14	29.4955
1189.04	40.4763
1191.93	46.3993
1194.82	7.09985
1197.71	37.6233
1200.61	2.38916
1203.5	5.10925
1206.39	10.6173
1209.28	8.09412
1212.18	36.2427
1215.07	48.5787
1217.96	36.4203
1220.86	73.5469
1223.75	47.8095
1226.64	51.8643
1229.53	44.9111
1232.43	51.0922
1235.32	13.5319
1238.21	17.5095
1241.1	43.4012
1244	46.1919
1246.89	24.5823
1249.78	14.6417
1252.67	36.2921
1255.57	8.70727
