Measurement: Raman, 532 nm, unoriented, Raman Data Processed
Mineral: Epidote
Rruff sample: R110129
Ideal chemistry: Ca_2_Fe^3+^Al_2_(Si_2_O_7_)(SiO_4_)O(OH)
Locality: Quetta, Baluchistan, Pakistan
Source: Jack Lowell
Description: Dark green prismatic crystal
Raman shift (cm-1)	intensity
160.881	0
163.774	0.114803
166.667	2.14504
169.559	3.65022
172.452	4.07363
175.345	4.26166
178.237	1.57773
181.13	0.542732
184.023	0.919636
186.916	4.34584
189.808	5.50157
192.701	6.76971
195.594	8.77252
198.486	14.9992
201.379	18.9175
204.272	17.0723
207.164	10.5365
210.057	7.68542
212.95	7.1181
215.843	9.13922
218.735	11.6493
221.628	16.7083
224.521	20.88
227.413	23.3602
230.306	22.175
233.199	13.4785
236.091	9.85568
238.984	12.584
241.877	12.2422
244.769	8.08333
247.662	0.864185
250.555	1.70624
253.448	1.52774
256.34	8.74472
259.233	21.3824
262.126	31.4204
265.018	45.5731
267.911	64.4679
270.804	91.0545
273.697	115.634
276.589	110.706
279.482	70.7227
282.375	45.6591
285.267	38.6402
288.16	38.7149
291.053	43.6512
293.945	53.3336
296.838	67.7366
299.731	66.2663
302.623	50.3357
305.516	40.8275
308.409	42.0864
311.302	46.3672
314.194	48.5215
317.087	35.2669
319.98	25.446
322.872	20.0207
325.765	17.7764
328.658	14.5901
331.55	8.00986
334.443	2.41765
337.336	0.91827
340.229	1.46232
343.121	1.66792
346.014	1.6732
348.907	4.85969
351.799	7.2656
354.692	9.05913
357.585	9.69928
360.478	12.2188
363.37	14.452
366.263	15.78
369.156	15.0757
372.048	8.43049
374.941	3.43024
377.834	0.176685
380.726	1.10688
383.619	0.579216
386.512	0.132431
389.404	0.540379
392.297	0.496841
395.19	1.5948
398.083	0.464851
400.975	2.55082
403.868	9.48111
406.761	22.0261
409.653	41.2262
412.546	62.3358
415.439	86.6066
418.332	118.84
421.224	156.459
424.117	177.03
427.01	153.839
429.902	121.758
432.795	115.926
435.688	130.537
438.58	155.649
441.473	186.893
444.366	234.582
447.259	290.204
450.151	336.178
453.044	353.719
455.937	323.93
458.829	232.743
461.722	133.398
464.615	72.1785
467.507	41.07
470.4	22.9341
473.293	12.9809
476.185	7.43612
479.078	5.91948
481.971	7.09394
484.864	8.48931
487.756	12.3297
490.649	17.7568
493.542	24.4594
496.434	31.7041
499.327	36.2215
502.22	33.3025
505.113	30.5596
508.005	29.1407
510.898	27.7648
513.791	24.6362
516.683	24.2139
519.576	27.101
522.469	26.7751
525.361	15.3889
528.254	3.97228
531.147	1.01043
534.04	3.53805
536.932	3.42935
539.825	1.78556
542.718	1.15923
545.61	7.94661
548.503	20.2884
551.396	39.7883
554.288	58.5921
557.181	80.4647
560.074	112.382
562.967	148.821
565.859	151.327
568.752	86.3301
571.645	48.5297
574.537	39.559
577.43	42.4987
580.323	53.5425
583.216	67.9135
586.108	84.3233
589.001	95.094
591.894	102.934
594.786	117.682
597.679	126.019
600.572	115.95
603.464	94.0247
606.357	77.3557
609.25	67.797
612.142	62.0673
615.035	47.7337
617.928	33.3738
620.821	20.101
623.713	13.3745
626.606	8.79163
629.499	4.72936
632.391	3.45495
635.284	1.79046
638.177	1.14123
641.069	1.13852
643.962	0.799135
646.855	0.680006
649.747	1.05573
652.64	0.366953
655.533	0.073524
658.426	0.067514
661.318	0.26844
664.211	0.313207
667.104	1.42722
669.996	2.26474
672.889	3.82186
675.782	5.39918
678.674	7.82216
681.567	9.68581
684.46	12.7525
687.353	15.3159
690.245	13.3833
693.138	11.8074
696.031	8.48619
698.923	5.17188
701.816	3.62763
704.709	1.90631
707.601	2.28212
710.494	1.46573
713.387	1.21038
716.28	0.273033
719.172	0.129734
722.065	0.561829
724.958	0.492427
727.85	0.475582
730.743	0.723998
733.636	0.975108
736.529	0.139139
739.421	1.21693
742.314	1.07766
745.207	1.69481
748.099	1.34496
750.992	1.14103
753.885	1.95534
756.777	2.0105
759.67	1.90987
762.563	1.69747
765.456	0.966226
768.348	1.17522
771.241	1.4896
774.134	0.442627
777.026	0.338298
779.919	1.14746
782.812	0.080555
785.704	0.264879
788.597	0.348513
791.49	0.625351
794.383	0.574353
797.275	0.86907
800.168	1.15932
803.061	0.741335
805.953	0.171318
808.846	1.11711
811.739	0.765352
814.631	0.885752
817.524	2.13409
820.417	3.98241
823.309	4.71607
826.202	6.54247
829.095	8.79066
831.988	7.75471
834.88	7.55383
837.773	6.36478
840.666	6.29571
843.558	7.72628
846.451	9.65107
849.344	13.457
852.236	17.5391
855.129	22.2939
858.022	28.3544
860.915	34.5553
863.807	41.1191
866.7	47.0728
869.593	51.0159
872.485	59.7578
875.378	69.0448
878.271	79.2725
881.163	88.6301
884.056	96.0735
886.949	96.1539
889.842	82.3473
892.734	66.3796
895.627	56.3177
898.52	57.0696
901.412	64.8513
904.305	78.724
907.198	95.0869
910.091	109.311
912.983	118.493
915.876	115.411
918.769	97.8086
921.661	70.2235
924.554	44.1561
927.447	25.8777
930.339	14.352
933.232	6.72611
936.125	2.01803
939.018	0.38999
941.91	1.05473
944.803	1.25797
947.696	0.64493
950.588	0.126936
953.481	2.06929
956.374	4.0264
959.266	5.72003
962.159	7.54909
965.052	12.142
967.944	18.4847
970.837	28.4619
973.73	38.9808
976.623	49.8829
979.515	52.2692
982.408	42.6703
985.301	25.7417
988.193	14.9201
991.086	8.0345
993.979	3.51156
996.871	0.254347
999.764	0.200966
1002.66	1.68315
1005.55	0.439152
1008.44	1.67761
1011.34	3.03242
1014.23	5.36081
1017.12	6.51133
1020.01	7.15252
1022.91	9.31729
1025.8	11.2531
1028.69	14.3015
1031.58	21.171
1034.48	29.8136
1037.37	36.3598
1040.26	40.617
1043.15	39.0177
1046.05	33.2559
1048.94	27.6985
1051.83	26.9286
1054.73	26.9705
1057.62	30.1366
1060.51	34.3472
1063.4	34.4537
1066.3	31.7515
1069.19	31.5739
1072.08	36.9877
1074.97	46.8992
1077.87	61.6752
1080.76	75.9296
1083.65	90.9284
1086.55	85.3526
1089.44	56.2718
1092.33	30.6163
1095.22	17.8807
1098.12	11.9762
1101.01	8.21495
1103.9	5.57883
1106.79	4.32274
1109.69	1.91659
1112.58	0.867927
1115.47	0.10951
1118.37	0.19801
1121.26	0.107535
1124.15	0.175921
1127.04	0.424933
1129.94	0.508267
1132.83	0.212306
1135.72	0.500181
1138.61	0.292188
1141.51	0.20174
1144.4	0.33116
1147.29	0.324852
1150.18	0.150041
1153.08	0.458497
1155.97	0.668712
1158.86	0.422977
1161.76	0.396824
1164.65	0.360601
1167.54	0.183024
1170.43	0.754127
1173.33	0.836137
1176.22	0.715137
1179.11	0.594795
1182	0.942955
1184.9	0.612306
1187.79	0.148964
1190.68	1.31304
1193.58	0.855384
1196.47	0.835732
1199.36	1.50893
1202.25	1.75465
1205.15	1.0227
1208.04	0.868672
1210.93	1.32612
1213.82	1.29713
1216.72	1.04304
1219.61	1.36013
1222.5	1.8745
1225.39	0.847518
1228.29	0.363101
1231.18	1.09837
1234.07	0.483957
1236.97	0.901183
1239.86	0.639333
1242.75	0.51172
1245.64	0.374091
1248.54	1.22156
1251.43	0.634059
1254.32	0.241605
1257.21	0.692757
1260.11	0.967221
1263	0.356547
1265.89	1.15918
1268.79	0.514508
1271.68	1.27694
1274.57	0.720912
1277.46	0.551855
1280.36	0.615913
1283.25	0.020814
1286.14	0.981693
1289.03	1.06306
1291.93	0.490429
1294.82	0.481605
1297.71	0.458632
1300.61	0.847658
