Measurement: Raman, 780 nm, unoriented, Raman Data Processed
Mineral: Epididymite
Rruff sample: R110029
Ideal chemistry: Na_2_Be_2_Si_6_O_15_H_2_O
Locality: Mount Malosa, Zomba District, Malawi
Source: Marcus Origlieri
Description: Colorless micaceous blade
Raman shift (cm-1)	intensity
171.119	0
174.012	0.058838
176.904	4.20355
179.797	8.54934
182.69	12.5931
185.582	20.7321
188.475	20.9304
191.368	23.2355
194.261	26.826
197.153	27.0476
200.046	13.8082
202.939	7.17997
205.831	4.5596
208.724	0.56868
211.617	3.82439
214.509	2.03805
217.402	12.5146
220.295	23.6177
223.188	43.6664
226.08	56.559
228.973	70.249
231.866	92.6437
234.758	112.838
237.651	135.553
240.544	147.488
243.436	127.653
246.329	100.206
249.222	88.2699
252.114	80.5001
255.007	75.3218
257.9	73.667
260.793	70.5684
263.685	62.5278
266.578	58.9281
269.471	40.9271
272.363	20.8181
275.256	9.57613
278.149	4.86954
281.041	4.63276
283.934	4.1936
286.827	2.3071
289.719	3.73766
292.612	4.01888
295.505	0.539207
298.398	0.962196
301.29	2.03654
304.183	1.58643
307.076	4.36491
309.968	9.95428
312.861	9.76238
315.754	13.4134
318.647	20.1141
321.539	25.2287
324.432	32.3082
327.325	52.9161
330.217	56.1924
333.11	67.0161
336.003	72.5043
338.895	76.1085
341.788	83.9758
344.681	79.457
347.574	57.9316
350.466	44.1131
353.359	35.5485
356.252	33.7052
359.144	38.3561
362.037	47.196
364.93	58.658
367.822	68.1807
370.715	76.6499
373.608	84.8692
376.5	89.3205
379.393	95.8418
382.286	79.1696
385.179	60.6675
388.071	52.8671
390.964	72.2183
393.857	72.7773
396.749	79.4872
399.642	93.4842
402.535	117.425
405.427	144.162
408.32	120.777
411.213	44.2694
414.106	9.22413
416.998	1.47147
419.891	1.48154
422.784	0.894661
425.676	1.19195
428.569	1.30954
431.462	0.419296
434.354	0.584366
437.247	1.59343
440.14	1.69132
443.033	3.17217
445.925	3.46296
448.818	1.28317
451.711	2.95596
454.603	12.7632
457.496	25.2686
460.389	37.5395
463.281	49.1501
466.174	59.2073
469.067	82.3047
471.959	123.364
474.852	137.954
477.745	92.9822
480.638	43.9275
483.53	31.0486
486.423	25.8796
489.316	20.8996
492.208	19.7602
495.101	31.088
497.994	53.5015
500.887	113.864
503.779	207.417
506.672	254.916
509.565	308.084
512.457	393.017
515.35	511.442
518.243	540.757
521.135	350.84
524.028	156.572
526.921	76.9202
529.813	39.6833
532.706	24.5933
535.599	14.1061
538.492	10.0826
541.384	4.61809
544.277	2.75499
547.17	2.46225
550.062	2.76574
552.955	3.04006
555.848	1.21983
558.74	0.673794
561.633	3.15198
564.526	3.99162
567.418	13.8144
570.311	21.517
573.204	24.8754
576.097	34.1148
578.989	36.9781
581.882	38.2321
584.775	29.8301
587.667	11.3579
590.56	5.51526
593.453	3.1159
596.346	2.44134
599.238	0.763641
602.131	3.01927
605.024	1.12827
607.916	3.04047
610.809	3.96984
613.702	2.24543
616.594	8.38279
619.487	9.18593
622.38	14.6497
625.273	8.31315
628.165	11.1587
631.058	9.86799
633.951	7.30354
636.843	4.9179
639.736	4.20239
642.629	0.014118
645.521	2.36341
648.414	2.1652
651.307	1.93055
654.199	3.69919
657.092	4.26247
659.985	1.67121
662.878	0.380802
665.77	2.00177
668.663	1.29811
671.556	0.738174
674.448	2.89487
677.341	1.24247
680.234	2.97055
683.126	4.11628
686.019	2.06678
688.912	4.02906
691.805	3.71684
694.697	2.07538
697.59	2.59222
700.483	1.26292
703.375	2.83881
706.268	2.93678
709.161	2.71037
712.053	1.87478
714.946	1.30683
717.839	1.82366
720.731	0.003658
723.624	1.48457
726.517	1.16731
729.41	0.619663
732.302	0.688923
735.195	2.66538
738.088	1.95578
740.98	2.50198
743.873	3.38493
746.766	4.67285
749.659	7.82964
752.551	9.33421
755.444	9.05227
758.337	6.31369
761.229	5.17434
764.122	2.8055
767.015	5.92801
769.907	7.14188
772.8	3.83158
775.693	0.866123
778.586	4.12307
781.478	3.75753
784.371	3.71154
787.264	3.32151
790.156	4.80123
793.049	6.57705
795.942	6.6756
798.834	7.25011
801.727	5.02504
804.62	0.246078
807.513	4.94043
810.405	8.78191
813.298	1.75881
816.191	5.43718
819.083	5.14184
821.976	4.51028
824.869	1.50019
827.761	1.27963
830.654	3.25258
833.547	0.597408
836.439	0.191128
839.332	2.27994
842.225	1.97882
845.118	1.57539
848.01	2.81257
850.903	4.89171
853.796	0.412418
856.688	2.094
859.581	3.1862
862.474	2.2346
865.366	0.622665
868.259	1.56803
871.152	3.67556
874.044	3.99307
876.937	3.89616
879.83	2.9659
882.723	0.908543
885.615	1.26738
888.508	4.45027
891.401	1.67992
894.293	1.23965
897.186	3.10278
900.079	2.81095
902.971	1.17646
905.864	1.07335
908.757	0.666275
911.65	1.11348
914.542	2.13187
917.435	1.89248
920.328	2.24974
923.22	2.3367
926.113	0.164673
929.006	2.86505
931.899	5.38575
934.791	4.54791
937.684	0.85693
940.577	1.13517
943.469	2.7954
946.362	0.543625
949.255	1.22554
952.147	0.191872
955.04	1.1264
957.933	0.442673
960.825	1.13502
963.718	0.287201
966.611	3.85611
969.504	4.29131
972.396	2.81241
975.289	5.54912
978.182	4.13537
981.074	1.83367
983.967	1.01598
986.86	3.91155
989.752	1.48973
992.645	3.3694
995.538	2.88118
998.431	7.78921
1001.32	8.14162
1004.22	9.99198
1007.11	10.044
1010	10.0087
1012.89	6.78024
1015.79	4.35427
1018.68	3.21241
1021.57	5.22298
1024.46	2.41664
1027.36	1.88458
1030.25	3.77759
1033.14	5.493
1036.04	4.80971
1038.93	9.98171
1041.82	11.7748
1044.71	13.3397
1047.61	10.536
1050.5	10.2007
1053.39	11.756
1056.29	10.5561
1059.18	10.6549
1062.07	12.0315
1064.96	4.37932
1067.86	4.25376
1070.75	6.78287
1073.64	5.23466
1076.53	1.26649
1079.43	1.89186
1082.32	1.00932
1085.21	0.13784
1088.1	1.13427
1091	1.06133
1093.89	3.42504
1096.78	1.87365
1099.67	2.51679
1102.57	6.65096
1105.46	8.56254
1108.35	11.0138
1111.25	14.1345
1114.14	18.8325
1117.03	22.4421
1119.92	27.8164
1122.82	34.3056
1125.71	46.8697
1128.6	55.1796
1131.49	65.3732
1134.39	68.5361
1137.28	64.5199
1140.17	56.5187
1143.07	41.232
1145.96	31.8028
1148.85	18.5359
1151.74	15.7878
1154.64	7.08307
1157.53	4.56926
1160.42	7.24639
1163.31	0.251556
1166.21	3.7251
1169.1	2.25738
1171.99	2.87182
1174.88	2.09609
1177.78	1.94184
1180.67	1.08628
1183.56	3.0292
1186.46	3.35964
1189.35	0.902046
1192.24	1.5546
1195.13	0.711102
1198.03	3.62545
1200.92	1.29425
1203.81	3.33273
1206.7	2.1082
1209.6	0.448685
1212.49	1.26211
1215.38	2.0929
1218.28	2.1644
1221.17	3.68003
1224.06	2.36702
1226.95	0.499454
1229.85	4.46806
1232.74	0.732208
1235.63	3.37629
1238.53	3.63612
1241.42	3.59584
1244.31	3.77837
1247.2	3.89465
1250.1	3.36613
1252.99	5.46397
1255.88	6.28552
1258.77	5.14889
1261.67	3.23837
1264.56	3.19122
1267.45	1.97756
1270.34	6.15126
1273.24	0.050518
1276.13	5.33436
1279.02	2.65577
1281.91	1.33687
1284.81	0
