Measurement: Raman, 780 nm, unoriented, Raman Data Processed
Mineral: Epidote
Rruff sample: R050191
Ideal chemistry: Ca_2_Fe^3+^Al_2_(Si_2_O_7_)(SiO_4_)O(OH)
Locality: Pampa Blanca, Castrovirreyna Province, Huancavelica Department, Peru
Source: Dave Bunk Minerals
Description: Cluster of green elongated prismatic crystals
Measured chemistry: Ca_2.00_Al_2.00_(Fe^3+^_0.84_Al_0.16_)(SiO_4_)(Si_2_O_7_)O(OH)
Raman shift (cm-1)	intensity
156.123	0
159.016	0.319832
161.909	0.379189
164.801	7.37563
167.694	12.5504
170.587	21.563
173.479	27.9728
176.372	14.5839
179.265	2.87602
182.157	2.77078
185.05	14.8767
187.943	30.4138
190.835	19.197
193.728	4.20009
196.621	5.45044
199.514	18.4524
202.406	31.7058
205.299	38.9308
208.192	45.3096
211.084	56.4287
213.977	69.4769
216.87	93.486
219.762	124.292
222.655	168.979
225.548	212.885
228.441	240.928
231.333	214.52
234.226	166.348
237.119	152.049
240.011	175.871
242.904	209.36
245.797	195.1
248.69	147.784
251.582	116.822
254.475	112.706
257.368	102.409
260.26	76.6081
263.153	52.0175
266.046	40.4963
268.938	44.1338
271.831	60.4402
274.724	76.0682
277.616	60.4981
280.509	30.5965
283.402	21.9583
286.295	25.0446
289.187	37.4096
292.08	56.617
294.973	57.2747
297.865	27.9451
300.758	4.8087
303.651	4.65518
306.543	5.86652
309.436	0.707634
312.329	2.64744
315.221	10.5136
318.114	18.4211
321.007	33.7779
323.9	52.1357
326.792	56.982
329.685	45.1799
332.578	38.0919
335.47	34.3844
338.363	35.6792
341.256	42.075
344.149	59.6379
347.041	79.5346
349.934	87.36
352.827	64.6017
355.719	34.1119
358.612	15.7823
361.505	5.52976
364.397	0.988174
367.29	3.20472
370.183	2.83095
373.075	3.8039
375.968	0.316711
378.861	5.29919
381.754	13.7627
384.646	26.8488
387.539	41.0558
390.432	47.7917
393.324	38.3483
396.217	22.0828
399.11	11.6144
402.002	6.12766
404.895	8.69293
407.788	17.1232
410.681	28.1753
413.573	41.6906
416.466	62.4058
419.359	88.5717
422.251	123.618
425.144	153.41
428.037	151.907
430.93	155.222
433.822	169.982
436.715	170.007
439.608	149.966
442.5	142.99
445.393	165.096
448.286	210.135
451.178	205.44
454.071	140.305
456.964	91.2783
459.856	56.8592
462.749	33.3878
465.642	17.3124
468.535	9.51741
471.427	6.8544
474.32	4.82941
477.213	2.93144
480.105	9.43642
482.998	18.6208
485.891	34.2985
488.783	49.5274
491.676	69.693
494.569	93.3984
497.462	123.264
500.354	146.956
503.247	154.335
506.14	147.381
509.032	140.955
511.925	116.04
514.818	75.599
517.71	46.9382
520.603	33.7405
523.496	23.4309
526.389	9.24707
529.281	0.073738
532.174	5.19512
535.067	6.07499
537.959	3.08919
540.852	1.98569
543.745	9.57389
546.638	24.6995
549.53	46.6594
552.423	69.4701
555.316	91.7483
558.208	126.911
561.101	184.86
563.994	266.216
566.886	271.993
569.779	160.869
572.672	91.0502
575.564	71.769
578.457	74.3958
581.35	89.3078
584.243	111.492
587.135	135.662
590.028	151.625
592.921	170.634
595.813	199.771
598.706	221.157
601.599	201.878
604.491	157.348
607.384	118.793
610.277	95.1334
613.169	79.2476
616.062	58.3469
618.955	39.8321
621.848	23.0262
624.74	14.7698
627.633	8.66605
630.526	5.74609
633.418	3.02858
636.311	0.221272
639.204	0.234859
642.096	0.452003
644.989	0.568405
647.882	0.765217
650.775	0.540154
653.667	0.50951
656.56	0.660194
659.453	0.916958
662.345	1.45956
665.238	2.36776
668.131	3.60641
671.024	5.73259
673.916	6.76328
676.809	10.4042
679.702	12.205
682.594	14.9359
685.487	17.5417
688.38	18.2806
691.272	14.8629
694.165	12.6439
697.058	8.59718
699.951	6.7688
702.843	4.77939
705.736	3.67614
708.629	2.19286
711.521	1.22594
714.414	0.918936
717.307	0.263424
720.199	0.045414
723.092	0.216215
725.985	0.000254
728.877	0.743132
731.77	1.10058
734.663	1.94237
737.556	2.93474
740.448	2.97286
743.341	3.36657
746.234	3.4291
749.126	4.12445
752.019	3.92281
754.912	4.82907
757.804	5.53373
760.697	7.68924
763.59	8.58571
766.482	7.42306
769.375	6.96329
772.268	5.67451
775.161	4.47769
778.053	2.01402
780.946	1.13149
783.839	0.357038
786.731	0.892767
789.624	0.798353
792.517	0.808968
795.409	0.87561
798.302	0.862839
801.195	0.5485
804.088	0.061291
806.98	0.886074
809.873	1.7472
812.766	3.07318
815.658	5.97043
818.551	7.31173
821.444	10.9298
824.337	14.0571
827.229	18.3278
830.122	18.8746
833.015	16.1082
835.907	10.5514
838.8	6.32227
841.693	4.08091
844.585	4.57319
847.478	6.08739
850.371	9.85439
853.264	14.0486
856.156	20.8802
859.049	28.9165
861.942	39.032
864.834	47.1623
867.727	50.5024
870.62	54.9944
873.512	57.9442
876.405	62.5315
879.298	67.1717
882.191	65.0645
885.083	63.4478
887.976	61.9081
890.869	52.1834
893.761	44.1015
896.654	43.9278
899.547	51.3898
902.439	69.0543
905.332	89.865
908.225	120.179
911.117	150.958
914.01	177.63
916.903	180.593
919.796	150.846
922.688	106.554
925.581	69.0674
928.474	42.5017
931.366	24.2703
934.259	12.5992
937.152	3.99862
940.044	0.427288
942.937	1.75965
945.83	1.11326
948.723	0.214237
951.615	2.15421
954.508	4.36478
957.401	6.66279
960.293	7.86723
963.186	7.03253
966.079	8.59905
968.971	10.7665
971.864	16.1423
974.757	21.5049
977.65	30.9886
980.542	34.6715
983.435	27.8948
986.328	15.8435
989.22	8.01257
992.113	2.58236
995.006	0.838535
997.899	1.62046
1000.79	0.911028
1003.68	1.32683
1006.58	0.509546
1009.47	1.11089
1012.36	4.17841
1015.25	7.311
1018.15	10.4713
1021.04	11.6539
1023.93	10.1631
1026.83	7.43449
1029.72	6.59638
1032.61	7.8232
1035.5	8.51307
1038.4	9.60626
1041.29	10.6207
1044.18	12.6488
1047.07	14.3858
1049.97	15.7681
1052.86	18.8764
1055.75	21.2394
1058.64	25.4245
1061.54	25.2991
1064.43	21.2547
1067.32	19.2982
1070.22	19.8292
1073.11	24.0616
1076	32.2715
1078.89	39.7231
1081.79	51.0523
1084.68	58.2516
1087.57	58.8633
1090.46	42.598
1093.36	22.8259
1096.25	12.2823
1099.14	6.03348
1102.04	4.21209
1104.93	3.33728
1107.82	2.05016
1110.71	0.928722
1113.61	1.39835
1116.5	0.778818
1119.39	0.249598
1122.29	0.371464
1125.18	0.5737
1128.07	0.182159
1130.96	0.044107
1133.86	0.121864
1136.75	0.252672
1139.64	0.153036
1142.53	0.714539
1145.43	0.161201
1148.32	0.219301
1151.21	0.134998
1154.1	0.018829
1157	0.790363
1159.89	0.593126
1162.78	0.375584
1165.67	0.282955
1168.57	0.82641
1171.46	0.347799
1174.35	1.5957
1177.25	1.25039
1180.14	1.11625
1183.03	0.886789
1185.92	1.16504
1188.82	1.54517
1191.71	0.870836
1194.6	0.747448
1197.49	0.269697
1200.39	0.629669
1203.28	1.08149
1206.17	1.20327
1209.07	1.46722
1211.96	0.713165
1214.85	0.622297
1217.74	0.744909
1220.64	0.655308
1223.53	0.556358
1226.42	0.440453
1229.31	0.512497
1232.21	0.080797
1235.1	0.261578
1237.99	0.646765
1240.88	0.529139
1243.78	0.403517
1246.67	0.743124
1249.56	0.367905
1252.46	0.221773
1255.35	0.35601
1258.24	0.270639
1261.13	0.27429
1264.03	0.995995
1266.92	0.492402
1269.81	1.08658
1272.7	0.644346
1275.6	0.815933
