Measurement: Raman, 785 nm, unoriented, Raman Data Processed
Mineral: Epididymite
Rruff sample: R060773
Ideal chemistry: Na_2_Be_2_Si_6_O_15_H_2_O
Locality: unknown
Source: Michael Scott
Description: Colorless platy crystals forming a pseudohexagonal aggregate
Raman shift (cm-1)	intensity
155.758	0
158.651	5.39551
161.543	136.644
164.436	365.016
167.329	555.477
170.221	499.112
173.114	412.931
176.007	289.429
178.9	281.402
181.792	294.449
184.685	391.085
187.578	391.169
190.47	575.327
193.363	569.494
196.256	727.129
199.149	679.395
202.041	564.627
204.934	436.084
207.827	282.851
210.719	279.829
213.612	266.57
216.505	254.046
219.397	235.158
222.29	358.586
225.183	373.677
228.076	480.277
230.968	696.458
233.861	995.945
236.754	1434.86
239.646	1775.56
242.539	1586.93
245.432	1169.75
248.324	940.993
251.217	771.971
254.11	820.114
257.002	826.8
259.895	876.346
262.788	828.192
265.681	753.796
268.573	617.293
271.466	323.322
274.359	157.881
277.251	122.831
280.144	183.727
283.037	157.935
285.93	128.813
288.822	34.3945
291.715	112.451
294.608	55.7949
297.5	95.9282
300.393	22.9326
303.286	18.7832
306.178	105.641
309.071	133.876
311.964	104.241
314.856	47.6167
317.749	96.292
320.642	70.2695
323.535	205.407
326.427	282.347
329.32	347.966
332.213	425.677
335.105	482.859
337.998	557.484
340.891	722.956
343.784	928.047
346.676	861.562
349.569	543.264
352.462	419.628
355.354	326.477
358.247	201.077
361.14	283.031
364.032	187.427
366.925	254.156
369.818	334.787
372.711	664.115
375.603	999.062
378.496	1252.65
381.389	1224.34
384.281	803.073
387.174	556.909
390.067	297.039
392.959	175.006
395.852	287.919
398.745	559.222
401.637	1148.33
404.53	1695.08
407.423	2123.37
410.316	1221.29
413.208	388.306
416.101	172.058
418.994	151.621
421.886	50.7656
424.779	10.4341
427.672	8.28613
430.565	72.9009
433.457	28.5273
436.35	34.9609
439.243	25.2002
442.135	14.394
445.028	29.5083
447.921	28.7734
450.813	16.1846
453.706	5.38867
456.599	100.32
459.491	169.69
462.384	177.341
465.277	371.2
468.17	607.718
471.062	975.598
473.955	1451.56
476.848	1323.01
479.74	680.243
482.633	515.125
485.526	455.071
488.418	222.726
491.311	218.04
494.204	212.903
497.097	208.112
499.989	313.196
502.882	405.003
505.775	629.648
508.667	1253.65
511.56	2379.29
514.453	4424.58
517.346	6692.94
520.238	6981.06
523.131	3734.44
526.024	1693.67
528.916	901.162
531.809	524.23
534.702	249.891
537.594	203.985
540.487	146.894
543.38	138.17
546.273	88.293
549.165	22.4404
552.058	5.35498
554.951	48.2983
557.843	65.4477
560.736	47.6191
563.629	2.41748
566.521	33.4424
569.414	53.9136
572.307	82.5727
575.199	218.853
578.092	366.886
580.985	608.744
583.878	677.847
586.77	437.516
589.663	199.305
592.556	71.5757
595.448	95.5786
598.341	28.3657
601.234	13.5049
604.126	0.195801
607.019	3.59033
609.912	26.0332
612.805	107.852
615.697	88.1138
618.59	112.821
621.483	56.6728
624.375	85.0068
627.268	151.268
630.161	128.543
633.053	147.039
635.946	107.054
638.839	93.9917
641.732	49.2876
644.624	15.625
647.517	29.4536
650.41	11.2769
653.302	73.3091
656.195	32.8813
659.088	53.0752
661.981	72.8311
664.873	91.2788
667.766	38.5454
670.659	6.78955
673.551	38.5278
676.444	54.5171
679.337	34.9668
682.229	86.5552
685.122	16.2236
688.015	10.5469
690.908	74.7432
693.8	12.6343
696.693	80.2007
699.586	87.1313
702.478	24.6689
705.371	42.5264
708.264	23.7124
711.156	99.1689
714.049	82.5244
716.942	50.8467
719.835	52.71
722.727	127.664
725.62	81.4648
728.513	57.3218
731.405	95.7266
734.298	58.9956
737.191	109.799
740.083	48.0659
742.976	127.174
745.869	18.4145
748.761	150.971
751.654	130.232
754.547	182.227
757.44	134.069
760.332	141.688
763.225	69.5478
766.118	104.071
769.01	17.1382
771.903	27.0718
774.796	67.6714
777.688	9.56934
780.581	51.7236
783.474	78.2134
786.367	99.9756
789.259	84.3203
792.152	59.5386
795.045	159.415
797.937	103.593
800.83	23.0679
803.723	42.3423
806.615	22.8477
809.508	53.2217
812.401	59.9961
815.294	76.2202
818.186	102.664
821.079	63.2183
823.972	72.9961
826.864	39.6787
829.757	28.5811
832.65	8.16309
835.542	48.9434
838.435	0.985352
841.328	14.2251
844.221	100.48
847.113	36.397
850.006	84.6157
852.899	53.604
855.791	52.9102
858.684	50.1714
861.577	30.4502
864.469	45.271
867.362	68.9219
870.255	53.8071
873.148	12.0977
876.04	49.7754
878.933	75.0469
881.826	96.1123
884.718	112.519
887.611	49.1929
890.504	46.9199
893.396	22.2915
896.289	68.6479
899.182	53.4849
902.074	72.6738
904.967	55.3267
907.86	45.2769
910.753	60.79
913.645	49.6929
916.538	84.917
919.431	13.5425
922.323	84.3037
925.216	41.1001
928.109	0.562988
931.001	47.6118
933.894	129.27
936.787	147.858
939.68	97.0405
942.572	95.5884
945.465	84.7861
948.358	54.5088
951.25	105.153
954.143	118.49
957.036	90.6841
959.928	56.3852
962.821	42.0674
965.714	69.1665
968.607	116.956
971.499	107.415
974.392	122.027
977.285	122.74
980.177	151.329
983.07	129.731
985.963	115.293
988.856	56.9668
991.748	27.1655
994.641	4.09229
997.534	58.2895
1000.43	170.279
1003.32	150.127
1006.21	157.625
1009.1	205.311
1012	153.038
1014.89	164.478
1017.78	90.5928
1020.67	88.3154
1023.57	32.6597
1026.46	22.4038
1029.35	30.7432
1032.25	170.251
1035.14	99.9888
1038.03	153.902
1040.92	187.408
1043.82	177.292
1046.71	191.756
1049.6	204.112
1052.49	229.613
1055.39	168.41
1058.28	137.586
1061.17	102.516
1064.07	94.3623
1066.96	202.281
1069.85	86.8801
1072.74	100.745
1075.64	59.1982
1078.53	21.2739
1081.42	33.6741
1084.32	32.9273
1087.21	6.34521
1090.1	18.3591
1092.99	43.4226
1095.88	52.1626
1098.78	59.9536
1101.67	46.4729
1104.56	85.8259
1107.46	42.4746
1110.35	77.0879
1113.24	149.826
1116.13	135.014
1119.03	186.555
1121.92	185.283
1124.81	266.492
1127.7	379.43
1130.6	525.562
1133.49	640.104
1136.38	682.069
1139.28	675.375
1142.17	523.379
1145.06	420.734
1147.95	299.75
1150.85	112.036
1153.74	99.2
1156.63	62.436
1159.53	45.8557
1162.42	27.3982
1165.31	29.373
1168.2	71.5298
1171.1	52.9336
1173.99	44.1433
1176.88	79.8272
1179.77	26.0361
1182.67	45.7593
1185.56	73.897
1188.45	29.4778
1191.34	96.426
1194.24	118.171
1197.13	89.4414
1200.02	136.552
1202.91	10.739
1205.81	39.1995
1208.7	11.5588
1211.59	81.4365
1214.49	63.178
1217.38	108.175
1220.27	85.4522
1223.16	48.6968
1226.06	93.0486
1228.95	137.017
1231.84	86.8745
1234.73	108.299
1237.63	94.0503
1240.52	53.6204
1243.41	129.323
1246.31	145.348
1249.2	112.145
1252.09	136.776
1254.98	137.1
1257.88	7.50659
1260.77	49.7742
1263.66	20.7527
