Measurement: Raman, 532 nm, unoriented, Raman Data Processed
Mineral: Epidote
Rruff sample: R100148
Ideal chemistry: Ca_2_Fe^3+^Al_2_(Si_2_O_7_)(SiO_4_)O(OH)
Locality: Ethiopia
Source: William W. Pinch
Description: Single dark green prismatic crystal
Raman shift (cm-1)	intensity
141.175	0
144.55	0.730156
147.925	9.97026
151.3	36.6904
154.675	65.7045
158.049	98.359
161.424	120.169
164.799	150.92
168.174	158.246
171.549	131.608
174.924	81.6007
178.298	34.9475
181.673	8.22957
185.048	13.6818
188.423	3.47034
191.798	8.90509
195.173	5.72327
198.547	26.9357
201.922	47.1288
205.297	73.384
208.672	74.225
212.047	42.8995
215.421	34.8478
218.796	54.6713
222.171	64.506
225.546	94.4139
228.921	116.958
232.296	116.472
235.67	84.0907
239.045	85.6351
242.42	114.812
245.795	164.666
249.17	185.397
252.544	136.235
255.919	103.455
259.294	117.465
262.669	136.574
266.044	198.792
269.418	349.901
272.793	538.137
276.168	722.513
279.543	554.86
282.918	254.721
286.293	157.392
289.667	125.237
293.042	122.108
296.417	134.941
299.792	150.477
303.167	170.417
306.541	149.274
309.916	94.4403
313.291	69.4336
316.666	64.7226
320.041	49.7087
323.416	38.1727
326.791	32.1058
330.165	23.4077
333.54	8.49414
336.915	3.05806
340.29	5.17186
343.665	15.2883
347.039	7.71576
350.414	20.2319
353.789	30.7095
357.164	3.77118
360.539	8.81987
363.913	2.02261
367.288	2.45671
370.663	2.30769
374.038	0.529831
377.413	3.32458
380.788	4.68523
384.162	25.6618
387.537	63.0442
390.912	106.42
394.287	119.816
397.662	67.6927
401.036	0.787323
404.411	25.1972
407.786	33.0812
411.161	89.5976
414.536	227.338
417.911	381.631
421.285	659.559
424.66	982.53
428.035	1108.8
431.41	825.378
434.785	601.204
438.159	501.54
441.534	565.31
444.909	687.741
448.284	896.158
451.659	1142.85
455.034	1248.39
458.409	1251.54
461.783	1108.35
465.158	925.881
468.533	692.714
471.908	463.516
475.283	279.701
478.657	163.857
482.032	103.609
485.407	83.7319
488.782	74.3149
492.157	70.2346
495.531	62.4223
498.906	72.7827
502.281	90.8531
505.656	132.241
509.031	147.718
512.406	155.329
515.78	122.363
519.155	121.394
522.53	154.707
525.905	209.768
529.28	148.429
532.654	34.8477
536.029	22.8397
539.404	33.3116
542.779	17.0423
546.154	14.2029
549.529	40.2036
552.903	134.55
556.278	258.326
559.653	412.847
563.028	640.707
566.403	971.312
569.778	1052.63
573.152	556.054
576.527	247.72
579.902	162.817
583.277	177.504
586.652	229.911
590.027	320.605
593.401	429.572
596.776	569.295
600.151	713.439
603.526	762.586
606.901	621.265
610.275	448.297
613.65	316.983
617.025	221.586
620.4	166.844
623.775	91.5953
627.149	60.041
630.524	35.8536
633.899	20.3284
637.274	5.19307
640.649	3.55827
644.024	1.32175
647.398	4.28223
650.773	4.45908
654.148	3.29411
657.523	21.9441
660.898	44.8675
664.273	63.8756
667.647	57.3443
671.022	57.4181
674.397	59.8617
677.772	84.146
681.147	91.8272
684.521	113.002
687.896	131.313
691.271	118.829
694.646	89.3898
698.021	71.6072
701.396	49.0754
704.77	34.3871
708.145	24.0095
711.52	14.8705
714.895	10.1158
718.27	11.3904
721.644	7.99826
725.019	2.65128
728.394	9.63776
731.769	13.624
735.144	11.2703
738.519	9.01909
741.893	15.5638
745.268	17.3385
748.643	16.7037
752.018	28.9555
755.393	30.2908
758.768	18.0232
762.142	24.9852
765.517	22.9661
768.892	24.7831
772.267	16.7383
775.642	14.433
779.016	12.3857
782.391	13.402
785.766	13.4483
789.141	1.30745
792.516	0.237427
795.89	1.98676
799.265	8.87629
802.64	3.73813
806.015	8.74308
809.39	6.5453
812.765	8.91944
816.139	1.76643
819.514	10.945
822.889	16.5669
826.264	22.2804
829.639	36.6171
833.014	50.776
836.388	42.2749
839.763	30.3648
843.138	7.4693
846.513	8.6228
849.888	1.69167
853.263	23.7093
856.637	31.5382
860.012	48.1242
863.387	103.876
866.762	103.167
870.136	138.18
873.511	126.546
876.886	121.841
880.261	105.022
883.636	113.548
887.011	130.542
890.385	155.881
893.76	190.848
897.135	210.506
900.51	270.634
903.885	348.793
907.26	467.971
910.634	607.76
914.009	698.668
917.384	703.111
920.759	615.441
924.134	455.746
927.509	320.558
930.883	221.604
934.258	122.405
937.633	70.5635
941.008	44.6776
944.383	25.6015
947.757	23.5384
951.132	37.1091
954.507	71.8109
957.882	84.2296
961.257	94.7825
964.631	83.6992
968.006	92.3815
971.381	118.231
974.756	172.418
978.131	260.429
981.506	355.898
984.88	350.263
988.255	249.865
991.63	127.855
995.005	61.6387
998.38	22.5102
1001.75	8.11029
1005.13	6.59253
1008.5	19.109
1011.88	11.9956
1015.25	9.18253
1018.63	3.32973
1022	29.5126
1025.38	50.3065
1028.75	72.686
1032.13	109.951
1035.5	163.097
1038.88	223.448
1042.25	270.957
1045.63	301.457
1049	281.807
1052.38	250.916
1055.75	219.356
1059.13	200.635
1062.5	191.589
1065.88	169.202
1069.25	175.608
1072.63	209.396
1076	308.731
1079.38	448.581
1082.75	647.746
1086.12	828.717
1089.5	910.553
1092.88	756.903
1096.25	410.757
1099.62	171.325
1103	86.4058
1106.37	42.304
1109.75	26.9133
1113.12	21.9182
1116.5	12.8341
1119.87	5.3689
1123.25	7.1177
1126.62	7.52855
1130	11.1452
1133.37	4.82814
1136.75	1.65515
1140.12	6.07457
1143.5	1.44602
1146.87	0.676167
1150.25	5.43666
1153.62	0.000744
1157	1.86045
1160.37	0.113937
1163.75	1.17438
1167.12	2.51901
1170.5	4.85855
1173.87	0.724922
1177.24	5.36923
1180.62	3.8147
1183.99	6.63804
1187.37	3.80529
1190.74	3.84482
1194.12	5.57507
1197.49	7.05989
1200.87	9.46307
1204.24	12.5754
1207.62	12.3631
1210.99	4.77061
1214.37	6.09545
1217.74	6.75031
1221.12	5.72365
1224.49	5.16043
1227.87	9.59362
1231.24	8.07143
1234.62	6.67172
1237.99	6.5631
1241.37	4.68196
1244.74	7.66455
1248.12	1.84112
1251.49	1.8722
1254.87	4.56195
1258.24	4.57346
1261.62	3.55388
1264.99	2.10863
1268.37	5.88091
1271.74	6.10924
1275.12	4.04726
1278.49	0.96315
1281.87	0.839695
1285.24	0.130861
1288.61	1.85918
1291.99	4.20094
1295.36	1.1139
1298.74	0.358307
1302.11	0.381481
