Measurement: Raman, 532 nm, unoriented, Raman Data Processed
Mineral: Epidote
Rruff sample: R070205
Ideal chemistry: Ca_2_Fe^3+^Al_2_(Si_2_O_7_)(SiO_4_)O(OH)
Locality: Jebel Shacro, Morocco
Source: Renato and Adriana Pagano
Description: Red-purple prismatic crystals
Measured chemistry: (Ca_1.96_Mn^2+^_0.04_)_Σ=2_(Fe^3+^_0.72_Al_0.22_Mn^3+^_0.06_)_Σ=1_Al_2.00_(Si_2.00_O_7_)(Si_1.00_O_4_)O(OH); OH assumed by stoichiometry, Mn2+ and  Mn3+ splitted by charge balance
Raman shift (cm-1)	intensity
150.182	0
153.074	18.3039
155.967	63.0847
158.86	100.74
161.752	140.375
164.645	214.553
167.538	336.229
170.431	373.644
173.323	312.671
176.216	216.139
179.109	124.349
182.001	66.4396
184.894	42.5306
187.787	45.5933
190.679	38.0558
193.572	5.09436
196.465	17.1528
199.358	24.1966
202.25	10.8136
205.143	15.9769
208.036	0.475891
210.928	18.0409
213.821	17.2056
216.714	4.12128
219.607	38.1253
222.499	99.0442
225.392	161.249
228.285	244.347
231.177	294.024
234.07	340.072
236.963	369.32
239.855	368.533
242.748	344.468
245.641	285.267
248.534	150.688
251.426	83.7134
254.319	64.8813
257.212	82.8975
260.104	94.0638
262.997	125.036
265.89	176.755
268.782	215.417
271.675	237.171
274.568	271.787
277.461	185.024
280.353	81.4887
283.246	33.632
286.139	14.1279
289.031	4.18323
291.924	17.3634
294.817	38.694
297.709	70.8127
300.602	87.8345
303.495	89.7645
306.387	117.937
309.28	203.64
312.173	274.284
315.066	282.278
317.958	263.959
320.851	248.284
323.744	272.351
326.636	299.441
329.529	296.806
332.422	235.901
335.315	204.144
338.207	204.362
341.1	236.854
343.993	406.075
346.885	549.483
349.778	699.032
352.671	712.054
355.563	642.962
358.456	520.961
361.349	415.169
364.241	349.241
367.134	277.94
370.027	199.697
372.92	107.601
375.812	46.788
378.705	21.7906
381.598	15.5939
384.49	28.8458
387.383	38.3047
390.276	55.8918
393.168	30.0857
396.061	8.46942
398.954	6.76232
401.847	7.68408
404.739	9.67585
407.632	19.7924
410.525	69.3675
413.417	156.228
416.31	264.313
419.203	409.334
422.096	593.112
424.988	761.039
427.881	833.153
430.774	976.683
433.666	1170.19
436.559	1319.98
439.452	1329.24
442.344	1302.86
445.237	1333.14
448.13	1542.73
451.022	1722.17
453.915	1792.28
456.808	1799.26
459.701	1580.85
462.593	1231.82
465.486	876.856
468.379	611.254
471.271	434.915
474.164	320.392
477.057	279.331
479.95	269.618
482.842	226.477
485.735	237.159
488.628	249.698
491.52	301.701
494.413	360.966
497.306	400.752
500.198	414.09
503.091	421.533
505.984	375.163
508.877	352.945
511.769	272.926
514.662	182.944
517.555	103.358
520.447	49.2115
523.34	12.8786
526.233	7.16669
529.125	16.4004
532.018	5.04077
534.911	12.882
537.803	15.159
540.696	0.220886
543.589	12.5043
546.482	35.8215
549.374	89.4899
552.267	175.52
555.16	304.025
558.052	464.828
560.945	696.371
563.838	877.78
566.731	852.264
569.623	537.483
572.516	345.245
575.409	313.827
578.301	367.873
581.194	495.717
584.087	588.33
586.979	728.25
589.872	870.045
592.765	1039.1
595.658	1202.45
598.55	1255.8
601.443	1183.27
604.336	1044.1
607.228	936.89
610.121	834.217
613.014	762.178
615.906	587.967
618.799	453.088
621.692	339.34
624.585	224.806
627.477	152.416
630.37	115.685
633.263	85.8264
636.155	66.9216
639.048	54.5718
641.941	46.0762
644.833	41.8865
647.726	23.5104
650.619	11.2945
653.511	23.9453
656.404	2.42285
659.297	4.07275
662.19	3.83405
665.082	14.2541
667.975	2.86151
670.868	0.942688
673.76	2.03226
676.653	34.6556
679.546	43.5217
682.438	54.5894
685.331	70.9904
688.224	74.9162
691.117	73.2123
694.009	61.6689
696.902	53.2343
699.795	41.1037
702.687	29.3668
705.58	38.2657
708.473	17.3655
711.365	14.4342
714.258	21.3312
717.151	3.49207
720.044	20.5922
722.936	9.01349
725.829	3.71127
728.722	1.37164
731.614	3.95633
734.507	17.6183
737.4	2.18671
740.293	7.85059
743.185	2.33344
746.078	3.70728
748.971	16.2317
751.863	28.0614
754.756	15.2126
757.649	29.3048
760.541	32.8353
763.434	23.815
766.327	12.4868
769.22	30.1372
772.112	25.037
775.005	23.544
777.898	11.5471
780.79	4.36319
783.683	21.3228
786.576	8.93173
789.468	17.0547
792.361	0.100861
795.254	19.0017
798.146	3.17578
801.039	1.36005
803.932	4.61316
806.825	12.7932
809.717	2.85998
812.61	0.496399
815.503	9.07037
818.395	18.6987
821.288	28.199
824.181	40.2742
827.073	54.3332
829.966	96.3163
832.859	104.776
835.752	128.807
838.644	143.116
841.537	176.331
844.43	239.531
847.322	303.051
850.215	377.681
853.108	478.823
856.001	616.761
858.893	736.738
861.786	829.801
864.679	871.708
867.571	885.291
870.464	924.617
873.357	1092.49
876.25	1370.68
879.142	1730.68
882.035	2015.47
884.928	2239.21
887.82	2164.07
890.713	1886.12
893.606	1514.87
896.498	1188.58
899.391	1082.33
902.284	1052.72
905.177	1115.47
908.069	1281.21
910.962	1424.74
913.855	1492.13
916.747	1480.72
919.64	1255.47
922.533	996.935
925.425	666.632
928.318	450.18
931.211	307.805
934.104	196.52
936.996	110.549
939.889	66.1222
942.782	12.5453
945.674	18.9288
948.567	12.9333
951.46	13.4429
954.352	18.2588
957.245	7.16248
960.138	11.7876
963.03	24.1706
965.923	13.5554
968.816	38.0977
971.709	105.202
974.601	157.205
977.494	195.307
980.387	172.057
983.279	141.107
986.172	64.426
989.065	35.8514
991.957	9.16846
994.85	1.31238
997.743	14.1286
1000.64	66.8586
1003.53	128.394
1006.42	172.758
1009.31	190.773
1012.21	168.762
1015.1	152.532
1017.99	161.473
1020.88	107.492
1023.78	47.5248
1026.67	43.2651
1029.56	38.8373
1032.45	31.5598
1035.35	38.4383
1038.24	30.9323
1041.13	52.1473
1044.03	22.5544
1046.92	9.67517
1049.81	30.2028
1052.7	7.92389
1055.6	15.386
1058.49	18.0153
1061.38	40.7101
1064.28	37.0618
1067.17	51.929
1070.06	84.3398
1072.95	116.823
1075.85	188.227
1078.74	285.463
1081.63	384.617
1084.52	418.389
1087.42	356.807
1090.31	232.525
1093.2	141.276
1096.1	75.723
1098.99	43.5867
1101.88	34.9749
1104.77	18.4945
1107.67	15.2553
1110.56	1.00855
1113.45	12.3557
1116.34	12.2025
1119.24	17.0299
1122.13	19.6692
1125.02	19.7588
1127.91	27.678
1130.81	13.6462
1133.7	37.8352
1136.59	14.9285
1139.48	0.793945
1142.38	11.3446
1145.27	5.64731
1148.16	15.2188
1151.06	15.4889
1153.95	1.93494
1156.84	0.649994
1159.73	11.916
1162.63	10.6334
1165.52	2.85815
1168.41	13.3992
1171.31	26.2118
1174.2	43.8429
1177.09	29.1596
1179.98	4.33636
1182.88	26.1051
1185.77	35.2308
1188.66	17.4975
1191.55	24.7102
1194.45	24.0885
1197.34	39.0699
1200.23	15.3651
1203.12	29.3656
1206.02	7.46085
1208.91	14.1372
1211.8	8.70163
1214.69	7.67899
1217.59	17.6304
1220.48	21.5887
1223.37	22.978
1226.27	6.29275
1229.16	3.22159
1232.05	8.17743
1234.94	21.5905
1237.84	13.9904
1240.73	21.7367
1243.62	20.2422
1246.52	16.9029
1249.41	18.3926
1252.3	20.8715
1255.19	11.1483
1258.09	15.7026
1260.98	13.3756
1263.87	16.2526
1266.76	17.9081
1269.66	13.3716
1272.55	21.6649
1275.44	10.1751
1278.34	24.1838
1281.23	19.2825
1284.12	31.5804
1287.01	18.3558
1289.91	21.4477
1292.8	4.23712
1295.69	18.8551
1298.58	24.9732
1301.48	19.8507
1304.37	0.045471
