Measurement: Raman, 532 nm, unoriented, Raman Data Processed
Mineral: Epidote
Rruff sample: R040089
Ideal chemistry: Ca_2_Fe^3+^Al_2_(Si_2_O_7_)(SiO_4_)O(OH)
Locality: Grafton County, New Hampshire, USA
Source: University of Arizona Mineral Museum
Description: Dark green coarsely crystalline massive
Measured chemistry: Ca_2.00_(Al_2.36_Fe^3+^_0.64_)[Si_2.00_O_7_][Si_1.00_O_4_]O(OH)
Raman shift (cm-1)	intensity
133.627	0
136.519	4.60352
139.412	308.711
142.305	414.101
145.197	558.19
148.09	749.257
150.983	884.443
153.875	961.613
156.768	813.223
159.661	757.765
162.554	777.986
165.446	766.548
168.339	676.997
171.232	774.839
174.124	743.042
177.017	546.505
179.91	217.5
182.803	56.8899
185.695	90.3938
188.588	90.7722
191.481	56.4985
194.373	40.3809
197.266	35.3247
200.159	63.1645
203.051	192.528
205.944	352.204
208.837	413.84
211.729	246.873
214.622	75.0415
217.515	17.2439
220.407	114.106
223.3	85.7439
226.193	291.956
229.086	598.56
231.978	983.926
234.871	1334.59
237.764	1427.51
240.656	1431.13
243.549	1621.3
246.442	1950.61
249.334	2187.39
252.227	1937.43
255.12	1186.7
258.013	609.983
260.905	488.949
263.798	602.155
266.691	985.515
269.583	1642.65
272.476	2737.11
275.369	3888.86
278.262	3509.72
281.154	2006.85
284.047	1055.12
286.94	578.958
289.832	455.605
292.725	459.491
295.618	340.078
298.51	420.635
301.403	507.767
304.296	641.01
307.188	638.354
310.081	548.179
312.974	343.382
315.867	398.146
318.759	507.705
321.652	422.927
324.545	325.975
327.437	303.504
330.33	569.624
333.223	964.551
336.115	1408.9
339.008	1232.56
341.901	954.67
344.794	818.01
347.686	1064.65
350.579	1483.52
353.472	1473.73
356.364	1036.62
359.257	592.594
362.15	412.839
365.043	434.076
367.935	476.666
370.828	496.66
373.721	315.834
376.613	47.8557
379.506	126.052
382.399	214.732
385.291	125.276
388.184	136.889
391.077	409.025
393.969	582.976
396.862	547.128
399.755	181.505
402.648	41.856
405.54	155.633
408.433	44.4582
411.326	237.738
414.218	790.038
417.111	1606.49
420.004	2878.83
422.897	4783.19
425.789	6880.41
428.682	7776.44
431.575	6768.44
434.467	5707.51
437.36	5420.18
440.253	5961.6
443.145	7118.64
446.038	8932.99
448.931	10959.3
451.824	13228.7
454.716	14207.2
457.609	14209.7
460.502	13477.9
463.394	12438.3
466.287	11096.3
469.18	9579.29
472.072	7874.1
474.965	6061.64
477.858	4693.92
480.75	3665.88
483.643	2945.96
486.536	2476.82
489.429	2119.3
492.321	1757.77
495.214	1509.4
498.107	1407.67
500.999	1578.2
503.892	1826.89
506.785	2162.43
509.678	2205.76
512.57	1974.93
515.463	1515.61
518.356	900.196
521.248	392.058
524.141	202.78
527.034	76.1925
529.926	77.4916
532.819	129.718
535.712	146.888
538.604	83.5697
541.497	2.48377
544.39	121.608
547.283	226.191
550.175	510.379
553.068	948.928
555.961	1438.17
558.853	2186.5
561.746	3278.16
564.639	5276.61
567.531	7952.09
570.424	8762.05
573.317	5514.62
576.21	2770.17
579.102	1800.02
581.995	1581.22
584.888	1689.71
587.78	2131.46
590.673	2633.43
593.566	3411.91
596.458	4262.54
599.351	5376.19
602.244	6394.15
605.136	6478.31
608.029	5454.1
610.922	4198.81
613.815	3211.51
616.707	2562.07
619.6	1806.37
622.493	1224.67
625.385	745.368
628.278	484.95
631.171	307.324
634.063	151.771
636.956	82.7051
639.849	12.7311
642.742	38.3301
645.634	70.8164
648.527	47.5809
651.42	9.14587
654.312	108.029
657.205	175.79
660.098	259.513
662.99	343.135
665.883	343.389
668.776	353.392
671.669	347.058
674.561	380.878
677.454	472.087
680.347	574.408
683.239	740.95
686.132	921.581
689.025	989.737
691.918	974.656
694.81	884.08
697.703	728.601
700.596	578.268
703.488	490.689
706.381	341.148
709.274	218.78
712.166	153.854
715.059	92.3534
717.952	43.9023
720.845	53.5579
723.737	54.3748
726.63	32.2233
729.523	22.6082
732.415	20.2482
735.308	43.7899
738.201	55.2806
741.093	103.822
743.986	116.17
746.879	93.4655
749.771	116.532
752.664	137.341
755.557	150.556
758.45	143.814
761.342	134.434
764.235	116.004
767.128	144.103
770.02	123.531
772.913	104.015
775.806	83.812
778.698	84.621
781.591	56.7837
784.484	44.4886
787.377	19.246
790.269	21.0538
793.162	34.2621
796.055	35.6615
798.947	6.69037
801.84	43.439
804.733	11.2951
807.625	38.8911
810.518	15.1776
813.411	25.7841
816.304	28.975
819.196	8.44299
822.089	38.5059
824.982	72.1134
827.874	109.901
830.767	108.737
833.66	150.377
836.552	158.516
839.445	146.622
842.338	140.219
845.231	158.791
848.123	213.683
851.016	278.155
853.909	436.57
856.801	751.837
859.694	1239.61
862.587	1592
865.479	2128.93
868.372	2765.09
871.265	2993.96
874.158	2984.9
877.05	3132.62
879.943	3454.95
882.836	3824.27
885.728	4395.47
888.621	4925.15
891.514	5372.75
894.406	5270.72
897.299	4550.11
900.192	3694.29
903.085	3181.82
905.977	3136.52
908.87	3399.23
911.763	3796.51
914.655	3954.86
917.548	3717.92
920.441	3262.81
923.333	2644.4
926.226	1912.85
929.119	1381.69
932.011	971.659
934.904	612.74
937.797	342.579
940.69	168.602
943.582	81.4622
946.475	9.08569
949.368	5.61084
952.26	123.394
955.153	257.953
958.046	403.69
960.938	463.655
963.831	467.371
966.724	501.9
969.617	548.877
972.509	798.075
975.402	1208.01
978.295	1902.95
981.187	2669.05
984.08	3001.78
986.973	2520.08
989.865	1625.3
992.758	884.724
995.651	427.486
998.544	149.045
1001.44	24.123
1004.33	90.9398
1007.22	102.899
1010.11	120.227
1013.01	52.7938
1015.9	60.9723
1018.79	291.729
1021.68	492.164
1024.58	715.427
1027.47	851.378
1030.36	788.838
1033.26	813.268
1036.15	975.172
1039.04	1164.17
1041.93	1450.57
1044.83	1569.28
1047.72	1608.07
1050.61	1506.9
1053.51	1273.6
1056.4	1105.18
1059.29	974.858
1062.18	825.701
1065.08	745.845
1067.97	713.233
1070.86	831.875
1073.75	1153.41
1076.65	1756.4
1079.54	2522.01
1082.43	3580.61
1085.33	4770.61
1088.22	5830.89
1091.11	6219.14
1094	5179.2
1096.89	3183.6
1099.79	1621.22
1102.68	847.486
1105.57	473.619
1108.47	287.546
1111.36	207.36
1114.25	158.56
1117.14	117.433
1120.04	69.2488
1122.93	54.3449
1125.82	64.0801
1128.71	27.6146
1131.61	32.184
1134.5	25.1433
1137.39	35.58
1140.29	33.218
1143.18	0.126648
1146.07	17.8344
1148.96	0.986084
1151.86	23.7257
1154.75	9.35584
1157.64	40.9967
1160.54	4.17609
1163.43	21.6313
1166.32	19.2363
1169.21	10.8973
1172.11	21.5831
1175	8.81213
1177.89	19.2293
1180.78	17.0953
1183.68	23.0292
1186.57	17.5868
1189.46	37.578
1192.35	33.4579
1195.25	59.3764
1198.14	51.9181
1201.03	43.9281
1203.92	58.8463
1206.82	51.9895
1209.71	90.0933
1212.6	56.0356
1215.5	46.4976
1218.39	46.8911
1221.28	42.9983
1224.17	40.5161
1227.07	50.3824
1229.96	36.7506
1232.85	22.8071
1235.74	32.5945
1238.64	33.9303
1241.53	39.8533
1244.42	34.7373
1247.32	7.53665
1250.21	22.7266
1253.1	26.551
1255.99	21.2485
1258.89	11.0353
1261.78	18.2065
1264.67	25.5384
1267.57	16.5202
1270.46	17.5534
1273.35	3.0856
1276.24	15.4316
1279.13	7.98648
1282.03	28.5531
1284.92	15.7333
