Measurement: Raman, 780 nm, unoriented, Raman Data Processed
Mineral: Epidote
Rruff sample: R100129
Ideal chemistry: Ca_2_Fe^3+^Al_2_(Si_2_O_7_)(SiO_4_)O(OH)
Locality: Pakistan-Afganistan
Source: William W. Pinch
Description: Dark green cut gemstone
Raman shift (cm-1)	intensity
122.907	0
126.282	11.4455
129.657	21.4865
133.032	13.6296
136.406	2.22357
139.781	2.0345
143.156	4.11629
146.531	15.5261
149.906	12.9265
153.281	20.274
156.655	35.0696
160.03	71.4206
163.405	127.597
166.78	206.562
170.155	307.928
173.53	400.185
176.904	284.372
180.279	143.216
183.654	68.196
187.029	35.1199
190.404	13.9189
193.778	1.4301
197.153	0.476929
200.528	14.1311
203.903	26.239
207.278	12.0533
210.652	1.74341
214.027	0.859009
217.402	14.6237
220.777	43.6651
224.152	100.949
227.526	203.107
230.901	305.794
234.276	281.779
237.651	257.077
241.026	293.853
244.401	284.155
247.775	154.543
251.15	46.4224
254.525	27.2034
257.9	0.447952
261.275	9.43445
264.649	6.2357
268.024	16.9202
271.399	68.812
274.774	152.867
278.149	126.42
281.524	52.3219
284.898	34.7486
288.273	29.1732
291.648	33.4203
295.023	54.4544
298.398	51.8995
301.772	46.7686
305.147	44.5124
308.522	64.6479
311.897	68.0128
315.272	69.7054
318.647	53.4901
322.021	58.2337
325.396	90.756
328.771	123.224
332.146	143.268
335.521	136.357
338.895	131.408
342.27	197.166
345.645	353.734
349.02	514.342
352.395	450.333
355.769	259.995
359.144	144.56
362.519	105.425
365.894	96.122
369.269	89.6239
372.644	42.8532
376.018	14.3363
379.393	1.67839
382.768	3.54266
386.143	25.4911
389.518	51.9593
392.892	41.6418
396.267	12.9378
399.642	2.29703
403.017	10.0264
406.392	6.32764
409.767	0.278946
413.141	19.7645
416.516	48.7923
419.891	90.9972
423.266	164.253
426.641	223.244
430.015	292.546
433.39	459.507
436.765	579.931
440.14	478.469
443.515	379.729
446.889	409.581
450.264	503.343
453.639	546.778
457.014	539.549
460.389	407.058
463.764	235.201
467.138	127.67
470.513	72.9537
473.888	42.5113
477.263	30.101
480.638	29.3262
484.012	33.9616
487.387	38.942
490.762	52.8107
494.137	74.6654
497.512	116.314
500.887	160.227
504.261	170.699
507.636	182.83
511.011	169.649
514.386	97.5684
517.761	47.5759
521.135	27.3403
524.51	15.9173
527.885	4.28332
531.26	3.65898
534.635	3.28273
538.01	5.36812
541.384	3.14821
544.759	5.5641
548.134	13.4002
551.509	28.6289
554.884	49.9107
558.258	93.8524
561.633	191.934
565.008	365.804
568.383	292.803
571.758	136.33
575.132	97.2113
578.507	107.099
581.882	145.312
585.257	207.947
588.632	261.244
592.006	288.849
595.381	364.054
598.756	429.085
602.131	386.558
605.506	301.661
608.881	270.53
612.255	269.476
615.63	212.972
619.005	128.578
622.38	73.0998
625.755	40.7832
629.129	22.345
632.504	14.6584
635.879	9.10582
639.254	4.73395
642.629	1.62997
646.004	0.949371
649.378	0.469971
652.753	1.404
656.128	1.23386
659.503	0.620171
662.878	0.998962
666.252	0.673256
669.627	1.58812
673.002	4.70555
676.377	7.8319
679.752	14.0515
683.126	23.2427
686.501	29.4482
689.876	31.8707
693.251	24.7582
696.626	17.7843
700	15.0718
703.375	11.148
706.75	9.58095
710.125	6.7611
713.5	3.88049
716.875	1.42098
720.249	5.20871
723.624	2.65739
726.999	2.65806
730.374	1.95325
733.749	4.56612
737.124	7.26744
740.498	4.72629
743.873	7.02902
747.248	6.45092
750.623	4.60382
753.998	8.2536
757.372	8.78543
760.747	8.83053
764.122	5.71954
767.497	4.53146
770.872	5.11402
774.246	5.44082
777.621	4.15115
780.996	3.19038
784.371	1.25463
787.746	0.402519
791.12	0.3274
794.495	0.365654
797.87	0.091164
801.245	2.41586
804.62	1.05759
807.995	0.690491
811.369	1.73108
814.744	1.32831
818.119	2.32886
821.494	4.61128
824.869	8.73264
828.244	10.1143
831.618	14.3613
834.993	14.9513
838.368	12.5297
841.743	14.9508
845.118	21.1648
848.492	29.8215
851.867	42.9139
855.242	66.8405
858.617	103.544
861.992	150.071
865.366	193.309
868.741	186.775
872.116	184.553
875.491	229.971
878.866	311.553
882.24	422.984
885.615	544.358
888.99	585.764
892.365	455.486
895.74	319.85
899.115	261.828
902.489	267.554
905.864	323.484
909.239	414.719
912.614	534.29
915.989	625.94
919.364	575.883
922.738	400.058
926.113	248.533
929.488	149.422
932.863	86.3821
936.237	47.997
939.612	25.1176
942.987	11.0366
946.362	6.26592
949.737	4.0178
953.112	2.47773
956.486	4.29504
959.861	0.432556
963.236	1.78669
966.611	4.87526
969.986	8.95217
973.361	22.634
976.735	45.2705
980.11	65.7159
983.485	53.4502
986.86	25.5454
990.235	8.87325
993.609	0.267418
996.984	1.7205
1000.36	2.44253
1003.73	1.54703
1007.11	3.40863
1010.48	16.1949
1013.86	31.7654
1017.23	59.6042
1020.61	79.7355
1023.98	61.2991
1027.36	33.1501
1030.73	22.7993
1034.11	20.5512
1037.48	18.1194
1040.86	21.9267
1044.23	21.8446
1047.61	19.9992
1050.98	15.5533
1054.36	14.5921
1057.73	12.5088
1061.11	9.81969
1064.48	9.43982
1067.86	6.03953
1071.23	10.1209
1074.61	20.1034
1077.98	32.6924
1081.35	56.6751
1084.73	90.5661
1088.1	96.5
1091.48	59.6382
1094.85	24.9075
1098.23	14.2296
1101.6	9.63109
1104.98	5.50246
1108.35	2.22748
1111.73	2.96627
1115.1	0.702904
1118.48	0.813313
1121.85	0.806927
1125.23	0.323353
1128.6	2.57971
1131.98	3.38739
1135.35	0.887859
1138.73	0.257954
1142.1	1.39864
1145.48	0.329136
1148.85	1.57679
1152.23	1.02531
1155.6	0.865505
1158.97	2.21046
1162.35	3.00784
1165.72	1.63211
1169.1	4.68465
1172.47	3.86071
1175.85	3.239
1179.22	1.79927
1182.6	1.48206
1185.97	1.33686
1189.35	2.70645
1192.72	2.99344
1196.1	3.88174
1199.47	2.83645
1202.85	2.09475
1206.22	4.51939
1209.6	2.51379
1212.97	1.48027
1216.35	2.05985
1219.72	3.39972
1223.1	1.65408
1226.47	1.91174
1229.85	1.80231
1233.22	1.23726
1236.6	1.4921
1239.97	0.688141
1243.35	1.99087
1246.72	2.78966
1250.1	0.829224
1253.47	0.802242
1256.85	0.19223
1260.22	2.29401
1263.59	2.73902
1266.97	1.04761
1270.34	2.58657
1273.72	2.44504
1277.09	1.36835
1280.47	1.39495
1283.84	0.29314
