Measurement: Raman, 785 nm, unoriented, Raman Data Processed
Mineral: Epidote
Rruff sample: R050064
Ideal chemistry: Ca_2_Fe^3+^Al_2_(Si_2_O_7_)(SiO_4_)O(OH)
Locality: East Xichang City, Meigu County, Sichuan Province, China
Source: Rock Currier
Description: Green prismatic crystals
Measured chemistry: (Ca_1.99_Mn_0.01_)_Î£=2_Fe^3+^_1.00_Al_2.00_(Si_2.00_O_7_)(Si_1.00_O_4_)O(OH);
Raman shift (cm-1)	intensity
143.679	0
146.572	57.0332
149.464	129.501
152.357	177.707
155.25	240.205
158.142	435.452
161.035	822.877
163.928	1162.82
166.821	1457.58
169.713	1478.36
172.606	1502.77
175.499	1252.14
178.391	808.438
181.284	477.091
184.177	295.928
187.069	187.983
189.962	125.022
192.855	68.718
195.748	158.944
198.64	131.082
201.533	199.816
204.426	162.577
207.318	18.7731
210.211	3.08052
213.104	7.41178
215.996	14.967
218.889	65.3429
221.782	219.714
224.674	479.589
227.567	832.251
230.46	1179.01
233.353	1274.99
236.245	1427.57
239.138	1824.38
242.031	2174.85
244.923	1720.1
247.816	928.524
250.709	418.502
253.601	265.43
256.494	182.709
259.387	89.0994
262.28	6.26147
265.172	39.2545
268.065	110.788
270.958	250.368
273.85	479.132
276.743	660.064
279.636	507.834
282.529	399.739
285.421	405.293
288.314	411.241
291.207	566.665
294.099	693.901
296.992	554.55
299.885	340.605
302.777	187.778
305.67	165.524
308.563	273.218
311.455	491.04
314.348	662.679
317.241	592.299
320.134	582.385
323.026	772.186
325.919	1175.05
328.812	1481.14
331.704	1459.39
334.597	1301.69
337.49	1185.85
340.382	1393.92
343.275	1962.55
346.168	2783.06
349.061	3444.84
351.953	3046.19
354.846	2009.76
357.739	1283.07
360.631	987.742
363.524	950.382
366.417	988.117
369.31	850.741
372.202	454.877
375.095	160.182
377.988	7.96252
380.88	34.65
383.773	36.3899
386.666	149.357
389.558	285.613
392.451	316.988
395.344	163.668
398.236	10.5201
401.129	-3.49737
404.022	10.5306
406.915	-1.65355
409.807	68.7776
412.7	206.537
415.593	389.531
418.485	570.181
421.378	890.167
424.271	1317.65
427.163	1553.95
430.056	1883.6
432.949	2670.07
435.842	3184.94
438.734	2836.31
441.627	2636.93
444.52	3052.52
447.412	3997.53
450.305	4744.73
453.198	4882.07
456.091	4462.94
458.983	3360.2
461.876	2020.27
464.769	1108.1
467.661	625.62
470.554	349.429
473.447	189.746
476.339	150.809
479.232	151.339
482.125	211.063
485.017	312.28
487.91	463.481
490.803	660.917
493.696	977.263
496.588	1439.02
499.481	1684.91
502.374	1516.84
505.266	1284.51
508.159	1244.34
511.052	980.063
513.944	596.939
516.837	384.488
519.73	271.079
522.623	246.087
525.515	129.274
528.408	43.2029
531.301	6.61777
534.193	-7.84299
537.086	5.74167
539.979	-6.88583
542.871	14.5996
545.764	95.2698
548.657	202.239
551.55	372.245
554.442	584.769
557.335	950.51
560.228	1470.4
563.12	2228.91
566.013	2386.09
568.906	1552.42
571.798	945.36
574.691	788.497
577.584	839.164
580.477	965.083
583.369	1301.32
586.262	1537.74
589.155	1624.41
592.047	1812.85
594.94	2109.15
597.833	2263.83
600.726	2047.19
603.618	1731.57
606.511	1555.73
609.404	1537.79
612.296	1485.96
615.189	1114.82
618.082	689.451
620.974	378.383
623.867	207.996
626.76	93.0391
629.653	58.1517
632.545	29.2299
635.438	7.62195
638.331	6.35974
641.223	10.6312
644.116	4.89496
647.009	0.416077
649.901	18.355
652.794	4.53662
655.687	0.740173
658.58	17.4439
661.472	9.2417
664.365	26.8743
667.258	60.29
670.15	71.6771
673.043	98.2108
675.936	135.526
678.828	183.23
681.721	248.787
684.614	314.953
687.506	368.314
690.399	351.132
693.292	250.526
696.185	190.268
699.077	154.761
701.97	111.808
704.863	82.5159
707.755	56.6454
710.648	48.9997
713.541	34.9144
716.433	26.7502
719.326	27.8586
722.219	22.0992
725.112	27.3267
728.004	41.5473
730.897	35.2221
733.79	27.8659
736.682	28.9101
739.575	29.2762
742.468	44.8466
745.361	46.7918
748.253	39.1456
751.146	51.6827
754.039	41.9908
756.931	37.833
759.824	35.2412
762.717	63.6541
765.609	21.3475
768.502	34.1557
771.395	29.4891
774.288	34.1638
777.18	22.7436
780.073	3.26465
782.966	7.70642
785.858	5.28268
788.751	7.74448
791.644	2.61417
794.536	9.32758
797.429	17.5567
800.322	13.2654
803.215	0.559418
806.107	14.8607
809	2.45453
811.893	9.77698
814.785	15.4467
817.678	24.0919
820.571	42.3149
823.463	67.045
826.356	117.824
829.249	140.61
832.141	144.482
835.034	135.101
837.927	148.073
840.82	196.018
843.712	254.955
846.605	331.456
849.498	485.414
852.39	681.846
855.283	934.784
858.176	1307.19
861.068	1628.78
863.961	1893.55
866.854	1998.14
869.747	2073.89
872.639	2355.24
875.532	2914.22
878.425	3730.6
881.317	4598.08
884.21	5302.06
887.103	5242.31
889.995	4281.59
892.888	3092.71
895.781	2255.93
898.674	1810.34
901.566	1658.64
904.459	1756.49
907.352	2026.51
910.244	2456.31
913.137	2900.49
916.03	2992.38
918.923	2506.36
921.815	1795.65
924.708	1184.36
927.601	755.546
930.493	483.127
933.386	300.254
936.279	194.221
939.171	84.5584
942.064	53.9894
944.957	15.8176
947.85	0.25238
950.742	25.5162
953.635	31.45
956.528	16.1657
959.42	25.3293
962.313	2.10565
965.206	18.9859
968.098	56.3931
970.991	172.123
973.884	278.615
976.777	430.001
979.669	522.251
982.562	420.954
985.455	248.668
988.347	135.282
991.24	63.2302
994.133	18.6391
997.025	0.081909
999.918	7.72632
1002.81	19.4369
1005.7	53.7241
1008.6	141.192
1011.49	260.924
1014.38	459.47
1017.27	637.608
1020.17	627.699
1023.06	449.402
1025.95	238.922
1028.85	137.281
1031.74	91.2203
1034.63	75.3826
1037.52	55.9207
1040.42	61.9116
1043.31	60.1142
1046.2	49.7925
1049.09	34.6984
1051.99	30.7261
1054.88	60.5872
1057.77	86.5201
1060.66	80.0159
1063.56	81.3781
1066.45	73.7529
1069.34	60.3047
1072.24	121.422
1075.13	180.307
1078.02	288.995
1080.91	420.211
1083.81	611.349
1086.7	556.975
1089.59	377.779
1092.48	188.904
1095.38	113.053
1098.27	42.2071
1101.16	36.0333
1104.06	32.7272
1106.95	2.45447
1109.84	4.17612
1112.73	3.09701
1115.63	8.82129
1118.52	2.224
1121.41	0.787018
1124.3	10.1213
1127.2	19.7902
1130.09	0.838776
1132.98	7.88748
1135.88	6.67606
1138.77	3.84769
1141.66	5.72839
1144.55	2.87457
1147.45	7.26517
1150.34	0.354218
1153.23	2.25418
1156.12	5.01175
1159.02	15.7766
1161.91	15.2765
1164.8	20.3833
1167.69	7.14108
1170.59	3.69369
1173.48	16.0771
1176.37	5.91129
1179.27	17.8909
1182.16	24.9664
1185.05	22.0492
1187.94	14.8582
1190.84	17.9381
1193.73	4.15851
1196.62	8.37329
1199.51	8.26736
1202.41	11.0205
1205.3	16.3926
1208.19	12.6973
1211.09	6.48425
1213.98	9.2384
1216.87	6.25299
1219.76	3.43124
