Measurement: Raman, 514 nm, unoriented, Raman Data Processed
Mineral: Epidote
Rruff sample: R050303
Ideal chemistry: Ca_2_Fe^3+^Al_2_(Si_2_O_7_)(SiO_4_)O(OH)
Locality: San Martin mine, Zacatecas, Mexico
Source: Eugene Schlepp
Description: Green elongated prismatic crystals
Measured chemistry: Ca_2.00_Al_2.00_(Fe^3+^_0.97_Al_0.03_)(SiO_4_)(Si_2_O_7_)O(OH)
Raman shift (cm-1)	intensity
64.059	0
68.253	13.501
72.445	285.595
76.635	1111.51
80.823	3206.88
85.009	7423.36
89.193	13824
93.375	11755.9
97.554	6888.27
101.732	2924.15
105.908	2089.86
110.082	1308.6
114.254	1222.69
118.424	1203.21
122.592	749.321
126.758	1297.45
130.922	3134.13
135.083	1723
139.243	519.854
143.401	10.082
147.557	137.542
151.711	181.774
155.863	280.433
160.013	1639.67
164.161	3966.59
168.308	8222.37
172.452	12226.1
176.594	7745.84
180.734	3775.66
184.872	3026.61
189.008	2091.69
193.143	880.334
197.275	823.079
201.405	1368.03
205.534	1105.17
209.66	577.508
213.784	872.021
217.907	2261.8
222.027	4852.26
226.146	8621.15
230.263	9432.5
234.377	7226.11
238.49	7285.93
242.601	7636.5
246.709	4395.79
250.816	3262.35
254.921	3546.76
259.024	2198.79
263.125	933.342
267.224	1192.31
271.321	3101.53
275.416	4539.12
279.51	1630.86
283.601	391.78
287.69	725.824
291.778	1654.94
295.863	1399.1
299.947	873.247
304.029	528.356
308.108	487.235
312.186	534.947
316.262	608.723
320.336	1193.85
324.408	1472.92
328.478	917.759
332.546	1036.36
336.612	2117.71
340.677	3651.8
344.739	7715.63
348.799	11327.2
352.858	7751.41
356.915	3481.36
360.969	1207.99
365.022	248.295
369.073	365.826
373.122	625.993
377.169	486.641
381.215	380.549
385.258	1869.49
389.299	3124.36
393.339	2214.1
397.376	1047.03
401.412	449.829
405.446	553.589
409.478	1200.15
413.508	2171.93
417.536	4092.14
421.562	7270.65
425.586	10448.6
429.609	14766.6
433.629	22669.5
437.648	16773.2
441.665	11524.9
445.68	11823.3
449.693	14624.5
453.704	14168.4
457.713	10103
461.721	5599.24
465.726	3194.96
469.73	2139.17
473.731	1116.84
477.731	551.113
481.729	657.871
485.725	1174.01
489.72	2282.5
493.712	4555.33
497.703	7171.48
501.691	7895.94
505.678	8294.69
509.663	7425.7
513.646	4123.98
517.627	2497.49
521.607	1431.21
525.584	603.141
529.56	189.443
533.534	55.931
537.506	30.988
541.476	145.667
545.444	493.369
549.41	1077
553.375	2148.95
557.337	4838.21
561.298	9798.31
565.257	10903.8
569.214	5661.12
573.17	4112.65
577.123	5450.52
581.075	8140.23
585.024	11671.5
588.972	14542.3
592.918	18960.9
596.863	23114
600.805	19612.6
604.746	15294.5
608.685	14291.3
612.621	13959
616.557	10842.5
620.49	6565.62
624.421	4083.07
628.351	2827.1
632.279	2074.24
636.205	1533.38
640.129	1345.68
644.051	1044.4
647.972	826.67
651.89	616.466
655.807	529.779
659.722	464.598
663.636	366.912
667.547	375.71
671.457	341.981
675.365	406.717
679.271	431.907
683.175	439.088
687.077	317.844
690.978	122.488
694.877	131.63
698.774	44.44
702.669	46.63
706.562	20.026
710.454	2.217
714.344	116.79
718.232	66.223
722.118	60.113
726.002	125.5
729.885	39.353
733.766	87.793
737.645	67.522
741.522	35.73
745.397	50.292
749.271	54.096
753.143	76.118
757.013	21.625
760.881	13.652
764.748	47.06
768.613	4.499
772.476	28.119
776.337	138.959
780.196	131.104
784.054	204.578
787.91	222.435
791.764	238.687
795.616	305.356
799.467	381.463
803.316	471.016
807.163	605.026
811.008	818.503
814.851	999.457
818.693	1325.9
822.533	1905.84
826.371	2569.29
830.208	2883.27
834.042	2785.78
837.875	2719.87
841.706	2753.57
845.536	2968.62
849.363	3201.24
853.189	3760.63
857.013	4907.88
860.836	5738.67
864.656	6284.77
868.475	6332.53
872.292	6872.92
876.108	8014.98
879.922	10030.5
883.733	11360.1
887.544	11006.7
891.352	10121.6
895.159	10760.4
898.964	12802.7
902.767	16642.4
906.568	22790.3
910.368	31896.8
914.166	39080.9
917.962	33894.8
921.757	22588.8
925.55	14211.3
929.341	9206.91
933.13	6354.93
936.918	4528.65
940.703	3496.57
944.488	2748.24
948.27	2482.5
952.051	2275.96
955.83	2448.62
959.607	2262.52
963.383	1925.65
967.156	1809.04
970.928	1822.68
974.699	2315.61
978.468	2480.82
982.234	1945.47
986	1270.2
989.763	862.317
993.525	638.387
997.285	535.632
1001.04	544.938
1004.8	459.831
1008.55	596.239
1012.31	1080.13
1016.06	1523.58
1019.81	1420.17
1023.56	1109.01
1027.31	1005.7
1031.05	1281.34
1034.79	1482.03
1038.53	1712.3
1042.27	1564.55
1046.01	1360.61
1049.75	1094.69
1053.48	988.024
1057.22	1099.29
1060.95	1163.18
1064.68	994.688
1068.4	1034.74
1072.13	1417.36
1075.86	2253.44
1079.58	4314.92
1083.3	7706.8
1087.02	7337.01
1090.74	3978.36
1094.45	1808.24
1098.17	932.035
1101.88	583.537
1105.59	454.1
1109.3	243.505
1113.01	201.39
1116.71	146.258
1120.42	156.567
1124.12	193.797
1127.82	165.187
1131.52	59.689
1135.22	33.687
1138.91	7.521
1142.61	60.167
1146.3	44.202
1149.99	53.413
1153.68	60.216
1157.37	117.138
1161.06	7.699
1164.74	54.572
1168.42	28.284
1172.1	76.726
1175.78	99.544
1179.46	106.009
1183.14	178.216
1186.81	184.155
1190.48	153.799
1194.15	199.947
1197.83	205.49
1201.49	216.654
1205.16	188.58
1208.82	166.083
1212.49	189.577
1216.15	158.553
1219.81	166.708
1223.46	151.754
1227.12	104.058
1230.78	78.868
1234.43	128.505
1238.08	52.182
1241.73	11.443
1245.38	44.297
1249.03	10.718
1252.67	44.324
1256.31	19.738
1259.95	87.569
1263.6	56.341
1267.23	112.628
1270.87	64.724
1274.51	65.141
1278.14	64.716
1281.77	75.311
1285.4	135.089
1289.03	84.032
1292.66	125.123
1296.28	100.288
1299.91	29.843
1303.53	33.045
1307.15	54.486
1310.77	22.424
1314.38	14.687
1318	28.54
1321.61	30.343
1325.23	76.736
1328.84	18.78
1332.45	58.581
1336.06	26.453
1339.66	82.814
1343.27	24.7
1346.87	47.104
1350.47	58.062
1354.07	237.584
1357.67	204.702
1361.26	199.632
1364.86	262.839
1368.45	212.9
1372.04	167.929
1375.63	190.069
1379.22	153.181
1382.81	186.083
1386.39	211.801
1389.98	247.222
1393.56	207.188
1397.14	193.414
1400.72	244.912
1404.3	194.45
1407.87	253.128
1411.45	256.567
1415.02	321.012
1418.59	241.127
1422.16	241.647
1425.73	236.18
1429.29	196.848
1432.86	266.074
1436.42	284.317
1439.98	188.534
1443.54	212.198
1447.1	307.499
1450.66	204.93
1454.21	219.342
1457.77	341.159
1461.32	315.301
1464.87	263.521
1468.42	274.322
1471.96	216.695
1475.51	230.496
1479.06	238.39
1482.6	216.394
1486.14	202.053
1489.68	122.333
1493.22	172.576
1496.75	198.6
1500.29	68.062
1503.82	142.414
1507.35	112.764
1510.88	84.014
1514.41	60.801
1517.94	73.696
1521.46	82.52
