Measurement: Raman, 780 nm, unoriented, Raman Data Processed
Mineral: Epidote
Rruff sample: R050303
Ideal chemistry: Ca_2_Fe^3+^Al_2_(Si_2_O_7_)(SiO_4_)O(OH)
Locality: San Martin mine, Zacatecas, Mexico
Source: Eugene Schlepp
Description: Green elongated prismatic crystals
Measured chemistry: Ca_2.00_Al_2.00_(Fe^3+^_0.97_Al_0.03_)(SiO_4_)(Si_2_O_7_)O(OH)
Raman shift (cm-1)	intensity
108.915	0
112.29	1.22884
115.665	5.75792
119.04	12.0741
122.415	25.0741
125.79	44.2185
129.164	77.0132
132.539	108.511
135.914	64.82
139.289	24.9723
142.664	9.96502
146.038	6.38902
149.413	0.102535
152.788	2.47374
156.163	0.915787
159.538	0.418037
162.912	4.61149
166.287	8.93497
169.662	13.1573
173.037	15.6546
176.412	11.6485
179.786	7.76065
183.161	9.14925
186.536	12.2143
189.911	10.8416
193.286	5.55453
196.661	8.69583
200.035	14.0488
203.41	18.6576
206.785	20.5175
210.16	22.5986
213.535	28.0353
216.91	34.3516
220.284	50.086
223.659	66.9398
227.034	76.9571
230.409	70.5623
233.784	51.4792
237.158	47.2923
240.533	52.9802
243.908	51.4057
247.283	35.7904
250.658	26.8319
254.032	22.8694
257.407	18.7161
260.782	10.1476
264.157	6.69446
267.532	6.16926
270.907	9.93778
274.281	16.0016
277.656	13.4264
281.031	7.21669
284.406	6.25036
287.781	11.2476
291.156	18.4257
294.53	17.5736
297.905	7.67285
301.28	0.20303
304.655	1.94195
308.029	1.63362
311.404	0.301678
314.779	3.33108
318.154	7.74706
321.529	13.9016
324.904	18.6073
328.278	16.8458
331.653	13.3776
335.028	12.4284
338.403	12.3341
341.778	15.8932
345.152	22.6613
348.527	26.4062
351.902	20.4044
355.277	10.5854
358.652	4.26809
362.027	1.50575
365.401	0.975574
368.776	1.79902
372.151	0.731884
375.526	1.50196
378.901	4.05319
382.276	7.98515
385.65	12.7668
389.025	17.2794
392.4	15.8873
395.775	9.54815
399.15	5.37223
402.524	5.57314
405.899	8.23957
409.274	11.2039
412.649	15.4032
416.024	22.8838
419.399	32.9675
422.773	42.6097
426.148	47.2788
429.523	45.9447
432.898	51.8176
436.273	48.845
439.647	41.7
443.022	41.9004
446.397	51.4549
449.772	60.6054
453.147	46.218
456.522	24.882
459.896	11.5603
463.271	5.41267
466.646	2.57639
470.021	0.55072
473.396	0.373535
476.77	0.212864
480.145	2.53558
483.52	7.02067
486.895	14.3832
490.27	21.6361
493.644	31.8952
497.019	42.0893
500.394	45.8561
503.769	41.7954
507.144	36.1764
510.519	32.0928
513.893	20.2461
517.268	12.4082
520.643	6.91219
524.018	4.95775
527.393	0.859875
530.767	0.143379
534.142	1.19756
537.517	1.14316
540.892	0.52651
544.267	3.66108
547.641	9.94506
551.016	16.9464
554.391	25.0897
557.766	38.9933
561.141	58.6537
564.516	72.0608
567.89	51.0537
571.265	28.5692
574.64	20.4568
578.015	23.1445
581.39	28.4579
584.764	35.1745
588.139	40.1119
591.514	44.3425
594.889	51.7058
598.264	52.015
601.639	44.4832
605.013	33.1827
608.388	26.1833
611.763	20.7284
615.138	15.8677
618.513	9.68191
621.888	5.84825
625.262	3.33087
628.637	2.00159
632.012	0.84384
635.387	0.551411
638.761	0.193316
642.136	0.010883
645.511	0.363268
648.886	0.048023
652.261	0.159475
655.636	0.195223
659.01	0.581724
662.385	0.587004
665.76	0.528881
669.135	1.4151
672.51	1.97037
675.885	2.55295
679.259	3.04977
682.634	3.93299
686.009	4.48547
689.384	4.28599
692.759	3.42504
696.133	1.79987
699.508	1.41513
702.883	1.09148
706.258	1.20831
709.633	0.579005
713.007	0.283832
716.382	0.137294
719.757	0.734266
723.132	0.414037
726.507	0.942507
729.881	0.405727
733.256	0.686591
736.631	0.040746
740.006	0.279384
743.381	0.352677
746.756	0.614723
750.13	0.699665
753.505	0.656245
756.88	0.780309
760.255	0.110538
763.63	0.538973
767.005	0.043402
770.379	0.030968
773.754	0.052375
777.129	0.004651
780.504	0.176966
783.879	0.166203
787.253	0.045462
790.628	0.119156
794.003	0.069995
797.378	0.026451
800.753	0.181629
804.128	0.170782
807.502	0.153649
810.877	0.785713
814.252	0.906179
817.627	2.03837
821.002	2.77308
824.376	4.34619
827.751	5.74246
831.126	4.54888
834.501	4.01521
837.876	3.07351
841.25	2.08891
844.625	2.1837
848	3.34642
851.375	5.00596
854.75	7.10601
858.125	9.39714
861.499	12.2593
864.874	14.9023
868.249	16.1902
871.624	17.7179
874.999	20.3967
878.374	22.5101
881.748	22.0554
885.123	20.0723
888.498	15.9437
891.873	13.9303
895.248	12.7965
898.622	14.2759
901.997	18.6518
905.372	24.7554
908.747	31.836
912.122	37.104
915.496	38.1023
918.871	30.3704
922.246	19.3135
925.621	11.6804
928.996	6.57404
932.37	3.26887
935.745	1.35735
939.12	0.63455
942.495	0.006023
945.87	0.099586
949.245	0.294285
952.619	0.090362
955.994	1.35748
959.369	1.64993
962.744	1.94544
966.119	1.95669
969.494	3.07713
972.868	4.97444
976.243	6.17791
979.618	6.49375
982.993	5.15222
986.368	2.28855
989.742	1.17769
993.117	0.478344
996.492	0.059559
999.867	0.527586
1003.24	0.136871
1006.62	0.744249
1009.99	1.02098
1013.37	1.78739
1016.74	2.73896
1020.12	2.33668
1023.49	1.83065
1026.87	1.37843
1030.24	1.62095
1033.62	1.69562
1036.99	1.93891
1040.37	2.27714
1043.74	2.11655
1047.11	2.50286
1050.49	2.87702
1053.86	3.82571
1057.24	5.01849
1060.61	5.29994
1063.99	4.52751
1067.36	4.53648
1070.74	5.49614
1074.11	6.74898
1077.49	9.28696
1080.86	11.4535
1084.24	13.1931
1087.61	10.2093
1090.99	5.81315
1094.36	3.08615
1097.74	1.64277
1101.11	0.830111
1104.49	0.558441
1107.86	0.318698
1111.24	0.074687
1114.61	0.132297
1117.98	0.281389
1121.36	0.253871
1124.73	0.275644
1128.11	0.133306
1131.48	0.18111
1134.86	0.091341
1138.23	0.072893
1141.61	0.370557
1144.98	0.091976
1148.36	0.24442
1151.73	0.326527
1155.11	0.284321
1158.48	0.150565
1161.86	0.277083
1165.23	0.259301
1168.61	0.58351
1171.98	0.553945
1175.36	0.181011
1178.73	0.151783
1182.11	0.192518
1185.48	0.512091
1188.86	0.463231
1192.23	0.686742
1195.61	0.526598
1198.98	0.443649
1202.36	0.332202
1205.73	0.444812
1209.11	0.520308
1212.48	0.599085
1215.86	0.761541
1219.23	0.533874
1222.61	0.353014
1225.98	0.085001
1229.35	0.486191
1232.73	0.535318
1236.1	0.33874
1239.48	0.542348
1242.85	0.158118
1246.23	0.356699
1249.6	0.524248
1252.98	0.255016
1256.35	0.374546
1259.73	0.14103
1263.1	0.652574
1266.48	0.219444
1269.85	0.278679
1273.23	0.390061
1276.6	0.306785
1279.98	0.156537
1283.35	0.439505
