Measurement: Raman, 532 nm, unoriented, Raman Data Processed
Mineral: Epidote
Rruff sample: R050202
Ideal chemistry: Ca_2_Fe^3+^Al_2_(Si_2_O_7_)(SiO_4_)O(OH)
Locality: Iron Cap mine, Landsman Camp, Graham County, Arizona, USA
Source: Bob Downs
Description: Green colored prismatic single crystal associated with quartz, diopside and tremolite
Measured chemistry: Ca_2.00_Al_2.00_(Fe^3+^_0.68_Al_0.32_)(SiO_4_)(Si_2_O_7_)O(OH)
Raman shift (cm-1)	intensity
150.183	0
153.076	3.47583
155.968	32.6185
158.861	58.9724
161.754	103.865
164.647	152.671
167.539	196.78
170.432	181.417
173.325	151.7
176.217	83.0145
179.11	21.8744
182.003	11.0355
184.895	1.50891
187.788	28.0718
190.681	45.7256
193.573	1.39197
196.466	18.9568
199.359	1.59082
202.252	55.978
205.144	100.79
208.037	112.364
210.93	106.752
213.822	105.202
216.715	137.385
219.608	197.693
222.5	262.77
225.393	357.466
228.286	447.967
231.179	481.322
234.071	413.805
236.964	317.441
239.857	274.522
242.749	298.781
245.642	376.658
248.535	410.916
251.428	387.53
254.32	336.261
257.213	304.825
260.106	271.617
262.998	242.992
265.891	244.865
268.784	319.166
271.676	506.146
274.569	773.686
277.462	831.345
280.354	477.929
283.247	211.538
286.14	105.139
289.033	76.5543
291.925	70.5536
294.818	68.4124
297.711	72.566
300.603	88.1151
303.496	103.137
306.389	93.0249
309.281	91.2063
312.174	107.424
315.067	133.942
317.96	160.879
320.852	156.01
323.745	134.016
326.638	134.184
329.53	125.469
332.423	113.998
335.316	98.0072
338.209	92.2653
341.101	80.4017
343.994	99.7272
346.887	159.394
349.779	218.029
352.672	213.139
355.565	136.389
358.457	64.1216
361.35	14.1848
364.243	8.29541
367.135	12.589
370.028	21.2506
372.921	30.5564
375.814	22.3341
378.706	11.1818
381.599	21.7361
384.492	48.683
387.384	104.006
390.277	167.267
393.17	189.071
396.062	119.487
398.955	39.0449
401.848	0.031616
404.741	4.63538
407.633	43.6318
410.526	125.488
413.419	240.549
416.311	417.015
419.204	663.872
422.097	1023.48
424.99	1401.46
427.882	1490.57
430.775	1214.07
433.668	930.639
436.56	775.99
439.453	713.197
442.346	722.563
445.238	802.179
448.131	943.073
451.024	1129.84
453.916	1189.46
456.809	1171.93
459.702	1116.1
462.595	991.28
465.487	838.968
468.38	661.184
471.273	472.643
474.165	297.847
477.058	165.112
479.951	61.8187
482.844	19.1543
485.736	19.025
488.629	30.0154
491.522	49.5555
494.414	66.228
497.307	104.56
500.2	151.646
503.092	235.447
505.985	312.434
508.878	359.323
511.771	362.348
514.663	326.719
517.556	293.768
520.448	315.675
523.341	364.05
526.234	350.648
529.127	219.98
532.019	75.8002
534.912	3.94019
537.805	28.1509
540.697	29.2341
543.59	15.6924
546.483	20.2767
549.375	77.8767
552.268	182.252
555.161	306.502
558.054	466.149
560.946	720.746
563.839	1119.72
566.732	1502.42
569.625	1392.81
572.517	785.158
575.41	404.96
578.303	300.948
581.195	318.932
584.088	412.036
586.981	541.306
589.873	711.648
592.766	898.553
595.659	1130.18
598.552	1371.89
601.444	1502.65
604.337	1422.98
607.23	1173.27
610.122	944.753
613.015	762.801
615.908	613.016
618.8	461.329
621.693	344.728
624.586	249.615
627.479	182.917
630.371	124.89
633.264	82.814
636.157	51.2328
639.049	24.5096
641.942	2.89087
644.835	9.77124
647.727	9.02832
650.62	13.7196
653.513	0.866821
656.405	13.8712
659.298	27.9916
662.191	45.4847
665.084	56.8279
667.976	63.1653
670.869	64.59
673.762	79.6505
676.654	90.6501
679.547	109.338
682.44	127.067
685.332	145.441
688.225	144.321
691.118	127.915
694.011	93.882
696.903	65.958
699.796	57.7076
702.689	43.7801
705.581	30.4056
708.474	15.1166
711.367	14.5933
714.259	9.67798
717.152	3.63562
720.045	7.27307
722.938	7.55139
725.83	7.76721
728.723	4.21362
731.616	5.94324
734.508	22.4795
737.401	25.8882
740.294	31.2389
743.186	39.5388
746.079	39.6213
748.972	49.8083
751.865	54.7305
754.757	64.0159
757.65	77.8066
760.543	91.4944
763.435	110.137
766.328	126.962
769.221	122.211
772.113	111.288
775.006	88.0924
777.899	59.5339
780.792	33.5866
783.684	19.9694
786.577	9.82983
789.47	2.67004
792.362	5.41931
795.255	12.1334
798.148	11.556
801.04	7.16821
803.933	5.25391
806.826	9.10278
809.718	3.77087
812.611	6.09985
815.504	7.80969
818.397	17.6802
821.289	23.458
824.182	54.5237
827.075	77.5402
829.967	91.2659
832.86	91.9934
835.753	73.1144
838.645	47.3561
841.538	26.0183
844.431	13.9695
847.324	3.72302
850.216	7.98926
853.109	20.1416
856.002	31.0304
858.894	44.5525
861.787	57.9456
864.68	76.5315
867.572	95.2675
870.465	100.611
873.358	105.758
876.251	91.8796
879.143	87.2076
882.036	90.9144
884.929	128.678
887.821	164.842
890.714	213.523
893.607	252.376
896.5	317.994
899.392	427.392
902.285	570.653
905.178	760.345
908.07	983.544
910.963	1202.7
913.856	1376.16
916.748	1441.46
919.641	1339.96
922.534	1092.39
925.427	808.989
928.319	573.732
931.212	390.833
934.105	252.533
936.997	157.962
939.89	107.78
942.783	69.7186
945.675	44.7563
948.568	44.291
951.461	62.5065
954.354	96.6715
957.246	124.831
960.139	133.586
963.032	122.637
965.924	110.188
968.817	115.51
971.71	147.978
974.602	198.181
977.495	289.008
980.388	387.793
983.28	410.603
986.173	313.054
989.066	203.763
991.959	110.484
994.851	53.8404
997.744	19.408
1000.64	1.32434
1003.53	8.74756
1006.42	19.2681
1009.32	21.8746
1012.21	18.0791
1015.1	5.25024
1017.99	3.48621
1020.89	15.4731
1023.78	38.8805
1026.67	58.7902
1029.56	86.5286
1032.46	125.924
1035.35	183.875
1038.24	234.582
1041.13	284.553
1044.03	314.143
1046.92	322.118
1049.81	297.695
1052.7	281.642
1055.6	265.602
1058.49	273.097
1061.38	274.758
1064.28	256.979
1067.17	235.144
1070.06	250.486
1072.95	317.616
1075.85	428.667
1078.74	593.022
1081.63	777.599
1084.53	976.543
1087.42	1139.95
1090.31	1120.96
1093.2	841.415
1096.1	477.923
1098.99	250.47
1101.88	132.271
1104.77	81.57
1107.67	51.0887
1110.56	30.3539
1113.45	31.5012
1116.35	24.6134
1119.24	19.973
1122.13	12.544
1125.02	8.83899
1127.91	12.0323
1130.81	11.9321
1133.7	6.47485
1136.59	7.90369
1139.49	8.9928
1142.38	7.91809
1145.27	1.69678
1148.16	0.537109
1151.06	1.099
1153.95	2.37366
1156.84	0.537598
1159.73	2.38635
1162.63	0.995972
1165.52	1.99219
1168.41	2.73669
1171.31	0.326904
1174.2	1.96277
1177.09	4.61267
1179.98	5.63489
1182.88	4.4314
1185.77	6.98743
1188.66	3.87671
1191.56	6.68201
1194.45	10.6348
1197.34	2.8136
1200.23	10.7532
1203.13	9.92346
1206.02	9.52246
1208.91	10.6646
1211.8	8.5343
1214.7	9.16296
1217.59	7.26404
1220.48	7.31787
1223.38	9.979
1226.27	0.415283
1229.16	6.69202
1232.05	4.74866
1234.94	2.84753
1237.84	1.55542
1240.73	3.00317
1243.62	2.43018
1246.52	2.17322
1249.41	5.92127
1252.3	3.27136
1255.19	3.41431
1258.09	4.45886
1260.98	5.60535
1263.87	10.3626
1266.77	6.0675
1269.66	5.52832
1272.55	1.44678
1275.44	0.526733
1278.34	6.17883
1281.23	1.81091
1284.12	8.20496
1287.01	1.0863
1289.91	4.81116
1292.8	2.93933
1295.69	2.83215
1298.59	5.8075
1301.48	6.42041
1304.37	5.19006
