Measurement: Raman, 532 nm, unoriented, Raman Data Processed
Mineral: Epidote
Rruff sample: R040092
Ideal chemistry: Ca_2_Fe^3+^Al_2_(Si_2_O_7_)(SiO_4_)O(OH)
Locality: Nahant, Massachusetts, USA
Source: University of Arizona Mineral Museum
Description: Green prismatic crystals imbedded in quartz
Measured chemistry: Ca_2.01_Al_2.00_Fe_1.00_(Si_1.00_O_4_)(Si_1.97_Fe_0.02_Al_0.01_Ti_0.01_O_7_)O(OH)
Raman shift (cm-1)	intensity
120.601	0
123.975	308.223
127.35	554.329
130.725	402.796
134.1	175.56
137.475	194.998
140.849	76.7561
144.224	39.6656
147.599	19.8992
150.974	51.7306
154.349	157.867
157.724	617.938
161.098	1162.21
164.473	1738.53
167.848	1806.02
171.223	1314.29
174.598	645.144
177.972	119.615
181.347	3.30298
184.722	57.6082
188.097	60.7405
191.472	77.6138
194.846	93.5794
198.221	408.156
201.596	580.605
204.971	248.825
208.346	14.3252
211.721	78.793
215.095	455.377
218.47	1132.23
221.845	1849.22
225.22	2329.83
228.595	2215.96
231.969	1219.45
235.344	644.757
238.719	641.097
242.094	584.726
245.469	224.244
248.844	27.6052
252.218	119.963
255.593	165.763
258.968	124.38
262.343	608.691
265.718	1947.2
269.092	3650.89
272.467	5294.19
275.842	5087.85
279.217	2519.1
282.592	1391.33
285.966	1022.93
289.341	1119.3
292.716	1388.7
296.091	1813.28
299.466	1633.73
302.841	1487.73
306.215	1734.97
309.59	2059.44
312.965	2106.43
316.34	1244.03
319.715	716.707
323.089	620.313
326.464	472.573
329.839	188.108
333.214	-4.77556
336.589	-6.1705
339.964	131.042
343.338	520.055
346.713	852.055
350.088	829.934
353.463	564.506
356.838	401.993
360.212	482.332
363.587	537.45
366.962	455.614
370.337	203.308
373.712	23.5305
377.087	57.4362
380.461	193.512
383.836	403.222
387.211	549.311
390.586	410.341
393.961	97.1311
397.335	-6.48763
400.71	10.9196
404.085	136.939
407.46	533.295
410.835	1530.33
414.209	3094.92
417.584	5204.27
420.959	7649.8
424.334	8243.37
427.709	6089.26
431.084	4915.9
434.458	4724.43
437.833	4521.91
441.208	5408.85
444.583	7362.9
447.958	9595.78
451.332	10510.7
454.707	9893.12
458.082	6964.31
461.457	3909.31
464.832	2097.47
468.207	1161.17
471.581	575.561
474.956	181.536
478.331	48.6448
481.706	161.148
485.08	253.024
488.455	558.13
491.83	957.083
495.205	1493.34
498.58	1888.58
501.955	1986.43
505.329	1953.86
508.704	1979.79
512.079	1862.9
515.454	2043.23
518.829	2506.75
522.203	2351.74
525.578	1243.65
528.953	294.74
532.328	59.1312
535.703	32.2439
539.077	50.7294
542.452	85.5506
545.827	420.866
549.202	1240.07
552.577	2460.07
555.952	4232.5
559.326	6366.48
562.701	8208.44
566.076	5946.62
569.451	2914.43
572.826	2107.16
576.201	2342.89
579.575	3009.91
582.95	4047.7
586.325	4957.73
589.7	5642.85
593.075	6641.9
596.449	7052.53
599.824	6005
603.199	4656.96
606.574	3892.82
609.949	3453.21
613.323	2759.63
616.698	1929.33
620.073	1132.88
623.448	701.069
626.823	414.992
630.197	253.452
633.572	138.054
636.947	45.0757
640.322	16.3072
643.697	9.82996
647.072	37.743
650.446	19.2583
653.821	26.225
657.196	2.23822
660.571	62.0005
663.946	99.5883
667.321	140.057
670.695	180.465
674.07	274.956
677.445	334.772
680.82	423.519
684.195	495.644
687.569	477.102
690.944	358.777
694.319	212.752
697.694	170.439
701.069	118.507
704.443	78.313
707.818	60.9883
711.193	42.4805
714.568	26.1008
717.943	33.6357
721.317	45.0224
724.692	63.5121
728.067	71.9653
731.442	88.2509
734.817	110.479
738.192	120.078
741.566	130.077
744.941	159.491
748.316	162.881
751.691	170.721
755.066	151.724
758.441	181.141
761.815	134.727
765.19	125.265
768.565	117.811
771.94	91.0406
775.315	72.0416
778.689	58.9086
782.064	45.3314
785.439	1.57947
788.814	12.6476
792.189	27.4134
795.563	35.5568
798.938	56.5828
802.313	50.533
805.688	35.6887
809.063	32.5593
812.438	111.369
815.812	153.647
819.187	230.824
822.562	410.98
825.937	591.907
829.312	613.845
832.686	473.57
836.061	286.987
839.436	191.922
842.811	205.463
846.186	263.14
849.561	407.032
852.935	670.783
856.31	1030.61
859.685	1391.07
863.06	1807.1
866.434	2089.57
869.809	2205.48
873.184	2372.46
876.559	2641.61
879.934	3016.46
883.309	3300.25
886.683	3040.72
890.058	2632.02
893.433	2693.54
896.808	3340.1
900.183	4562.44
903.558	6385.17
906.932	8482.27
910.307	10241.2
913.682	10702.1
917.057	8698.87
920.432	5614.05
923.806	3238.37
927.181	1753.3
930.556	916.193
933.931	406.385
937.306	109.306
940.681	39.9017
944.055	94.1517
947.43	34.4437
950.805	117.598
954.18	247.476
957.554	351.937
960.929	333.227
964.304	425.64
967.679	719.032
971.054	1243.82
974.429	1936.22
977.803	2431.81
981.178	2014.05
984.553	1123.01
987.928	506.128
991.303	244.923
994.678	98.5237
998.052	7.60828
1001.43	45.1621
1004.8	65.0797
1008.18	25.1123
1011.55	45.6417
1014.93	167.67
1018.3	236.845
1021.68	377.111
1025.05	538.458
1028.43	922.751
1031.8	1444.32
1035.17	2041.91
1038.55	2432.78
1041.92	2289.39
1045.3	1789.6
1048.67	1465
1052.05	1407.07
1055.42	1668.89
1058.8	1946.73
1062.17	1773.88
1065.55	1398.72
1068.92	1461.25
1072.3	2051.65
1075.67	3103.23
1079.05	4559.52
1082.42	6182.67
1085.8	5552.85
1089.17	2914.68
1092.55	1277.16
1095.92	635.029
1099.3	351.17
1102.67	212.447
1106.05	136.829
1109.42	95.8962
1112.8	78.0616
1116.17	55.9321
1119.55	31.322
1122.92	36.1019
1126.3	27.9647
1129.67	11.8138
1133.05	12.1009
1136.42	3.74408
1139.8	4.95673
1143.17	15.9087
1146.54	14.2892
1149.92	22.9207
1153.29	3.73517
1156.67	4.31696
1160.04	4.55652
1163.42	6.68964
1166.79	14.619
1170.17	16.6843
1173.54	26.3836
1176.92	26.1467
1180.29	26.9755
1183.67	38.0264
1187.04	31.4669
1190.42	46.8325
1193.79	33.7298
1197.17	40.2896
1200.54	28.3674
1203.92	32.684
1207.29	24.6669
1210.67	31.2551
1214.04	8.14795
1217.41	8.77966
1220.79	36.4924
1224.16	30.8579
1227.54	32.9043
1230.91	21.8691
1234.29	12.8216
1237.66	26.5472
1241.04	15.3191
1244.41	17.5674
1247.79	23.1418
1251.16	17.6542
1254.54	11.1639
1257.91	17.3374
1261.29	9.99558
1264.66	12.514
1268.04	3.42767
1271.41	5.22788
1274.79	27.0106
1278.16	8.3739
1281.54	6.25165
