Measurement: Raman, 532 nm, unoriented, Raman Data Processed
Mineral: Epidote
Rruff sample: R110127
Ideal chemistry: Ca_2_Fe^3+^Al_2_(Si_2_O_7_)(SiO_4_)O(OH)
Locality: Alchori, Pakistan
Source: Jack Lowell
Description: Pale brown transparent prismatic crystals associated with green diopside, R110128
Raman shift (cm-1)	intensity
179.202	0
182.094	5.92127
184.987	4.21643
187.88	4.87891
190.773	7.77484
193.665	10.5292
196.558	5.51459
199.451	1.53375
202.343	0.581055
205.236	0.34668
208.129	2.3609
211.021	1.60425
213.914	5.19891
216.807	11.5428
219.699	21.6906
222.592	37.3011
225.485	53.5524
228.377	73.917
231.27	106.148
234.163	151.12
237.056	199.267
239.948	235.921
242.841	281.097
245.734	324.279
248.626	385.76
251.519	443.291
254.412	461.003
257.305	413.131
260.197	331.705
263.09	262.156
265.983	220.19
268.875	203.382
271.768	183.323
274.661	173.081
277.553	150.681
280.446	114.055
283.339	81.8754
286.232	55.544
289.124	42.3313
292.017	34.4418
294.91	31.8085
297.802	29.278
300.695	20.418
303.588	7.67987
306.481	2.60406
309.373	5.34918
312.266	3.2887
315.159	10.679
318.051	25.3377
320.944	45.9446
323.837	66.7015
326.729	90.7339
329.622	111.425
332.515	153.028
335.408	202.13
338.3	247.099
341.193	287.054
344.086	309.535
346.978	338.066
349.871	381.1
352.764	384.884
355.656	312.798
358.549	197.414
361.442	115.966
364.334	65.5689
367.227	40.0498
370.12	26.7623
373.012	17.7028
375.905	11.2649
378.798	9.84155
381.691	10.6669
384.583	19.8906
387.476	31.9682
390.369	32.7679
393.261	26.4783
396.154	18.4408
399.047	6.63519
401.94	5.38922
404.832	11.0603
407.725	14.3967
410.618	9.12146
413.51	12.3784
416.403	28.3205
419.296	48.731
422.188	75.4337
425.081	107.365
427.974	142.417
430.866	168.962
433.759	193.626
436.652	236.495
439.545	298.147
442.437	383.239
445.33	467.214
448.223	551.724
451.115	593.384
454.008	561.68
456.901	461.507
459.793	343.032
462.686	259.876
465.579	203.203
468.472	172.771
471.364	166.274
474.257	162.064
477.15	155.397
480.042	149.253
482.935	142.376
485.828	135.254
488.721	115.103
491.613	93.4073
494.506	78.1533
497.399	74.2493
500.291	77.7804
503.184	89.8127
506.077	111.132
508.969	134.787
511.862	145.371
514.755	158.684
517.648	162.496
520.54	157.019
523.433	135.916
526.326	120.202
529.218	99.2557
532.111	65.54
535.004	25.9136
537.896	1.3031
540.789	8.39026
543.682	11.8795
546.575	5.02948
549.467	5.31891
552.36	23.1013
555.253	56.8214
558.145	112.059
561.038	164.544
563.931	218.651
566.823	280.257
569.716	347.604
572.609	365.234
575.502	248.318
578.394	119.297
581.287	74.197
584.18	65.8543
587.072	71.9357
589.965	90.4771
592.858	111.917
595.75	133.415
598.643	149.856
601.536	164.981
604.428	168.836
607.321	160.79
610.214	131.257
613.107	95.8603
615.999	71.679
618.892	52.24
621.785	30.5493
624.677	13.243
627.57	0.431335
630.463	0.842407
633.356	0.712341
636.248	0.504089
639.141	3.05792
642.034	0.741699
644.926	3.66907
647.819	8.24609
650.712	14.0532
653.604	21.5117
656.497	28.1905
659.39	31.5834
662.283	26.3249
665.175	23.2388
668.068	24.1681
670.961	24.7112
673.853	24.2756
676.746	26.4608
679.639	32.597
682.531	38.7971
685.424	42.5826
688.317	43.866
691.21	44.4916
694.102	42.1514
696.995	40.5692
699.888	39.5258
702.78	33.4594
705.673	27.5519
708.566	25.3234
711.458	18.0415
714.351	9.47437
717.244	5.8479
720.136	2.9411
723.029	1.22308
725.922	5.88318
728.815	7.5257
731.707	4.06244
734.6	5.12415
737.493	1.16351
740.385	3.51721
743.278	3.34961
746.171	3.90863
749.063	2.89539
751.956	6.27081
754.849	7.28009
757.742	12.0126
760.634	1.48938
763.527	5.44482
766.42	7.01971
769.312	5.73389
772.205	6.22046
775.098	1.90735
777.99	1.14667
780.883	2.25024
783.776	1.28668
786.669	2.06635
789.561	2.83704
792.454	0.729004
795.347	1.45013
798.239	1.8092
801.132	2.0404
804.025	2.242
806.918	2.40295
809.81	2.69592
812.703	1.45227
815.596	3.70917
818.488	7.89282
821.381	14.2645
824.274	14.5842
827.166	18.5881
830.059	16.2612
832.952	20.2179
835.845	18.2892
838.737	15.4762
841.63	23.4083
844.523	29.3837
847.415	35.8976
850.308	43.3314
853.201	62.3621
856.093	76.7931
858.986	103.659
861.879	128.777
864.771	158.734
867.664	190.669
870.557	232.704
873.45	265.421
876.342	281.331
879.235	297.848
882.128	307.044
885.02	306.652
887.913	306.48
890.806	303.671
893.698	300.015
896.591	292.724
899.484	266.072
902.377	235.849
905.269	231.885
908.162	229.601
911.055	233.185
913.947	226.029
916.84	206.53
919.733	168.156
922.625	131.213
925.518	102.106
928.411	78.6779
931.304	57.1329
934.196	37.6217
937.089	19.5033
939.982	13.1898
942.875	4.02136
945.767	0.501221
948.66	3.26331
951.553	5.17041
954.445	1.34485
957.338	2.68567
960.231	1.80615
963.123	2.21228
966.016	7.37476
968.909	10.5663
971.802	16.7184
974.694	31.2767
977.587	48.5923
980.48	66.4092
983.372	84.5075
986.265	86.4086
989.158	72.2214
992.05	45.4746
994.943	25.1177
997.836	13.1708
1000.73	2.9137
1003.62	4.80811
1006.51	3.45703
1009.41	0.080933
1012.3	1.52881
1015.19	1.73438
1018.09	6.23547
1020.98	22.0685
1023.87	28.079
1026.76	35.0251
1029.66	44.1936
1032.55	40.0562
1035.44	40.8386
1038.33	40.0016
1041.23	38.4341
1044.12	38.4673
1047.01	40.3473
1049.9	42.532
1052.8	43.4383
1055.69	37.6292
1058.58	34.6453
1061.47	31.814
1064.37	33.8663
1067.26	32.7159
1070.15	36.5228
1073.05	34.1521
1075.94	42.9364
1078.83	54.1809
1081.72	76.2395
1084.62	90.2246
1087.51	110.955
1090.4	131.003
1093.3	141.857
1096.19	120.175
1099.08	81.6209
1101.97	52.0889
1104.87	26.5502
1107.76	15.7706
1110.65	14.6243
1113.54	17.5483
1116.44	9.83813
1119.33	6.9281
1122.22	8.60229
1125.12	4.19617
1128.01	3.75049
1130.9	0.275391
1133.79	0.36377
1136.68	1.58118
1139.58	4.34094
1142.47	1.55359
1145.36	0.906128
1148.26	3.90503
1151.15	3.07556
1154.04	2.8064
1156.93	2.8385
1159.83	0.940918
1162.72	1.98889
1165.61	2.27808
1168.51	1.58398
1171.4	3.81763
1174.29	2.11902
1177.18	5.93726
1180.08	3.26636
1182.97	4.16821
1185.86	9.12756
1188.75	9.40002
1191.65	6.68689
1194.54	7.34741
1197.43	7.99048
1200.33	5.54089
1203.22	2.96997
1206.11	8.39221
1209	12.813
1211.9	12.4254
1214.79	11.2033
1217.68	9.78064
1220.57	5.22217
1223.47	4.82935
1226.36	9.85168
1229.25	4.52454
1232.14	4.28369
1235.04	2.94434
1237.93	1.37439
1240.82	3.53589
1243.71	1.43384
1246.61	3.80432
1249.5	0.991821
1252.39	3.82837
1255.29	4.88159
1258.18	7.44739
1261.07	6.46668
1263.96	7.10522
1266.86	6.58557
1269.75	7.80322
1272.64	2.76611
1275.54	8.21155
1278.43	2.97229
1281.32	3.24695
1284.21	2.97192
1287.11	3.04492
1290	3.07019
1292.89	0.462524
1295.78	1.76416
1298.68	5.49377
1301.57	3.45947
