Measurement: Raman, 532 nm, unoriented, Raman Data Processed
Mineral: Epidote
Rruff sample: R050303
Ideal chemistry: Ca_2_Fe^3+^Al_2_(Si_2_O_7_)(SiO_4_)O(OH)
Locality: San Martin mine, Zacatecas, Mexico
Source: Eugene Schlepp
Description: Green elongated prismatic crystals
Measured chemistry: Ca_2.00_Al_2.00_(Fe^3+^_0.97_Al_0.03_)(SiO_4_)(Si_2_O_7_)O(OH)
Raman shift (cm-1)	intensity
108.746	0
112.12	0.255838
115.495	3.65657
118.87	10.4352
122.245	19.43
125.62	28.8851
128.994	53.016
132.369	76.0505
135.744	47.5301
139.119	25.0947
142.494	12.9203
145.869	13.4891
149.243	9.17794
152.618	10.1112
155.993	20.0658
159.368	29.388
162.743	40.8441
166.117	56.5656
169.492	78.5799
172.867	88.6394
176.242	61.2448
179.617	33.2171
182.992	22.4811
186.366	23.8943
189.741	17.1782
193.116	1.257
196.491	3.23954
199.865	0.795898
203.24	3.29643
206.615	2.77333
209.99	4.47481
213.365	11.6376
216.74	24.4017
220.114	42.2993
223.489	67.3216
226.864	93.7002
230.239	100.516
233.614	86.687
236.988	83.3771
240.363	91.7773
243.738	82.3125
247.113	55.9208
250.488	45.4698
253.863	47.5269
257.237	41.028
260.612	23.5838
263.987	11.6523
267.362	10.6045
270.737	18.9188
274.111	29.2331
277.486	22.046
280.861	8.75256
284.236	4.24634
287.611	10.6508
290.986	21.2966
294.36	21.008
297.735	9.02537
301.11	1.28435
304.485	2.71248
307.86	0.328697
311.235	4.45946
314.609	9.98634
317.984	16.505
321.359	26.9808
324.734	35.1371
328.109	35.2963
331.483	36.7904
334.858	41.2208
338.233	50.9627
341.608	65.1664
344.983	91.0262
348.358	111.803
351.732	95.7385
355.107	57.2662
358.482	29.3463
361.857	11.775
365.231	1.46736
368.606	1.55598
371.981	3.47571
375.356	1.50678
378.731	3.2935
382.106	12.6142
385.48	25.9213
388.855	34.2039
392.23	29.986
395.605	17.6695
398.98	8.10973
402.354	5.7695
405.729	9.60251
409.104	20.945
412.479	34.2865
415.854	52.0996
419.229	79.2446
422.603	111.179
425.978	132.004
429.353	148.555
432.728	183.987
436.103	185.49
439.478	152.812
442.852	134.664
446.227	140.475
449.602	149.816
452.977	127.659
456.352	94.5037
459.726	61.3412
463.101	34.8148
466.476	20.4151
469.851	11.7951
473.226	4.38162
476.601	1.84139
479.975	4.51637
483.35	11.5781
486.725	23.8265
490.1	40.7396
493.475	64.3826
496.849	88.6066
500.224	99.8346
503.599	100.132
506.974	96.4053
510.349	79.2366
513.723	48.443
517.098	27.4342
520.473	15.5324
523.848	7.10077
527.223	0.439907
530.598	2.72198
533.972	4.17112
537.347	2.17192
540.722	0.99297
544.097	5.97984
547.472	16.8281
550.846	32.8243
554.221	53.2429
557.596	84.0987
560.971	126.032
564.346	152.217
567.721	111.876
571.095	67.4468
574.47	57.0776
577.845	68.838
581.22	93.168
584.595	126.366
587.969	150.752
591.344	175.219
594.719	205.143
598.094	217.798
601.469	189.374
604.843	151.679
608.218	129.36
611.593	114.039
614.968	90.3807
618.343	60.0282
621.718	37.2009
625.092	22.4493
628.467	14.01
631.842	9.69422
635.217	6.41251
638.592	3.06521
641.966	3.04896
645.341	0.777962
648.716	0.667686
652.091	1.12363
655.466	0.418816
658.841	0.393738
662.215	0.133221
665.59	0.03373
668.965	1.02835
672.34	2.51234
675.715	2.39262
679.09	3.05225
682.464	3.62989
685.839	3.48564
689.214	2.77135
692.589	2.24682
695.964	2.67345
699.338	2.04197
702.713	2.58677
706.088	0.899513
709.463	1.67481
712.838	0.942223
716.212	0.887957
719.587	0.268587
722.962	0.883196
726.337	1.01099
729.712	1.03568
733.087	1.28729
736.461	1.85433
739.836	1.67254
743.211	2.10634
746.586	2.71738
749.961	2.94975
753.335	3.10901
756.71	2.6279
760.085	2.54072
763.46	3.25476
766.835	2.3165
770.21	1.69345
773.584	1.60643
776.959	1.18887
780.334	0.26013
783.709	0.585436
787.084	0.917654
790.458	0.119282
793.833	1.02744
797.208	0.395351
800.583	0.791748
803.958	0.369347
807.332	0.984055
810.707	0.367435
814.082	0.298737
817.457	2.26921
820.832	3.80255
824.207	6.17751
827.581	7.79387
830.956	8.16955
834.331	7.30687
837.706	6.38978
841.081	4.86472
844.456	7.4892
847.83	10.0848
851.205	13.8243
854.58	20.8238
857.955	26.7131
861.33	35.577
864.704	39.1043
868.079	41.9747
871.454	48.8371
874.829	59.2951
878.204	73.984
881.578	87.1787
884.953	91.9386
888.328	84.1824
891.703	74.7265
895.078	72.2621
898.453	79.3978
901.827	101.127
905.202	131.791
908.577	169.234
911.952	203.375
915.327	212.841
918.702	181.323
922.076	124.324
925.451	77.8328
928.826	46.6836
932.201	25.9673
935.576	12.9137
938.95	7.04394
942.325	3.10834
945.7	0.343456
949.075	0.524029
952.45	0.956425
955.824	2.41619
959.199	1.78619
962.574	1.70232
965.949	1.15236
969.324	3.20283
972.698	6.38707
976.073	11.0291
979.448	11.7304
982.823	8.59885
986.198	2.01991
989.573	0.297634
992.947	1.36078
996.322	2.04295
999.697	1.14427
1003.07	0.208904
1006.45	1.24254
1009.82	4.41052
1013.2	8.52791
1016.57	11.9167
1019.95	12.4466
1023.32	10.2429
1026.7	7.80635
1030.07	8.29105
1033.44	11.3811
1036.82	12.9742
1040.19	12.8618
1043.57	11.8479
1046.94	11.1298
1050.32	8.66004
1053.69	8.18029
1057.07	7.36874
1060.44	7.31384
1063.82	6.97438
1067.19	7.68112
1070.57	11.419
1073.94	17.6275
1077.32	28.0404
1080.69	40.9359
1084.07	52.3299
1087.44	47.5148
1090.82	30.5265
1094.19	16.2217
1097.57	8.75302
1100.94	5.71984
1104.32	3.61903
1107.69	1.82886
1111.07	1.19921
1114.44	1.50537
1117.82	0.645889
1121.19	0.546932
1124.57	0.317688
1127.94	0.355694
1131.32	0.141716
1134.69	0.227161
1138.07	0.102173
1141.44	0.023895
1144.81	0.56975
1148.19	0.375481
1151.56	0.294968
1154.94	0.459654
1158.31	0.928886
1161.69	0.516064
1165.06	0.779869
1168.44	1.14915
1171.81	1.27879
1175.19	0.649385
1178.56	1.32582
1181.94	1.39574
1185.31	1.76216
1188.69	1.07852
1192.06	1.07969
1195.44	1.73884
1198.81	1.83564
1202.19	1.048
1205.56	1.706
1208.94	0.672482
1212.31	0.175446
1215.68	0.890671
1219.06	0.551348
1222.43	0.870958
1225.81	1.57669
1229.18	0.799294
1232.56	0.595079
1235.93	0.288
1239.31	0.655359
1242.68	0.428083
1246.06	0.415607
1249.43	0.78923
1252.81	0.108366
1256.18	0.500952
1259.56	0.041925
1262.93	0.133554
1266.31	0.501163
1269.68	0.560059
1273.06	0.840584
1276.43	0.701241
1279.81	0.488546
1283.18	1.41837
1286.56	0.433886
1289.93	0.85449
1293.31	0.407598
1296.68	0.057486
1300.06	0.65238
1303.43	0.274612
