Measurement: Raman, 785 nm, unoriented, Raman Data Processed
Mineral: Epistolite
Rruff sample: R070396
Ideal chemistry: Na_4_TiNb_2_(Si_2_O_7_)_2_O_2_(OH)_2_4H_2_O
Locality: Tugtup Agtakorfia, Ilimaussaq complex, Narsaq, Kitaa (West Greenland) Province, Greenland
Source: Michael Scott
Description: White platy crystals associated with pectolite
Measured chemistry: (Na_3.07_Ca_0.20_K_0.13_Mg_0.10_Mn_0.09_)_Σ=3.59_(Ti_0.71_Fe_0.12_V_0.02_)_Σ=0.85_Nb_2.03_[(Si_2_O_7_)_1.92_(Al_2_O_7_)_0.8_]_Σ=2_[O_1_F_0.43_Cl_0.02_(OH)_2_]_Σ=3.45_[(PO_4_)_0.24_(SO_4_)_0.01_]•2.58H_2_O
Raman shift (cm-1)	intensity
156.214	0
159.107	8.25024
161.999	62.6148
164.892	121.46
167.785	177.991
170.677	224.916
173.57	196.126
176.463	168.589
179.356	169.597
182.248	193.969
185.141	238.429
188.034	285.116
190.926	323.113
193.819	340.427
196.712	358.192
199.604	302.801
202.497	197.964
205.39	199.28
208.282	178.73
211.175	151.485
214.068	134.929
216.961	145.774
219.853	169.841
222.746	160.284
225.639	192.843
228.531	182.957
231.424	280.195
234.317	265.224
237.209	273.15
240.102	232.585
242.995	139.969
245.888	88.7886
248.78	30.2622
251.673	84.9204
254.566	72.4045
257.458	64.3709
260.351	103.313
263.244	87.5225
266.137	95.8882
269.029	50.6306
271.922	27.1951
274.815	40.304
277.707	44.646
280.6	12.7798
283.493	73.7561
286.385	155.343
289.278	276.911
292.171	369.51
295.063	584.754
297.956	853.484
300.849	1030.98
303.742	725.154
306.634	459.44
309.527	356.275
312.42	271.815
315.312	226.156
318.205	119.204
321.098	66.3743
323.99	3.51001
326.883	21.9956
329.776	11.01
332.669	13.498
335.561	17.8052
338.454	8.20654
341.347	18.6404
344.239	16.4182
347.132	112.439
350.025	123.737
352.918	165.077
355.81	270.486
358.703	280.025
361.596	354.136
364.488	458.808
367.381	573.991
370.274	645.842
373.166	714.384
376.059	671.822
378.952	574.655
381.844	475.99
384.737	415.139
387.63	339.135
390.523	402.881
393.415	430.339
396.308	515.1
399.201	588.974
402.093	585.968
404.986	634.212
407.879	560.582
410.772	387.312
413.664	265.352
416.557	150.031
419.45	65.4634
422.342	50.7476
425.235	23.1602
428.128	13.043
431.02	11.4661
433.913	18.292
436.806	16.8689
439.699	25.4497
442.591	62.581
445.484	91.2361
448.377	130.764
451.269	189.766
454.162	281.552
457.055	441.151
459.947	693.056
462.84	1093.89
465.733	1741.71
468.625	2733.36
471.518	4023.7
474.411	5571.65
477.304	7249.41
480.196	8277.46
483.089	8295.7
485.982	6968.03
488.874	5380.58
491.767	4002.11
494.66	3078.76
497.553	2359.48
500.445	1859.68
503.338	1428.9
506.231	1150.99
509.123	998.877
512.016	740.168
514.909	544.964
517.802	419.877
520.694	313.874
523.587	217.247
526.48	144.296
529.372	111.745
532.265	96.0637
535.158	81.2026
538.05	67.2715
540.943	87.1289
543.836	15.5413
546.729	17.9456
549.621	8.8938
552.514	17.4109
555.407	14.7373
558.299	9.93652
561.192	6.88916
564.085	30.2976
566.977	6.76269
569.87	14.9231
572.763	37.0935
575.655	4.15576
578.548	48.1333
581.441	26.7117
584.333	47.4839
587.226	61.5525
590.119	50.051
593.012	81.0415
595.904	112.438
598.797	125.715
601.69	130.315
604.582	201.7
607.475	198.107
610.368	187.883
613.26	245.881
616.153	399.788
619.046	539.327
621.939	796.864
624.831	1046.26
627.724	1122.57
630.617	889.926
633.509	520.435
636.402	323.38
639.295	174.719
642.188	147.628
645.08	111.227
647.973	114.554
650.866	120.543
653.758	91.4102
656.651	61.7876
659.544	63.5344
662.436	61.2835
665.329	4.21021
668.222	31.3528
671.115	27.4849
674.007	37.4644
676.9	13.3193
679.793	51.9956
682.685	26.4477
685.578	18.7192
688.471	45.3538
691.363	1.72314
694.256	26.3999
697.149	15.5835
700.042	11.1633
702.934	24.9919
705.827	11.2964
708.72	25.8696
711.612	50.76
714.505	12.1562
717.398	33.5625
720.29	13.2571
723.183	29.9275
726.076	51.4797
728.968	24.5381
731.861	2.70288
734.754	17.8318
737.647	35.602
740.539	25.9839
743.432	64.7888
746.325	55.74
749.217	49.3188
752.11	18.5034
755.003	5.18555
757.895	32.9763
760.788	33.4695
763.681	24.3186
766.574	42.6594
769.466	3.0481
772.359	59.1003
775.252	54.0945
778.144	73.5505
781.037	63.9287
783.93	61.971
786.822	36.3362
789.715	73.2
792.608	62.907
795.501	66.3687
798.393	66.2517
801.286	63.6841
804.179	48.9519
807.071	43.5815
809.964	49.2817
812.857	72.4287
815.75	38.6728
818.642	57.8406
821.535	0.285889
824.428	29.6506
827.32	20.2205
830.213	20.0295
833.106	38.8433
835.998	21.8247
838.891	12.994
841.784	44.8497
844.677	49.208
847.569	17.1653
850.462	3.2019
853.355	3.96155
856.247	0.434204
859.14	33.8833
862.033	11.4331
864.925	32.2444
867.818	47.9504
870.711	25.9873
873.604	28.8002
876.496	23.6244
879.389	13.9308
882.282	11.4591
885.174	32.0566
888.067	21.3091
890.96	4.19971
893.852	36.3574
896.745	10.6486
899.638	21.9266
902.53	19.4006
905.423	6.30798
908.316	9.03369
911.209	50.0779
914.101	31.6425
916.994	16.1337
919.887	31.1074
922.779	36.1292
925.672	19.9819
928.565	60.0575
931.457	45.7325
934.35	25.5077
937.243	40.8807
940.136	17.8143
943.028	1.56494
945.921	2.25793
948.814	0.548828
951.706	27.8861
954.599	26.3971
957.492	3.46155
960.385	35.8751
963.277	39.1426
966.17	19.7809
969.063	37.7935
971.955	61.7139
974.848	65.0863
977.741	62.0367
980.633	109.128
983.526	60.7957
986.419	67.0292
989.312	56.2462
992.204	113.469
995.097	75.1926
997.99	82.1007
1000.88	104.585
1003.77	108.813
1006.67	64.141
1009.56	72.1249
1012.45	109.921
1015.35	115.552
1018.24	51.2445
1021.13	24.6627
1024.02	20.3737
1026.92	46.206
1029.81	2.0907
1032.7	18.0763
1035.6	26.9602
1038.49	20.213
1041.38	48.5076
1044.27	45.8644
1047.17	77.022
1050.06	35.048
1052.95	98.514
1055.84	71.4707
1058.74	91.2788
1061.63	90.2002
1064.52	41.0205
1067.41	31.7922
1070.31	68.1282
1073.2	81.1506
1076.09	136.227
1078.98	223.217
1081.88	280.053
1084.77	326.582
1087.66	451.41
1090.56	482.764
1093.45	530.343
1096.34	648.274
1099.23	747.922
1102.13	813.955
1105.02	778.644
1107.91	653.95
1110.81	480.15
1113.7	336.159
1116.59	215.849
1119.48	162.047
1122.38	92.1829
1125.27	52.6843
1128.16	42.1045
1131.05	47.28
1133.95	16.3796
1136.84	24.6318
1139.73	16.8752
1142.62	38.52
1145.52	46.729
1148.41	58.6833
1151.3	70.2424
1154.19	102.572
1157.09	101.958
1159.98	154.389
1162.87	179.102
1165.77	165.828
1168.66	264.694
1171.55	215.613
1174.44	208.439
1177.34	134.438
1180.23	142.015
1183.12	80.6699
1186.02	85.6406
1188.91	44.9119
1191.8	22.727
1194.69	34.156
1197.59	19.5393
1200.48	9.10107
1203.37	70.2385
1206.26	1.63818
1209.16	29.5068
1212.05	65.7974
1214.94	4.75244
1217.84	15.9512
1220.73	57.7131
1223.62	13.5469
1226.51	48.408
1229.41	28.4775
1232.3	23.238
