Measurement: Raman, 532 nm, unoriented, Raman Data Processed
Mineral: Epistolite
Rruff sample: R070396
Ideal chemistry: Na_4_TiNb_2_(Si_2_O_7_)_2_O_2_(OH)_2_4H_2_O
Locality: Tugtup Agtakorfia, Ilimaussaq complex, Narsaq, Kitaa (West Greenland) Province, Greenland
Source: Michael Scott
Description: White platy crystals associated with pectolite
Measured chemistry: (Na_3.07_Ca_0.20_K_0.13_Mg_0.10_Mn_0.09_)_Σ=3.59_(Ti_0.71_Fe_0.12_V_0.02_)_Σ=0.85_Nb_2.03_[(Si_2_O_7_)_1.92_(Al_2_O_7_)_0.8_]_Σ=2_[O_1_F_0.43_Cl_0.02_(OH)_2_]_Σ=3.45_[(PO_4_)_0.24_(SO_4_)_0.01_]•2.58H_2_O
Raman shift (cm-1)	intensity
181.482	0
184.374	54.8105
187.267	186.902
190.16	170.668
193.052	393.197
195.945	416.795
198.838	331.887
201.731	128.369
204.623	5.88867
207.516	45.0508
210.409	68.957
213.301	65.8047
216.194	61.9492
219.087	118.147
221.979	90.5859
224.872	156.553
227.765	275.4
230.657	357.965
233.55	358.092
236.443	432.789
239.336	318.764
242.228	265.643
245.121	153.93
248.014	153.125
250.906	153.981
253.799	127.07
256.692	290.941
259.584	149.791
262.477	274.91
265.37	251.205
268.263	206.332
271.155	35.4238
274.048	3.21875
276.941	135.381
279.833	70.3574
282.726	183.133
285.619	219.607
288.512	424.51
291.404	505.465
294.297	656.264
297.19	909.496
300.082	1197.42
302.975	1003.25
305.868	577.449
308.76	523.127
311.653	385.152
314.546	346.725
317.438	164.83
320.331	122.32
323.224	94.4316
326.117	181.242
329.009	48.125
331.902	5.9707
334.795	73.7754
337.687	48.0273
340.58	72.3066
343.473	91.875
346.365	12.0527
349.258	95.5215
352.151	137.109
355.044	287.273
357.936	343.949
360.829	462.449
363.722	585.172
366.614	624.525
369.507	740.043
372.4	926.188
375.293	862.004
378.185	716.518
381.078	737.607
383.971	621.027
386.863	735.266
389.756	760.107
392.649	894.047
395.541	931.4
398.434	1105.51
401.327	1083.44
404.219	1161.38
407.112	1089.02
410.005	889.328
412.898	613.613
415.79	263.389
418.683	164.613
421.576	92.8613
424.469	52.9883
427.361	32.7344
430.254	29.7852
433.147	76.5938
436.039	120.869
438.932	23.2812
441.825	181.562
444.717	251.254
447.61	280.182
450.503	344.324
453.396	458.875
456.288	737.596
459.181	1222.66
462.074	1703.69
464.966	2890.5
467.859	4480.49
470.752	6534.38
473.644	9054.89
476.537	11651
479.43	13209.2
482.322	13082
485.215	11236.3
488.108	8608.34
491.001	6199.74
493.893	4775.84
496.786	3621.91
499.679	2945.66
502.571	2519.38
505.464	1962.4
508.357	1582.31
511.25	1147.6
514.142	930.516
517.035	851.037
519.928	362.609
522.82	362.043
525.713	281.908
528.606	218.629
531.498	89.3731
534.391	217.938
537.284	206.519
540.177	58.0176
543.069	85.9531
545.962	69.6562
548.855	35.0625
551.747	42.3359
554.64	48.7773
557.533	12.0449
560.425	33.3047
563.318	38.0195
566.211	100.117
569.104	11.7422
571.996	35.5156
574.889	13.3984
577.782	64.7969
580.674	158.672
583.567	80.0898
586.46	176.066
589.352	169.977
592.245	284.109
595.138	320.106
598.031	193.863
600.923	318.434
603.816	439.938
606.709	327.059
609.601	388.988
612.494	572.883
615.387	803.934
618.279	961.352
621.172	1420.16
624.065	1771.97
626.958	1954.54
629.85	1566.82
632.743	1168.14
635.636	741.066
638.528	553.801
641.421	437.289
644.314	311.231
647.207	405.375
650.099	557.773
652.992	521.129
655.885	337.551
658.777	447.652
661.67	309.203
664.563	153.379
667.455	187.141
670.348	290.641
673.241	261.906
676.134	167.566
679.026	280.316
681.919	132.172
684.812	28.707
687.704	187.086
690.597	27.8555
693.49	97.5586
696.382	116.629
699.275	192.035
702.168	195.894
705.061	135.887
707.953	149.027
710.846	37.3477
713.739	89.6367
716.631	97.7266
719.524	10.4922
722.417	5.96875
725.309	34.8672
728.202	73.75
731.095	86.7891
733.987	23.4062
736.88	105.496
739.773	56.4609
742.666	156.25
745.558	40.1641
748.451	257.836
751.344	29.4102
754.236	3.41406
757.129	19.9102
760.022	13.1172
762.915	98.3906
765.807	63.8438
768.7	13.5117
771.593	23.6328
774.485	47.0703
777.378	145.379
780.271	17.0078
783.163	149.801
786.056	48.3711
788.949	230.34
791.842	58.0078
794.734	101.394
797.627	101.16
800.52	187.555
803.412	59.625
806.305	225.711
809.198	114.828
812.091	112.211
814.983	187.066
817.876	114.152
820.769	32.4297
823.661	76.4453
826.554	77.3984
829.447	133.332
832.339	36.8711
835.232	9.46094
838.125	35.8203
841.018	30.6875
843.91	116.555
846.803	150.023
849.696	57.5234
852.588	89.418
855.481	132.996
858.374	80.4023
861.266	120.297
864.159	55.8125
867.052	122.941
869.944	56.4648
872.837	251.297
875.73	20.7109
878.623	93.8125
881.515	65.668
884.408	220.84
887.301	166.121
890.193	80.043
893.086	194.102
895.979	39.9219
898.871	154.535
901.764	45.3906
904.657	231.352
907.55	96.1523
910.442	81.4102
913.335	309.719
916.228	72.9805
919.12	294.019
922.013	19.3398
924.906	96.4219
927.798	90.8086
930.691	18.0664
933.584	162.297
936.477	12.5742
939.369	143.789
942.262	99.2773
945.155	149.496
948.047	248.856
950.94	77.7695
953.833	123.703
956.726	75.4883
959.618	158.758
962.511	97.4414
965.404	93.8281
968.296	215.824
971.189	158.961
974.082	179.457
976.974	186.438
979.867	266.609
982.76	212.168
985.653	142.137
988.545	277.473
991.438	222.504
994.331	247.75
997.223	134.965
1000.12	90.7461
1003.01	205.769
1005.9	127.066
1008.79	301.574
1011.69	328.785
1014.58	121.566
1017.47	120.852
1020.37	126.957
1023.26	146.234
1026.15	25.9961
1029.04	89.1367
1031.94	80.4922
1034.83	78.918
1037.72	156.547
1040.61	88.7734
1043.51	289.844
1046.4	347.309
1049.29	189.805
1052.18	287.492
1055.08	283.332
1057.97	314.231
1060.86	260.887
1063.76	145.426
1066.65	315.57
1069.54	298.715
1072.43	351.539
1075.33	455.281
1078.22	717.426
1081.11	830.269
1084	1045.61
1086.9	1268.16
1089.79	1429.24
1092.68	1779.38
1095.58	1894.47
1098.47	2079.44
1101.36	2237.04
1104.25	2063.89
1107.15	1915.25
1110.04	1614.93
1112.93	1202.53
1115.82	809.617
1118.72	606.012
1121.61	387.168
1124.5	206.055
1127.39	146.617
1130.29	335.426
1133.18	73.3438
1136.07	116.25
1138.97	165.453
1141.86	134.738
1144.75	204.582
1147.64	230.527
1150.54	351.227
1153.43	111.582
1156.32	247.668
1159.21	146.016
1162.11	38.2305
1165	122.469
1167.89	73.0391
1170.79	112.984
1173.68	192.508
1176.57	48.9062
1179.46	36.9023
1182.36	12.0977
1185.25	98.7461
1188.14	94.1133
1191.03	229.055
1193.93	178.633
1196.82	123.777
1199.71	59.4062
1202.61	142.742
1205.5	128.328
1208.39	201.117
1211.28	253.41
1214.18	75.9883
1217.07	190.934
1219.96	267.656
1222.85	194.562
1225.75	70.7188
1228.64	121.426
1231.53	86.0391
1234.42	120.141
1237.32	45.2852
1240.21	154.66
1243.1	215.777
1246	171.449
1248.89	194.324
1251.78	198.367
1254.67	298.004
1257.57	301.188
1260.46	10.7812
1263.35	128.137
1266.24	101.676
1269.14	32.1914
1272.03	286.481
1274.92	186.613
1277.82	510.832
1280.71	256.106
1283.6	226.719
1286.49	86.3359
1289.39	145.887
