Measurement: Raman, 780 nm, unoriented, Raman Data Processed
Mineral: Epsomite
Rruff sample: R150060
Ideal chemistry: MgS^6+^O_4_7H_2_O
Locality: Synthetic, purchased from Walgreens
Source: Hexiong Yang
Description: White powder
Raman shift (cm-1)	intensity
93.9705	0
97.3453	3.1304
100.72	4.91829
104.095	2.97614
107.47	15.8772
110.845	9.43407
114.219	5.95197
117.594	3.70207
120.969	0.789124
124.344	5.46715
127.719	0.070892
131.094	2.91243
134.468	1.44698
137.843	2.79541
141.218	2.48917
144.593	0.895508
147.968	3.44
151.342	2.62652
154.717	6.15335
158.092	11.0553
161.467	15.2236
164.842	18.5539
168.216	20.0346
171.591	23.9836
174.966	28.0326
178.341	31.7868
181.716	39.1647
185.09	44.9785
188.465	52.8319
191.84	60.9547
195.215	66.941
198.59	75.8247
201.965	86.0142
205.339	94.2167
208.714	94.0908
212.089	91.1387
215.464	86.7334
218.839	91.124
222.214	95.9179
225.588	100.753
228.963	107.373
232.338	116.977
235.713	129.843
239.088	140.847
242.462	147.063
245.837	147.161
249.212	133.338
252.587	111.736
255.962	84.5203
259.336	62.0901
262.711	44.2431
266.086	31.8209
269.461	20.8571
272.836	14.2054
276.211	9.6394
279.585	5.8365
282.96	1.65499
286.335	0.256577
289.71	0.495102
293.085	2.06114
296.459	1.2054
299.834	1.7192
303.209	0.961151
306.584	0.046104
309.959	0.161621
313.334	0.014847
316.708	0.828323
320.083	0.487717
323.458	1.81535
326.833	1.73991
330.207	4.14609
333.582	5.42441
336.957	8.65195
340.332	13.3212
343.707	20.5315
347.082	25.2256
350.456	30.1187
353.831	36.4667
357.206	40.5183
360.581	43.5656
363.956	40.9844
367.33	37.2695
370.705	28.5459
374.08	17.4769
377.455	11.5264
380.83	5.60438
384.205	2.73885
387.579	0.789925
390.954	0.783195
394.329	0.087234
397.704	0.501495
401.079	0.87339
404.453	1.85948
407.828	4.4629
411.203	8.22189
414.578	10.1121
417.953	14.0669
421.327	17.5972
424.702	22.78
428.077	31.7245
431.452	41.6571
434.827	55.3391
438.202	69.6447
441.576	87.6576
444.951	102.529
448.326	114.672
451.701	128.646
455.076	146.041
458.45	174.644
461.825	206.679
465.2	228.335
468.575	206.724
471.95	155.963
475.325	103.265
478.699	64.3718
482.074	42.0222
485.449	26.6859
488.824	18.4719
492.199	12.0656
495.573	8.10549
498.948	3.38844
502.323	3.2283
505.698	1.60244
509.073	0.907936
512.447	0.657581
515.822	0.009911
519.197	0.688633
522.572	0.825363
525.947	1.59307
529.322	0.141335
532.696	0.459496
536.071	1.35827
539.446	2.47577
542.821	3.69525
546.196	4.89399
549.57	5.40046
552.945	8.57717
556.32	9.40096
559.695	12.3245
563.07	15.054
566.444	16.9099
569.819	21.203
573.194	25.5756
576.569	33.0513
579.944	36.7788
583.319	41.3509
586.693	50.0122
590.068	59.1055
593.443	70.3569
596.818	82.7357
600.193	91.9467
603.567	101.739
606.942	103.902
610.317	102.326
613.692	94.7657
617.067	86.4044
620.442	78.678
623.816	73.7648
627.191	69.7403
630.566	60.7612
633.941	55.5205
637.316	44.0238
640.69	35.6878
644.065	27.0113
647.44	19.916
650.815	15.312
654.19	10.6783
657.564	7.53233
660.939	5.0798
664.314	4.04571
667.689	2.0556
671.064	1.50211
674.439	0.236179
677.813	0.40527
681.188	0.72097
684.563	1.1194
687.938	0.403374
691.313	0.560635
694.688	0.487236
698.062	0.703064
701.437	0.105129
704.812	0.324478
708.187	0.525917
711.562	1.08149
714.936	1.03451
718.311	1.33262
721.686	1.83028
725.061	1.5445
728.436	2.58994
731.81	2.3278
735.185	3.63401
738.56	3.37144
741.935	3.34776
745.31	2.84971
748.684	2.90884
752.059	2.8672
755.434	2.39643
758.809	2.01079
762.184	2.35776
765.559	1.68215
768.933	1.3903
772.308	0.165913
775.683	1.15007
779.058	1.27469
782.433	1.43105
785.808	1.82415
789.182	0.870289
792.557	0.755379
795.932	0.886448
799.307	1.11369
802.682	0.707825
806.056	1.27441
809.431	0.957962
812.806	1.144
816.181	1.98849
819.556	1.56929
822.93	2.95503
826.305	1.61856
829.68	2.23918
833.055	1.51265
836.43	2.82328
839.804	1.85186
843.179	2.49699
846.554	2.23067
849.929	9.22439
853.304	8.51562
856.679	7.31962
860.053	2.11855
863.428	1.86364
866.803	3.13841
870.178	1.18895
873.553	2.55425
876.927	1.38033
880.302	1.67432
883.677	1.72028
887.052	2.23656
890.427	1.43553
893.802	1.01259
897.176	0.458687
900.551	0.900814
903.926	0.124622
907.301	0.001312
910.676	0.203644
914.05	0.293034
917.425	0.209949
920.8	0.195015
924.175	0.614059
927.55	0.435097
930.924	0.045738
934.299	1.77926
937.674	1.73694
941.049	8.53885
944.424	4.46495
947.799	5.86886
951.173	7.53875
954.548	11.8592
957.923	16.7048
961.298	26.6886
964.673	42.8445
968.047	81.7063
971.422	192.296
974.797	414.872
978.172	639.725
981.547	1255.97
984.922	2517.64
988.296	958.642
991.671	226.061
995.046	94.2472
998.421	49.0711
1001.8	29.743
1005.17	19.2564
1008.54	12.8568
1011.92	7.51
1015.29	5.09473
1018.67	4.44996
1022.04	1.59971
1025.42	0.070816
1028.79	0.730362
1032.17	0.053669
1035.54	0.826416
1038.92	0.087246
1042.29	0.376411
1045.67	0.225952
1049.04	0.701263
1052.42	2.22471
1055.79	3.30376
1059.17	5.12934
1062.54	7.92957
1065.92	11.964
1069.29	17.0686
1072.67	22.819
1076.04	27.1395
1079.42	31.5691
1082.79	35.1936
1086.17	34.6157
1089.54	31.3313
1092.92	26.8165
1096.29	19.865
1099.66	15.6662
1103.04	11.1479
1106.41	9.55393
1109.79	7.86691
1113.16	7.28239
1116.54	7.77478
1119.91	9.28752
1123.29	11.1832
1126.66	15.5003
1130.04	22.9232
1133.41	30.6934
1136.79	42.918
1140.16	56.5516
1143.54	64.839
1146.91	70.11
1150.29	63.7549
1153.66	53.3389
1157.04	38.2794
1160.41	25.8477
1163.79	17.3373
1167.16	11.3743
1170.54	9.07599
1173.91	5.82352
1177.29	4.80771
1180.66	3.74936
1184.04	0.739531
1187.41	0.13604
1190.79	0.365776
1194.16	0.423904
1197.54	0.56287
1200.91	0.27113
1204.28	0.74637
1207.66	0.445538
1211.03	0.23069
1214.41	0.460583
1217.78	0.421284
1221.16	0.015587
1224.53	0.715178
1227.91	0.155743
1231.28	1.4243
1234.66	1.58741
1238.03	1.69937
1241.41	1.08408
1244.78	1.36426
1248.16	2.29647
1251.53	1.50459
1254.91	2.07726
1258.28	2.33503
1261.66	1.70845
1265.03	2.43384
1268.41	1.27143
1271.78	2.0757
1275.16	1.09942
1278.53	0.179636
1281.9	0.53787
