Measurement: Raman, 532 nm, unoriented, Raman Data Processed
Mineral: Epsomite
Rruff sample: R150060
Ideal chemistry: MgS^6+^O_4_7H_2_O
Locality: Synthetic, purchased from Walgreens
Source: Hexiong Yang
Description: White powder
Raman shift (cm-1)	intensity
93.158	0
96.5328	26.3325
99.9077	22.1159
103.282	2.50183
106.657	15.0667
110.032	38.4851
113.407	29.891
116.782	34.5043
120.157	19.0386
123.531	7.67737
126.906	0.106812
130.281	3.97189
133.656	2.38672
137.031	1.8728
140.405	14.761
143.78	8.41132
147.155	10.9945
150.53	2.84158
153.905	18.2654
157.28	37.4713
160.654	43.9626
164.029	54.9141
167.404	59.7771
170.779	67.4273
174.154	80.2713
177.528	100.677
180.903	121.646
184.278	149.246
187.653	189.929
191.028	221.904
194.403	262.988
197.777	307.968
201.152	360.879
204.527	411.831
207.902	434.814
211.277	423.909
214.651	407.493
218.026	411.068
221.401	427.964
224.776	440.057
228.151	461.383
231.525	496.882
234.9	553.107
238.275	626.592
241.65	695.753
245.025	704.984
248.4	671.898
251.774	575.954
255.149	461.533
258.524	347.712
261.899	248.62
265.274	178.119
268.649	126.649
272.023	87.6546
275.398	62.136
278.773	42.5081
282.148	21.4242
285.523	9.06
288.897	0.375488
292.272	4.5802
295.647	7.06302
299.022	6.84003
302.397	4.862
305.772	0.031616
309.146	2.67545
312.521	6.64661
315.896	2.40329
319.271	0.849426
322.646	1.12518
326.02	7.79144
329.395	9.89999
332.77	20.0942
336.145	36.5473
339.52	52.5354
342.894	72.807
346.269	97.7719
349.644	122.877
353.019	153.881
356.394	176.352
359.769	195.832
363.143	201.315
366.518	180.971
369.893	143.09
373.268	98.5447
376.643	61.0057
380.017	35.2177
383.392	20.4413
386.767	5.10678
390.142	2.53485
393.517	2.62967
396.892	1.74783
400.266	2.95648
403.641	5.48987
407.016	17.0111
410.391	27.3757
413.766	37.1754
417.14	54.8926
420.515	72.1371
423.89	96.2143
427.265	126.524
430.64	172.531
434.014	225.542
437.389	291.637
440.764	361.448
444.139	432.109
447.514	476.824
450.889	528.837
454.263	625.445
457.638	787.015
461.013	972.749
464.388	1132.68
467.763	1101.16
471.137	865.444
474.512	576.366
477.887	365.171
481.262	232.97
484.637	155.219
488.012	102.907
491.386	67.2735
494.761	43.5466
498.136	27.1116
501.511	15.9742
504.886	5.991
508.26	0.462189
511.635	1.89813
515.01	2.68042
518.385	3.92709
521.76	3.80145
525.135	4.03076
528.509	2.89526
531.884	0.556305
535.259	2.97894
538.634	7.34296
542.009	12.7378
545.384	21.471
548.758	26.7047
552.133	37.4182
555.508	46.1015
558.883	60.7587
562.258	76.8229
565.632	92.964
569.007	111.531
572.382	129.201
575.757	154.413
579.132	184.027
582.506	226.445
585.881	267.11
589.256	325.216
592.631	385.075
596.006	452.918
599.381	518.897
602.755	573.975
606.13	605.29
609.505	615.723
612.88	599.941
616.255	579.333
619.63	563.087
623.004	553.191
626.379	545.699
629.754	519.637
633.129	467.325
636.504	398.64
639.878	318.022
643.253	247.408
646.628	189.612
650.003	138.95
653.378	102.944
656.752	72.331
660.127	51.0106
663.502	34.6553
666.877	22.3227
670.252	15.2268
673.626	8.39423
677.001	0.36882
680.376	1.34236
683.751	0.512772
687.126	1.04689
690.501	5.5569
693.875	6.5363
697.25	1.04011
700.625	3.16599
704	0.938782
707.375	0.332642
710.75	1.82776
714.124	7.73134
717.499	4.97565
720.874	7.30801
724.249	9.13892
727.624	8.799
730.998	10.2715
734.373	13.1979
737.748	15.951
741.123	15.7726
744.498	15.507
747.872	17.5793
751.247	19.0877
754.622	15.7958
757.997	12.4369
761.372	12.521
764.747	10.2529
768.121	11.7577
771.496	9.36261
774.871	4.77104
778.246	5.81278
781.621	7.46727
784.995	6.22581
788.37	4.33536
791.745	4.33041
795.12	4.37041
798.495	3.31426
801.87	1.75203
805.244	2.9482
808.619	5.39896
811.994	4.72929
815.369	7.3072
818.744	6.63617
822.119	6.99242
825.493	6.91995
828.868	2.89006
832.243	5.65894
835.618	7.41852
838.993	4.26817
842.367	5.24457
845.742	6.30791
849.117	4.7408
852.492	6.1283
855.867	7.06021
859.241	6.44786
862.616	9.00032
865.991	7.44321
869.366	7.94661
872.741	8.84537
876.115	6.61072
879.49	6.44794
882.865	4.02289
886.24	5.35309
889.615	5.61263
892.99	4.25874
896.364	1.24905
899.739	0.419174
903.114	1.4664
906.489	0.452377
909.864	1.52119
913.239	0.494492
916.613	0.734909
919.988	0.851868
923.363	2.32843
926.738	4.94106
930.113	9.98508
933.487	11.9824
936.862	16.9163
940.237	25.2225
943.612	31.5007
946.987	41.7576
950.361	57.8318
953.736	81.9353
957.111	111.928
960.486	166.716
963.861	265.463
967.236	449.669
970.61	832.749
973.985	2254.62
977.36	3942.05
980.735	7618.13
984.11	16503.8
987.485	10476.8
990.859	2271.46
994.234	849.852
997.609	433.589
1000.98	258.858
1004.36	166.352
1007.73	111.574
1011.11	73.6673
1014.48	49.6664
1017.86	33.8695
1021.23	19.1321
1024.61	10.2042
1027.98	3.48302
1031.36	2.72524
1034.73	3.05341
1038.11	3.91254
1041.48	6.82056
1044.86	4.14941
1048.23	1.77383
1051.61	5.34366
1054.98	12.4127
1058.36	22.6151
1061.73	43.2308
1065.11	65.4487
1068.48	95.1988
1071.86	127.466
1075.23	167.906
1078.6	199.79
1081.98	223.726
1085.35	230.915
1088.73	221.789
1092.1	192.555
1095.48	160.832
1098.85	130.62
1102.23	100.582
1105.6	90.0453
1108.98	77.5247
1112.35	84.7152
1115.73	94.6922
1119.1	123.662
1122.48	154.965
1125.85	203.904
1129.23	274.716
1132.6	368.161
1135.98	497.15
1139.35	644.152
1142.73	783.439
1146.1	863.364
1149.48	824.879
1152.85	694.607
1156.22	523.796
1159.6	374.771
1162.97	265.308
1166.35	183.18
1169.72	125.378
1173.1	84.9656
1176.47	62.1636
1179.85	42.3728
1183.22	26.1554
1186.6	16.6957
1189.97	11.2664
1193.35	0.305542
1196.72	4.00572
1200.1	1.83958
1203.47	2.54813
1206.85	5.06641
1210.22	3.64259
1213.6	0.547836
1216.97	2.28505
1220.35	2.18295
1223.72	0.003143
1227.1	1.40825
1230.47	1.1714
1233.85	2.54853
1237.22	3.87215
1240.6	4.92647
1243.97	6.0005
1247.35	8.93155
1250.72	10.4524
1254.1	10.6478
1257.47	10.8242
1260.85	11.7671
1264.22	9.37672
1267.59	10.4007
1270.97	9.84486
1274.34	8.42247
1277.72	8.0305
1281.09	7.31642
1284.47	2.39988
1287.84	3.51099
1291.22	1.30678
1294.59	2.98711
1297.97	0.294525
1301.34	0.818832
