Measurement: Raman, 780 nm, unoriented, Raman Data Processed
Mineral: Erdite
Rruff sample: R070139
Ideal chemistry: NaFeS_2_2H_2_O
Locality: Coyote Peak, Orick, Humboldt County, California, USA
Source: Michael Scott
Description: Deep red massive, underneath the weathering product of parallel light brown fibers (goethite), associated with submetallic bartonite, phlogopite, and barytolamprophyllite (R120087); co-type specimen
Raman shift (cm-1)	intensity
115.184	0
118.558	0.62677
121.933	4.19757
125.308	3.75159
128.683	6.11975
132.058	3.51593
135.433	7.82538
138.807	8.5723
142.182	11.4215
145.557	15.0076
148.932	14.4781
152.307	9.19531
155.681	4.78101
159.056	3.28171
162.431	1.17938
165.806	4.01724
169.181	0.75705
172.555	0.350769
175.93	2.40207
179.305	1.45859
182.68	1.49084
186.055	2.23285
189.43	5.38443
192.804	19.2087
196.179	27.2751
199.554	50.8079
202.929	91.2733
206.304	170.711
209.678	311.975
213.053	561.658
216.428	833.11
219.803	733.325
223.178	392.284
226.553	216.649
229.927	151.98
233.302	131.684
236.677	105.306
240.052	70.926
243.427	59.1658
246.801	61.753
250.176	73.3224
253.551	88.7111
256.926	118.198
260.301	158.089
263.675	220.104
267.05	311.354
270.425	445.672
273.8	631.781
277.175	833.556
280.55	944.402
283.924	876.236
287.299	711.345
290.674	555.951
294.049	402.067
297.424	280.557
300.798	189.661
304.173	127.888
307.548	86.757
310.923	55.0517
314.298	32.1426
317.673	16.5727
321.047	6.09866
324.422	3.09412
327.797	1.09024
331.172	4.1293
334.547	2.01874
337.921	7.24443
341.296	4.70967
344.671	6.3044
348.046	4.05847
351.421	5.591
354.796	14.7027
358.17	23.0789
361.545	34.0022
364.92	49.3926
368.295	68.5001
371.67	87.9154
375.044	118.704
378.419	150.586
381.794	195.392
385.169	243.251
388.544	286.191
391.918	320.774
395.293	320.68
398.668	295.232
402.043	246.844
405.418	192.304
408.793	140.872
412.167	100.522
415.542	74.6351
418.917	50.6064
422.292	37.1882
425.667	24.5565
429.041	12.8742
432.416	4.95422
435.791	3.10037
439.166	3.53819
442.541	1.16412
445.915	3.48094
449.29	1.50513
452.665	1.48227
456.04	5.72826
459.415	3.45561
462.789	13.7445
466.164	17.6992
469.539	25.7473
472.914	31.034
476.289	34.6036
479.664	37.181
483.038	36.5633
486.413	35.9911
489.788	34.0903
493.163	24.3625
496.538	19.7354
499.913	11.7286
503.287	6.5166
506.662	2.20543
510.037	2.43523
513.412	3.34831
516.787	1.25571
520.161	1.04492
523.536	0.877396
526.911	1.2827
530.286	1.25308
533.661	0.93956
537.035	2.17064
540.41	2.24521
543.785	3.71918
547.16	4.76434
550.535	10.1433
553.909	9.36371
557.284	11.8472
560.659	18.8308
564.034	21.1194
567.409	26.8365
570.784	35.3576
574.158	46.945
577.533	59.8171
580.908	74.2698
584.283	85.4131
587.658	103.008
591.033	109.945
594.407	114.871
597.782	114.379
601.157	102.56
604.532	87.5962
607.907	70.0712
611.281	57.2352
614.656	47.3733
618.031	42.0594
621.406	36.2271
624.781	28.9114
628.155	27.2861
631.53	23.914
634.905	26.7489
638.28	26.3011
641.655	24.7252
645.029	26.2127
648.404	26.6459
651.779	25.9736
655.154	21.6365
658.529	21.0369
661.904	16.5118
665.278	16.2324
668.653	14.0839
672.028	8.93445
675.403	7.80225
678.778	6.32667
682.153	4.79436
685.527	4.41675
688.902	1.55386
692.277	0.072708
695.652	0.475632
699.027	1.25897
702.401	1.50882
705.776	0.565887
709.151	0.024246
712.526	1.92154
715.901	0.285126
719.275	0.196167
722.65	1.48524
726.025	2.39775
729.4	0.081909
732.775	1.87639
736.149	1.72279
739.524	1.83995
742.899	2.38972
746.274	5.17094
749.649	4.36584
753.024	3.06764
756.398	3.14111
759.773	3.77653
763.148	2.62309
766.523	5.54854
769.898	4.5714
773.273	3.7506
776.647	7.32977
780.022	4.13481
783.397	6.85637
786.772	7.04676
790.146	6.71622
793.521	6.93685
796.896	6.5036
800.271	6.18586
803.646	5.44839
807.021	6.37708
810.395	4.1795
813.77	4.32653
817.145	6.09631
820.52	3.17464
823.895	3.1129
827.269	2.95404
830.644	2.71334
834.019	1.31995
837.394	2.34983
840.769	1.65944
844.144	1.78397
847.518	2.26846
850.893	0.295654
854.268	0.059578
857.643	3.85033
861.018	3.40785
864.393	1.34326
867.767	0.57003
871.142	0.981094
874.517	2.21495
877.892	2.71215
881.266	1.0639
884.641	1.28068
888.016	1.45051
891.391	2.78991
894.766	3.08522
898.141	3.40661
901.515	2.19931
904.89	0.401367
908.265	0.838577
911.64	0.199829
915.015	0.206451
918.389	0.433815
921.764	1.40162
925.139	0.349686
928.514	1.64661
931.889	1.28044
935.264	1.09928
938.638	0.152557
942.013	0.970467
945.388	1.26686
948.763	0.975197
952.138	0.495888
955.512	1.9654
958.887	2.60181
962.262	8.08235
965.637	12.5039
969.012	17.1049
972.386	22.7433
975.761	17.7869
979.136	9.33009
982.511	3.11909
985.886	1.55121
989.261	1.06316
992.635	0.492073
996.01	1.21669
999.385	0.154068
1002.76	0.842346
1006.13	0.295784
1009.51	3.11204
1012.88	2.27851
1016.26	2.66911
1019.63	2.68002
1023.01	3.85854
1026.38	6.02284
1029.76	4.1683
1033.13	4.99023
1036.51	5.23983
1039.88	3.19726
1043.26	7.26235
1046.63	7.28556
1050.01	2.34259
1053.38	4.13975
1056.76	3.54195
1060.13	4.71531
1063.51	2.80701
1066.88	4.03166
1070.26	2.95947
1073.63	5.92105
1077.01	4.10889
1080.38	0.880112
1083.76	4.00955
1087.13	4.50286
1090.51	3.11632
1093.88	3.45228
1097.26	0.401451
1100.63	2.55467
1104	0.416206
1107.38	1.3844
1110.75	2.79059
1114.13	0.083176
1117.5	2.4572
1120.88	2.19944
1124.25	0.951454
1127.63	0.266029
1131	0.719841
1134.38	1.27074
1137.75	1.22789
1141.13	0.764191
1144.5	0.391068
1147.88	1.16283
1151.25	0.944244
1154.63	0.214737
1158	3.21063
1161.38	3.06921
1164.75	3.06706
1168.13	0.143845
1171.5	2.51544
1174.88	1.791
1178.25	2.38147
1181.62	0.104492
1185	0.852646
1188.38	1.74362
1191.75	3.07043
1195.12	1.15338
1198.5	3.10376
1201.87	0.829315
1205.25	3.20314
1208.62	3.52827
1212	0.214935
1215.37	0.169037
1218.75	0.543564
1222.12	2.98199
1225.5	2.83163
1228.87	2.05782
1232.25	3.4408
1235.62	2.84837
1239	3.58121
1242.37	6.60358
1245.75	6.03629
1249.12	4.52667
1252.5	2.94421
1255.87	5.69443
1259.25	5.23543
1262.62	5.34494
1265.99	4.94193
1269.37	1.92419
1272.74	1.8289
1276.12	2.01723
1279.49	0.50473
