Measurement: Raman, 532 nm, unoriented, Raman Data Processed
Mineral: Erdite
Rruff sample: R070139
Ideal chemistry: NaFeS_2_2H_2_O
Locality: Coyote Peak, Orick, Humboldt County, California, USA
Source: Michael Scott
Description: Deep red massive, underneath the weathering product of parallel light brown fibers (goethite), associated with submetallic bartonite, phlogopite, and barytolamprophyllite (R120087); co-type specimen
Raman shift (cm-1)	intensity
113.889	0
117.264	2.75968
120.639	1.5713
124.013	4.67598
127.388	2.48103
130.763	4.47372
134.138	4.1409
137.513	5.63952
140.888	6.52611
144.262	5.63168
147.637	8.61951
151.012	5.29116
154.387	3.86755
157.762	1.14278
161.137	1.98629
164.511	0.526886
167.886	1.40153
171.261	2.06107
174.636	0.461967
178.011	0.59967
181.385	0.634529
184.76	2.7827
188.135	4.86697
191.51	11.362
194.885	13.9579
198.26	26.9993
201.634	45.4478
205.009	78.5231
208.384	120.359
211.759	183.206
215.133	293.034
218.508	398.772
221.883	327.514
225.258	157.014
228.633	80.3104
232.008	55.5597
235.382	49.5051
238.757	43.6901
242.132	31.3677
245.507	21.7405
248.882	20.6237
252.256	25.5531
255.631	35.6005
259.006	46.4713
262.381	62.7739
265.756	86.2618
269.131	124.392
272.505	172.58
275.88	238.914
279.255	306.507
282.63	360.884
286.005	356.079
289.38	302.41
292.754	240.965
296.129	177.391
299.504	121.327
302.879	78.7648
306.254	50.8059
309.628	31.4089
313.003	21.621
316.378	10.0105
319.753	5.53817
323.128	4.40606
326.502	0.260956
329.877	0.750359
333.252	0.930801
336.627	0.269234
340.002	1.81403
343.377	4.82403
346.751	1.08485
350.126	1.39392
353.501	2.08307
356.876	7.22914
360.251	10.1238
363.625	19.2269
367	23.2992
370.375	32.3805
373.75	40.8185
377.125	51.8494
380.5	67.933
383.874	89.3321
387.249	111.079
390.624	140.701
393.999	160.399
397.374	172.119
400.748	166.157
404.123	138.865
407.498	110.256
410.873	78.847
414.248	54.2427
417.623	37.3347
420.997	28.851
424.372	19.376
427.747	12.2851
431.122	5.45151
434.497	3.93888
437.872	0.925011
441.246	0.028244
444.621	0.025276
447.996	0.766556
451.371	1.65453
454.745	2.57581
458.12	1.44077
461.495	2.6891
464.87	5.06285
468.245	10.1291
471.62	13.5907
474.994	19.0057
478.369	24.6001
481.744	27.0912
485.119	31.9871
488.494	35.3182
491.868	30.8972
495.243	29.3542
498.618	22.6342
501.993	17.4254
505.368	12.8468
508.743	8.04591
512.117	3.81989
515.492	4.3386
518.867	2.26794
522.242	1.72026
525.617	2.45683
528.991	3.85711
532.366	1.00378
535.741	0.346123
539.116	0.183296
542.491	1.68481
545.866	0.38826
549.24	0.194214
552.615	1.80666
555.99	0.52993
559.365	5.5968
562.74	4.80762
566.115	4.3429
569.489	8.03773
572.864	11.5994
576.239	19.5664
579.614	24.7089
582.989	34.963
586.363	37.8771
589.738	52.7686
593.113	58.2246
596.488	65.6356
599.863	67.6168
603.237	60.8593
606.612	54.3101
609.987	44.6298
613.362	35.0089
616.737	32.827
620.112	26.42
623.486	22.9268
626.861	16.6149
630.236	14.1461
633.611	15.9387
636.986	21.6968
640.361	19.4436
643.735	19.7164
647.11	18.249
650.485	22.3507
653.86	20.8242
657.235	21.183
660.609	17.0834
663.984	16.2498
667.359	13.2443
670.734	10.4121
674.109	10.0403
677.484	9.70126
680.858	7.62796
684.233	7.14311
687.608	4.32865
690.983	3.89035
694.357	0.178375
697.732	2.92073
701.107	1.09111
704.482	0.140877
707.857	1.9893
711.232	0.371521
714.606	1.81893
717.981	1.59169
721.356	0.509819
724.731	0.473915
728.106	1.82203
731.481	0.468292
734.855	1.31544
738.23	0.459457
741.605	0.37986
744.98	1.00073
748.355	1.37627
751.729	4.08612
755.104	1.10679
758.479	0.11084
761.854	1.20762
765.229	2.66252
768.604	4.45451
771.978	4.68552
775.353	4.63203
778.728	3.76508
782.103	5.99802
785.478	8.02303
788.852	5.50485
792.227	8.3027
795.602	7.41119
798.977	7.68543
802.352	6.79596
805.726	9.93037
809.101	5.96417
812.476	8.70923
815.851	6.53346
819.226	7.90479
822.601	6.8629
825.975	6.4093
829.35	3.19772
832.725	2.75765
836.1	1.99659
839.475	2.73938
842.85	4.29493
846.224	2.30054
849.599	2.87646
852.974	4.12072
856.349	0.270111
859.724	1.94143
863.098	2.06523
866.473	1.26157
869.848	2.3029
873.223	1.38295
876.598	1.80819
879.972	2.90553
883.347	2.87559
886.722	1.22076
890.097	1.39884
893.472	3.53797
896.847	3.43869
900.221	3.42268
903.596	3.71521
906.971	2.76749
910.346	2.67246
913.721	4.51729
917.096	3.8338
920.47	3.19289
923.845	2.98327
927.22	3.07849
930.595	0.534309
933.97	1.66054
937.344	0.920586
940.719	2.26289
944.094	1.82203
947.469	0.058411
950.844	0.806198
954.218	1.74353
957.593	3.8945
960.968	3.49143
964.343	8.56937
967.718	12.0792
971.092	22.0531
974.467	33.2275
977.842	29.6611
981.217	10.9649
984.592	1.87022
987.967	2.75063
991.341	1.63985
994.716	1.01341
998.091	3.29782
1001.47	0.773979
1004.84	1.27397
1008.22	1.70365
1011.59	3.04289
1014.97	5.51528
1018.34	3.70131
1021.72	4.62927
1025.09	0.891747
1028.46	4.03393
1031.84	5.7573
1035.21	6.87811
1038.59	7.04791
1041.96	7.46835
1045.34	7.81793
1048.71	7.19033
1052.09	5.8083
1055.46	7.48099
1058.84	7.37315
1062.21	6.05324
1065.59	4.67928
1068.96	6.04395
1072.34	6.31873
1075.71	4.07488
1079.09	6.16994
1082.46	4.73082
1085.84	7.92724
1089.21	5.77946
1092.59	4.70894
1095.96	5.71515
1099.34	3.84393
1102.71	3.94238
1106.09	1.89143
1109.46	1.83012
1112.84	0.152359
1116.21	1.2621
1119.58	0.025673
1122.96	1.20058
1126.33	0.026016
1129.71	0.760773
1133.08	1.61298
1136.46	1.0074
1139.83	1.95303
1143.21	2.71568
1146.58	2.60997
1149.96	1.63748
1153.33	1.1821
1156.71	2.33478
1160.08	3.30679
1163.46	1.40445
1166.83	2.55365
1170.21	3.2502
1173.58	6.69577
1176.96	6.98534
1180.33	6.4567
1183.71	5.84769
1187.08	4.40227
1190.46	4.55385
1193.83	4.83739
1197.2	2.72617
1200.58	3.69096
1203.95	3.58809
1207.33	1.67453
1210.7	1.05028
1214.08	2.62299
1217.45	0.202347
1220.83	0.052307
1224.2	0.966141
1227.58	0.643707
1230.95	0.705505
1234.33	2.77753
1237.7	4.45078
1241.08	3.80544
1244.45	7.21321
1247.83	9.7103
1251.2	9.05437
1254.58	7.49101
1257.95	7.6129
1261.33	6.69438
1264.7	3.73581
1268.08	5.14665
1271.45	2.85077
1274.83	2.52628
1278.2	3.29617
1281.58	1.71072
1284.95	0.12323
