Measurement: Raman, 532 nm, unoriented, Raman Data Processed
Mineral: Ericssonite
Rruff sample: R070615
Ideal chemistry: BaMn^2+^_2_Fe^3+^(Si_2_O_7_)O(OH)
Locality: Langban, Filipstad, Varmland, Sweden
Source: Rock Currier (large piece), Michael Scott (small piece)
Description: Dark reddish brown platy crystals associated with rhodonite and diopside, this is the orthorhombic polytype, formally known as orthoericssonite.
Raman shift (cm-1)	intensity
137.653	0
140.546	30.212
143.439	50.2974
146.331	72.3014
149.224	68.346
152.117	61.0533
155.01	57.4743
157.902	54.8722
160.795	95.1291
163.688	96.769
166.58	79.51
169.473	143.288
172.366	182.857
175.258	170.519
178.151	255.859
181.044	244.481
183.936	304.298
186.829	330.926
189.722	261.593
192.615	150.196
195.507	113.77
198.4	84.0739
201.293	60.6555
204.185	62.7448
207.078	86.1401
209.971	71.7645
212.863	94.048
215.756	82.699
218.649	125.403
221.542	114.403
224.434	169.326
227.327	219.535
230.22	255.145
233.112	249.287
236.005	265.116
238.898	285.932
241.79	215.211
244.683	168.671
247.576	93.5456
250.469	67.6759
253.361	90.8205
256.254	66.6621
259.147	2.58569
262.039	4.21252
264.932	44.7303
267.825	0.506592
270.717	34.7089
273.61	24.9614
276.503	20.3642
279.396	56.7675
282.288	65.1328
285.181	57.3352
288.074	67.5515
290.966	85.5796
293.859	33.5668
296.752	43.1111
299.644	24.3269
302.537	2.77884
305.43	11.5364
308.322	0.942596
311.215	31.8543
314.108	31.2402
317.001	61.0973
319.893	26.8103
322.786	49.3679
325.679	92.3854
328.571	157.212
331.464	135.959
334.357	131.352
337.25	163.437
340.142	220.82
343.035	284.939
345.928	332.148
348.82	337.863
351.713	379.748
354.606	381.696
357.498	454.423
360.391	462.827
363.284	399.151
366.176	368.883
369.069	420.356
371.962	381.764
374.854	383.296
377.747	396.089
380.64	431.975
383.533	402.064
386.425	358.239
389.318	249.171
392.211	123.654
395.103	96.6108
397.996	100.545
400.889	77.4627
403.781	77.6643
406.674	51.6088
409.567	51.1772
412.46	38.7951
415.352	69.8845
418.245	58.5592
421.138	23.096
424.03	17.6288
426.923	4.88171
429.816	9.39911
432.709	49.7915
435.601	40.2672
438.494	78.1063
441.387	108.07
444.279	166.6
447.172	234.737
450.065	305.098
452.957	331.873
455.85	416.937
458.743	361.634
461.635	370.661
464.528	429.443
467.421	408.697
470.313	285.192
473.206	214.753
476.099	159.94
478.992	94.2
481.884	56.1055
484.777	42.8416
487.67	50.0314
490.562	58.0689
493.455	43.6347
496.348	3.02353
499.24	13.2543
502.133	11.9575
505.026	20.0043
507.919	19.6448
510.811	14.1993
513.704	11.3712
516.597	9.72124
519.489	4.858
522.382	27.6428
525.275	15.6135
528.168	42.3111
531.06	39.3074
533.953	44.7245
536.846	51.8793
539.738	55.7881
542.631	42.6234
545.524	82.3542
548.416	86.8855
551.309	149.751
554.202	217.875
557.095	265.239
559.987	340.379
562.88	405.709
565.773	431.644
568.665	390.331
571.558	354.202
574.451	248.102
577.343	160.836
580.236	110.623
583.129	74.1021
586.021	30.788
588.914	63.6646
591.807	3.86606
594.699	1.35672
597.592	8.27011
600.485	8.15659
603.378	12.9458
606.27	4.02017
609.163	11.8578
612.056	4.49805
614.948	6.3837
617.841	6.62662
620.734	14.3541
623.626	24.0989
626.519	34.477
629.412	79.2537
632.305	90.0703
635.197	125.378
638.09	177.708
640.983	285.802
643.875	403.217
646.768	597.306
649.661	803.944
652.553	1010.62
655.446	1264.24
658.339	1520.4
661.232	1737.91
664.124	1862.41
667.017	2000.13
669.91	2180.16
672.802	2370.28
675.695	2551.28
678.588	2442.25
681.481	2154.3
684.373	1778.5
687.266	1413.37
690.159	1039.54
693.051	798.442
695.944	609.439
698.837	489.926
701.729	367.88
704.622	264.32
707.515	174.96
710.407	200.905
713.3	137.07
716.193	120.614
719.086	119.471
721.978	67.0528
724.871	69.3886
727.764	63.4695
730.656	19.2983
733.549	28.415
736.442	8.70508
739.334	22.1163
742.227	8.70679
745.12	11.9892
748.013	19.8495
750.905	15.1982
753.798	35.3092
756.691	0.484375
759.583	2.94705
762.476	17.2894
765.369	26.5062
768.261	7.14526
771.154	0.545776
774.047	32.2923
776.939	15.5758
779.832	13.5891
782.725	16.5772
785.618	16.7367
788.51	25.5488
791.403	17.073
794.296	6.53461
797.188	5.02397
800.081	22.379
802.974	20.6728
805.866	16.66
808.759	23.3065
811.652	16.8827
814.545	2.6225
817.437	28.9787
820.33	30.6863
823.223	41.8363
826.115	16.0526
829.008	33.3408
831.901	61.0772
834.793	47.339
837.686	15.0598
840.579	46.4109
843.471	15.8615
846.364	25.3678
849.257	25.7924
852.15	18.702
855.042	35.9188
857.935	34.6734
860.828	0.759445
863.72	45.3277
866.613	49.5101
869.506	64.0209
872.399	141.262
875.291	186.057
878.184	287.274
881.077	412.74
883.969	520.713
886.862	636.883
889.755	732.793
892.647	708.722
895.54	635.641
898.433	496.897
901.325	343.52
904.218	240.496
907.111	172.268
910.004	144.75
912.896	146.407
915.789	185.791
918.682	212.904
921.574	254.769
924.467	228.229
927.36	286.504
930.252	282.314
933.145	217.904
936.038	112.835
938.931	83.2575
941.823	15.7336
944.716	30.4065
947.609	21.3969
950.501	15.3008
953.394	13.7459
956.287	7.55328
959.179	5.12146
962.072	12.1624
964.965	18.4584
967.857	57.6016
970.75	65.3975
973.643	70.3249
976.536	119.591
979.428	115.112
982.321	176.46
985.214	216.178
988.106	350.093
990.999	505.822
993.892	712.694
996.784	901.358
999.677	1128.71
1002.57	1244.51
1005.46	1140.33
1008.36	900.413
1011.25	597.273
1014.14	419.983
1017.03	291.799
1019.93	213.098
1022.82	143.9
1025.71	101.811
1028.6	89.0163
1031.5	51.8564
1034.39	58.7549
1037.28	40.6514
1040.17	53.0754
1043.07	27.4968
1045.96	34.1058
1048.85	20.3335
1051.75	31.8264
1054.64	31.3111
1057.53	4.11804
1060.42	12.6406
1063.32	24.8122
1066.21	25.6496
1069.1	21.2856
1071.99	17.7954
1074.89	18.6824
1077.78	24.7324
1080.67	32.9076
1083.57	31.6058
1086.46	41.2591
1089.35	63.9085
1092.24	24.8076
1095.14	7.48144
1098.03	19.1104
1100.92	22.7481
1103.81	9.74394
1106.71	15.5681
1109.6	34.5674
1112.49	60.1339
1115.38	68.5922
1118.28	66.242
1121.17	24.1308
1124.06	22.1555
1126.96	36.3788
1129.85	19.2496
1132.74	27.134
1135.63	36.8648
1138.53	26.6833
1141.42	37.1456
1144.31	16.8124
1147.2	12.6869
1150.1	18.0283
1152.99	25.1267
1155.88	34.7816
1158.78	48.2722
1161.67	35.5137
1164.56	28.1636
1167.45	24.4069
1170.35	21.3942
1173.24	31.4055
1176.13	8.56044
1179.02	24.0748
1181.92	45.5326
1184.81	41.2711
1187.7	7.68602
1190.6	10.4904
1193.49	19.8689
1196.38	47.499
1199.27	51.7126
1202.17	16.3196
1205.06	40.2024
1207.95	28.9889
1210.84	61.2875
1213.74	35.0594
1216.63	58.2731
1219.52	3.24077
1222.41	17.3476
1225.31	15.6237
1228.2	28.9777
1231.09	23.7436
1233.99	39.6015
1236.88	62.1693
1239.77	32.9466
1242.66	21.7378
1245.56	11.3081
1248.45	22.1072
1251.34	18.1037
1254.23	18.8286
1257.13	2.19192
1260.02	25.3937
1262.91	23.285
1265.81	30.9711
1268.7	29.0786
1271.59	4.16621
1274.48	34.3472
1277.38	25.6101
1280.27	23.7816
1283.16	15.3488
1286.05	0.238373
