Measurement: Raman, 532 nm, unoriented, Raman Data Processed
Mineral: Ericssonite
Rruff sample: R130001
Ideal chemistry: BaMn^2+^_2_Fe^3+^(Si_2_O_7_)O(OH)
Locality: Langban, Filipstad, Varmland, Sweden
Source: Marcus Origlieri
Description: Dark red platy, massive, monoclinic polytype, associated with caryopilite
Measured chemistry: (Ba_1.01_Pb_0.01_)(Mn_1.95_Mg_0.05_)Fe_0.98_(Si_2_O_7_)O[(OH)_0.96_F_0.04_]
Raman shift (cm-1)	intensity
190.124	0
193.017	2.57994
195.909	0.987461
198.802	1.28714
201.695	0.147537
204.588	0.580109
207.48	0.112568
210.373	0.796623
213.266	1.88714
216.158	2.17904
219.051	1.53262
221.944	1.52475
224.836	2.04325
227.729	3.2196
230.622	4.82489
233.514	7.17007
236.407	8.59515
239.3	8.56394
242.193	7.14167
245.085	5.02355
247.978	3.5673
250.871	1.66681
253.763	1.04443
256.656	1.05224
259.549	0.902313
262.442	1.20596
265.334	1.55126
268.227	2.70263
271.12	3.70396
274.012	3.7203
276.905	5.04857
279.798	5.39885
282.69	6.58807
285.583	7.62463
288.476	8.25148
291.368	8.34192
294.261	7.92936
297.154	6.77764
300.047	4.49697
302.939	2.69818
305.832	0.521774
308.725	0.281204
311.617	0.522602
314.51	0.346344
317.403	0.131233
320.296	0.965355
323.188	1.8238
326.081	3.4794
328.974	5.17248
331.866	7.44217
334.759	9.40611
337.652	12.1909
340.544	14.3572
343.437	16.7085
346.33	17.4905
349.223	18.4225
352.115	20.8416
355.008	24.6646
357.901	30.2152
360.793	32.9927
363.686	32.1679
366.579	27.4832
369.471	21.5549
372.364	18.4248
375.257	17.2495
378.149	17.7997
381.042	21.1341
383.935	24.9078
386.828	26.4483
389.72	21.313
392.613	13.199
395.506	6.00029
398.398	2.32076
401.291	0.045872
404.184	0.216976
407.077	0.225567
409.969	0.737556
412.862	1.75909
415.755	2.3363
418.647	2.20761
421.54	1.21623
424.433	0.326496
427.325	0.05101
430.218	0.427284
433.111	1.45545
436.003	2.0775
438.896	3.51414
441.789	4.96085
444.682	6.89426
447.574	9.1076
450.467	12.533
453.36	15.0643
456.252	16.8809
459.145	17.9002
462.038	18.0619
464.93	17.3482
467.823	15.7311
470.716	14.7601
473.609	9.34791
476.501	6.62239
479.394	5.24958
482.287	3.96487
485.179	3.2727
488.072	2.29682
490.965	1.3073
493.858	0.229315
496.75	0.170715
499.643	0.151106
502.536	0.257208
505.428	0.104347
508.321	0.159231
511.214	0.137367
514.106	0.002354
516.999	0.210871
519.892	0.30043
522.784	0.299231
525.677	0.594372
528.57	0.875635
531.463	0.7789
534.355	1.16033
537.248	1.6683
540.141	2.11397
543.033	2.52625
545.926	3.2935
548.819	4.10824
551.712	4.844
554.604	5.87059
557.497	6.95274
560.39	7.83703
563.282	10.0797
566.175	12.3186
569.068	13.9171
571.96	12.5727
574.853	9.54128
577.746	5.91364
580.639	4.03818
583.531	2.72554
586.424	1.60839
589.317	1.40514
592.209	1.20958
595.102	1.04483
597.995	0.894484
600.888	0.689434
603.78	0.377878
606.673	0.118742
609.566	0.248903
612.458	0.113245
615.351	0.491869
618.244	0.24317
621.136	0.197763
624.029	0.109655
626.922	0.576321
629.814	1.17638
632.707	1.49303
635.6	1.98647
638.493	3.18082
641.385	4.41038
644.278	6.41548
647.171	9.94994
650.063	14.5323
652.956	20.8971
655.849	29.8064
658.741	39.4541
661.634	48.8102
664.527	54.8478
667.42	60.9689
670.312	71.3458
673.205	89.7688
676.098	110.202
678.99	129.127
681.883	133.413
684.776	118.927
687.668	92.5258
690.561	67.1217
693.454	48.2135
696.347	35.8217
699.239	26.3576
702.132	21.0789
705.025	16.321
707.917	13.5062
710.81	11.5876
713.703	9.90122
716.596	7.92597
719.488	6.05941
722.381	4.38901
725.274	3.80152
728.166	2.67196
731.059	1.66921
733.952	1.44238
736.844	0.90423
739.737	1.2094
742.63	1.56842
745.523	0.668947
748.415	0.36095
751.308	0.00042
754.201	0.1987
757.093	0.349026
759.986	0.070839
762.879	0.189434
765.771	0.112375
768.664	0.045074
771.557	0.200878
774.449	0.211988
777.342	0.077873
780.235	0.370081
783.128	0.267487
786.02	0.026857
788.913	0.144897
791.806	0.305807
794.698	0.192875
797.591	0.261438
800.484	0.316551
803.376	0.263359
806.269	0.05496
809.162	0.413988
812.055	0.533661
814.947	0.48683
817.84	0.369139
820.733	0.360161
823.625	0.953625
826.518	0.818834
829.411	1.02154
832.303	0.635485
835.196	1.30629
838.089	1.72392
840.982	2.04196
843.874	2.47739
846.767	2.27155
849.66	1.73136
852.552	1.17056
855.445	0.915787
858.338	0.735386
861.231	0.795616
864.123	0.291828
867.016	0.999897
869.909	1.12267
872.801	2.043
875.694	3.52364
878.587	5.55695
881.479	10.6079
884.372	19.5059
887.265	32.9894
890.158	50.1733
893.05	65.4545
895.943	67.0767
898.836	45.6633
901.728	25.2701
904.621	13.7271
907.514	9.2888
910.406	7.75842
913.299	7.42941
916.192	7.6542
919.085	7.24185
921.977	6.07418
924.87	6.57943
927.763	8.85317
930.655	10.7135
933.548	8.38433
936.441	4.72011
939.333	1.95649
942.226	0.666246
945.119	0.02158
948.011	0.252995
950.904	0.353403
953.797	0.414175
956.69	0.012627
959.582	0.315063
962.475	0.331831
965.368	0.55077
968.26	1.16166
971.153	1.59182
974.046	1.56775
976.938	2.59579
979.831	3.0148
982.724	4.19163
985.617	5.4447
988.509	7.81762
991.402	11.3185
994.295	17.4088
997.187	27.7585
1000.08	42.3198
1002.97	60.6974
1005.87	74.8624
1008.76	68.3738
1011.65	45.4709
1014.54	27.6814
1017.44	17.8886
1020.33	11.7213
1023.22	8.75402
1026.11	6.61455
1029.01	5.08219
1031.9	4.47518
1034.79	3.82831
1037.68	3.30783
1040.58	2.99442
1043.47	2.6556
1046.36	1.69019
1049.26	1.99103
1052.15	1.27789
1055.04	0.852295
1057.93	0.683298
1060.83	1.18537
1063.72	1.24812
1066.61	0.683006
1069.51	0.661701
1072.4	0.547186
1075.29	0.395706
1078.18	0.314411
1081.08	0.485302
1083.97	0.514368
1086.86	0.122822
1089.75	0.083998
1092.65	0.344387
1095.54	0.36751
1098.43	0.234547
1101.33	0.124779
1104.22	0.297638
1107.11	0.617006
1110	0.260374
1112.89	0.105745
1115.79	0.032574
1118.68	0.456198
1121.57	0.27182
1124.47	0.467218
1127.36	0.68293
1130.25	0.318434
1133.14	0.615341
1136.04	0.542141
1138.93	0.379519
1141.82	0.659895
1144.71	0.554258
1147.61	0.358162
1150.5	0.196402
1153.39	0.111708
1156.29	0.121313
1159.18	0.552015
1162.07	0.513454
1164.96	0.343983
1167.86	0.286308
1170.75	0.626497
1173.64	0.385019
1176.54	0.884327
1179.43	0.713573
1182.32	0.069639
1185.21	0.206148
1188.11	0.246393
1191	0.365919
1193.89	0.029804
1196.78	0.659389
1199.68	0.887726
1202.57	0.164183
1205.46	0.672626
1208.35	0.621572
1211.25	0.780272
1214.14	0.069256
1217.03	0.522022
1219.92	0.077005
1222.82	0.284684
1225.71	0.575977
1228.6	0.079057
1231.5	0.012692
1234.39	0.049026
1237.28	0.647716
1240.17	0.180914
1243.07	0.047412
1245.96	0.191732
1248.85	0.063316
1251.74	0.627323
1254.64	0.428459
1257.53	0.354944
1260.42	0.384617
1263.32	0.477652
1266.21	0.349974
1269.1	0.735739
1271.99	0.749443
1274.89	0.137106
1277.78	0.406424
1280.67	0.725033
1283.57	1.02944
1286.46	0.847944
1289.35	0.861925
1292.24	0.80847
1295.13	0.496855
1298.03	0.639982
1300.92	0.53511
