Measurement: Raman, 780 nm, unoriented, Raman Data Processed
Mineral: Ericssonite
Rruff sample: R070615
Ideal chemistry: BaMn^2+^_2_Fe^3+^(Si_2_O_7_)O(OH)
Locality: Langban, Filipstad, Varmland, Sweden
Source: Rock Currier (large piece), Michael Scott (small piece)
Description: Dark reddish brown platy crystals associated with rhodonite and diopside, this is the orthorhombic polytype, formally known as orthoericssonite.
Raman shift (cm-1)	intensity
129.584	0
132.477	21.3584
135.37	69.9192
138.262	144.694
141.155	118.489
144.048	79.5731
146.94	79.449
149.833	45.2992
152.726	51.33
155.619	14.3909
158.511	11.3408
161.404	12.8616
164.297	62.0145
167.189	89.3712
170.082	132.341
172.975	185.925
175.867	282.222
178.76	403.928
181.653	602.491
184.546	630.573
187.438	684.891
190.331	624.044
193.224	463.342
196.116	377.274
199.009	249.422
201.902	302.104
204.794	317.164
207.687	397.797
210.58	360.31
213.472	370.494
216.365	398.459
219.258	343.4
222.151	431.321
225.043	511.08
227.936	694.994
230.829	875.019
233.721	1089.51
236.614	1289.09
239.507	1318.28
242.399	1128.76
245.292	819.102
248.185	546.611
251.078	429.363
253.97	246.28
256.863	238.482
259.756	134.621
262.648	127.271
265.541	216.94
268.434	234.818
271.327	333.841
274.219	383.546
277.112	494.03
280.005	673.331
282.897	811.832
285.79	964.192
288.683	967.636
291.575	1006.44
294.468	916.955
297.361	729.212
300.253	510.056
303.146	292.191
306.039	153.479
308.932	32.2432
311.824	87.9387
314.717	60.7467
317.61	69.8307
320.502	14.2511
323.395	36.781
326.288	128.149
329.18	236.378
332.073	416.689
334.966	536.529
337.859	683.838
340.751	799.545
343.644	865.046
346.537	880.781
349.429	925.433
352.322	1006.88
355.215	1137.43
358.108	1398.28
361	1510.17
363.893	1720.49
366.786	1510.81
369.678	1498.26
372.571	1755.87
375.464	2172.53
378.356	3040.62
381.249	3901.51
384.142	4597.4
387.034	4604.54
389.927	3566.54
392.82	2343.85
395.713	1433.84
398.605	925.069
401.498	696.078
404.391	596.64
407.283	775.155
410.176	764.552
413.069	880.533
415.962	815.292
418.854	583.841
421.747	320.401
424.64	184.406
427.532	41.7102
430.425	13.4542
433.318	71.3063
436.21	2.18994
439.103	15.2086
441.996	67.5405
444.889	169.921
447.781	207.065
450.674	382.184
453.567	461.693
456.459	663.78
459.352	900.907
462.245	1059.96
465.137	1281.27
468.03	1303.72
470.923	1187.91
473.816	924.418
476.708	623.646
479.601	415.146
482.494	298.885
485.386	179.95
488.279	110.653
491.172	42.3004
494.065	44.4262
496.957	18.1242
499.85	59.358
502.743	49.0274
505.635	18.6456
508.528	12.1834
511.421	36.8917
514.313	34.4822
517.206	54.2059
520.099	13.3978
522.991	7.8446
525.884	7.49945
528.777	13.3313
531.67	34.8
534.562	41.7412
537.455	69.8756
540.348	96.7807
543.24	97.0698
546.133	132.78
549.026	264.255
551.918	313.398
554.811	527.475
557.704	766.321
560.597	1101.07
563.489	1578.16
566.382	2085.44
569.275	2396.03
572.167	2059.5
575.06	1451.52
577.953	859.634
580.846	572.768
583.738	365.538
586.631	257.948
589.524	173.38
592.416	99.7097
595.309	99.5266
598.202	17.8138
601.094	63.6192
603.987	7.49109
606.88	8.7099
609.773	26.8107
612.665	37.0944
615.558	22.0319
618.451	1.2074
621.343	18.5276
624.236	48.7859
627.129	140.067
630.021	82.431
632.914	171.583
635.807	319.009
638.699	433.114
641.592	651.576
644.485	913.49
647.378	1416.45
650.27	2209.82
653.163	3207.34
656.056	4629.31
658.948	6062.96
661.841	6886.79
664.734	6552.74
667.626	6005.03
670.519	6069.7
673.412	6961.23
676.305	8135.79
679.197	9120.28
682.09	9163.12
684.983	7881.85
687.875	5948.38
690.768	4232.83
693.661	2932.01
696.553	2123.72
699.446	1592.91
702.339	1232.98
705.232	936.902
708.124	758.589
711.017	538.93
713.91	412.897
716.802	364.67
719.695	269.162
722.588	221.698
725.481	185.117
728.373	113.85
731.266	67.3445
734.159	61.3671
737.051	32.0668
739.944	58.986
742.837	16.567
745.729	15.0775
748.622	9.07373
751.515	13.3345
754.408	3.26489
757.3	9.80072
760.193	26.4434
763.086	4.97339
765.978	13.9308
768.871	29.4216
771.764	13.44
774.656	26.1354
777.549	15.9287
780.442	24.0218
783.335	13.5653
786.227	4.20361
789.12	30.3758
792.013	26.7349
794.905	3.67871
797.798	4.36615
800.691	3.59741
803.583	5.44006
806.476	27.0285
809.369	11.4018
812.261	4.93127
815.154	5.26129
818.047	15.2628
820.94	16.2943
823.832	9.50659
826.725	18.0118
829.618	14.049
832.51	90.4476
835.403	114.107
838.296	160.201
841.188	171.719
844.081	185.31
846.974	104.437
849.867	40.3124
852.759	40.3211
855.652	20.3847
858.545	16.3969
861.437	1.59723
864.33	32.6965
867.223	119.663
870.115	186.989
873.008	294.135
875.901	516.511
878.794	727.891
881.686	1194.99
884.579	1869.75
887.472	2771.99
890.364	3786.89
893.257	4516.04
896.15	4275.23
899.043	3228.42
901.935	2108.92
904.828	1442.84
907.721	987.807
910.613	873.75
913.506	808.973
916.399	882.131
919.291	1013.69
922.184	1324.74
925.077	1711.52
927.97	2277.47
930.862	2405.93
933.755	1819.52
936.648	1109.36
939.54	605.409
942.433	291.765
945.326	202.81
948.218	126.629
951.111	75.2069
954.004	27.6579
956.896	20.7304
959.789	6.56421
962.682	22.2466
965.575	5.27008
968.467	1.68292
971.36	5.6084
974.253	2.23041
977.145	14.1804
980.038	6.7096
982.931	32.1526
985.823	89.9142
988.716	184.946
991.609	229.252
994.502	383.163
997.394	713.074
1000.29	1083.04
1003.18	1497.81
1006.07	1551.23
1008.97	1309.83
1011.86	817.96
1014.75	447.034
1017.64	282.26
1020.54	151.098
1023.43	92.0962
1026.32	75.8876
1029.21	34.2503
1032.11	12.5732
1035	12.2308
1037.89	31.8312
1040.79	11.5162
1043.68	4.78552
1046.57	4.33209
1049.46	13.4745
1052.36	15.4761
1055.25	6.7655
1058.14	5.15759
1061.03	34.4376
1063.93	6.85175
1066.82	34.1973
1069.71	22.2839
1072.6	49.4326
1075.5	25.4463
1078.39	21.6426
1081.28	9.61978
1084.17	46.6022
1087.07	49.2768
1089.96	6.11249
1092.85	45.2788
1095.75	65.2557
1098.64	28.0258
1101.53	68.0019
1104.42	32.7507
1107.32	66.6474
1110.21	64.3916
1113.1	36.4927
1115.99	10.1571
1118.89	52.6812
1121.78	46.1621
1124.67	35.7758
1127.57	70.8033
1130.46	33.2617
1133.35	48.2881
1136.24	43.7286
1139.14	40.3951
1142.03	41.3648
1144.92	11.7291
1147.82	24.1444
1150.71	47.6701
1153.6	58.2369
1156.49	42.5341
1159.39	28.7826
1162.28	53.2925
1165.17	45.1566
1168.06	24.4563
1170.96	25.9427
1173.85	54.4937
1176.74	7.73862
1179.63	26.1365
1182.53	7.21997
1185.42	23.9517
1188.31	16.1696
1191.2	33.1902
1194.1	28.7909
1196.99	25.6029
1199.88	27.2455
1202.78	25.8312
1205.67	66.7745
1208.56	33.6997
1211.45	10.789
1214.35	11.7343
1217.24	15.7286
1220.13	23.0931
1223.03	31.9794
1225.92	34.9971
1228.81	25.5475
1231.7	22.5757
1234.6	5.90021
1237.49	29.8558
1240.38	23.6294
1243.27	3.51077
1246.17	23.4399
1249.06	5.87814
1251.95	25.4077
1254.85	33.3978
1257.74	15.4042
1260.63	2.09894
1263.52	18.8274
1266.42	16.5861
1269.31	35.9457
1272.2	20.1713
1275.09	0.926758
1277.99	6.36319
