Measurement: Raman, 780 nm, unoriented, Raman Data Processed
Mineral: Ericssonite
Rruff sample: R130001
Ideal chemistry: BaMn^2+^_2_Fe^3+^(Si_2_O_7_)O(OH)
Locality: Langban, Filipstad, Varmland, Sweden
Source: Marcus Origlieri
Description: Dark red platy, massive, monoclinic polytype, associated with caryopilite
Measured chemistry: (Ba_1.01_Pb_0.01_)(Mn_1.95_Mg_0.05_)Fe_0.98_(Si_2_O_7_)O[(OH)_0.96_F_0.04_]
Raman shift (cm-1)	intensity
103.252	0
106.627	102.451
110.002	34.5782
113.377	1.71367
116.752	1.05862
120.127	10.9983
123.501	22.067
126.876	44.5091
130.251	54.1497
133.626	38.5192
137.001	19.0053
140.375	2.8472
143.75	2.12189
147.125	3.20131
150.5	2.11233
153.875	1.3204
157.25	2.04849
160.624	10.4301
163.999	26.6141
167.374	36.528
170.749	32.8212
174.124	28.6432
177.498	37.6193
180.873	48.0877
184.248	64.0824
187.623	78.3242
190.998	58.7024
194.373	34.5076
197.747	29.6308
201.122	24.4506
204.497	25.4507
207.872	27.817
211.247	32.0166
214.621	30.1671
217.996	23.6022
221.371	23.9364
224.746	28.1926
228.121	40.2168
231.495	62.6053
234.87	89.2028
238.245	100.029
241.62	86.9177
244.995	60.3808
248.369	38.8126
251.744	23.7128
255.119	11.7928
258.494	8.52989
261.869	8.29262
265.244	8.30098
268.618	13.4718
271.993	25.0878
275.368	38.6862
278.743	55.0185
282.118	69.8959
285.493	79.9599
288.867	86.2866
292.242	82.9769
295.617	71.1977
298.992	50.1564
302.366	24.9594
305.741	6.25169
309.116	5.16037
312.491	7.3313
315.866	4.44813
319.241	2.65897
322.615	15.0669
325.99	31.9518
329.365	52.4162
332.74	75.544
336.115	105.416
339.49	144.224
342.864	174.874
346.239	180.915
349.614	183.363
352.989	215.204
356.364	273.902
359.738	331.832
363.113	335.895
366.488	276.138
369.863	204.343
373.238	155.66
376.613	146.553
379.987	173.996
383.362	233.314
386.737	270.394
390.112	192.713
393.486	93.7728
396.861	38.06
400.236	15.0686
403.611	9.78078
406.986	14.4317
410.361	29.1785
413.735	41.9596
417.11	42.4626
420.485	21.9809
423.86	3.75517
427.235	3.39621
430.61	3.08043
433.984	0.745285
437.359	5.90379
440.734	12.8995
444.109	24.2344
447.484	38.2004
450.858	54.3995
454.233	73.2079
457.608	86.234
460.983	92.8883
464.358	96.7192
467.733	97.3349
471.107	80.2537
474.482	50.5023
477.857	28.4426
481.232	15.7583
484.606	7.3796
487.981	2.22678
491.356	0.109772
494.731	0.68438
498.106	0.097687
501.481	0.749825
504.855	0.698158
508.23	1.33089
511.605	2.64187
514.98	4.75622
518.355	7.24535
521.73	6.37581
525.104	6.03136
528.479	6.74392
531.854	8.81306
535.229	10.6746
538.604	12.0955
541.978	16.4322
545.353	18.1392
548.728	25.0173
552.103	35.1817
555.478	52.3156
558.852	74.8179
562.227	107.784
565.602	157.298
568.977	193.048
572.352	159.993
575.726	95.0469
579.101	52.3082
582.476	32.598
585.851	19.5624
589.226	11.5794
592.601	7.63721
595.975	3.80354
599.35	1.36057
602.725	0.62825
606.1	1.44652
609.475	2.02087
612.85	1.43494
616.224	3.135
619.599	0.913391
622.974	1.28241
626.349	4.03443
629.723	8.62742
633.098	16.0958
636.473	26.229
639.848	43.0517
643.223	68.1206
646.598	114.008
649.972	182.609
653.347	283.885
656.722	444.628
660.097	625.377
663.472	685.398
666.846	641.839
670.221	674.213
673.596	829.059
676.971	1067.66
680.346	1252.97
683.721	1181.98
687.095	871.063
690.47	570.448
693.845	376.079
697.22	258.834
700.595	186.243
703.97	140.999
707.344	110.176
710.719	85.6205
714.094	68.2212
717.469	54.0035
720.843	40.5215
724.218	30.0764
727.593	22.1268
730.968	15.4334
734.343	11.5243
737.718	7.58195
741.092	4.59927
744.467	2.47547
747.842	1.87383
751.217	0.185219
754.592	0.276497
757.966	0.257698
761.341	0.486618
764.716	0.497414
768.091	0.437675
771.466	0.144058
774.841	0.753098
778.215	0.718712
781.59	0.770958
784.965	1.01067
788.34	0.697914
791.715	2.07004
795.089	0.858986
798.464	1.0951
801.839	0.132088
805.214	0.86602
808.589	0.161118
811.963	0.681671
815.338	1.3148
818.713	1.76033
822.088	1.60297
825.463	3.49383
828.838	4.10585
832.212	5.96519
835.587	10.0538
838.962	16.1636
842.337	22.6874
845.712	23.302
849.087	13.0842
852.461	7.08729
855.836	1.92541
859.211	0.110878
862.586	0.579407
865.961	1.70323
869.335	4.03045
872.71	9.1711
876.085	19.942
879.46	46.5503
882.835	88.8389
886.209	166.047
889.584	303.508
892.959	479.322
896.334	434.479
899.709	214.651
903.083	104.291
906.458	68.2645
909.833	61.201
913.208	73.7795
916.583	94.6817
919.958	96.3832
923.332	109.977
926.707	168.048
930.082	242.528
933.457	183.824
936.832	82.3987
940.207	37.5974
943.581	17.2252
946.956	7.09115
950.331	3.00456
953.706	0.682129
957.081	2.2085
960.455	0.651436
963.83	0.936966
967.205	0.868492
970.58	1.66286
973.955	3.08157
977.329	7.31786
980.704	12.7245
984.079	20.42
987.454	33.3101
990.829	59.5255
994.203	105.38
997.578	180.534
1000.95	296.935
1004.33	460.592
1007.7	464.917
1011.08	276.708
1014.45	142.568
1017.83	82.5634
1021.2	52.2164
1024.58	35.0801
1027.95	24.8793
1031.33	18.1817
1034.7	13.9142
1038.08	10.8343
1041.45	8.63496
1044.83	5.29337
1048.2	4.39179
1051.58	3.21625
1054.95	2.1597
1058.33	1.90725
1061.7	0.875938
1065.08	0.366371
1068.45	0.419411
1071.82	0.468971
1075.2	0.081524
1078.57	0.185051
1081.95	0.666218
1085.32	0.793556
1088.7	0.493973
1092.07	1.0002
1095.45	1.06309
1098.82	0.158718
1102.2	0.326801
1105.57	1.14989
1108.95	0.869961
1112.32	0.50024
1115.7	0.554535
1119.07	0.793152
1122.45	2.25862
1125.82	1.29094
1129.2	2.58136
1132.57	2.37212
1135.95	1.80023
1139.32	1.98788
1142.69	2.08358
1146.07	1.79011
1149.44	2.21824
1152.82	1.03515
1156.19	1.04519
1159.57	0.256199
1162.94	1.49131
1166.32	0.481579
1169.69	1.32231
1173.07	1.12655
1176.44	0.491352
1179.82	0.636261
1183.19	0.81591
1186.57	0.705971
1189.94	1.20165
1193.32	0.258083
1196.69	0.864895
1200.07	1.20379
1203.44	0.833447
1206.82	0.461994
1210.19	0.459652
1213.57	0.877666
1216.94	0.456997
1220.32	1.86034
1223.69	0.997169
1227.07	0.269592
1230.44	0.034195
1233.82	1.23898
1237.19	0.707642
1240.57	0.370621
1243.94	0.019882
1247.32	0.685226
1250.69	1.10321
1254.06	1.43871
1257.44	1.28742
1260.81	1.3422
1264.19	0.982548
1267.56	0.725143
1270.94	0.962082
1274.31	0.134068
1277.69	0.555389
1281.06	0.755589
