Measurement: Raman, 780 nm, unoriented, Raman Data Processed
Mineral: Erionite-Ca
Rruff sample: R061110
Ideal chemistry: Ca_5_(Si_26_Al_10_O_72_)30H_2_O
Locality: Maze, Niigata Prefecture, Japan
Source: Michael Scott
Description: Radiating white crystals with clinoptilolite
Measured chemistry: (Ca_2.02_Na_2.64_K_1.92_)_Σ=6.58_(Si_27.40_Al_8.60_)O_72_·19.40H_2_O
Raman shift (cm-1)	intensity
108.556	0
111.931	0.321884
115.305	3.45142
118.68	4.83336
122.055	10.0128
125.43	14.0436
128.805	14.6592
132.179	15.029
135.554	14.8607
138.929	12.9621
142.304	12.7891
145.679	12.8119
149.054	13.4104
152.428	13.492
155.803	11.7954
159.178	10.433
162.553	8.44208
165.928	7.54546
169.302	4.49358
172.677	3.69333
176.052	2.56927
179.427	0.398132
182.802	1.2216
186.177	0.409737
189.551	0.025383
192.926	0.145248
196.301	0.542694
199.676	0.524452
203.051	1.6198
206.425	3.69483
209.8	4.69597
213.175	5.42957
216.55	6.96126
219.925	7.65671
223.299	9.58498
226.674	11.2952
230.049	11.2508
233.424	12.3405
236.799	11.5396
240.173	11.4778
243.548	10.3515
246.923	8.18205
250.298	6.22032
253.673	5.19847
257.048	4.03437
260.422	3.18123
263.797	3.44245
267.172	2.66208
270.547	2.3138
273.922	2.3734
277.296	1.64206
280.671	0.758743
284.046	0.692444
287.421	1.16473
290.796	0.711735
294.171	0.49292
297.545	1.28965
300.92	1.36823
304.295	2.48563
307.67	3.41526
311.045	4.1087
314.42	5.08132
317.794	5.6768
321.169	5.97883
324.544	7.78474
327.919	8.53251
331.293	10.9353
334.668	10.8767
338.043	11.5206
341.418	11.504
344.793	10.1184
348.168	9.20627
351.542	7.73048
354.917	6.70232
358.292	5.18594
361.667	3.53984
365.042	2.08943
368.416	1.83447
371.791	1.43741
375.166	0.95541
378.541	1.17139
381.916	0.043293
385.291	0.228046
388.665	0.568584
392.04	0.952972
395.415	0.224556
398.79	0.084816
402.165	0.062382
405.539	0.004616
408.914	0.323437
412.289	0.597126
415.664	0.851685
419.039	1.86586
422.413	3.63217
425.788	3.7135
429.163	5.08501
432.538	6.0816
435.913	7.13045
439.288	8.37782
442.662	11.5942
446.037	16.15
449.412	23.0022
452.787	32.2275
456.162	43.6865
459.536	53.8563
462.911	60.7459
466.286	66.6015
469.661	67.8591
473.036	69.3594
476.411	73.5216
479.785	85.524
483.16	95.6681
486.535	97.8216
489.91	84.4987
493.285	63.4554
496.659	44.2489
500.034	29.7958
503.409	19.0924
506.784	14.1373
510.159	8.72917
513.534	5.70168
516.908	2.37809
520.283	1.56609
523.658	0.958572
527.033	0.053036
530.408	0.368622
533.782	0.311893
537.157	0.307274
540.532	0.806156
543.907	0.876606
547.282	2.71792
550.656	4.64833
554.031	6.72545
557.406	9.76438
560.781	12.5695
564.156	13.9102
567.53	12.7969
570.905	9.78883
574.28	6.03983
577.655	4.04165
581.03	3.37167
584.405	2.19313
587.779	1.3538
591.154	0.826145
594.529	0.245266
597.904	0.938782
601.279	0.136101
604.654	0.425295
608.028	0.194014
611.403	1.02995
614.778	0.552813
618.153	0.434322
621.528	0.383032
624.902	0.027937
628.277	0.670513
631.652	0.838896
635.027	0.627155
638.402	1.08355
641.776	0.753035
645.151	1.30949
648.526	1.27904
651.901	1.30556
655.276	1.33444
658.65	0.971275
662.025	1.75413
665.4	1.05979
668.775	0.619167
672.15	0.602299
675.525	0.549669
678.899	0.423908
682.274	0.297409
685.649	0.590813
689.024	0.00503
692.399	0.095234
695.774	0.26618
699.148	0.164221
702.523	0.488846
705.898	0.36253
709.273	0.292238
712.648	0.13578
716.022	0.180189
719.397	0.278444
722.772	0.080124
726.147	0.515421
729.522	0.719637
732.896	0.417284
736.271	0.996181
739.646	0.215626
743.021	0.53195
746.396	0.648405
749.77	0.182867
753.145	0.483706
756.52	0.736006
759.895	0.930769
763.27	0.804062
766.645	1.6999
770.019	1.99808
773.394	1.95376
776.769	2.19288
780.144	2.83388
783.519	3.37443
786.894	2.21746
790.268	2.11627
793.643	1.93853
797.018	2.05886
800.393	2.50482
803.768	2.58061
807.142	2.2955
810.517	3.08841
813.892	3.43215
817.267	2.97886
820.642	2.14413
824.016	1.78963
827.391	0.888069
830.766	0.257145
834.141	0.419554
837.516	0.32786
840.89	0.103678
844.265	0.456635
847.64	0.22607
851.015	0.724661
854.39	0.075197
857.765	0.368191
861.139	0.07893
864.514	0.676243
867.889	0.286671
871.264	0.401018
874.639	0.93408
878.013	0.124765
881.388	0.322056
884.763	0.016808
888.138	0.695595
891.513	1.07682
894.888	0.249969
898.262	0.70001
901.637	0.407661
905.012	0.40712
908.387	0.563759
911.762	0.547064
915.136	0.742504
918.511	0.582729
921.886	0.843704
925.261	0.702963
928.636	0.796009
932.01	1.14793
935.385	0.711889
938.76	0.626415
942.135	0.572611
945.51	0.846338
948.885	0.333319
952.259	0.094334
955.634	0.426411
959.009	0.483826
962.384	0.133936
965.759	0.164621
969.133	0.637909
972.508	0.086828
975.883	0.293337
979.258	0.125183
982.633	0.13414
986.008	0.293682
989.382	0.671709
992.757	0.347944
996.132	0.28475
999.507	0.635643
1002.88	0.904795
1006.26	1.11199
1009.63	1.29842
1013.01	1.28987
1016.38	1.33153
1019.76	1.03129
1023.13	1.42644
1026.51	1.4487
1029.88	1.45603
1033.26	0.559587
1036.63	0.30233
1040.01	0.467463
1043.38	1.17233
1046.75	0.518425
1050.13	0.349867
1053.5	0.421833
1056.88	0.155659
1060.25	0.346155
1063.63	0.214716
1067	0.17144
1070.38	0.395441
1073.75	0.110744
1077.13	0.371412
1080.5	0.497669
1083.88	1.05117
1087.25	1.19848
1090.63	1.54743
1094	1.85342
1097.38	2.66845
1100.75	2.77983
1104.13	2.86612
1107.5	3.29162
1110.88	3.02313
1114.25	3.65556
1117.62	3.45678
1121	3.09455
1124.38	3.1522
1127.75	3.60568
1131.12	3.107
1134.5	3.53377
1137.87	3.69526
1141.25	3.95099
1144.62	3.38761
1148	4.04387
1151.37	3.08269
1154.75	3.42757
1158.12	2.85014
1161.5	2.84218
1164.87	2.76999
1168.25	2.69699
1171.62	2.64366
1175	2.54441
1178.37	1.85299
1181.75	1.51256
1185.12	1.09609
1188.5	1.41254
1191.87	1.07609
1195.25	1.16239
1198.62	0.543049
1202	0.461494
1205.37	0.697802
1208.74	0.05138
1212.12	0.298075
1215.49	0.002077
1218.87	0.19976
1222.24	0.034752
1225.62	0.343355
1228.99	0.220903
1232.37	0.265486
1235.74	0.58543
1239.12	0.528542
1242.49	0.483709
1245.87	0.440708
1249.24	1.23009
1252.62	0.041777
1255.99	0.530689
1259.37	0.459335
1262.74	0.667906
1266.12	0.767477
1269.49	0.296143
1272.87	0.298569
1276.24	0.653357
1279.62	0.767012
1282.99	0.431074
