Measurement: Raman, 532 nm, unoriented, Raman Data Processed
Mineral: Erionite-Ca
Rruff sample: R061110
Ideal chemistry: Ca_5_(Si_26_Al_10_O_72_)30H_2_O
Locality: Maze, Niigata Prefecture, Japan
Source: Michael Scott
Description: Radiating white crystals with clinoptilolite
Measured chemistry: (Ca_2.02_Na_2.64_K_1.92_)_Σ=6.58_(Si_27.40_Al_8.60_)O_72_·19.40H_2_O
Raman shift (cm-1)	intensity
200.249	0
203.141	0.196426
206.034	0.873749
208.927	0.564316
211.819	1.33489
214.712	0.411392
217.605	3.31444
220.497	3.53218
223.39	4.24254
226.283	5.62901
229.175	6.09929
232.068	5.68117
234.961	4.60513
237.854	7.4374
240.746	5.41546
243.639	4.68665
246.532	5.86221
249.424	4.21633
252.317	3.19218
255.21	2.58818
258.103	2.03586
260.995	2.77954
263.888	1.67572
266.781	2.37183
269.673	1.70442
272.566	0.146744
275.459	0.705574
278.351	1.01361
281.244	0.729881
284.137	0.46965
287.029	0.492821
289.922	0.041908
292.815	0.73407
295.708	0.58416
298.6	0.658134
301.493	0.108162
304.386	2.5761
307.278	2.73131
310.171	3.2471
313.064	4.78429
315.957	5.88146
318.849	7.93548
321.742	8.77236
324.635	12.0107
327.527	14.8887
330.42	17.1943
333.313	18.9139
336.205	20.0481
339.098	20.7906
341.991	21.8911
344.884	20.9187
347.776	19.0541
350.669	18.5567
353.562	15.4354
356.454	13.5114
359.347	11.6076
362.24	10.2358
365.132	7.79404
368.025	6.43856
370.918	6.40334
373.81	4.69809
376.703	5.59413
379.596	4.53606
382.489	3.78178
385.381	3.36912
388.274	2.16058
391.167	1.48971
394.059	0.160721
396.952	0.626984
399.845	0.868248
402.738	0.559792
405.63	0.393837
408.523	0.573112
411.416	0.180679
414.308	0.890953
417.201	0.452782
420.094	2.06007
422.986	3.65197
425.879	4.72805
428.772	6.78321
431.664	10.6963
434.557	11.2992
437.45	14.2825
440.343	19.3738
443.235	25.753
446.128	36.5951
449.021	50.5013
451.913	65.8692
454.806	83.6865
457.699	103.747
460.591	120.236
463.484	130.344
466.377	136.141
469.27	136.761
472.162	138.018
475.055	137.163
477.948	144.758
480.84	154.292
483.733	163.398
486.626	162.556
489.519	143.116
492.411	113.274
495.304	83.9913
498.197	60.6249
501.089	42.6435
503.982	29.2325
506.875	20.1432
509.767	13.9742
512.66	8.47175
515.553	5.7234
518.446	2.49832
521.338	0.801331
524.231	0.362793
527.124	0.515984
530.016	0.100555
532.909	0.35347
535.802	0.335258
538.694	1.00981
541.587	2.68435
544.48	4.36434
547.372	7.63338
550.265	11.5502
553.158	16.2716
556.051	20.5769
558.943	25.2031
561.836	28.0259
564.729	28.987
567.621	24.3871
570.514	19.0031
573.407	13.362
576.299	8.52152
579.192	5.30192
582.085	3.0428
584.978	2.17452
587.87	1.40042
590.763	1.3466
593.656	0.197025
596.548	0.140785
599.441	0.767075
602.334	0.558289
605.226	0.380341
608.119	0.084976
611.012	0.20118
613.905	0.367199
616.797	0.316189
619.69	0.459618
622.583	0.527588
625.475	0.99065
628.368	1.61165
631.261	1.662
634.154	1.43596
637.046	1.46994
639.939	2.34156
642.832	1.45848
645.724	2.27582
648.617	3.1134
651.51	3.1263
654.402	3.79243
657.295	2.56903
660.188	2.11505
663.081	1.35043
665.973	1.40685
668.866	1.40959
671.759	0.916401
674.651	0.462269
677.544	0.643955
680.437	0.660381
683.329	0.086105
686.222	0.125599
689.115	0.35508
692.008	0.014656
694.9	0.221676
697.793	0.367641
700.686	0.172234
703.578	0.437454
706.471	0.748116
709.364	0.652935
712.256	0.136417
715.149	0.074154
718.042	0.263203
720.934	0.462425
723.827	1.02387
726.72	1.07801
729.613	0.943123
732.505	0.919537
735.398	0.612389
738.291	0.520573
741.183	0.1408
744.076	0.319462
746.969	0.35461
749.861	0.5597
752.754	0.261105
755.647	0.165039
758.54	1.32608
761.432	1.18505
764.325	1.87453
767.218	1.90426
770.11	2.59919
773.003	3.6521
775.896	3.89891
778.788	4.28816
781.681	4.76573
784.574	4.89433
787.467	5.42034
790.359	4.42394
793.252	4.90393
796.145	5.1376
799.037	4.16153
801.93	5.54982
804.823	7.24057
807.716	8.70933
810.608	9.94205
813.501	10.823
816.394	10.9836
819.286	9.27219
822.179	7.16778
825.072	4.24028
827.964	2.93858
830.857	1.13498
833.75	0.381645
836.643	0.181389
839.535	0.550426
842.428	0.43903
845.321	0.416271
848.213	0.230679
851.106	0.343758
853.999	0.190556
856.891	0.357746
859.784	0.192242
862.677	0.920261
865.569	0.723598
868.462	1.56178
871.355	0.40559
874.248	0.228188
877.14	0.081635
880.033	0.097839
882.926	0.234127
885.818	0.055889
888.711	1.01953
891.604	1.02305
894.496	0.576904
897.389	0.172195
900.282	0.540028
903.175	0.743301
906.067	0.785053
908.96	0.373322
911.853	1.22976
914.745	1.63288
917.638	1.07723
920.531	1.26836
923.423	1.85261
926.316	1.12009
929.209	2.51946
932.102	1.53192
934.994	2.60204
937.887	1.07995
940.78	1.70091
943.672	0.454899
946.565	0.92009
949.458	1.31361
952.351	0.042919
955.243	0.007477
958.136	0.046776
961.029	0.762272
963.921	0.282681
966.814	0.24435
969.707	0.092411
972.599	1.08021
975.492	0.46497
978.385	0.213367
981.278	0.025837
984.17	0.124409
987.063	0.260311
989.956	0.096882
992.848	0.674416
995.741	0.482712
998.634	0.589874
1001.53	0.370838
1004.42	0.56461
1007.31	0.69706
1010.21	1.06865
1013.1	1.47805
1015.99	1.32266
1018.88	1.61693
1021.77	0.953621
1024.67	0.748428
1027.56	1.07076
1030.45	0.917778
1033.35	0.670197
1036.24	1.44719
1039.13	0.668533
1042.02	1.011
1044.92	0.210186
1047.81	0.399696
1050.7	0.009937
1053.6	0.48941
1056.49	0.651112
1059.38	0.746914
1062.27	0.38377
1065.17	0.836987
1068.06	0.877617
1070.95	0.351665
1073.84	0.623173
1076.74	0.880608
1079.63	1.7716
1082.52	2.0692
1085.41	1.98777
1088.31	3.81378
1091.2	3.55461
1094.09	4.70498
1096.99	5.24733
1099.88	5.28556
1102.77	6.2958
1105.66	5.7644
1108.56	6.75397
1111.45	6.98183
1114.34	7.08556
1117.23	6.57728
1120.13	7.44095
1123.02	7.2889
1125.91	7.11432
1128.81	6.80226
1131.7	7.66215
1134.59	7.93006
1137.48	7.12071
1140.38	6.48911
1143.27	7.38834
1146.16	7.92856
1149.05	8.19187
1151.95	6.90638
1154.84	6.26367
1157.73	6.04697
1160.62	6.27073
1163.52	5.73407
1166.41	5.31492
1169.3	4.14397
1172.2	4.08544
1175.09	4.21814
1177.98	3.4909
1180.87	3.17859
1183.77	2.22805
1186.66	2.02279
1189.55	2.40804
1192.44	1.59779
1195.34	2.37687
1198.23	1.77486
1201.12	1.11367
1204.02	1.64028
1206.91	0.850029
1209.8	0.895779
1212.69	0.115608
1215.59	0.286114
1218.48	0.088348
1221.37	0.748466
1224.26	0.56081
1227.16	0.967892
1230.05	0.549313
1232.94	0.543404
1235.84	0.171894
1238.73	0.215389
1241.62	0.312527
1244.51	0.238415
1247.41	0.750607
1250.3	0.829075
1253.19	1.00075
1256.08	1.05333
1258.98	0.952263
1261.87	1.38597
1264.76	0.444267
1267.65	1.14543
1270.55	0.623726
1273.44	0.58466
1276.33	0.64764
1279.23	1.16967
1282.12	0.652958
1285.01	0.967354
1287.9	0.482502
1290.8	0.408321
1293.69	0.76627
1296.58	0.417999
1299.47	0.665813
