Measurement: Raman, 785 nm, unoriented, Raman Data Processed
Mineral: Erionite-Ca
Rruff sample: R060836
Ideal chemistry: Ca_5_(Si_26_Al_10_O_72_)30H_2_O
Locality: Moeraki, Otago, South Island, New Zealand
Source: Michael Scott
Description: Radiating group of colorless acicular hexagonal prisms
Measured chemistry: (Ca_2.08_K_1.21_Na_0.94_Mg_0.77_Fe^3+^_0.41_Cr_0.10_)_Σ=5.51_(Si_26.62_Al_9.38_)O_72_·23.41H_2_O; H_2_O estimated by difference
Raman shift (cm-1)	intensity
161.061	0
163.954	58.4318
166.846	98.545
169.739	163.398
172.632	163.906
175.524	133.552
178.417	88.5359
181.31	94.5818
184.203	67.6173
187.095	45.0079
189.988	57.9336
192.881	14.3368
195.773	33.3423
198.666	16.7087
201.559	14.971
204.452	8.83203
207.344	16.7212
210.237	10.1769
213.13	24.2726
216.022	5.31995
218.915	39.5216
221.808	30.4254
224.7	55.9875
227.593	70.5205
230.486	106.386
233.379	53.838
236.271	81.8231
239.164	111.332
242.057	104.344
244.949	110.463
247.842	96.9814
250.735	69.4857
253.627	55.6697
256.52	55.8164
259.413	75.9819
262.305	69.0096
265.198	59.2946
268.091	58.3652
270.984	72.2679
273.876	21.0955
276.769	14.0629
279.662	49.147
282.554	41.7741
285.447	38.854
288.34	22.5719
291.233	2.74707
294.125	9.69812
297.018	42.7732
299.911	51.7085
302.803	105.759
305.696	124.725
308.589	145.116
311.481	209.132
314.374	231.509
317.267	208.546
320.159	221.89
323.052	253.764
325.945	284.34
328.838	314.522
331.73	366.811
334.623	369.02
337.516	347.487
340.408	332.766
343.301	306.049
346.194	294.837
349.087	275.792
351.979	242.009
354.872	218.353
357.765	193.67
360.657	126.103
363.55	105.856
366.443	83.428
369.335	52.4431
372.228	46.3868
375.121	49.2803
378.014	42.9594
380.906	19.5944
383.799	8.46808
386.692	2.18591
389.584	5.72101
392.477	8.64905
395.37	2.69275
398.262	1.00366
401.155	19.6024
404.048	8.54804
406.941	5.35736
409.833	10.5257
412.726	11.863
415.619	22.6511
418.511	35.5754
421.404	60.1904
424.297	96.5564
427.19	74.1799
430.082	107.243
432.975	121.565
435.868	142.385
438.76	201.084
441.653	244.324
444.546	346.077
447.438	466.06
450.331	633.147
453.224	847.769
456.116	1161.31
459.009	1381.4
461.902	1634.31
464.795	1770.84
467.687	1877.36
470.58	1945.45
473.473	2045.34
476.365	2211.75
479.258	2496.17
482.151	2798.36
485.043	2874.92
487.936	2641.27
490.829	2135.8
493.722	1572.37
496.614	1094.02
499.507	766.163
502.4	556.318
505.292	378.192
508.185	253.379
511.078	186.63
513.971	116.782
516.863	59.5489
519.756	57.0391
522.649	20.4567
525.541	11.2912
528.434	2.1571
531.327	4.54047
534.219	26.1177
537.112	3.84711
540.005	23.706
542.898	36.9666
545.79	59.3507
548.683	106.962
551.576	128.97
554.468	232.391
557.361	294.355
560.254	388.051
563.146	403.702
566.039	389.082
568.932	279.141
571.824	202.413
574.717	137.185
577.61	105.302
580.503	71.6023
583.395	24.4968
586.288	40.8239
589.181	23.5535
592.073	19.6402
594.966	24.8754
597.859	2.43066
600.751	0.416138
603.644	13.8992
606.537	11.9794
609.43	6.65265
612.322	13.4318
615.215	5.29761
618.108	1.22296
621	15.2167
623.893	1.67127
626.786	8.3493
629.678	20.2941
632.571	21.803
635.464	42.6872
638.357	57.7692
641.249	71.0273
644.142	51.871
647.035	57.294
649.927	41.1872
652.82	44.5673
655.713	40.3777
658.606	52.5814
661.498	47.822
664.391	28.9803
667.284	25.3273
670.176	14.5174
673.069	22.9591
675.962	32.2381
678.854	15.6361
681.747	19.6443
684.64	16.4974
687.533	0.257141
690.425	1.77161
693.318	9.01657
696.211	7.69138
699.103	0.321075
701.996	18.7572
704.889	8.19257
707.781	2.47986
710.674	4.72006
713.567	6.61273
716.46	32.9475
719.352	17.2531
722.245	20.5461
725.138	18.6629
728.03	19.9723
730.923	22.0063
733.816	22.8162
736.708	14.8947
739.601	7.09512
742.494	21.0689
745.386	6.96365
748.279	1.93225
751.172	13.6201
754.065	21.2296
756.957	30.5352
759.85	20.5164
762.743	23.4156
765.635	39.0311
768.528	7.7887
771.421	53.9706
774.313	44.6428
777.206	53.1968
780.099	54.668
782.992	67.0979
785.884	48.5492
788.777	65.4844
791.67	52.797
794.562	40.3918
797.455	26.9693
800.348	35.4872
803.24	14.6628
806.133	46.1775
809.026	74.3362
811.919	66.8999
814.811	73.3204
817.704	71.9825
820.597	70.9608
823.489	28.7874
826.382	54.0275
829.275	25.5676
832.168	24.5655
835.06	15.0223
837.953	26.842
840.846	36.3795
843.738	11.4928
846.631	9.10037
849.524	4.11917
852.416	39.9816
855.309	19.9948
858.202	3.49393
861.095	4.51315
863.987	9.64606
866.88	10.9504
869.773	7.00067
872.665	18.673
875.558	6.20227
878.451	21.3312
881.343	4.51334
884.236	7.4147
887.129	16.1945
890.021	20.4776
892.914	14.653
895.807	3.33768
898.7	21.809
901.592	18.567
904.485	19.6409
907.378	16.3815
910.27	22.9603
913.163	17.7424
916.056	5.10184
918.949	16.9916
921.841	24.045
924.734	32.9197
927.627	11.3851
930.519	12.2727
933.412	17.0172
936.305	27.544
939.197	26.0794
942.09	23.6921
944.983	19.2992
947.876	8.59815
950.768	14.4997
953.661	26.6739
956.554	37.8372
959.446	18.2323
962.339	7.78137
965.232	9.03381
968.125	20.3022
971.017	6.99689
973.91	2.65042
976.803	2.69498
979.695	13.1954
982.588	0.32312
985.481	27.4806
988.373	8.00064
991.266	18.3551
994.159	3.34595
997.052	24.2019
999.944	40.0219
1002.84	28.6559
1005.73	42.1218
1008.62	28.668
1011.51	48.3111
1014.41	30.769
1017.3	58.103
1020.19	31.3106
1023.09	30.8861
1025.98	2.7951
1028.87	25.0352
1031.76	50.3656
1034.66	37.3298
1037.55	39.4231
1040.44	40.3492
1043.34	25.4021
1046.23	32.9009
1049.12	16.9691
1052.01	6.42709
1054.91	1.26764
1057.8	19.9219
1060.69	15.4094
1063.58	6.51398
1066.48	4.10611
1069.37	1.70474
1072.26	11.5756
1075.15	12.4082
1078.05	29.5433
1080.94	33.1645
1083.83	47.1056
1086.72	46.2821
1089.62	50.3043
1092.51	29.8891
1095.4	56.8556
1098.3	76.6015
1101.19	98.1451
1104.08	100.454
1106.97	96.8736
1109.87	101.562
1112.76	116.938
1115.65	140.917
1118.55	118.311
1121.44	110.832
1124.33	116.072
1127.22	111.104
1130.12	122.691
1133.01	111.954
1135.9	122.108
1138.79	89.9599
1141.69	117.396
1144.58	91.8695
1147.47	80.2482
1150.37	95.8613
1153.26	101.554
1156.15	78.0641
1159.04	77.8111
1161.93	75.4405
1164.83	66.7975
1167.72	68.9986
1170.61	43.9644
1173.51	51.0391
1176.4	45.2555
1179.29	48.3242
1182.18	55.9538
1185.08	62.4019
1187.97	59.0706
1190.86	48.9195
1193.76	6.81274
1196.65	20.9905
1199.54	29.2793
1202.43	9.60229
1205.33	4.52106
1208.22	7.22351
1211.11	2.44797
1214	7.28436
1216.9	9.57101
1219.79	30.1441
1222.68	11.2648
1225.58	20.1343
1228.47	24.9439
1231.36	45.8111
1234.25	35.4899
1237.15	25.4725
1240.04	32.9239
1242.93	15.5445
1245.82	42.5793
1248.72	50.697
1251.61	53.7751
1254.5	49.6129
1257.39	23.193
1260.29	23.5815
1263.18	12.5535
1266.07	5.13623
1268.96	0.479858
1271.86	12.9963
