Measurement: Raman, 532 nm, unoriented, Raman Data Processed
Mineral: Eriochalcite
Rruff sample: R070026
Ideal chemistry: CuCl_2_2H_2_O
Locality: Tolbachik Volcano, Kamchatka Peninsula, Russia
Source: Michael Scott
Description: Pale bluish-green effluorescence
Raman shift (cm-1)	intensity
152.111	0
155.486	196.107
158.86	23.8418
162.235	7.9043
165.61	174.789
168.985	291.467
172.359	398.182
175.734	463.713
179.109	382.621
182.484	565.684
185.859	662.549
189.234	764.588
192.608	764.121
195.983	981.459
199.358	1015.01
202.733	1148.78
206.108	1443.24
209.482	1621.28
212.857	1760.87
216.232	1878.48
219.607	1879.02
222.982	1797.85
226.357	1775.6
229.731	1694.77
233.106	1720.41
236.481	1710.02
239.856	1787.3
243.231	1497.32
246.605	1420.91
249.98	1748.87
253.355	1525.48
256.73	1453.03
260.105	1565.68
263.479	1548.18
266.854	1506.2
270.229	1427.39
273.604	1319.45
276.979	1137.32
280.353	1046.5
283.728	1053.78
287.103	822.248
290.478	747.731
293.853	724.256
297.228	633.338
300.602	422.619
303.977	272.201
307.352	189.16
310.727	167.215
314.102	146.08
317.476	13.1699
320.851	75.2598
324.226	118.316
327.601	44.7539
330.976	34.0938
334.351	86.3555
337.725	427.879
341.1	758.83
344.475	1197.59
347.85	1709.54
351.225	1939.98
354.599	2204.13
357.974	2004.66
361.349	1806.17
364.724	1504.4
368.099	1178.61
371.474	920.604
374.848	917.904
378.223	948.439
381.598	1073.81
384.973	1139.22
388.348	1164.54
391.722	1082.6
395.097	1155.87
398.472	980.269
401.847	1125.78
405.222	1316.08
408.596	1301.78
411.971	1169.81
415.346	891.801
418.721	446.603
422.096	257.191
425.471	45.9746
428.845	39.4238
432.22	102.199
435.595	138.117
438.97	349.949
442.344	522.508
445.719	945.652
449.094	1033.16
452.469	569.09
455.844	424.43
459.219	284.356
462.593	163.219
465.968	293.211
469.343	253.934
472.718	415.348
476.093	474.762
479.467	923.336
482.842	1265.81
486.217	1923.06
489.592	2985.24
492.967	4115.3
496.342	5527.61
499.716	6909.92
503.091	8173.39
506.466	9245.85
509.841	9772.36
513.216	9269.22
516.591	8016.04
519.965	5988.6
523.34	4352.23
526.715	3106.32
530.09	2162.61
533.465	1384.62
536.839	851.562
540.214	599.488
543.589	112.453
546.964	119.019
550.339	25.1367
553.713	47.625
557.088	44.3789
560.463	21.1836
563.838	24.7656
567.213	199.562
570.587	209.434
573.962	310.562
577.337	530.184
580.712	671.102
584.087	821.039
587.462	879.148
590.836	1154.6
594.211	778.981
597.586	855.891
600.961	682.719
604.336	455.555
607.71	272.648
611.085	111.641
614.46	108.379
617.835	18.1641
621.21	11.8555
624.584	24.8164
627.959	131.383
631.334	15.5273
634.709	168.453
638.084	29.1094
641.458	46.0859
644.833	104.844
648.208	114.789
651.583	209.098
654.958	241.156
658.333	37.6562
661.707	103.801
665.082	5.91406
668.457	14.1758
671.832	76.457
675.207	152.297
678.581	117.055
681.956	140.16
685.331	242.75
688.706	155.617
692.081	78.8047
695.456	119.481
698.83	169.699
702.205	222.242
705.58	227.039
708.955	344.398
712.33	296.883
715.704	242.644
719.079	222.523
722.454	209.641
725.829	100.961
729.204	164.824
732.578	87.7891
735.953	91.0156
739.328	167.367
742.703	133.66
746.078	66.0977
749.452	55.5977
752.827	58.3555
756.202	20.6875
759.577	80.6484
762.952	49.3594
766.327	9.625
769.701	109.727
773.076	197.469
776.451	152.871
779.826	304.527
783.201	334.394
786.575	468.84
789.95	633.231
793.325	700.695
796.7	979.078
800.075	1623.15
803.449	2401.14
806.824	3109.82
810.199	4178.04
813.574	5032.48
816.949	5728.69
820.323	5558.24
823.698	4828.38
827.073	3889.36
830.448	2984.73
833.823	2816.55
837.198	2578.24
840.572	2528.43
843.947	2360.58
847.322	1760.48
850.697	993.445
854.072	580.125
857.447	458.289
860.821	103.828
864.196	40.3242
867.571	53.5234
870.946	11.4688
874.321	18.8359
877.695	160.945
881.07	212.16
884.445	641.215
887.82	1256.89
891.195	1972.61
894.569	3211.27
897.944	4780.26
901.319	6799.81
904.694	8745.75
908.069	9648.4
911.443	8499.05
914.818	6370.26
918.193	3716.36
921.568	2182.59
924.943	1225.07
928.318	737.219
931.692	315.664
935.067	168.043
938.442	207.91
941.817	99.4844
945.192	153.496
948.567	248.227
951.941	594.812
955.316	740.602
958.691	1208.49
962.066	1799.25
965.441	2640.56
968.815	3436.45
972.19	4009.06
975.565	3336.23
978.94	2314.18
982.315	1581.3
985.689	1129.58
989.064	907.121
992.439	619.215
995.814	274.527
999.189	231.848
1002.56	206
1005.94	145.809
1009.31	82.1406
1012.69	133.969
1016.06	12.2148
1019.44	141.641
1022.81	13.0039
1026.19	142.356
1029.56	268.492
1032.94	2.30469
1036.31	102.5
1039.69	148.871
1043.06	106.348
1046.44	21.3711
1049.81	206.394
1053.19	33.5508
1056.56	2.47266
1059.93	37.75
1063.31	182.574
1066.68	51.5117
1070.06	50.0039
1073.43	104.773
1076.81	136.727
1080.18	103.578
1083.56	71.3398
1086.93	165.91
1090.31	151.066
1093.68	140.625
1097.06	233.152
1100.43	278.106
1103.81	135.742
1107.18	263.016
1110.56	244.512
1113.93	328.648
1117.31	160.731
1120.68	119.273
1124.06	203.152
1127.43	185.059
1130.81	150.328
1134.18	221.676
1137.56	4.45312
1140.93	207.051
1144.31	240.277
1147.68	130.828
1151.06	267.727
1154.43	253.781
1157.81	244.242
1161.18	365.336
1164.55	203.719
1167.93	336.016
1171.3	253.508
1174.68	139.606
1178.05	256.434
1181.43	227.188
1184.8	213.906
1188.18	263.242
1191.55	285.945
1194.93	118.188
1198.3	263.801
1201.68	80.543
1205.05	90.4609
1208.43	68.9688
1211.8	58.9062
1215.18	265.109
1218.55	382.898
1221.93	138.578
1225.3	125.074
1228.68	86.3906
1232.05	0.675781
1235.43	155.801
1238.8	200.269
1242.17	110.531
1245.55	293.5
1248.92	106.301
1252.3	80.0508
1255.67	175.539
1259.05	151.242
1262.42	118.707
1265.8	223.199
1269.17	55.9688
1272.55	273.977
1275.92	201.867
1279.3	150.547
1282.67	383.305
1286.05	216.516
1289.42	248.269
1292.8	257.652
1296.17	239.293
1299.55	165.945
1302.92	160.836
1306.3	97.5547
1309.67	191.18
