Measurement: Raman, 532 nm, unoriented, Raman Data Processed
Mineral: Erionite-Ca
Rruff sample: R060836
Ideal chemistry: Ca_5_(Si_26_Al_10_O_72_)30H_2_O
Locality: Moeraki, Otago, South Island, New Zealand
Source: Michael Scott
Description: Radiating group of colorless acicular hexagonal prisms
Measured chemistry: (Ca_2.08_K_1.21_Na_0.94_Mg_0.77_Fe^3+^_0.41_Cr_0.10_)_Σ=5.51_(Si_26.62_Al_9.38_)O_72_·23.41H_2_O; H_2_O estimated by difference
Raman shift (cm-1)	intensity
155.753	0
158.646	40.2219
161.539	108.138
164.431	99.1562
167.324	86.7476
170.217	75.1099
173.109	43.5098
176.002	48.5669
178.895	103.365
181.788	94.95
184.68	96.7283
187.573	63.646
190.466	64.4321
193.358	13.5872
196.251	6.15674
199.144	14.9485
202.036	17.7119
204.929	15.3408
207.822	35.0356
210.714	37.3303
213.607	63.0918
216.5	91.2954
219.393	110.538
222.285	140.352
225.178	204.394
228.071	240.988
230.963	260.375
233.856	252.594
236.749	306.298
239.642	269.971
242.534	275.454
245.427	250.765
248.32	204.738
251.212	208.855
254.105	149.393
256.998	96.0713
259.89	120.116
262.783	82.3992
265.676	102.41
268.568	57.1338
271.461	62.5154
274.354	42.1731
277.247	34.1917
280.139	13.0076
283.032	40.08
285.925	17.4647
288.817	7.30725
291.71	10.1315
294.603	16.552
297.495	1.203
300.388	45.7294
303.281	63.1099
306.174	80.0302
309.066	128.638
311.959	165.846
314.852	169.367
317.744	178.889
320.637	178.34
323.53	247.809
326.422	260.207
329.315	306.018
332.208	314.034
335.101	347.194
337.993	368.402
340.886	331.563
343.779	335.709
346.671	335.101
349.564	257.044
352.457	237.64
355.349	198.759
358.242	151.419
361.135	148.364
364.027	56.4819
366.92	61.8336
369.813	31.7926
372.706	33.9939
375.598	23.5148
378.491	53.1033
381.384	40.3899
384.276	20.2499
387.169	12.5088
390.062	17.5207
392.954	3.7843
395.847	4.08179
398.74	14.4542
401.633	25.7018
404.525	19.6404
407.418	22.6913
410.311	3.54932
413.203	8.22729
416.096	4.88232
418.989	35.023
421.881	47.9214
424.774	95.5614
427.667	65.5876
430.56	89.4205
433.452	121.091
436.345	171.216
439.238	206.095
442.13	249.025
445.023	371.818
447.916	608.534
450.808	834.552
453.701	1169.29
456.594	1584.21
459.486	1887.97
462.379	2263.63
465.272	2465.9
468.165	2581.28
471.057	2631.26
473.95	2736.69
476.843	2858.57
479.735	3181.17
482.628	3503.42
485.521	3634.8
488.413	3302.23
491.306	2627.98
494.199	1852.52
497.092	1360.34
499.984	945.396
502.877	668.395
505.77	423.723
508.662	294.696
511.555	219.504
514.448	96.2239
517.341	89.7693
520.233	53.8886
523.126	11.6469
526.019	24.2318
528.911	9.03162
531.804	3.3667
534.697	20.0758
537.589	19.2063
540.482	33.9957
543.375	102.764
546.268	129.138
549.16	210.394
552.053	327.326
554.946	415.815
557.838	517.351
560.731	613.953
563.624	639.944
566.516	584.322
569.409	439.801
572.302	303.638
575.194	179.936
578.087	155.56
580.98	48.5409
583.872	57.1206
586.765	76.2086
589.658	13.1371
592.551	21.1876
595.443	1.81103
598.336	27.3908
601.229	10.6634
604.121	5.89136
607.014	20.3667
609.907	9.80945
612.799	36.8169
615.692	24.1644
618.585	2.77722
621.477	26.7659
624.37	3.31775
627.263	7.11365
630.156	73.6901
633.048	49.1836
635.941	87.359
638.834	92.8373
641.726	80.0226
644.619	53.7762
647.512	88.5231
650.404	88.4542
653.297	73.4736
656.19	58.0415
659.083	27.2139
661.975	54.4168
664.868	55.9886
667.761	48.5891
670.653	28.6981
673.546	17.0884
676.439	24.2981
679.332	14.9403
682.224	18.4332
685.117	12.176
688.01	24.5496
690.902	3.92664
693.795	11.4219
696.688	10.6487
699.58	8.08606
702.473	31.9796
705.366	9.82165
708.259	76.0641
711.151	1.43689
714.044	63.8276
716.937	10.8812
719.829	15.7007
722.722	31.6677
725.615	26.5806
728.507	29.2739
731.4	15.8496
734.293	6.50696
737.185	52.1249
740.078	8.81116
742.971	10.5798
745.864	21.0748
748.756	29.0815
751.649	11.1604
754.542	50.5608
757.434	33.8796
760.327	12.6416
763.22	63.8671
766.112	41.281
769.005	66.6521
771.898	61.2675
774.79	98.3554
777.683	141.049
780.576	95.6243
783.469	61.731
786.361	90.6714
789.254	106.18
792.147	91.8072
795.039	80.462
797.932	103.151
800.825	107.796
803.717	154.237
806.61	183.403
809.503	194.053
812.396	184.977
815.288	216.812
818.181	161.159
821.074	135.194
823.966	112.604
826.859	70.5244
829.752	56.8417
832.644	52.9282
835.537	33.766
838.43	11.0765
841.323	34.824
844.215	2.85278
847.108	18.5541
850.001	4.44861
852.893	4.75012
855.786	16.083
858.679	6.63477
861.571	36.6263
864.464	42.4532
867.357	3.92285
870.25	19.666
873.142	6.026
876.035	9.87097
878.928	27.5582
881.82	17.4982
884.713	14.9465
887.606	56.3938
890.498	20.4711
893.391	34.083
896.284	16.642
899.177	35.8073
902.069	41.8739
904.962	54.1324
907.855	70.4877
910.747	72.9476
913.64	51.0452
916.533	37.9113
919.425	35.8893
922.318	64.8391
925.211	48.5922
928.104	81.6044
930.996	59.2904
933.889	33.0729
936.782	18.6663
939.674	37.5453
942.567	52.9379
945.46	1.44153
948.352	4.14478
951.245	3.99011
954.138	28.6969
957.03	7.87964
959.923	17.2767
962.816	11.7078
965.709	33.2981
968.601	21.8832
971.494	4.02954
974.387	20.7278
977.279	36.096
980.172	24.5077
983.065	25.1282
985.957	14.901
988.85	13.827
991.743	20.6896
994.635	59.3662
997.528	24.5094
1000.42	65.0996
1003.31	44.1082
1006.21	48.2707
1009.1	71.8861
1011.99	66.5032
1014.88	74.0968
1017.78	68.0797
1020.67	75.3438
1023.56	88.348
1026.45	80.5046
1029.35	98.1047
1032.24	79.2296
1035.13	52.2122
1038.03	70.4927
1040.92	56.6407
1043.81	37.1553
1046.7	22.6494
1049.6	17.1776
1052.49	14.8099
1055.38	38.0249
1058.28	17.8241
1061.17	10.4771
1064.06	14.6625
1066.95	1.82532
1069.85	3.65454
1072.74	5.63049
1075.63	1.65991
1078.52	6.06982
1081.42	52.7213
1084.31	82.4655
1087.2	67.0678
1090.09	92.1122
1092.99	123.871
1095.88	138.71
1098.77	161.386
1101.66	184.282
1104.56	209.701
1107.45	264.243
1110.34	277.459
1113.24	286.747
1116.13	272.821
1119.02	245.518
1121.91	241.877
1124.81	251.198
1127.7	258.004
1130.59	274.527
1133.48	297.066
1136.38	292.122
1139.27	306.653
1142.16	262.564
1145.06	275.398
1147.95	195.733
1150.84	217.62
1153.73	247.961
1156.63	256.268
1159.52	190.286
1162.41	159.393
1165.31	159.339
1168.2	107.189
1171.09	130.968
1173.98	130.05
1176.88	104.271
1179.77	120.63
1182.66	99.2206
1185.55	115.891
1188.45	86.6138
1191.34	71.5406
1194.23	13.322
1197.12	10.2423
1200.02	5.93738
1202.91	14.9252
1205.8	1.06946
1208.69	24.3246
1211.59	25.5614
1214.48	2.61829
1217.37	0.733032
1220.27	43.9988
1223.16	29.2634
1226.05	47.765
1228.94	47.9276
1231.84	31.739
1234.73	0.679565
1237.62	16.2673
1240.52	18.7037
1243.41	39.4432
1246.3	38.4476
1249.19	53.4662
1252.09	42.7657
1254.98	40.8176
1257.87	51.137
1260.76	47.4762
1263.66	6.22327
1266.55	25.9375
1269.44	29.4276
1272.33	38.7391
1275.23	65.7355
1278.12	35.3332
1281.01	27.5324
1283.9	36.4496
1286.8	31.8114
1289.69	29.3308
1292.58	32.4329
1295.48	48.2284
1298.37	16.9974
