Measurement: Raman, 532 nm, unoriented, Raman Data Processed
Mineral: Erythrite
Rruff sample: R050073
Ideal chemistry: Co^2+^_3_(As^5+^O_4_)_2_8H_2_O
Locality: Bou Azzer, Morocco
Source: Rock Currier
Description: Crimson flattened crystals
Measured chemistry: (Co_0.65_Mg_0.35_)_3_(As_1.00_O_4_)_2_Â·8H_2_O
Raman shift (cm-1)	intensity
134.716	0
138.091	31.9484
141.466	82.4864
144.841	191.943
148.215	302.045
151.59	379.748
154.965	195.102
158.34	65.7024
161.715	1.75299
165.09	14.9801
168.464	1.33615
171.839	22.575
175.214	50.7115
178.589	75.9885
181.964	140.663
185.339	224.787
188.713	348.066
192.088	449.539
195.463	495.245
198.838	623.814
202.213	777.25
205.587	966.748
208.962	1088.07
212.337	892.674
215.712	569.177
219.087	326.307
222.462	216.069
225.836	137.829
229.211	139.679
232.586	197.058
235.961	244.303
239.336	294.461
242.71	367.822
246.085	404.723
249.46	447.444
252.835	440.866
256.21	316.145
259.584	235.745
262.959	165.87
266.334	120.437
269.709	65.9191
273.084	20.1827
276.459	9.49719
279.833	10.4286
283.208	8.49445
286.583	20.8229
289.958	75.749
293.333	121.502
296.707	209.301
300.082	239.762
303.457	242.456
306.832	184.272
310.207	95.4619
313.582	66.234
316.956	34.2599
320.331	0.228455
323.706	16.9034
327.081	13.1684
330.456	6.13644
333.83	21.3663
337.205	27.208
340.58	22.527
343.955	3.56244
347.33	12.0229
350.705	10.2511
354.079	9.00009
357.454	0.360168
360.829	24.2871
364.204	62.5992
367.579	87.0303
370.954	108.62
374.328	144.494
377.703	150.951
381.078	169.578
384.453	151.994
387.828	177.921
391.202	176.104
394.577	136.115
397.952	147.862
401.327	138.323
404.702	125.931
408.077	157.364
411.451	204.698
414.826	266.339
418.201	327.873
421.576	451.894
424.951	619.406
428.325	806.334
431.7	1031.83
435.075	1194.23
438.45	1287.24
441.825	1223.82
445.2	1145.08
448.574	1019.78
451.949	954.287
455.324	917.058
458.699	815.504
462.074	668.355
465.448	492.073
468.823	346.626
472.198	218.25
475.573	163.471
478.948	118.774
482.322	58.9659
485.697	43.4674
489.072	30.4545
492.447	7.23505
495.822	2.38434
499.197	4.86249
502.571	14.7792
505.946	13.1243
509.321	8.07861
512.696	3.68878
516.071	5.16583
519.446	8.9043
522.82	8.89447
526.195	3.71405
529.57	7.07031
532.945	8.45477
536.32	0.082214
539.694	12.337
543.069	12.5284
546.444	7.23731
549.819	25.2898
553.194	21.2394
556.568	7.6557
559.943	25.4695
563.318	20.4856
566.693	8.17194
570.068	0.159119
573.443	0.514526
576.817	11.5571
580.192	20.9258
583.567	4.09985
586.942	9.29791
590.317	21.4549
593.692	17.757
597.066	18.6806
600.441	22.7911
603.816	14.5715
607.191	23.8409
610.566	24.6169
613.94	20.5999
617.315	36.8646
620.69	44.8012
624.065	46.6189
627.44	60.6463
630.814	86.5217
634.189	97.9114
637.564	107.889
640.939	125.437
644.314	151.188
647.689	149.115
651.063	124.348
654.438	134.184
657.813	101.637
661.188	105.148
664.563	81.1211
667.938	66.2136
671.312	66.4222
674.687	54.0107
678.062	38.6035
681.437	55.6476
684.812	59.9548
688.186	50.677
691.561	57.5858
694.936	46.7346
698.311	47.9643
701.686	6.81604
705.061	29.3011
708.435	24.6774
711.81	22.8314
715.185	15.2368
718.56	8.7514
721.935	2.82043
725.309	9.3548
728.684	4.08069
732.059	16.5812
735.434	17.3015
738.809	1.75317
742.183	11.9179
745.558	3.6814
748.933	19.3645
752.308	39.0275
755.683	93.5309
759.058	141.655
762.432	243.195
765.807	366.998
769.182	540.05
772.557	835.427
775.932	1333.36
779.307	1997.66
782.681	2973.15
786.056	4040.95
789.431	4941.77
792.806	5386.05
796.181	5170.56
799.555	4193.46
802.93	3026.87
806.305	2068.55
809.68	1333.66
813.055	856.086
816.429	525.521
819.804	322.761
823.179	169.945
826.554	106.768
829.929	85.0582
833.304	99.0554
836.678	186.707
840.053	401.817
843.428	713.442
846.803	1119.56
850.178	1529.92
853.553	1701.31
856.927	1561.37
860.302	1251.92
863.677	852.373
867.052	523.205
870.427	295.933
873.801	128.06
877.176	53.4238
880.551	5.65466
883.926	14.6306
887.301	3.13281
890.676	6.02417
894.05	15.7333
897.425	36.6199
900.8	80.9592
904.175	42.7894
907.55	56.5188
910.924	53.1666
914.299	44.7723
917.674	50.4552
921.049	23.7368
924.424	24.2996
927.798	12.0223
931.173	8.69226
934.548	3.13354
937.923	6.96845
941.298	24.2411
944.673	2.4245
948.047	28.5266
951.422	1.54877
954.797	7.21008
958.172	6.90888
961.547	8.59497
964.922	34.939
968.296	34.1213
971.671	63.6024
975.046	43.2423
978.421	31.7321
981.796	46.4011
985.17	59.9817
988.545	57.2333
991.92	46.7218
995.295	44.5071
998.67	38.9096
1002.04	35.5728
1005.42	38.5454
1008.79	32.0535
1012.17	31.892
1015.54	30.8474
1018.92	28.2679
1022.29	25.5917
1025.67	23.5925
1029.04	28.3183
1032.42	32.6155
1035.79	17.4066
1039.17	33.2623
1042.54	15.3168
1045.92	19.7255
1049.29	16.8517
1052.67	22.2524
1056.04	18.6815
1059.42	23.4155
1062.79	20.1238
1066.17	38.2218
1069.54	28.8028
1072.92	1.43176
1076.29	1.71033
1079.66	1.84729
1083.04	25.6702
1086.41	12.3318
1089.79	25.662
1093.16	0.679138
1096.54	6.86719
1099.91	7.73718
1103.29	22.0188
1106.66	44.1783
1110.04	1.7901
1113.41	12.2909
1116.79	26.8814
1120.16	9.52411
1123.54	16.2695
1126.91	15.5174
1130.29	13.9556
1133.66	28.1281
1137.04	27.1742
1140.41	15.3185
1143.79	19.4977
1147.16	17.2592
1150.54	25.299
1153.91	7.46668
1157.29	2.53467
1160.66	21.7707
1164.04	6.25403
1167.41	8.63367
1170.79	34.4525
1174.16	24.9787
1177.54	19.053
1180.91	34.0795
1184.29	8.58368
1187.66	12.1709
1191.03	0.749451
1194.41	4.64563
1197.78	2.18585
1201.16	2.90033
1204.53	1.81598
1207.91	0.941711
1211.28	24.0095
1214.66	14.2998
1218.03	7.92841
1221.41	7.66156
1224.78	5.28748
1228.16	29.0561
1231.53	43.4365
1234.91	32.92
1238.28	29.3242
1241.66	33.1338
1245.03	29.4098
1248.41	21.939
1251.78	18.6755
1255.16	18.5902
1258.53	8.46295
1261.91	45.2999
1265.28	1.7301
1268.65	44.1794
1272.03	43.107
1275.4	28.8412
1278.78	14.7037
1282.15	22.2402
1285.53	10.6235
1288.9	20.3174
1292.28	7.42432
1295.65	6.41235
1299.03	28.5175
1302.4	7.14795
