Measurement: Raman, 780 nm, unoriented, Raman Data Processed
Mineral: Erythrosiderite
Rruff sample: R120084
Ideal chemistry: K_2_Fe^3+^Cl_5_H_2_O
Locality: Mount Vesuvius, Campania, Italy
Source: Robert Jenkins
Description: Reddish-yellow unconsolidated grains, associated with yellow or pale yellow salammoniac.
Raman shift (cm-1)	intensity
180.313	0
183.206	3.2995
186.098	12.6253
188.991	31.548
191.884	43.7972
194.776	58.025
197.669	71.1786
200.562	79.2257
203.455	82.4189
206.347	86.3578
209.24	78.9466
212.133	76.7604
215.025	67.2166
217.918	56.3053
220.811	45.3482
223.703	27.6808
226.596	17.1861
229.489	5.87924
232.382	3.25897
235.274	1.48483
238.167	0.68457
241.06	0.874969
243.952	3.17227
246.845	1.98688
249.738	0.29599
252.631	1.17337
255.523	0.459259
258.416	0.296082
261.309	0.863525
264.201	4.18979
267.094	6.44177
269.987	6.05017
272.879	8.20169
275.772	14.3497
278.665	19.3678
281.558	23.008
284.45	37.439
287.343	48.069
290.236	56.3393
293.128	71.3461
296.021	84.7002
298.914	93.3492
301.806	100.56
304.699	108.694
307.592	108.406
310.485	102.552
313.377	94.1736
316.27	85.4644
319.163	76.2114
322.055	76.264
324.948	75.5559
327.841	82.1743
330.733	86.1934
333.626	74.3783
336.519	66.3013
339.411	53.2467
342.304	40.8909
345.197	40.7343
348.09	35.2526
350.982	23.629
353.875	19.2561
356.768	11.807
359.66	3.17944
362.553	0.235168
365.446	0.166321
368.339	1.52679
371.231	1.81488
374.124	5.73627
377.017	13.7479
379.909	17.8578
382.802	23.28
385.695	26.9879
388.587	30.624
391.48	31.2806
394.373	31.4731
397.265	33.4501
400.158	29.5377
403.051	31.8918
405.944	28.1684
408.836	25.6873
411.729	28.8596
414.622	29.1086
417.514	35.2042
420.407	30.7407
423.3	35.6055
426.192	31.1343
429.085	32.6742
431.978	29.1039
434.871	27.8239
437.763	27.1938
440.656	20.1392
443.549	17.4678
446.441	10.4292
449.334	8.39627
452.227	7.13852
455.12	3.07068
458.012	0.167603
460.905	0.510773
463.798	3.48386
466.69	2.12473
469.583	1.28452
472.476	4.98587
475.368	7.97644
478.261	10.7514
481.154	12.5091
484.046	11.75
486.939	13.0183
489.832	6.61841
492.725	3.55075
495.617	2.87448
498.51	1.29666
501.403	1.88452
504.295	1.75147
507.188	0.41745
510.081	3.2785
512.973	1.73285
515.866	0.562622
518.759	1.89862
521.652	0.149078
524.544	6.18127
527.437	4.60229
530.33	9.36926
533.222	14.2098
536.115	13.8229
539.008	20.5753
541.9	19.1003
544.793	19.6317
547.686	21.282
550.579	21.476
553.471	23.4801
556.364	21.1459
559.257	19.5357
562.149	16.0795
565.042	15.9445
567.935	15.1736
570.827	11.2045
573.72	10.1965
576.613	6.69829
579.506	4.04842
582.398	5.32213
585.291	2.23227
588.184	0.645462
591.076	3.38454
593.969	2.25726
596.862	4.59889
599.755	4.57385
602.647	4.79454
605.54	5.46303
608.433	6.28705
611.325	6.14514
614.218	4.1185
617.111	3.10266
620.003	0.179276
622.896	3.04913
625.789	3.68552
628.682	4.85233
631.574	2.92842
634.467	3.5251
637.36	9.17632
640.252	8.49365
643.145	8.97729
646.038	9.92825
648.93	9.76254
651.823	9.12512
654.716	8.57553
657.609	10.0893
660.501	9.88442
663.394	9.47943
666.287	6.98389
669.179	10.7802
672.072	4.88754
674.965	4.55609
677.857	3.0631
680.75	5.22282
683.643	6.03323
686.535	2.54008
689.428	5.0186
692.321	7.41486
695.214	9.04645
698.106	7.49818
700.999	11.6977
703.892	13.6168
706.784	12.2936
709.677	14.445
712.57	13.788
715.462	12.8754
718.355	11.4046
721.248	12.8877
724.141	12.0804
727.033	10.0753
729.926	7.09262
732.819	6.52283
735.711	5.6777
738.604	3.80627
741.497	1.3672
744.389	1.54695
747.282	0.393875
750.175	2.51155
753.068	1.8016
755.96	0.34137
758.853	0.237885
761.746	2.07233
764.638	0.506958
767.531	0.600281
770.424	2.13229
773.317	3.10219
776.209	1.9409
779.102	1.80856
781.995	3.92042
784.887	2.93593
787.78	4.78665
790.673	5.2908
793.565	5.46611
796.458	8.61427
799.351	6.99515
802.244	5.43831
805.136	1.83369
808.029	5.5831
810.922	3.93227
813.814	1.74718
816.707	2.63461
819.6	2.53503
822.492	4.60785
825.385	2.76068
828.278	3.99254
831.17	2.71931
834.063	4.2505
836.956	5.17448
839.849	3.20344
842.741	5.15089
845.634	5.65649
848.527	3.43954
851.419	5.25198
854.312	3.32471
857.205	3.45557
860.097	4.45584
862.99	3.81886
865.883	2.39037
868.776	3.45399
871.668	4.18874
874.561	0.589745
877.454	5.01508
880.346	2.89337
883.239	0.040413
886.132	1.37173
889.024	4.40419
891.917	0.435074
894.81	0.708565
897.703	0.050919
900.595	1.55272
903.488	0.854385
906.381	1.13745
909.273	0.661064
912.166	0.059357
915.059	0.815857
917.952	1.82548
920.844	3.59615
923.737	3.3128
926.63	3.00825
929.522	4.13355
932.415	6.70406
935.308	6.55043
938.2	7.38547
941.093	4.84804
943.986	5.84415
946.879	7.71625
949.771	9.31924
952.664	10.6346
955.557	12.1634
958.449	13.7546
961.342	16.8769
964.235	18.7905
967.127	22.0273
970.02	23.6612
972.913	27.6269
975.806	29.197
978.698	30.7175
981.591	29.4063
984.484	28.9237
987.376	28.8992
990.269	25.573
993.162	23.7811
996.054	20.4286
998.947	14.7656
1001.84	11.4035
1004.73	11.1479
1007.62	5.6488
1010.52	5.72842
1013.41	2.89129
1016.3	2.42734
1019.2	2.1782
1022.09	1.05702
1024.98	2.04808
1027.87	2.82205
1030.77	1.03359
1033.66	1.34492
1036.55	4.06306
1039.44	2.53245
1042.34	2.30075
1045.23	4.82809
1048.12	1.88029
1051.02	2.90799
1053.91	1.9495
1056.8	0.316254
1059.69	1.1406
1062.59	3.05484
1065.48	1.26356
1068.37	0.13549
1071.27	2.1357
1074.16	0.263618
1077.05	3.19273
1079.94	0.512589
1082.84	1.22581
1085.73	0.737251
1088.62	5.42481
1091.51	2.11919
1094.41	2.39054
1097.3	2.32757
1100.19	0.732704
1103.08	1.18793
1105.98	1.2465
1108.87	0.800644
1111.76	1.33659
1114.65	0.528351
1117.55	4.38533
1120.44	2.3133
1123.33	1.81368
1126.23	2.01636
1129.12	0.563499
1132.01	1.04791
1134.9	3.99216
1137.8	0.215096
1140.69	3.10171
1143.58	2.23746
1146.47	1.99247
1149.37	2.54191
1152.26	1.79181
1155.15	0.354195
1158.05	4.85442
1160.94	1.92291
1163.83	1.87333
1166.72	1.67707
1169.62	3.73457
1172.51	1.11183
1175.4	0.145752
1178.3	1.75093
1181.19	3.97707
1184.08	0.188713
1186.97	4.91788
1189.87	3.63261
1192.76	0.299805
1195.65	3.21761
1198.54	2.09045
1201.44	2.36591
1204.33	3.6481
1207.22	2.20564
1210.11	4.35836
1213.01	2.81332
1215.9	1.36041
1218.79	0.253136
1221.68	3.97331
1224.58	0.92617
1227.47	0.92173
1230.36	1.52333
1233.26	0.809914
1236.15	1.11186
1239.04	2.33494
1241.93	1.30652
1244.83	2.2115
1247.72	3.43838
1250.61	3.13029
1253.51	0.98999
1256.4	0.636658
1259.29	1.22928
1262.18	3.98337
1265.08	2.4941
1267.97	5.74377
1270.86	3.80917
1273.75	4.09581
1276.65	2.90388
1279.54	2.63226
1282.43	2.11809
1285.32	0
