Measurement: Raman, 514 nm, unoriented, Raman Data Processed
Mineral: Erythrite
Rruff sample: R050073
Ideal chemistry: Co^2+^_3_(As^5+^O_4_)_2_8H_2_O
Locality: Bou Azzer, Morocco
Source: Rock Currier
Description: Crimson flattened crystals
Measured chemistry: (Co_0.65_Mg_0.35_)_3_(As_1.00_O_4_)_2_Â·8H_2_O
Raman shift (cm-1)	intensity
52.866	0
57.065	84.579
61.262	11.633
65.458	2.758
69.651	7.585
73.842	84.458
78.031	116.168
82.218	172.288
86.404	203.975
90.587	519.819
94.768	490.889
98.947	536.952
103.124	656.532
107.3	1175.36
111.473	2168.28
115.644	4161.18
119.813	1829.99
123.981	680.644
128.146	438.066
132.309	356.236
136.47	528.595
140.63	837.007
144.787	1795.33
148.942	4701.73
153.096	6186.35
157.247	3997.26
161.396	1435.5
165.544	584.094
169.689	529.063
173.833	539.411
177.974	485.123
182.114	543.18
186.251	794.565
190.387	1240.26
194.52	1812.25
198.652	2581.51
202.782	4062.04
206.909	6800.47
211.035	8231.37
215.159	5923.76
219.281	3233.24
223.4	1919.08
227.518	1423.08
231.634	1293.78
235.748	1461.98
239.86	1719.66
243.97	1712.94
248.079	1471.66
252.185	1230.11
256.289	1159.94
260.391	1259.21
264.492	1338.87
268.59	1195.93
272.687	914.357
276.781	603.15
280.874	393.279
284.964	184.677
289.053	219.262
293.14	305.012
297.225	473.895
301.308	839.884
305.389	966.975
309.468	719.166
313.545	413.455
317.62	287.838
321.693	180.309
325.765	215.863
329.834	442.491
333.902	577.188
337.967	626.946
342.031	404.758
346.093	150.616
350.153	27.515
354.21	100.562
358.267	38.73
362.321	45.99
366.373	61.33
370.423	43.049
374.471	91.613
378.518	165.142
382.563	172.36
386.605	188.243
390.646	237.231
394.685	299.86
398.722	317.96
402.757	494.053
406.79	579.542
410.821	845.206
414.851	1088.22
418.878	1551.28
422.904	2188.9
426.927	3194.46
430.949	4437.91
434.969	5918.94
438.987	6833.82
443.003	6184.43
447.018	5291.22
451.03	4533.77
455.041	4611.56
459.049	4867.24
463.056	4734.82
467.061	3743.29
471.064	2832.66
475.065	1936.91
479.064	1515.05
483.062	1065.08
487.057	763
491.051	582.804
495.043	373.495
499.032	257.205
503.02	214.535
507.007	144.884
510.991	158.12
514.973	152.93
518.954	120.572
522.933	88.723
526.91	52.67
530.885	48.38
534.858	35.992
538.829	50.501
542.799	52.921
546.766	14.226
550.732	12.342
554.696	6.855
558.658	21.294
562.618	66.96
566.576	47.938
570.533	35.248
574.488	45.872
578.44	86.848
582.391	131.129
586.341	44.751
590.288	53.13
594.233	55.963
598.177	52.582
602.119	13.479
606.059	28.515
609.997	26.38
613.933	20.252
617.868	64.118
621.801	99.982
625.731	176.851
629.66	263.728
633.588	333.62
637.513	464.534
641.437	630.474
645.358	696.446
649.278	827.458
653.196	935.513
657.113	802.618
661.027	867.779
664.94	803.451
668.851	727.988
672.76	676.691
676.667	643.309
680.572	673.149
684.476	655.152
688.378	654.262
692.278	710.155
696.176	712.499
700.072	842.115
703.967	833.495
707.86	948.842
711.751	1029.89
715.64	1133.03
719.527	1180.04
723.413	1086.6
727.297	1220.22
731.179	1457.87
735.059	1570.45
738.937	1859.52
742.814	1795.43
746.689	2120.38
750.562	2325.26
754.433	2774.89
758.303	3288.11
762.17	3932.19
766.036	4810.87
769.901	6359.97
773.763	9059.34
777.624	12267
781.482	16906.9
785.339	24875
789.195	35778.5
793.048	48708.2
796.9	53035.2
800.75	49674.5
804.598	40070.1
808.445	28474.9
812.289	20016
816.132	13676.4
819.973	9527.04
823.813	6863.97
827.65	5254.87
831.486	4261.74
835.32	3516.33
839.152	3097.4
842.983	2943.96
846.812	3127.4
850.639	3601.77
854.464	4116.51
858.288	4382.2
862.11	4191.1
865.93	3804.15
869.748	3046.58
873.564	2295.24
877.379	1745.04
881.192	1580.52
885.004	1386.64
888.813	1349.5
892.621	1326.06
896.427	1332.77
900.232	1278.8
904.034	1340.33
907.835	1244.93
911.634	1178.75
915.432	1132.05
919.227	965.851
923.021	776.012
926.813	662.908
930.604	471.643
934.393	466.281
938.18	403.586
941.965	316.954
945.749	229.574
949.53	186.093
953.311	131.294
957.089	91.473
960.866	134.949
964.641	80.454
968.414	75.182
972.185	51.692
975.955	9.814
979.723	3.709
983.49	27.718
987.254	22.068
991.017	3.336
994.779	1.124
998.538	14.844
1002.3	37.878
1006.05	61.767
1009.81	58.209
1013.56	71.812
1017.31	46.971
1021.06	43.678
1024.81	1.55
1028.55	15.729
1032.3	41.342
1036.04	50.936
1039.78	10.998
1043.52	15.612
1047.26	20.825
1050.99	8.044
1054.73	0.729
1058.46	28.86
1062.19	30.399
1065.92	40.101
1069.65	32
1073.37	90.139
1077.1	49.461
1080.82	114.181
1084.54	52.764
1088.26	27.362
1091.97	83.656
1095.69	70.474
1099.4	47.483
1103.12	151.046
1106.83	91.36
1110.54	98.571
1114.24	131.751
1117.95	50.862
1121.65	132.27
1125.35	92.403
1129.06	123.102
1132.75	115.004
1136.45	121.264
1140.15	136.749
1143.84	155.252
1147.53	160.913
1151.22	77.104
1154.91	70.926
1158.6	80.793
1162.28	101.475
1165.97	115.593
1169.65	87.412
1173.33	31.31
1177.01	65.606
1180.69	34.325
1184.36	38.445
1188.04	42.023
1191.71	93.051
1195.38	75.99
1199.05	80.127
1202.71	93.267
1206.38	73.46
1210.04	102.372
1213.71	94.655
1217.37	111.558
1221.03	100.451
1224.68	80
1228.34	105.034
1231.99	60.913
1235.65	104.173
1239.3	102.937
1242.95	74.201
1246.59	83.302
1250.24	99.4
1253.88	122.491
1257.53	121.172
1261.17	75.981
1264.81	47.345
1268.45	43.874
1272.08	13.156
1275.72	46.547
1279.35	61.944
1282.98	43.2
1286.61	87.419
1290.24	60.338
1293.87	83.429
1297.49	42.325
1301.11	58.341
1304.73	20.727
1308.36	63.969
1311.97	47.25
1315.59	75.491
1319.2	51.197
1322.82	0.453
1326.43	3.586
1330.04	32.293
1333.65	19.824
1337.26	44.439
1340.86	84.248
1344.47	107.1
1348.07	68.747
1351.67	78.42
1355.27	15.809
1358.87	114.264
1362.46	2.379
1366.06	73.965
1369.65	60.714
1373.24	7.908
1376.83	32.219
1380.42	118.274
1384	76.073
1387.59	19.4
1391.17	137.553
1394.75	82.18
1398.33	110.606
1401.91	154.519
1405.49	98.628
1409.06	73.319
1412.64	26.559
1416.21	112.238
1419.78	105.871
1423.35	29.734
1426.91	50.789
1430.48	65.035
1434.05	118.561
1437.61	98.205
1441.17	107.287
1444.73	77.095
1448.29	68.19
1451.84	121.972
1455.4	99.432
1458.95	98.004
1462.5	78.305
1466.05	36.33
1469.6	64.086
1473.15	70.416
1476.69	54.615
1480.24	42.562
1483.78	84.458
1487.32	107.086
1490.86	8.634
1494.39	60.052
1497.93	69.093
1501.46	49.623
1505	20.382
1508.53	30.476
1512.06	120.29
1515.59	12.95
1519.11	36.85
1522.64	0
