Measurement: Raman, 785 nm, unoriented, Raman Data Processed
Mineral: Erythrite
Rruff sample: R050073
Ideal chemistry: Co^2+^_3_(As^5+^O_4_)_2_8H_2_O
Locality: Bou Azzer, Morocco
Source: Rock Currier
Description: Crimson flattened crystals
Measured chemistry: (Co_0.65_Mg_0.35_)_3_(As_1.00_O_4_)_2_Â·8H_2_O
Raman shift (cm-1)	intensity
189.962	0
192.855	29.3667
195.748	55.7527
198.64	81.6057
201.533	141.662
204.426	238.982
207.318	430.27
210.211	607.057
213.104	509.335
215.996	322.897
218.889	129.966
221.782	48.3003
224.674	0.310303
227.567	10.843
230.46	12.2808
233.353	68.7434
236.245	101.003
239.138	160.532
242.031	182.447
244.923	219.954
247.816	216.302
250.709	276.075
253.601	307.191
256.494	323.149
259.387	180.474
262.28	138.055
265.172	136.095
268.065	94.3479
270.958	88.4497
273.85	16.7683
276.743	16.6361
279.636	1.08106
282.529	1.24841
285.421	4.47888
288.314	47.4973
291.207	64.943
294.099	103.618
296.992	159.071
299.885	219.267
302.777	266.302
305.67	326.542
308.563	248.801
311.455	173.484
314.348	94.8644
317.241	46.6422
320.134	18.6047
323.026	3.94104
325.919	2.39575
328.812	12.7665
331.704	22.4695
334.597	5.11426
337.49	58.6902
340.382	30.1157
343.275	5.01721
346.168	17.1511
349.061	5.76758
351.953	1.60718
354.846	21.1704
357.739	31.3351
360.631	5.17981
363.524	35.3586
366.417	2.43713
369.31	36.6768
372.202	80.1326
375.095	126.731
377.988	137.678
380.88	171.727
383.773	171.018
386.666	175.853
389.558	206.184
392.451	204.2
395.344	201.145
398.236	223.029
401.129	112.403
404.022	137.682
406.915	135.961
409.807	122.821
412.7	110.907
415.593	150.104
418.485	191.751
421.378	237.101
424.271	283.189
427.163	378.799
430.056	523.663
432.949	605.365
435.842	726.819
438.734	846.574
441.627	849.58
444.52	842.558
447.412	810.582
450.305	774.299
453.198	788.738
456.091	849.096
458.983	803.496
461.876	748.436
464.769	578.079
467.661	407.217
470.554	251.22
473.447	212.06
476.339	140.233
479.232	97.3347
482.125	61.3554
485.017	20.8213
487.91	37.8044
490.803	17.6157
493.696	0.765381
496.588	5.16138
499.481	1.2207
502.374	0.882935
505.266	12.8346
508.159	11.48
511.052	17.5411
513.944	1.90588
516.837	11.8447
519.73	10.1157
522.623	5.53223
525.515	13.3938
528.408	16.6233
531.301	30.8424
534.193	15.9097
537.086	16.4762
539.979	49.1055
542.871	29.7176
545.764	12.4692
548.657	8.10998
551.55	16.5239
554.442	42.6349
557.335	14.2026
560.228	36.2698
563.12	47.4961
566.013	34.8777
568.906	37.6891
571.798	17.5939
574.691	41.563
577.584	40.9377
580.477	18.0885
583.369	35.6974
586.262	69.1577
589.155	43.0693
592.047	55.0294
594.94	35.8168
597.833	9.58618
600.726	6.27942
603.618	19.0474
606.511	5.43079
609.404	42.2499
612.296	32.6148
615.189	35.4197
618.082	25.4656
620.974	10.9768
623.867	2.06128
626.76	47.6572
629.653	61.2448
632.545	54.4098
635.438	83.5903
638.331	106.265
641.223	89.6486
644.116	95.3871
647.009	131.475
649.901	102.795
652.794	125.513
655.687	117.803
658.58	111.395
661.472	104.856
664.365	103.046
667.258	59.0247
670.15	60.3445
673.043	69.8447
675.936	43.3688
678.828	37.7685
681.721	33.3071
684.614	64.5785
687.506	43.8204
690.399	54.2103
693.292	42.1364
696.185	36.7246
699.077	37.3046
701.97	65.0066
704.863	39.1102
707.755	17.443
710.648	25.3839
713.541	15.2842
716.433	39.677
719.326	58.4424
722.219	52.6969
725.112	26.6073
728.004	40.3088
730.897	11.9379
733.79	10.9984
736.682	36.898
739.575	28.8455
742.468	1.63184
745.361	20.0752
748.253	12.1589
751.146	36.342
754.039	32.2224
756.931	17.8391
759.824	55.45
762.717	95.8381
765.609	108.066
768.502	206.661
771.395	329.176
774.288	492.614
777.18	688.932
780.073	1008.24
782.966	1480.45
785.858	1962.14
788.751	2509.7
791.644	2990.72
794.536	3253.93
797.429	3084.04
800.322	2577.35
803.215	1961.36
806.107	1359.51
809	892.602
811.893	598.273
814.785	399.962
817.678	259.308
820.571	140.565
823.463	79.6042
826.356	10.5894
829.249	15.9517
832.141	36.1934
835.034	59.3206
837.927	129.096
840.82	266.434
843.712	442.883
846.605	698.374
849.498	1035.51
852.39	1382.09
855.283	1604.23
858.176	1582.14
861.068	1314.38
863.961	1003.16
866.854	714.947
869.747	501.57
872.639	277.473
875.532	182.459
878.425	58.4707
881.317	37.5939
884.21	14.8162
887.103	5.08948
889.995	27.5314
892.888	17.0814
895.781	15.922
898.674	23.2336
901.566	33.4791
904.459	54.1581
907.352	37.6232
910.244	78.5029
913.137	34.282
916.03	40.6475
918.923	20.3702
921.815	46.7147
924.708	30.1536
927.601	32.0707
930.493	12.948
933.386	5.37903
936.279	7.44311
939.171	6.2356
942.064	4.33472
944.957	1.4917
947.85	12.5527
950.742	1.20093
953.635	4.04102
956.528	26.9895
959.42	6.09558
962.313	19.3809
965.206	3.82471
968.098	54.4678
970.991	31.5675
973.884	24.506
976.777	31.5072
979.669	20.808
982.562	42.9076
985.455	50.9733
988.347	51.6201
991.24	54.3903
994.133	52.5832
997.025	49.2172
999.918	43.0889
1002.81	65.6576
1005.7	28.3472
1008.6	37.2197
1011.49	46.9008
1014.38	45.2482
1017.27	10.2692
1020.17	40.1918
1023.06	33.2529
1025.95	0.426392
1028.85	20.2862
1031.74	28.4126
1034.63	50.8361
1037.52	3.57446
1040.42	39.6418
1043.31	26.7175
1046.2	19.2506
1049.09	44.9951
1051.99	12.2168
1054.88	20.1874
1057.77	29.4722
1060.66	37.6671
1063.56	22.9077
1066.45	8.76318
1069.34	21.9473
1072.24	17.8511
1075.13	1.15955
1078.02	19.6743
1080.91	33.1114
1083.81	10.9147
1086.7	25.4927
1089.59	0.559204
1092.48	12.6258
1095.38	7.93359
1098.27	28.573
1101.16	20.5896
1104.06	29.3975
1106.95	25.6853
1109.84	23.361
1112.73	35.0194
1115.63	20.7573
1118.52	29.1095
1121.41	30.5671
1124.3	32.1248
1127.2	0.213623
1130.09	17.3127
1132.98	13.0546
1135.88	12.0546
1138.77	17.5555
1141.66	17.5088
1144.55	21.9307
1147.45	20.6209
1150.34	6.38
1153.23	23.3135
1156.12	19.0298
1159.02	35.045
1161.91	7.73291
1164.8	16.5111
1167.69	31.9249
1170.59	33.5813
1173.48	10.438
1176.37	20.6741
1179.27	22.8814
1182.16	41.0237
1185.05	12.9134
1187.94	31.1331
1190.84	17.4051
1193.73	30.7501
1196.62	21.59
1199.51	12.5237
1202.41	25.0367
1205.3	31.8658
1208.19	2.49036
1211.09	13.5275
1213.98	1.94592
1216.87	23.5134
1219.76	42.0391
1222.66	24.3988
1225.55	2.78918
1228.44	47.3657
1231.33	7.74524
1234.23	0.242432
