Measurement: Raman, 532 nm, unoriented, Raman Data Processed
Mineral: Eskebornite
Rruff sample: R060791
Ideal chemistry: CuFeSe_2_
Locality: Slavkovice Morava, Czech Republic
Source: Michael Scott
Description: Brass colored metallic massive
Measured chemistry: Cu_1.00_(Fe_0.98_Pb_0.02_)_Σ=1_(Se_1.93_S_0.07_)_Σ=2_ ; the lighter inclusions (not analyzed) contain (WDS scan only): Cu, Tl, Se, Fe
Raman shift (cm-1)	intensity
154.789	0
157.682	23.7043
160.574	7.02228
163.467	87.1012
166.36	88.5206
169.253	177.625
172.145	308.514
175.038	116.964
177.931	76.9703
180.823	128.654
183.716	244.385
186.609	423.096
189.501	605.346
192.394	790.866
195.287	1149.13
198.18	347.248
201.072	122.657
203.965	100.255
206.858	70.7428
209.75	102.789
212.643	89.4949
215.536	113.479
218.428	150.934
221.321	140.035
224.214	138.067
227.107	143.788
229.999	192.897
232.892	198.419
235.785	191.644
238.677	167.506
241.57	158.21
244.463	152.73
247.355	216.054
250.248	251.649
253.141	260.363
256.033	267.976
258.926	233.501
261.819	191.537
264.711	100.975
267.604	50.7985
270.497	3.75027
273.39	19.7241
276.282	3.63174
279.175	4.55429
282.068	15.2257
284.96	12.8385
287.853	3.80185
290.746	10.0612
293.638	7.1553
296.531	10.1366
299.424	7.93912
302.317	7.43564
305.209	6.29901
308.102	11.1036
310.995	15.3504
313.887	9.74005
316.78	15.1234
319.673	29.9396
322.565	17.7414
325.458	18.3336
328.351	25.5103
331.244	43.8758
334.136	37.7482
337.029	40.5534
339.922	33.7589
342.814	43.5341
345.707	45.9765
348.6	43.4779
351.492	22.8133
354.385	44.7758
357.278	33.7468
360.171	29.9772
363.063	13.1753
365.956	29.0379
368.849	20.1469
371.741	31.077
374.634	14.5179
377.527	32.7495
380.419	27.2097
383.312	13.4054
386.205	34.3503
389.098	5.78178
391.99	18.683
394.883	18.7169
397.776	13.7428
400.668	0.66629
403.561	4.58493
406.454	8.99983
409.346	1.29373
412.239	1.08623
415.132	5.44475
418.025	9.23804
420.917	21.5946
423.81	7.30106
426.703	19.9625
429.595	5.10536
432.488	14.3256
435.381	12.3344
438.273	8.96367
441.166	7.23073
444.059	17.2429
446.952	8.12082
449.844	25.3209
452.737	7.64404
455.63	6.11691
458.522	28.4017
461.415	5.7785
464.308	24.1539
467.2	15.3992
470.093	25.935
472.986	23.4047
475.878	20.9229
478.771	14.4627
481.664	19.1086
484.556	2.99316
487.449	7.79616
490.342	0.987213
493.235	25.3786
496.127	3.40677
499.02	13.9409
501.913	11.1926
504.805	29.2295
507.698	25.7785
510.591	26.6717
513.484	15.5327
516.376	14.6393
519.269	9.72458
522.162	16.0857
525.054	8.29999
527.947	2.5023
530.84	11.2106
533.732	2.3985
536.625	7.77199
539.518	9.49109
542.411	9.00534
545.303	9.30783
548.196	15.1439
551.089	8.88898
553.981	28.4194
556.874	20.5936
559.767	10.3205
562.659	14.9904
565.552	11.2839
568.445	24.5011
571.338	19.4184
574.23	2.1628
577.123	5.55405
580.016	27.7302
582.908	19.8447
585.801	13.6496
588.694	5.77733
591.586	6.96269
594.479	17.6639
597.372	26.1613
600.265	19.7374
603.157	13.0905
606.05	11.8814
608.943	6.68896
611.835	20.4968
614.728	9.97093
617.621	1.17813
620.513	9.07228
623.406	18.4691
626.299	8.22676
629.191	15.5262
632.084	18.5513
634.977	21.3834
637.87	22.9101
640.762	20.8631
643.655	19.3451
646.548	14.649
649.44	25.2592
652.333	54.88
655.226	11.7347
658.118	8.10396
661.011	8.4216
663.904	9.70929
666.797	7.94975
669.689	20.6137
672.582	19.4258
675.474	3.73335
678.367	15.6473
681.26	36.9721
684.153	7.78599
687.045	28.4249
689.938	6.24589
692.831	6.51298
695.723	12.3841
698.616	9.1788
701.509	5.22257
704.402	4.824
707.294	28.6338
710.187	25.0914
713.08	18.1088
715.972	15.5625
718.865	29.4916
721.758	32.8064
724.651	26.7577
727.543	27.5219
730.436	25.0847
733.328	29.1734
736.221	23.2018
739.114	16.1445
742.007	33.8016
744.899	16.9548
747.792	26.4046
750.685	13.7131
753.577	18.6097
756.47	12.4571
759.363	35.6952
762.255	33.9126
765.148	36.57
768.041	36.5331
770.934	31.9914
773.826	19.8827
776.719	30.802
779.612	5.70808
782.504	6.93483
785.397	26.9342
788.29	15.2577
791.182	16.2636
794.075	6.46565
796.968	16.636
799.86	9.70453
802.753	14.3038
805.646	18.9936
808.539	19.9297
811.431	3.25934
814.324	1.92923
817.217	4.0372
820.109	7.79817
823.002	21.735
825.895	11.4209
828.787	11.5679
831.68	6.85464
834.573	22.3025
837.466	11.2898
840.358	28.9551
843.251	36.1592
846.144	18.1763
849.036	27.9679
851.929	13.6097
854.822	0.137878
857.714	26.3438
860.607	7.31215
863.5	16.1997
866.393	16.5967
869.285	22.1209
872.178	0.345917
875.071	18.4683
877.963	22.235
880.856	9.36946
883.749	29.4712
886.641	17.1971
889.534	27.2065
892.427	32.0729
895.32	5.73193
898.212	13.1958
901.105	28.4316
903.998	25.4539
906.89	15.577
909.783	17.2022
912.676	7.02473
915.568	7.55545
918.461	21.9146
921.354	20.4336
924.247	27.1226
927.139	40.5643
930.032	27.6303
932.925	17.3906
935.817	18.3664
938.71	14.106
941.603	23.881
944.495	29.1574
947.388	16.5282
950.281	15.1056
953.174	10.3025
956.066	37.1004
958.959	11.1781
961.852	7.18655
964.744	6.65456
967.637	20.7607
970.53	15.9061
973.422	0.428802
976.315	28.5844
979.208	1.24347
982.101	1.72429
984.993	17.7126
987.886	8.6994
990.779	10.4264
993.671	17.0475
996.564	27.9281
999.457	0.088318
1002.35	8.10892
1005.24	2.86607
1008.13	14.0052
1011.03	26.5331
1013.92	15.6201
1016.81	25.1845
1019.71	11.2843
1022.6	15.7006
1025.49	20.4996
1028.38	24.0805
1031.28	31.9291
1034.17	27.2584
1037.06	27.5389
1039.95	7.80019
1042.85	28.44
1045.74	35.6467
1048.63	16.9123
1051.53	21.44
1054.42	12.4556
1057.31	21.3727
1060.2	8.79507
1063.1	17.2595
1065.99	16.862
1068.88	28.493
1071.77	18.2223
1074.67	7.69133
1077.56	5.0257
1080.45	21.6046
1083.35	35.4787
1086.24	28.1606
1089.13	13.2796
1092.02	20.5048
1094.92	10.36
1097.81	16.3726
1100.7	0.201294
1103.59	22.4901
1106.49	14.3358
1109.38	16.9607
1112.27	36.9879
1115.16	30.3972
1118.06	11.955
1120.95	3.12634
1123.84	29.5959
1126.73	12.4442
1129.63	21.7128
1132.52	26.1885
1135.41	11.6638
1138.31	14.5754
1141.2	35.5426
1144.09	17.089
1146.98	16.4478
1149.88	18.0452
1152.77	0.284439
1155.66	16.7064
1158.56	16.1507
1161.45	29.5358
1164.34	0.525269
1167.23	17.5417
1170.13	16.418
1173.02	1.02567
1175.91	21.6531
1178.8	26.5885
1181.7	14.4345
1184.59	6.49014
1187.48	20.7981
1190.38	32.4509
1193.27	11.7941
1196.16	15.2562
1199.05	24.2855
1201.94	27.15
1204.84	0.346771
1207.73	26.8584
1210.62	23.2541
1213.52	21.9895
1216.41	2.00464
1219.3	9.21939
1222.19	8.70802
1225.09	20.9707
1227.98	3.5735
1230.87	41.5907
1233.77	25.6037
1236.66	30.0126
1239.55	8.82927
1242.44	4.02968
1245.34	22.4506
1248.23	3.20519
1251.12	21.7862
1254.01	8.9947
1256.91	14.2556
1259.8	11.3814
1262.69	18.61
1265.59	15.97
1268.48	13.0567
1271.37	21.8818
1274.26	8.50998
1277.16	3.00114
1280.05	13.1154
1282.94	0
