Measurement: Raman, 785 nm, unoriented, Raman Data Processed
Mineral: Eskolaite
Rruff sample: R060892
Ideal chemistry: Cr_2_O_3_
Locality: Outokumpu, Finland
Source: Michael Scott
Description: Black submetallic hexagonal prisms
Raman shift (cm-1)	intensity
206.38	0
209.273	38.243
212.165	32.8159
215.058	18.3803
217.951	25.9967
220.844	13.2382
223.736	42.147
226.629	59.3937
229.522	63.6969
232.414	37.9755
235.307	95.5498
238.2	63.1453
241.092	70.8138
243.985	66.3585
246.878	46.4342
249.77	60.0209
252.663	99.5159
255.556	96.3603
258.449	128.937
261.341	188.329
264.234	196.553
267.127	285.267
270.019	348.195
272.912	403.212
275.805	474.906
278.697	575.773
281.59	718.798
284.483	849.839
287.376	941.914
290.268	1145.79
293.161	1225.77
296.054	1104.46
298.946	918.869
301.839	602.487
304.732	372.805
307.625	241.319
310.517	125.309
313.41	72.611
316.303	23.8383
319.195	10.7103
322.088	52.9194
324.981	12.6512
327.873	65.6213
330.766	96.5629
333.659	125.356
336.551	240.313
339.444	399.402
342.337	717.221
345.23	1001.84
348.122	1048.97
351.015	759.353
353.908	444.817
356.8	309.291
359.693	245.287
362.586	181.953
365.478	179.137
368.371	167.947
371.264	150.769
374.157	161.753
377.049	139.692
379.942	112.982
382.835	98.4759
385.727	73.1525
388.62	110.216
391.513	60.6555
394.406	107.024
397.298	43.1604
400.191	74.275
403.084	27.3321
405.976	11.6987
408.869	40.2273
411.762	31.6942
414.654	60.2094
417.547	73.3285
420.44	23.0896
423.332	33.2274
426.225	36.698
429.118	10.7689
432.011	7.09143
434.903	15.7894
437.796	29.6495
440.689	44.946
443.581	46.5863
446.474	64.6294
449.367	45.2987
452.26	38.1216
455.152	20.5995
458.045	6.32007
460.938	13.127
463.83	20.7532
466.723	4.07385
469.616	8.54688
472.508	9.25098
475.401	22.9629
478.294	37.2363
481.187	29.9067
484.079	41.179
486.972	74.781
489.865	59.0535
492.757	82.5502
495.65	94.5376
498.543	108.133
501.435	106.763
504.328	65.9176
507.221	81.2478
510.114	102.382
513.006	80.79
515.899	109.768
518.792	171.4
521.684	216.52
524.577	261.261
527.47	268.168
530.362	260.311
533.255	274.168
536.148	418.075
539.04	795.159
541.933	1476.78
544.826	2676.13
547.719	4239.48
550.611	5435.44
553.504	3933.87
556.397	1667.37
559.289	677.545
562.182	326.036
565.075	151.422
567.967	50.8572
570.86	8.15576
573.753	24.7809
576.646	47.1122
579.538	21.9065
582.431	12.1769
585.324	19.0751
588.216	26.2301
591.109	6.14795
594.002	1.2561
596.895	56.1208
599.787	75.0128
602.68	231.763
605.573	482.862
608.465	905.668
611.358	1254.94
614.251	1187.18
617.144	662.341
620.036	259.012
622.929	165.401
625.822	151.927
628.714	148.222
631.607	169.759
634.5	212.428
637.392	316.902
640.285	339.671
643.178	376.439
646.071	401.128
648.963	412.405
651.856	417.756
654.749	415.282
657.641	378.964
660.534	319.177
663.427	241.637
666.319	261.836
669.212	324.824
672.105	452.369
674.997	561.641
677.89	672.061
680.783	806.838
683.676	894.278
686.568	991.687
689.461	1048.56
692.354	1018.64
695.246	940.469
698.139	858.182
701.032	746.708
703.924	668.421
706.817	580.589
709.71	473.906
712.603	455.979
715.495	396.288
718.388	293.096
721.281	241.556
724.173	172.635
727.066	93.3513
729.959	58.8945
732.851	38.2716
735.744	1.49695
738.637	8.83447
741.53	20.8191
744.422	7.37781
747.315	0.876831
750.208	24.2374
753.1	20.7604
755.993	5.16577
758.886	26.2157
761.779	12.7858
764.671	6.46362
767.564	11.5605
770.457	17.5195
773.349	19.394
776.242	47.2567
779.135	42.9281
782.027	40.8551
784.92	73.8696
787.813	62.65
790.706	51.105
793.598	51.1891
796.491	60.1895
799.384	20.7716
802.276	27.1832
805.169	50.2152
808.062	25.6446
810.954	50.0542
813.847	80.1437
816.74	41.7654
819.633	60.4785
822.525	44.9622
825.418	72.4723
828.311	7.6134
831.203	53.2999
834.096	17.3568
836.989	27.709
839.881	17.5233
842.774	18.1683
845.667	30.8972
848.559	49.1168
851.452	5.75745
854.345	35.4194
857.238	56.7996
860.13	37.0377
863.023	6.35718
865.916	17.5542
868.808	14.4684
871.701	18.3114
874.594	0.904907
877.486	25.886
880.379	0.228516
883.272	13.0219
886.165	15.1195
889.057	20.998
891.95	50.1576
894.843	24.6195
897.735	31.3915
900.628	24.0584
903.521	56.7929
906.413	70.88
909.306	45.3198
912.199	55.1901
915.092	68.4088
917.984	73.3245
920.877	70.8499
923.77	53.5851
926.663	45.7833
929.555	27.3066
932.448	30.535
935.341	39.2971
938.233	34.0106
941.126	10.0563
944.019	25.0206
946.911	26.176
949.804	47.6925
952.697	14.5754
955.59	16.5897
958.482	22.9731
961.375	20.0398
964.268	17.7562
967.16	17.8103
970.053	0.113892
972.946	54.9691
975.838	47.1967
978.731	32.8112
981.624	54.1497
984.516	33.3497
987.409	27.1274
990.302	14.7685
993.195	6.3479
996.087	34.8418
998.98	34.5518
1001.87	59.2788
1004.76	83.2245
1007.66	19.2452
1010.55	73.7188
1013.44	51.9286
1016.34	53.4916
1019.23	60.0787
1022.12	26.5903
1025.01	7.32581
1027.91	12.2322
1030.8	72.4094
1033.69	23.6759
1036.59	77.3876
1039.48	76.5189
1042.37	69.5537
1045.26	83.8999
1048.16	95.329
1051.05	65.2039
1053.94	49.4896
1056.83	35.9359
1059.73	35.491
1062.62	30.9763
1065.51	46.5067
1068.4	30.9862
1071.3	42.2701
1074.19	38.252
1077.08	45.2489
1079.98	21.4386
1082.87	47.3829
1085.76	21.723
1088.65	57.5779
1091.55	12.1774
1094.44	56.5913
1097.33	17.3663
1100.22	19.3405
1103.12	10.3181
1106.01	26.4358
1108.9	35.0207
1111.8	43.6016
1114.69	1.26599
1117.58	9.26709
1120.47	15.8623
1123.37	31.2855
1126.26	22.2286
1129.15	20.218
1132.04	5.61133
1134.94	23.4261
1137.83	5.54968
1140.72	4.05872
1143.62	2.65991
1146.51	24.7909
1149.4	12.3461
1152.29	43.2716
1155.19	13.7908
1158.08	33.1932
1160.97	33.7556
1163.86	19.728
1166.76	26.5179
1169.65	58.4836
1172.54	20.3226
1175.43	42.6561
1178.33	35.5139
1181.22	37.229
1184.11	59.0887
1187.01	16.7338
1189.9	60.5582
1192.79	85.2692
1195.68	83.902
1198.58	75.1552
1201.47	61.5938
1204.36	43.2741
1207.25	8.75183
1210.15	51.9781
1213.04	79.8257
1215.93	30.3951
1218.83	64.82
1221.72	76.8755
1224.61	5.51648
1227.5	46.9227
1230.4	69.7538
1233.29	47.8223
1236.18	16.2856
1239.07	9.00244
1241.97	48.5973
1244.86	82.5569
1247.75	49.7854
1250.64	16.7087
1253.54	14.8383
1256.43	22.7941
1259.32	16.4088
1262.22	5.11719
