Measurement: Raman, 532 nm, unoriented, Raman Data Processed
Mineral: Eskolaite
Rruff sample: R060892
Ideal chemistry: Cr_2_O_3_
Locality: Outokumpu, Finland
Source: Michael Scott
Description: Black submetallic hexagonal prisms
Raman shift (cm-1)	intensity
150.45	0
153.343	20.8334
156.235	19.1001
159.128	15.064
162.021	19.4424
164.913	28.6348
167.806	29.9627
170.699	13.5232
173.592	3.02447
176.484	14.9468
179.377	18.6049
182.27	11.2868
185.162	17.6003
188.055	31.1486
190.948	33.7976
193.84	21.8589
196.733	44.5212
199.626	10.7128
202.519	21.6097
205.411	49.7438
208.304	30.8823
211.197	22.6517
214.089	23.578
216.982	21.8048
219.875	23.2656
222.767	2.37079
225.66	26.0282
228.553	14.6166
231.446	27.3306
234.338	35.0577
237.231	15.876
240.124	14.1349
243.016	19.8283
245.909	1.69751
248.802	41.1393
251.694	7.6427
254.587	34.5063
257.48	4.98688
260.373	12.1132
263.265	13.0834
266.158	27.4636
269.051	29.2604
271.943	9.92871
274.836	7.26929
277.729	25.6268
280.621	2.45966
283.514	35.7924
286.407	42.19
289.3	32.2332
292.192	57.5983
295.085	77.0315
297.978	78.4673
300.87	72.3279
303.763	60.8837
306.656	60.1608
309.548	37.1354
312.441	11.5168
315.334	29.1993
318.226	15.0894
321.119	6.68085
324.012	29.4476
326.904	7.797
329.797	14.3658
332.69	36.4246
335.583	25.0256
338.475	21.3545
341.368	34.6027
344.261	28.1399
347.153	32.7758
350.046	15.8626
352.939	16.1732
355.832	9.41736
358.724	47.7817
361.617	15.1234
364.51	24.9553
367.402	23.221
370.295	33.6103
373.188	25.8445
376.08	38.1461
378.973	28.8786
381.866	27.6384
384.759	32.3248
387.651	58.3813
390.544	35.9945
393.437	61.3097
396.329	46.4764
399.222	21.7421
402.115	22.6528
405.007	28.7082
407.9	28.4326
410.793	39.5408
413.685	18.0037
416.578	43.154
419.471	7.90924
422.364	21.4655
425.256	44.7441
428.149	27.87
431.042	15.8678
433.934	21.8526
436.827	16.5724
439.72	10.4791
442.612	29.4862
445.505	35.9766
448.398	20.2012
451.291	22.7006
454.183	29.1309
457.076	12.4959
459.969	4.02032
462.861	27.1366
465.754	8.49371
468.647	3.08246
471.539	19.1885
474.432	5.57208
477.325	6.50049
480.217	23.3639
483.11	29.8864
486.003	21.7542
488.896	41.1637
491.788	4.80145
494.681	18.9377
497.574	2.70831
500.466	14.5761
503.359	25.3654
506.252	14.5597
509.144	40.5227
512.037	16.3342
514.93	59.7647
517.823	64.5928
520.715	102.037
523.608	99.8664
526.501	143.23
529.393	119.304
532.286	187.515
535.179	273.55
538.072	486.471
540.964	815.354
543.857	1191.22
546.75	1643.94
549.642	2109.49
552.535	2033.02
555.428	1105.13
558.32	487.783
561.213	234.966
564.106	152.443
566.998	91.762
569.891	56.9129
572.784	47.7001
575.677	47.1712
578.569	21.899
581.462	34.4164
584.355	10.51
587.247	30.038
590.14	7.06415
593.033	3.02832
595.925	5.06049
598.818	3.0517
601.711	35.811
604.604	4.39459
607.496	44.1786
610.389	63.7137
613.282	83.1907
616.174	37.3052
619.067	18.5763
621.96	25.0651
624.852	69.8402
627.745	98.2872
630.638	120.53
633.53	155.516
636.423	215.443
639.316	215.937
642.209	259.3
645.101	275.585
647.994	297.12
650.887	296.245
653.779	318.482
656.672	261.102
659.565	237.223
662.457	223.524
665.35	220.002
668.243	259.065
671.135	308.28
674.028	393.218
676.921	472.809
679.814	556.127
682.706	610.315
685.599	659.154
688.492	685.832
691.384	674.795
694.277	618.953
697.17	561.821
700.062	483.188
702.955	429.334
705.848	350.745
708.741	312.072
711.633	246.62
714.526	220.4
717.419	185.03
720.311	124.162
723.204	107.652
726.097	80.9275
728.99	66.6055
731.882	40.1055
734.775	10.5913
737.668	0.600647
740.56	13.3817
743.453	7.62335
746.346	15.3683
749.238	1.37262
752.131	4.99927
755.024	5.5824
757.916	15.2073
760.809	7.35101
763.702	13.1881
766.595	28.9449
769.487	17.9112
772.38	0.446777
775.273	7.47333
778.165	16.9627
781.058	3.99335
783.951	6.27429
786.843	4.09106
789.736	19.0971
792.629	35.8091
795.521	51.5576
798.414	29.2656
801.307	14.0018
804.2	19.9531
807.092	5.89221
809.985	29.5612
812.878	23.0382
815.77	34.7232
818.663	28.5217
821.556	8.03363
824.448	11.1396
827.341	34.4316
830.234	0.856262
833.127	29.3828
836.019	4.07471
838.912	17.9584
841.805	0.792786
844.697	16.9327
847.59	30.7161
850.483	11.4371
853.375	8.90155
856.268	11.007
859.161	37.5305
862.053	0.935425
864.946	25.0534
867.839	34.0518
870.732	11.784
873.624	17.757
876.517	52.3152
879.41	16.673
882.302	40.39
885.195	9.18658
888.088	9.57306
890.981	44.9134
893.873	11.955
896.766	25.777
899.659	39.9969
902.551	14.5684
905.444	37.4362
908.337	12.405
911.229	23.4906
914.122	30.4634
917.015	29.8508
919.908	37.1472
922.8	34.495
925.693	41.9351
928.586	17.5128
931.478	32.152
934.371	29.7293
937.264	17.3874
940.156	12.5683
943.049	27.8863
945.942	5.0686
948.835	61.6439
951.727	31.0184
954.62	6.59674
957.513	23.7462
960.405	11.1521
963.298	3.66217
966.191	24.1462
969.083	17.8781
971.976	15.262
974.869	21.7866
977.761	16.5432
980.654	18.0621
983.547	7.05957
986.439	29.8043
989.332	13.01
992.225	3.92365
995.118	24.7468
998.01	43.1954
1000.9	24.8948
1003.8	9.19959
1006.69	21.3444
1009.58	25.1722
1012.47	35.9024
1015.37	1.09326
1018.26	43.1801
1021.15	66.9769
1024.05	5.62335
1026.94	43.4277
1029.83	20.4879
1032.72	27.7796
1035.62	41.2266
1038.51	40.2738
1041.4	60.1179
1044.29	26.0544
1047.19	28.4689
1050.08	23.7315
1052.97	49.7927
1055.86	32.2634
1058.76	55.2666
1061.65	42.0547
1064.54	30.0844
1067.43	5.84949
1070.33	14.3652
1073.22	19.1916
1076.11	4.4588
1079.01	27.774
1081.9	2.98615
1084.79	36.2481
1087.68	32.4326
1090.58	33.339
1093.47	20.5571
1096.36	34.3808
1099.26	39.568
1102.15	44.9513
1105.04	56.7906
1107.93	33.9269
1110.83	28.9149
1113.72	27.3214
1116.61	26.7864
1119.5	27.6552
1122.4	3.28949
1125.29	23.282
1128.18	14.2961
1131.07	51.8233
1133.97	24.3763
1136.86	34.364
1139.75	11.8194
1142.64	6.06897
1145.54	48.4028
1148.43	4.56097
1151.32	48.3487
1154.22	25.2275
1157.11	20.428
1160	10.0441
1162.89	29.5099
1165.79	14.7411
1168.68	0.63385
1171.57	32.3957
1174.46	45.7897
1177.36	2.71503
1180.25	10.8638
1183.14	47.6838
1186.04	11.8419
1188.93	16.3157
1191.82	34.1694
1194.71	0.423218
1197.61	16.8884
1200.5	36.1425
1203.39	25.0865
1206.29	42.5785
1209.18	28.6953
1212.07	26.1645
1214.96	26.9993
1217.86	8.75507
1220.75	3.78137
1223.64	15.2154
1226.53	13.4169
1229.43	16.0347
1232.32	19.9041
1235.21	19.2584
1238.1	42.3118
1241	40.9646
1243.89	57.5081
1246.78	26.1537
1249.67	22.9642
1252.57	20.7967
1255.46	42.3063
1258.35	15.0873
1261.25	21.0269
1264.14	17.5305
1267.03	6.54437
1269.92	31.0841
1272.82	31.8291
1275.71	39.6268
1278.6	58.3802
1281.49	38.5902
1284.39	30.259
1287.28	35.1407
1290.17	53.3591
