Measurement: Raman, 780 nm, unoriented, Raman Data Processed
Mineral: Esperite
Rruff sample: R060295
Ideal chemistry: PbCa_2_(ZnSiO_4_)_3_
Locality: Parker Shaft, Franklin, Sussex County, New Jersey, USA
Source: Michael Scott
Description: Tan colored massive associated with black franklinite
Measured chemistry: (Ca_1.98_Pb_0.02_)_Î£=2_Pb_1.00_Zn_3.00_(Si_1.00_O_4_)_3_
Raman shift (cm-1)	intensity
111.621	0
114.996	92.2003
118.371	134.267
121.746	51.5223
125.121	86.0129
128.496	111.626
131.87	43.6889
135.245	31.4583
138.62	35.6052
141.995	37.8505
145.37	11.8157
148.744	4.62268
152.119	8.07556
155.494	43.8845
158.869	40.7788
162.244	39.3397
165.619	28.4893
168.994	42.7015
172.368	72.8337
175.743	108.599
179.118	132.016
182.493	133.187
185.868	93.0927
189.242	62.1596
192.617	49.5224
195.992	49.4223
199.367	52.749
202.742	29.2766
206.117	7.83633
209.491	9.04428
212.866	14.9909
216.241	17.4662
219.616	18.549
222.991	22.9761
226.365	22.5116
229.74	19.1755
233.115	20.5743
236.49	25.8313
239.865	28.7033
243.239	26.0313
246.614	37.1273
249.989	42.2915
253.364	37.7846
256.739	27.8465
260.114	19.3416
263.488	14.6152
266.863	12.2279
270.238	13.9459
273.613	19.5843
276.988	28.9143
280.363	29.41
283.737	19.6837
287.112	14.2359
290.487	14.9261
293.862	18.9318
297.237	20.5052
300.611	8.05747
303.986	4.72644
307.361	8.54669
310.736	4.1781
314.111	2.603
317.486	11.0645
320.86	29.7844
324.235	48.7289
327.61	73.43
330.985	96.6102
334.36	114.043
337.734	106.448
341.109	75.4996
344.484	54.4915
347.859	42.9994
351.234	55.2275
354.608	72.6281
357.983	95.3623
361.358	108.155
364.733	125.767
368.108	126.374
371.483	108.605
374.857	54.7363
378.232	16.2829
381.607	1.59973
384.982	3.00159
388.357	4.82083
391.731	3.71787
395.106	12.4557
398.481	20.9922
401.856	33.5572
405.231	40.6171
408.606	50.395
411.98	48.3665
415.355	39.272
418.73	34.0263
422.105	35.7789
425.48	53.339
428.854	84.386
432.229	135.958
435.604	188.988
438.979	242.812
442.354	298.586
445.729	339.329
449.103	304.344
452.478	183.858
455.853	80.8136
459.228	26.9969
462.603	2.26123
465.978	0.132446
469.352	0.532227
472.727	6.82953
476.102	24.3836
479.477	37.5529
482.852	47.0134
486.226	49.5308
489.601	56.9605
492.976	59.1199
496.351	74.4707
499.726	94.2314
503.101	112.482
506.475	99.5045
509.85	85.3984
513.225	71.9416
516.6	56.2025
519.975	22.6164
523.349	9.84549
526.724	0.269623
530.099	3.40143
533.474	1.12595
536.849	1.76679
540.223	2.35098
543.598	1.12353
546.973	0.184326
550.348	1.2966
553.723	0.502777
557.098	0.25116
560.472	6.44641
563.847	6.86935
567.222	11.9785
570.597	21.1622
573.972	36.9877
577.346	58.9999
580.721	79.3084
584.096	99.9045
587.471	117.433
590.846	108.757
594.221	79.8922
597.596	45.3254
600.97	26.0752
604.345	20.1848
607.72	11.7924
611.095	7.18674
614.47	4.89069
617.844	2.75009
621.219	1.64075
624.594	1.71936
627.969	1.2702
631.344	1.86694
634.718	1.80606
638.093	2.0943
641.468	1.47665
644.843	3.84375
648.218	3.43213
651.592	3.76242
654.967	2.79178
658.342	2.91894
661.717	3.27048
665.092	0.865662
668.467	4.19
671.841	3.66174
675.216	6.47284
678.591	3.08334
681.966	4.68848
685.341	4.57849
688.716	2.31619
692.09	6.09473
695.465	4.7912
698.84	1.22887
702.215	5.60774
705.59	2.3641
708.965	2.79877
712.339	1.54424
715.714	2.68066
719.089	2.14233
722.464	4.75977
725.839	0.02446
729.213	1.30142
732.588	4.33195
735.963	0.281601
739.338	1.30122
742.713	3.21147
746.087	3.01474
749.462	0.8703
752.837	5.9118
756.212	0.799759
759.587	2.77315
762.962	0.232559
766.336	-0.623876
769.711	2.21144
773.086	4.98701
776.461	-0.924262
779.836	1.03595
783.21	2.60741
786.585	0.938004
789.96	2.28867
793.335	0.791382
796.71	0.427261
800.085	2.98924
803.459	2.12056
806.834	3.30196
810.209	3.97391
813.584	9.23187
816.959	13.878
820.333	21.8431
823.708	37.3705
827.083	60.6154
830.458	109.152
833.833	187.164
837.208	282.409
840.582	388.049
843.957	487.322
847.332	489.301
850.707	338.8
854.082	189.298
857.457	97.0311
860.831	58.0901
864.206	36.4903
867.581	24.3016
870.956	19.7601
874.331	23.9214
877.705	28.846
881.08	30.8943
884.455	36.403
887.83	56.7235
891.205	78.8154
894.58	116.309
897.954	145.194
901.329	141.114
904.704	111.86
908.079	84.3195
911.454	60.982
914.828	46.8964
918.203	27.6823
921.578	16.9051
924.953	11.3659
928.328	17.2527
931.702	20.4936
935.077	14.8093
938.452	6.56276
941.827	3.57227
945.202	2.41815
948.577	3.79105
951.951	0.30484
955.326	3.08304
958.701	3.87828
962.076	5.32037
965.451	1.60561
968.826	1.86093
972.2	3.59813
975.575	1.57071
978.95	5.1281
982.325	2.68406
985.7	3.23917
989.074	0.124435
992.449	2.37506
995.824	1.75198
999.199	0.156418
1002.57	1.97871
1005.95	0.54068
1009.32	1.19977
1012.7	2.55994
1016.07	1.0228
1019.45	2.23828
1022.82	0.074585
1026.2	3.09724
1029.57	0.900528
1032.95	3.64018
1036.32	3.44694
1039.7	2.90001
1043.07	1.34816
1046.45	6.68416
1049.82	4.7428
1053.2	2.45883
1056.57	7.02348
1059.95	3.0529
1063.32	6.78677
1066.69	1.63242
1070.07	6.96867
1073.44	6.87778
1076.82	6.70943
1080.19	5.75171
1083.57	5.21956
1086.94	5.19
1090.32	7.39409
1093.69	5.49425
1097.07	8.86
1100.44	0.748474
1103.82	7.97537
1107.19	1.71439
1110.57	4.52446
1113.94	1.57246
1117.32	1.86484
1120.69	3.01401
1124.07	0.414856
1127.44	1.79562
1130.82	1.37181
1134.19	2.03021
1137.57	3.85185
1140.94	0.910019
1144.32	0.873505
1147.69	0.30011
1151.07	1.11169
1154.44	1.41789
1157.82	0.069031
1161.19	2.31845
1164.57	1.60495
1167.94	1.28267
1171.32	3.13304
1174.69	2.22169
1178.06	2.29146
1181.44	4.37447
1184.81	1.43541
1188.19	2.75047
1191.56	3.56676
1194.94	5.07268
1198.31	6.91362
1201.69	7.95101
1205.06	8.94113
1208.44	8.06521
1211.81	9.84056
1215.19	8.08408
1218.56	6.80612
1221.94	7.36339
1225.31	6.04575
1228.69	7.50156
1232.06	4.51511
1235.44	3.44064
1238.81	1.78604
1242.19	0.142944
1245.56	1.49538
1248.93	1.26816
1252.31	0.371017
1255.68	1.01453
1259.06	0.413422
1262.43	4.22431
1265.81	2.66713
1269.18	4.10889
1272.56	5.91436
1275.93	3.07303
1279.31	3.93521
1282.68	3.59924
1286.06	1.918
