Measurement: Raman, 785 nm, unoriented, Raman Data Processed
Mineral: Esperite
Rruff sample: R070512
Ideal chemistry: PbCa_2_(ZnSiO_4_)_3_
Locality: Parker Shaft, Franklin, Sussex County, New Jersey, USA
Source: Canadian Museum of Nature
Description: Greasy white massive, co-type specimen. Structure reported in Tait et al (2010) is from this sample.
Measured chemistry: pin #1: (Ca_1.86_Fe_0.07_Mn_0.04_Cr^3+^_0.02_[box]_0.01_)_Σ=2_Pb_1.00_Zn_3.00_((Si_1.00_O_4_)_3_ ; pin #2: (Ca_1.79_Fe_0.12_Cr^3+^_0.04_Mn_0.03_[box]_0.02_)_Σ=2_Pb_1.00_Zn_3.00_((Si_1.00_O_4_)_3_
Raman shift (cm-1)	intensity
147.434	0
150.327	123.92
153.22	145.939
156.112	120.881
159.005	333.679
161.898	261.515
164.791	128.817
167.683	570.242
170.576	1121.22
173.469	1986.14
176.361	3146.04
179.254	4109.76
182.147	4028.84
185.039	1626.18
187.932	570.083
190.825	255.114
193.718	84.6865
196.61	269.463
199.503	431.952
202.396	51.7727
205.288	116.018
208.181	58.818
211.074	282.376
213.966	562.916
216.859	425.712
219.752	463.629
222.644	695.633
225.537	537.682
228.43	320.486
231.322	314.484
234.215	435.821
237.108	589.084
240.001	686.39
242.893	892.357
245.786	1277.69
248.679	1654.87
251.571	1405.98
254.464	874.321
257.357	504.822
260.25	322.771
263.142	175.149
266.035	67.0458
268.928	74.8391
271.82	191.325
274.713	354.435
277.606	500.935
280.498	428.529
283.391	293.848
286.284	152.673
289.176	79.3541
292.069	122.343
294.962	268.326
297.855	266.514
300.747	82.6849
303.64	12.9935
306.533	16.5542
309.425	10.5238
312.318	16.4697
315.211	36.2985
318.103	2.02966
320.996	71.279
323.889	241.428
326.782	449.013
329.674	786.069
332.567	1242.76
335.46	1481.82
338.352	1303.1
341.245	908.073
344.138	576.727
347.031	400.047
349.923	344.999
352.816	390.323
355.709	562.42
358.601	770.992
361.494	963.831
364.387	1246.71
367.279	1523.72
370.172	1496.79
373.065	1011
375.957	426.187
378.85	160.602
381.743	25.9307
384.636	13.8777
387.528	0.912109
390.421	12.0754
393.314	80.8335
396.206	160.063
399.099	307.891
401.992	374.239
404.885	473.56
407.777	581.764
410.67	610.992
413.562	573.145
416.455	387.352
419.348	292.226
422.241	232.936
425.133	256.878
428.026	367.444
430.919	540.302
433.811	823.64
436.704	1244
439.597	1812.66
442.49	2602.5
445.382	3301.51
448.275	3321.7
451.168	2331.28
454.06	1261.63
456.953	570.214
459.846	254.099
462.738	58.4429
465.631	12.4653
468.524	45.8983
471.416	22.5518
474.309	43.7779
477.202	205.995
480.095	364.931
482.987	443.307
485.88	516.704
488.773	623.866
491.665	710.241
494.558	764.115
497.451	937.522
500.344	1290.32
503.236	1439.89
506.129	1349.65
509.022	1207.55
511.914	1029.93
514.807	849.991
517.7	544.493
520.592	222.359
523.485	96.7726
526.378	30.4043
529.27	9.80566
532.163	33.2755
535.056	91.711
537.948	93.7924
540.841	71.9663
543.734	64.8543
546.627	17.5225
549.519	8.71942
552.412	1.6488
555.305	2.15301
558.197	1.81042
561.09	27.1623
563.983	62.0592
566.875	88.7219
569.768	142.323
572.661	244.267
575.554	398.697
578.446	632.932
581.339	963.546
584.232	1314.65
587.125	1636.98
590.017	1699.15
592.91	1426
595.803	880.93
598.695	544.957
601.588	342.742
604.481	199.359
607.373	143.688
610.266	78.8825
613.159	50.9958
616.052	15.5843
618.944	14.1156
621.837	4.97827
624.73	2.71564
627.622	11.4345
630.515	11.4898
633.408	0.518951
636.3	15.7328
639.193	22.0828
642.086	23.1025
644.978	5.5145
647.871	10.4842
650.764	21.217
653.657	19.1618
656.549	1.22195
659.442	16.6501
662.335	3.56049
665.227	11.6638
668.12	10.113
671.013	0.684906
673.905	15.0391
676.798	32.6979
679.691	41.1335
682.583	43.7245
685.476	28.1868
688.369	35.1295
691.262	23.8908
694.154	43.6291
697.047	41.6018
699.94	0.135315
702.832	29.4184
705.725	27.5558
708.618	24.3551
711.51	23.711
714.403	23.4561
717.296	0.049957
720.189	7.14767
723.081	3.69061
725.974	15.5914
728.867	22.5253
731.759	24.6339
734.652	40.5665
737.545	58.8203
740.437	47.5253
743.33	35.479
746.223	32.332
749.115	45.1979
752.008	31.4946
754.901	40.0431
757.794	42.3053
760.686	24.4723
763.579	32.4857
766.472	25.9311
769.364	28.3422
772.257	27.346
775.15	23.6207
778.043	18.7609
780.935	8.35825
783.828	3.51028
786.721	4.16968
789.613	9.53598
792.506	7.2821
795.399	21.8106
798.291	11.3334
801.184	12.8651
804.077	4.60803
806.97	15.4714
809.862	31.7885
812.755	52.4731
815.648	79.5621
818.54	133.954
821.433	193.566
824.326	288.003
827.218	432.092
830.111	720.51
833.004	1139.31
835.896	1895.79
838.789	2971.4
841.682	4342.04
844.575	5615.34
847.467	5750.49
850.36	4376.66
853.253	2653.12
856.145	1478.3
859.038	874.761
861.931	517.122
864.823	280.665
867.716	156.081
870.609	148.242
873.502	169.407
876.394	208.672
879.287	263.696
882.18	274.893
885.072	329.605
887.965	452.685
890.858	711.604
893.75	1057.18
896.643	1452.46
899.536	1689.18
902.429	1630.34
905.321	1413.78
908.214	1037.79
911.107	720.67
913.999	588.16
916.892	465.153
919.785	312.074
922.678	229.929
925.57	276.327
928.463	348.841
931.356	374.771
934.248	281.469
937.141	148.437
940.034	54.3019
942.926	7.44656
945.819	36.8062
948.712	1.23038
951.604	8.40717
954.497	74.8999
957.39	88.8909
960.283	69.4929
963.175	41.9327
966.068	17.4146
968.961	6.16983
971.853	10.4513
974.746	6.21973
977.639	9.17447
980.531	22.0104
983.424	1.79489
986.317	9.01376
989.21	0.675568
992.102	10.2335
994.995	10.3201
997.888	12.0817
1000.78	10.934
1003.67	1.25897
1006.57	3.27536
1009.46	17.9542
1012.35	16.5962
1015.24	14.4407
1018.14	20.4559
1021.03	20.3047
1023.92	19.4623
1026.82	30.5316
1029.71	26.624
1032.6	29.7344
1035.49	26.3186
1038.38	34.1814
1041.28	41.2377
1044.17	40.0747
1047.06	15.8986
1049.96	17.0148
1052.85	18.3075
1055.74	12.9702
1058.63	3.06979
1061.53	0.877197
1064.42	26.5779
1067.31	9.11859
1070.2	21.1552
1073.1	8.01123
1075.99	18.4736
1078.88	10.7025
1081.78	5.36179
1084.67	9.42963
1087.56	1.21216
1090.45	0.411194
1093.35	2.17371
1096.24	22.5836
1099.13	3.3429
1102.03	23.9529
1104.92	12.9782
1107.81	18.2404
1110.7	7.05633
1113.6	36.3039
1116.49	43.3102
1119.38	26.8588
1122.27	36.2144
1125.17	53.8433
1128.06	46.7157
1130.95	63.3613
1133.84	55.8433
1136.74	68.9174
1139.63	74.6343
1142.52	71.4855
1145.41	64.2351
1148.31	34.4047
1151.2	15.1378
1154.09	6.19189
1156.99	1.70001
1159.88	6.02332
1162.77	19.9118
1165.66	9.46558
1168.56	25.521
1171.45	16.4625
1174.34	10.2506
1177.23	7.41687
1180.13	35.485
1183.02	28.5874
1185.91	68.0736
1188.81	91.5429
1191.7	108.899
1194.59	155.449
1197.48	170.272
1200.38	200.89
1203.27	261.04
1206.16	263.966
1209.06	333.317
1211.95	309.95
1214.84	340.526
1217.73	311.278
1220.62	255.893
1223.52	211.984
1226.41	127.288
1229.3	121.36
1232.2	42.7252
1235.09	37.4268
1237.98	64.3555
1240.87	18.4042
