Measurement: Raman, 785 nm, unoriented, Raman Data Processed
Mineral: Ettringite
Rruff sample: R070208
Ideal chemistry: Ca_6_Al_2_(S^6+^O_4_)_3_(OH)_12_26H_2_O
Locality: Hatrurim Formation, Negev Desert, West of Dead Sea, southern Israel
Source: Michael Scott
Description: Canary yellow to colorless prismatic and tabular hexagonal crystals associated with colorless afwillite, R070296.
Raman shift (cm-1)	intensity
191.408	0
194.301	23.0557
197.194	53.1687
200.087	53.0542
202.979	83.6064
205.872	80.2256
208.765	86.469
211.657	67.6404
214.55	76.415
217.443	80.2874
220.335	116.09
223.228	84.968
226.121	87.2681
229.013	61.0349
231.906	48.7063
234.799	40.3257
237.692	32.8718
240.584	8.12036
243.477	2.47998
246.37	6.8606
249.262	7.97363
252.155	13.5261
255.048	19.2632
257.941	21.1096
260.833	15.2782
263.726	13.3011
266.619	3.453
269.511	16.7469
272.404	11.913
275.297	0.831055
278.19	9.55957
281.082	2.44678
283.975	6.85877
286.868	15.541
289.76	36.7506
292.653	4.703
295.546	13.8774
298.438	10.9673
301.331	4.87939
304.224	20.5471
307.116	7.51196
310.009	14.0815
312.902	17.2781
315.795	1.57324
318.687	26.3074
321.58	29.1663
324.473	39.7476
327.365	54.9482
330.258	72.4548
333.151	82.4382
336.043	90.4895
338.936	154.939
341.829	225.842
344.721	248.752
347.614	347.528
350.507	430.547
353.4	484.25
356.292	551.281
359.185	561.212
362.078	545.076
364.97	464.438
367.863	406.522
370.756	381.696
373.649	355.176
376.541	341.817
379.434	334.346
382.327	301.724
385.219	281.558
388.112	210.606
391.005	154.3
393.897	133.954
396.79	73.9705
399.683	60.5254
402.575	62.4807
405.468	19.0627
408.361	28.6047
411.254	21.687
414.146	14.9006
417.039	28.8625
419.932	19.071
422.824	53.199
425.717	73.3452
428.61	56.9685
431.502	70.1643
434.395	86.4968
437.288	139.754
440.181	182.732
443.073	214.395
445.966	220.448
448.859	236.966
451.751	237.041
454.644	191.507
457.537	177.75
460.43	83.4634
463.322	99.895
466.215	42.9728
469.108	68.2843
472	7.48035
474.893	30.9125
477.786	8.20422
480.678	9.28638
483.571	3.38269
486.464	0.822632
489.356	10.8739
492.249	8.1167
495.142	41.3558
498.035	20.333
500.927	11.3879
503.82	7.49524
506.713	3.53015
509.605	29.342
512.498	6.4613
515.391	30.9041
518.284	39.6069
521.176	46.6593
524.069	25.0884
526.962	55.0673
529.854	69.9006
532.747	100.743
535.64	96.3624
538.533	135.624
541.425	181.172
544.318	207.175
547.211	195.544
550.103	180.546
552.996	188.44
555.889	142.663
558.781	91.6429
561.674	109.858
564.567	60.9249
567.459	53.7753
570.352	37.132
573.245	50.3994
576.138	20.7293
579.03	52.6372
581.923	68.8188
584.816	94.9858
587.708	64.2062
590.601	94.7662
593.494	112.974
596.386	87.6632
599.279	57.8033
602.172	105.259
605.064	91.6842
607.957	71.8634
610.85	99.802
613.743	40.4683
616.635	62.2731
619.528	47.0006
622.421	46.7389
625.313	37.0067
628.206	11.4452
631.099	39.453
633.991	15.5602
636.884	68.8936
639.777	78.3624
642.67	114.08
645.562	208.785
648.455	265.021
651.348	291.551
654.24	307.578
657.133	196.799
660.026	118.732
662.918	57.898
665.811	18.296
668.704	16.933
671.597	20.6931
674.489	22.1982
677.382	8.16162
680.275	19.745
683.167	2.0896
686.06	2.97217
688.953	8.98059
691.846	1.47424
694.738	1.0907
697.631	33.7206
700.524	14.6957
703.416	16.5918
706.309	14.938
709.202	16.4706
712.094	18.1743
714.987	37.6166
717.88	37.4629
720.773	29.2183
723.665	53.1208
726.558	24.7047
729.451	31.9126
732.343	27.3413
735.236	11.6408
738.129	35.1389
741.021	18.3865
743.914	40.4766
746.807	32.4786
749.699	26.3654
752.592	24.2318
755.485	46.2854
758.378	23.8884
761.27	53.6432
764.163	12.9523
767.056	9.49866
769.948	24.2801
772.841	6.97314
775.734	53.5012
778.626	2.89453
781.519	17.5762
784.412	7.42566
787.305	19.0516
790.197	37.5038
793.09	15.8565
795.983	29.5162
798.875	2.43359
801.768	16.4648
804.661	6.4126
807.553	35.3411
810.446	2.42798
813.339	26.8032
816.232	4.78394
819.124	30.0808
822.017	13.3261
824.91	33.2997
827.802	44.9492
830.695	48.036
833.588	77.5013
836.481	131.457
839.373	149.473
842.266	289.553
845.159	402.375
848.051	632.218
850.944	989.497
853.837	1537.02
856.729	1860.64
859.622	1409.99
862.515	781.392
865.408	454.845
868.3	370.87
871.193	292.738
874.086	297.795
876.978	326.722
879.871	366.697
882.764	415.029
885.656	412.159
888.549	424.744
891.442	440.505
894.335	430.443
897.227	416.476
900.12	405.412
903.013	360.389
905.905	317.646
908.798	283.867
911.691	191.297
914.583	159.679
917.476	121.203
920.369	93.5461
923.261	41.3832
926.154	24.0385
929.047	45.0249
931.94	8.49292
934.832	24.5546
937.725	1.27893
940.618	0.980591
943.51	22.5597
946.403	11.8622
949.296	8.39062
952.188	11.8789
955.081	5.84521
957.974	14.0211
960.867	36.5507
963.759	31.41
966.652	76.7061
969.545	92.8975
972.437	168.467
975.33	375.274
978.223	798.628
981.115	1556.11
984.008	2721.22
986.901	3018.14
989.794	2006.84
992.686	952.139
995.579	351.738
998.472	174.868
1001.36	63.7816
1004.26	64.0765
1007.15	33.1931
1010.04	20.4081
1012.93	0.172485
1015.83	6.92273
1018.72	7.29907
1021.61	20.4694
1024.51	7.07446
1027.4	2.3158
1030.29	4.30249
1033.18	4.90698
1036.08	0.009644
1038.97	17.4806
1041.86	5.8053
1044.76	6.79333
1047.65	34.1744
1050.54	30.4565
1053.43	119.363
1056.33	241.457
1059.22	469.193
1062.11	554.934
1065	326.685
1067.9	164.767
1070.79	83.57
1073.68	79.3152
1076.58	46.9054
1079.47	38.3297
1082.36	34.5525
1085.25	63.7424
1088.14	31.9669
1091.04	43.7953
1093.93	64.2158
1096.82	69.9574
1099.72	61.3018
1102.61	58.5867
1105.5	74.3762
1108.39	70.0196
1111.29	102.191
1114.18	95.786
1117.07	100.763
1119.96	88.5571
1122.86	111.982
1125.75	104.831
1128.64	78.4761
1131.54	87.8044
1134.43	74.2723
1137.32	61.2181
1140.21	74.1282
1143.11	46.0772
1146	55.5468
1148.89	39.8123
1151.79	5.2995
1154.68	5.05878
1157.57	16.9268
1160.46	20.2006
1163.36	9.90173
1166.25	27.5405
1169.14	10.8218
1172.03	3.17621
1174.93	0.047424
1177.82	16.1888
1180.71	16.4675
1183.6	1.72064
1186.5	7.67084
1189.39	16.4659
1192.28	33.0273
1195.17	24.6303
1198.07	26.4379
1200.96	22.2507
1203.85	12.747
1206.75	12.9586
1209.64	21.3301
1212.53	9.44318
1215.42	8.90924
1218.32	28.64
1221.21	15.1062
1224.1	21.2267
1226.99	8.50549
1229.89	5.31738
