Measurement: Raman, 532 nm, unoriented, Raman Data Processed
Mineral: Ettringite
Rruff sample: R070208
Ideal chemistry: Ca_6_Al_2_(S^6+^O_4_)_3_(OH)_12_26H_2_O
Locality: Hatrurim Formation, Negev Desert, West of Dead Sea, southern Israel
Source: Michael Scott
Description: Canary yellow to colorless prismatic and tabular hexagonal crystals associated with colorless afwillite, R070296.
Raman shift (cm-1)	intensity
170.393	0
173.286	41.3232
176.178	41.1143
179.071	189.85
181.964	244.217
184.856	382.075
187.749	552.828
190.642	694.975
193.535	815.902
196.427	987.649
199.32	1123.17
202.213	1153.94
205.105	1193.79
207.998	1139.5
210.891	1085.4
213.783	964.175
216.676	896.033
219.569	801.447
222.462	721.297
225.354	599.144
228.247	517.712
231.14	389.332
234.032	339.868
236.925	253.222
239.818	144.81
242.71	122.506
245.603	80.396
248.496	20.9819
251.388	27.6811
254.281	16.1977
257.174	58.7007
260.067	53.897
262.959	12.8989
265.852	16.1665
268.745	9.02881
271.637	25.5166
274.53	59.436
277.423	91.9273
280.315	94.0254
283.208	72.519
286.101	80.437
288.994	104.446
291.886	139.818
294.779	103.221
297.672	142.143
300.564	167.09
303.457	107.925
306.35	130.947
309.243	130.72
312.135	93.355
315.028	25.5996
317.921	100.885
320.813	85.1743
323.706	89.9189
326.599	155.638
329.491	249.692
332.384	302.147
335.277	443.08
338.17	696.284
341.062	945.875
343.955	1293.72
346.848	1666.99
349.74	2131.94
352.633	2494.56
355.526	2715.84
358.418	2845.55
361.311	2691.74
364.204	2420.16
367.097	2107.33
369.989	1840.25
372.882	1616.81
375.775	1404.69
378.667	1336.17
381.56	1136.24
384.453	936.062
387.346	717.555
390.238	489.842
393.131	297.757
396.024	194.577
398.916	124.864
401.809	25.1314
404.702	9.1626
407.594	16.3032
410.487	16.5693
413.38	6.15576
416.272	20.6909
419.165	91.5039
422.058	115.866
424.951	156.727
427.843	234.312
430.736	370.605
433.629	500.491
436.521	618.888
439.414	866.887
442.307	947.916
445.2	1139.83
448.092	1152.46
450.985	1064.91
453.878	981.873
456.77	764.15
459.663	644.018
462.556	416.008
465.448	283.974
468.341	189.624
471.234	159.712
474.127	109.074
477.019	13.2871
479.912	5.15381
482.805	3.95606
485.697	44.8145
488.59	24.5049
491.483	45.2515
494.375	23.2031
497.268	8.28565
500.161	3.12402
503.053	18.7544
505.946	15.2998
508.839	53.7046
511.732	84.8887
514.624	48.7998
517.517	151.486
520.41	91.061
523.302	117.676
526.195	226.106
529.088	213.432
531.981	306.022
534.873	485.592
537.766	563.728
540.659	609.386
543.551	685.876
546.444	723.836
549.337	714.202
552.229	608.629
555.122	409.255
558.015	314.996
560.908	279.217
563.8	155.429
566.693	194.873
569.586	82.2031
572.478	94.0659
575.371	85.7969
578.264	142.385
581.156	184.964
584.049	166.417
586.942	205.233
589.835	231.588
592.727	294.957
595.62	284.201
598.513	358.211
601.405	300.517
604.298	282.387
607.191	294.001
610.083	257.508
612.976	312.972
615.869	243.998
618.762	219.697
621.654	222.794
624.547	195.807
627.44	229.394
630.332	204.594
633.225	235.509
636.118	262.097
639.01	422.012
641.903	709.763
644.796	850.224
647.689	1062.96
650.581	1252.16
653.474	1173.32
656.367	828.968
659.259	482.077
662.152	225.052
665.045	133.831
667.938	1.25781
670.83	38.5273
673.723	1.73926
676.616	11.3433
679.508	28.7852
682.401	35.3852
685.294	5.48047
688.186	20.8242
691.079	37.5815
693.972	55.3096
696.865	24.273
699.757	27.4253
702.65	101.405
705.543	135.917
708.435	78.7607
711.328	232.967
714.221	293.824
717.113	311.533
720.006	343.055
722.899	347.386
725.792	332.841
728.684	275.903
731.577	176.796
734.47	283.363
737.362	165.401
740.255	165.224
743.148	146.026
746.04	100.308
748.933	132.415
751.826	186.201
754.719	151.538
757.611	73.166
760.504	174.633
763.397	43.29
766.289	80.7539
769.182	22.0303
772.075	38.3154
774.967	92.2402
777.86	50.1387
780.753	7.65625
783.646	3.42578
786.538	26.3945
789.431	28.5762
792.324	3.9209
795.216	25.9766
798.109	33.5195
801.002	24.0508
803.894	18.6514
806.787	43.8643
809.68	81.7051
812.573	126.017
815.465	172.78
818.358	99.6475
821.251	200.801
824.143	288.516
827.036	396.695
829.929	660.997
832.822	860.138
835.714	1342.94
838.607	2078.52
841.5	3448.7
844.392	5774.55
847.285	10240.5
850.178	16023.5
853.07	22433.1
855.963	25485.9
858.856	19220.2
861.749	10634.5
864.641	6365.76
867.534	4839.18
870.427	4378.3
873.319	4581.49
876.212	5050.84
879.105	5364.19
881.997	5824.63
884.89	6000.86
887.783	5967.46
890.676	5746.49
893.568	5491.68
896.461	4978.46
899.354	4565.6
902.246	3996.05
905.139	3328.78
908.032	2725.18
910.924	2133.43
913.817	1650.43
916.71	1168.05
919.602	851.73
922.495	607.856
925.388	350.666
928.281	274.542
931.173	119.756
934.066	32.5918
936.959	15.5771
939.851	2.24121
942.744	19.0957
945.637	12.8223
948.529	116.991
951.422	70.1465
954.315	25.9199
957.208	53.1426
960.1	95.2939
962.993	176.638
965.886	297.291
968.778	554.114
971.671	1046.07
974.564	2583.99
977.457	6221.71
980.349	11547.9
983.242	17805.3
986.135	19207.4
989.027	12507.4
991.92	5562.24
994.813	2147.68
997.705	1001.77
1000.6	498.664
1003.49	364.463
1006.38	192.764
1009.28	128.206
1012.17	62.8252
1015.06	62.0293
1017.95	56.4092
1020.85	43.8565
1023.74	18.6719
1026.63	61.1826
1029.53	11.416
1032.42	0.393555
1035.31	4.88672
1038.2	107.244
1041.1	109.822
1043.99	143.161
1046.88	301.887
1049.77	841.109
1052.67	2239.92
1055.56	4663.29
1058.45	7334.33
1061.35	8695.74
1064.24	4977.41
1067.13	2063.19
1070.02	1186.46
1072.92	794.438
1075.81	440.731
1078.7	411.512
1081.59	416.162
1084.49	416.232
1087.38	437.972
1090.27	403.113
1093.16	413.902
1096.06	400.501
1098.95	527.771
1101.84	510.658
1104.73	624.856
1107.63	599.764
1110.52	643.776
1113.41	673.438
1116.31	720.444
1119.2	699.011
1122.09	612.032
1124.98	595.37
1127.88	552.706
1130.77	461.502
1133.66	403.867
1136.56	363.761
1139.45	319.455
1142.34	404.671
1145.23	214.833
1148.13	144.594
1151.02	77.5342
1153.91	41.7773
1156.8	47.4824
1159.7	83.9404
1162.59	104.939
1165.48	9.1377
1168.38	2.88769
1171.27	19.4414
1174.16	12.1055
1177.05	14.0088
1179.95	16.4189
1182.84	18.4209
1185.73	0.49707
1188.62	14.834
1191.52	48.293
1194.41	3.62207
1197.3	68.5283
1200.19	46.3086
1203.09	56.8721
1205.98	50.4424
1208.87	120.121
1211.77	75.3398
1214.66	90.5029
1217.55	36.5957
1220.44	58.6191
1223.34	107.828
1226.23	77.6494
1229.12	67.5283
1232.01	121.973
1234.91	18.1035
1237.8	70.9756
1240.69	78.7031
1243.59	98.9033
1246.48	54.5547
1249.37	148.293
1252.26	113.655
1255.16	46.4815
1258.05	39.0107
1260.94	58.5459
1263.83	22.5332
1266.73	75.5654
1269.62	52.956
1272.51	49.6475
1275.4	13.4609
1278.3	110.201
1281.19	117.082
1284.08	131.276
1286.98	35.3838
1289.87	87.7617
1292.76	1.01367
