Measurement: Raman, 532 nm, unoriented, Raman Data Processed
Mineral: Euchroite
Rruff sample: R050579
Ideal chemistry: Cu^2+^_2_As^5+^O_4_(OH)3H_2_O
Locality: Lubietova, Banskobystricky, Slovakia
Source: University of Arizona Mineral Museum
Description: Green prismatic crystal
Measured chemistry: Cu_2.00_((As_0.99_P_0.01_)_Σ=1_O_4_)(OH)·3H_2_O; = gray phase. The dark phase: Cu_2.00_((As_0.96_P_0.04_)_Σ=1_O_4_)(OH)·3H_2_O; light phase: olivenite: Cu_2.00_((As_0.98_P_0.02_)_Σ=1_O_4_)(OH)
Raman shift (cm-1)	intensity
150.898	0
153.791	210.845
156.683	261.72
159.576	609.458
162.469	825.289
165.361	331.195
168.254	36.1765
171.147	18.5532
174.039	18.3912
176.932	3.23157
179.825	33.5511
182.718	103.4
185.61	239.624
188.503	347.323
191.396	243.132
194.288	138.226
197.181	104.49
200.074	110.131
202.966	167.224
205.859	277.719
208.752	437.271
211.645	569.212
214.537	443.518
217.43	226.582
220.323	120.501
223.215	101.379
226.108	125.079
229.001	155.014
231.893	185.68
234.786	209.424
237.679	218.82
240.572	286.597
243.464	398.689
246.357	466.144
249.25	382.783
252.142	253.46
255.035	199.684
257.928	218.794
260.82	288.721
263.713	334.91
266.606	368.575
269.499	387.449
272.391	416.212
275.284	463.423
278.177	529.802
281.07	590.206
283.962	581.929
286.855	513.138
289.748	403.066
292.64	288.567
295.533	217.403
298.426	150.917
301.318	94.4347
304.211	37.6039
307.104	1.40295
309.997	22.2523
312.889	32.1484
315.782	31.9512
318.675	26.566
321.567	10.6595
324.46	18.4947
327.353	57.8552
330.245	106.577
333.138	169.385
336.031	238.923
338.923	319.914
341.816	385.113
344.709	438.946
347.602	464.661
350.494	485.344
353.387	518.503
356.28	526.632
359.173	465.002
362.065	373.146
364.958	337.661
367.851	351.351
370.743	424.89
373.636	533.981
376.529	686.402
379.421	884.861
382.314	1058.92
385.207	1107.52
388.099	935.097
390.992	665.729
393.885	419.743
396.778	254.094
399.67	166.249
402.563	98.7366
405.456	68.0522
408.348	60.1298
411.241	55.5305
414.134	51.9333
417.026	54.2024
419.919	75.4163
422.812	108.876
425.705	154.645
428.597	228.736
431.49	309.586
434.383	385.395
437.276	455.799
440.168	493.602
443.061	532.067
445.954	524.572
448.846	481.314
451.739	412.603
454.632	377.975
457.524	370.526
460.417	386.38
463.31	417.434
466.202	465.329
469.095	507.668
471.988	536.689
474.881	524.676
477.773	463.119
480.666	359.078
483.559	253.487
486.451	162.838
489.344	95.2841
492.237	43.987
495.13	8.18634
498.022	10.0565
500.915	19.5847
503.808	23.1722
506.7	18.4521
509.593	9.2384
512.486	1.96179
515.379	8.18835
518.271	15.3444
521.164	14.8578
524.057	11.6659
526.949	13.2348
529.842	9.47623
532.735	6.46048
535.627	10.8537
538.52	11.126
541.413	17.227
544.306	18.1484
547.198	19.1938
550.091	25.5058
552.984	23.1074
555.876	26.4315
558.769	22.033
561.662	28.2444
564.554	29.0911
567.447	17.541
570.34	16.4185
573.232	15.9599
576.125	18.8402
579.018	17.5342
581.911	20.1102
584.803	25.4651
587.696	30.1115
590.589	26.1955
593.481	27.8831
596.374	27.1898
599.267	27.6498
602.159	22.3986
605.052	21.7648
607.945	21.0001
610.838	20.9503
613.73	23.5987
616.623	18.8806
619.516	19.1307
622.409	17.5948
625.301	16.122
628.194	16.6353
631.087	12.9305
633.979	15.1702
636.872	18.7759
639.765	15.3365
642.657	14.2246
645.55	15.9153
648.443	17.699
651.336	19.0416
654.228	21.2481
657.121	22.334
660.014	28.9001
662.906	34.7786
665.799	39.9569
668.692	41.2421
671.585	38.2598
674.477	40.721
677.37	35.772
680.263	36.3145
683.155	32.5407
686.048	29.3955
688.941	24.8809
691.833	20.5383
694.726	15.1053
697.619	13.1178
700.511	8.89752
703.404	3.90073
706.297	3.71799
709.19	6.51715
712.082	9.36942
714.975	12.4655
717.868	9.9202
720.76	9.00006
723.653	11.8056
726.546	4.49976
729.438	3.76733
732.331	15.15
735.224	33.1934
738.117	58.0701
741.009	94.4909
743.902	141.742
746.795	194.59
749.687	248.166
752.58	306.177
755.473	331.995
758.366	317.654
761.258	283.404
764.151	241.848
767.044	212.759
769.936	174.375
772.829	135.885
775.722	109.198
778.615	75.582
781.507	56.8743
784.4	49.6323
787.293	51.0885
790.185	69.2294
793.078	92.571
795.971	131.864
798.863	187.929
801.756	278.505
804.649	412.936
807.542	605.416
810.434	863.686
813.327	1202.27
816.22	1630.7
819.112	2112.6
822.005	2661.2
824.898	3374.25
827.79	4456.12
830.683	5944.29
833.576	7318.52
836.469	7433.94
839.361	5740.53
842.254	3653.43
845.147	2227.69
848.039	1403.21
850.932	929.384
853.825	639.067
856.717	457.054
859.61	336.123
862.503	250.787
865.396	184.839
868.288	132.605
871.181	93.7296
874.074	56.4421
876.966	32.928
879.859	14.7896
882.752	7.76019
885.644	0.084045
888.537	6.50378
891.43	8.46497
894.323	8.73126
897.215	9.16522
900.108	4.71054
903.001	7.49167
905.894	5.85962
908.786	0.07489
911.679	1.03549
914.572	1.68286
917.464	8.52701
920.357	11.541
923.25	13.4672
926.142	25.117
929.035	39.0286
931.928	38.3918
934.821	41.5149
937.713	49.7579
940.606	55.6326
943.499	71.2095
946.391	67.0319
949.284	70.8556
952.177	70.7914
955.069	72.625
957.962	70.0628
960.855	78.8599
963.748	70.3575
966.64	71.1407
969.533	76.1691
972.426	76.7917
975.318	77.4121
978.211	75.3146
981.104	61.5476
983.996	53.8768
986.889	49.2993
989.782	39.3621
992.675	26.759
995.567	19.3885
998.46	16.3617
1001.35	10.3618
1004.25	5.90381
1007.14	4.12601
1010.03	0.245056
1012.92	3.16525
1015.82	4.95633
1018.71	8.44055
1021.6	21.7559
1024.49	17.3111
1027.39	21.1224
1030.28	21.6304
1033.17	19.2882
1036.07	18.7909
1038.96	11.2493
1041.85	7.32461
1044.74	3.6951
1047.64	6.393
1050.53	4.24164
1053.42	5.17383
1056.31	7.17596
1059.21	7.01294
1062.1	11.6951
1064.99	15.5909
1067.88	22.7553
1070.78	20.7345
1073.67	20.5183
1076.56	17.943
1079.46	13.7343
1082.35	10.251
1085.24	3.95834
1088.13	6.61468
1091.03	0.000153
1093.92	3.69336
1096.81	10.1126
1099.7	0.64444
1102.6	0.249695
1105.49	3.01483
1108.38	1.24023
1111.28	4.72726
1114.17	4.84064
1117.06	11.1136
1119.95	3.77335
1122.85	3.80649
1125.74	1.49561
1128.63	3.78079
1131.52	1.19717
1134.42	1.3739
1137.31	10.6984
1140.2	6.43103
1143.1	13.6335
1145.99	2.17337
1148.88	0.065552
1151.77	0.61499
1154.67	1.21719
1157.56	0.612671
1160.45	2.91974
1163.34	1.70432
1166.24	1.1311
1169.13	3.33084
1172.02	3.90225
1174.91	5.53555
1177.81	4.66238
1180.7	8.48679
1183.59	4.67456
1186.49	5.13358
1189.38	4.099
1192.27	4.366
1195.16	3.15179
1198.06	3.68146
1200.95	1.89081
1203.84	3.09213
1206.73	3.6167
1209.63	2.36224
1212.52	3.66669
1215.41	5.33804
1218.31	14.7787
1221.2	3.21011
1224.09	4.99051
1226.98	6.07916
1229.88	4.57642
1232.77	5.61392
1235.66	2.5712
1238.55	4.08084
1241.45	3.08893
1244.34	4.34158
1247.23	4.49683
1250.12	1.8793
1253.02	0.786346
1255.91	4.04913
1258.8	1.76428
1261.7	1.01083
1264.59	0.566589
1267.48	2.24487
1270.37	2.56
1273.27	0.005859
1276.16	3.48297
1279.05	3.83136
1281.94	0.650177
1284.84	0.650085
1287.73	1.2858
1290.62	3.60117
1293.52	0.380432
1296.41	0.69693
1299.3	3.31766
1302.19	0.392639
