Measurement: Raman, 532 nm, unoriented, Raman Data Processed
Mineral: Euchlorine
Rruff sample: R070460
Ideal chemistry: KNaCu_3_O(SO_4_)_3_
Locality: Northern Breakthrough (North Breach), Great Fissure (Main Fracture) eruption, Tolbachik volcano, Kamchatka Oblast', Far-Eastern Region, Russia
Source: Michael Scott
Description: Bright green massive crystalline coating
Measured chemistry: K_1.00_(Na_0.80_K_0.20_)_Î£=1_Cu_3.00_O(S_1.00_O_4_)_3_
Raman shift (cm-1)	intensity
104.354	0
107.729	78.4573
111.104	111.747
114.479	19.5758
117.853	11.3963
121.228	5.16934
124.603	59.6476
127.978	291.693
131.353	677.433
134.728	1226.09
138.102	1879.83
141.477	2326.68
144.852	2569
148.227	2833.99
151.602	2961.71
154.976	3403.7
158.351	3396.09
161.726	2966.77
165.101	2641.21
168.476	2224.96
171.851	1871.14
175.225	1546.83
178.6	1447.26
181.975	1271.04
185.35	888.14
188.725	638.347
192.1	586.791
195.474	614.692
198.849	730.169
202.224	976.445
205.599	1421.38
208.974	1984.56
212.348	2729.31
215.723	3675.74
219.098	4704.7
222.473	5657.19
225.848	6139.49
229.222	5770.89
232.597	4403.77
235.972	2750.89
239.347	1652.81
242.722	1024.9
246.097	733.769
249.471	572.005
252.846	440.926
256.221	278.252
259.596	183.93
262.971	88.4636
266.346	40.8708
269.72	2.99963
273.095	56.558
276.47	50.1067
279.845	47.2388
283.22	41.2881
286.594	73.3108
289.969	146.097
293.344	291.605
296.719	388.464
300.094	425.137
303.469	517.922
306.843	510.724
310.218	571.512
313.593	547.704
316.968	533.091
320.343	478.718
323.717	430.407
327.092	359.292
330.467	272.881
333.842	165.869
337.217	80.3405
340.591	21.3132
343.966	32.4451
347.341	34.9021
350.716	10.5367
354.091	1.74048
357.466	46.0726
360.84	47.0241
364.215	84.8181
367.59	125.547
370.965	169.888
374.34	207.277
377.714	184.493
381.089	191.089
384.464	157.441
387.839	133.3
391.214	109.065
394.589	73.2024
397.963	21.526
401.338	105.477
404.713	263.06
408.088	492.087
411.463	772.795
414.837	1339.41
418.212	920.482
421.587	3.6759
424.962	6.52551
428.337	149.84
431.712	461.489
435.086	882.536
438.461	1321.15
441.836	1349.08
445.211	1041.1
448.586	696.312
451.961	544.67
455.335	420.128
458.71	451.359
462.085	515.564
465.46	529.881
468.835	421.235
472.209	333.67
475.584	380.362
478.959	503.871
482.334	825.993
485.709	1342.94
489.084	2125.27
492.458	3192.23
495.833	4413.59
499.208	4783.17
502.583	2778.05
505.958	1526.74
509.332	1097.9
512.707	855.093
516.082	808.2
519.457	1022.15
522.832	1304.3
526.207	1552.27
529.581	1107.12
532.956	438.841
536.331	76.073
539.706	55.9099
543.081	81.5723
546.455	44.2528
549.83	29.9821
553.205	21.1281
556.58	48.3013
559.955	70.3571
563.33	82.4797
566.704	92.208
570.079	81.2659
573.454	56.8915
576.829	76.885
580.204	56.973
583.578	132.962
586.953	174.823
590.328	294.083
593.703	579.442
597.078	1133.6
600.452	1808.49
603.827	2662.09
607.202	3411.89
610.577	3034.53
613.952	2347.41
617.327	2900.98
620.701	3239.3
624.076	3521.82
627.451	4504.96
630.826	2684.82
634.201	1913.33
637.576	1240
640.95	798.59
644.325	598.498
647.7	361.611
651.075	407.585
654.45	470.421
657.824	497.848
661.199	755.644
664.574	1239.67
667.949	1730.52
671.324	1988.98
674.698	1522.05
678.073	602.419
681.448	189.521
684.823	47.6339
688.198	22.0399
691.573	6.02423
694.947	23.1277
698.322	1.11566
701.697	9.25226
705.072	4.52911
708.447	0.473572
711.822	10.9858
715.196	5.20044
718.571	11.516
721.946	10.7922
725.321	25.3654
728.696	35.7356
732.07	45.2277
735.445	12.9811
738.82	38.3287
742.195	14.3265
745.57	25.9491
748.944	37.3599
752.319	42.3795
755.694	37.8009
759.069	31.3276
762.444	14.3516
765.819	36.9068
769.193	9.07324
772.568	8.09344
775.943	4.36694
779.318	0.22406
782.693	5.22528
786.067	17.6559
789.442	22.9316
792.817	8.73102
796.192	0.904846
799.567	9.42175
802.942	17.3666
806.316	36.6484
809.691	37.2418
813.066	39.7354
816.441	56.1119
819.816	50.4492
823.191	72.2963
826.565	41.0936
829.94	47.2755
833.315	51.1073
836.69	53.7296
840.065	67.0511
843.439	36.3704
846.814	51.6756
850.189	36.8272
853.564	25.5357
856.939	53.2139
860.313	73.5139
863.688	52.468
867.063	7.26923
870.438	13.1112
873.813	35.4688
877.188	25.4749
880.562	21.3983
883.937	39.2973
887.312	60.7734
890.687	82.7247
894.062	66.4368
897.437	114.567
900.811	119.951
904.186	173.143
907.561	170.189
910.936	141.932
914.311	129.384
917.685	82.1945
921.06	75.6209
924.435	66.7498
927.81	31.7363
931.185	38.506
934.559	16.1712
937.934	14.1893
941.309	22.7041
944.684	8.76428
948.059	24.5873
951.434	39.9457
954.808	35.2898
958.183	46.3086
961.558	8.63049
964.933	29.593
968.308	111.16
971.683	225.147
975.057	441.61
978.432	702.019
981.807	1239.99
985.182	2345.99
988.557	4093.28
991.931	6351.31
995.306	8019.42
998.681	9445.31
1002.06	10715.9
1005.43	11105.2
1008.81	13322.4
1012.18	15963.7
1015.55	19382.3
1018.93	12759.5
1022.3	3962.45
1025.68	1757.01
1029.05	1460.74
1032.43	1479.96
1035.8	1803.21
1039.18	2492.6
1042.55	3507.22
1045.93	4428.31
1049.3	4904.15
1052.68	4563.67
1056.05	3801.39
1059.43	2981.49
1062.8	2375.85
1066.18	1583.12
1069.55	1192.69
1072.93	1089.62
1076.3	1027.89
1079.68	823.523
1083.05	451.876
1086.43	160.16
1089.8	57.4487
1093.18	40.8143
1096.55	105.571
1099.93	118.712
1103.3	15.4655
1106.67	221.073
1110.05	469.213
1113.42	610.553
1116.8	738.189
1120.17	1173.79
1123.55	1788.22
1126.92	2375.6
1130.3	2043.28
1133.67	758.637
1137.05	285.247
1140.42	199.575
1143.8	214.208
1147.17	427.343
1150.55	810.819
1153.92	1570.1
1157.3	2385.99
1160.67	2537.09
1164.05	1148.8
1167.42	353.203
1170.8	97.171
1174.17	3.32074
1177.55	33.4686
1180.92	21.1587
1184.3	13.6973
1187.67	70.2341
1191.05	90.7413
1194.42	239.922
1197.8	459.816
1201.17	823.627
1204.55	1332.41
1207.92	1978.47
1211.3	2480.6
1214.67	2371.02
1218.04	1665.85
1221.42	1102.42
1224.79	661.695
1228.17	361.051
1231.54	200.677
1234.92	156.11
1238.29	201.941
1241.67	335.716
1245.04	720.393
1248.42	1464.38
1251.79	2130.48
1255.17	1767.39
1258.54	767.227
1261.92	277.125
1265.29	131.106
1268.67	49.7339
1272.04	6.86078
1275.42	9.24158
1278.79	17.7891
1282.17	41.3004
1285.54	17.2625
1288.91	21.5969
1292.29	3.31818
