Measurement: Raman, 785 nm, unoriented, Raman Data Processed
Mineral: Euchlorine
Rruff sample: R070460
Ideal chemistry: KNaCu_3_O(SO_4_)_3_
Locality: Northern Breakthrough (North Breach), Great Fissure (Main Fracture) eruption, Tolbachik volcano, Kamchatka Oblast', Far-Eastern Region, Russia
Source: Michael Scott
Description: Bright green massive crystalline coating
Measured chemistry: K_1.00_(Na_0.80_K_0.20_)_Î£=1_Cu_3.00_O(S_1.00_O_4_)_3_
Raman shift (cm-1)	intensity
102.597	0
105.49	116.702
108.382	69.0051
111.275	121.971
114.168	95.8541
117.061	113.293
119.953	11.2091
122.846	4.51062
125.739	89.5057
128.631	131.852
131.524	224.46
134.417	296.21
137.31	269.176
140.202	337.653
143.095	409.037
145.988	637.821
148.88	808.118
151.773	922.328
154.666	916.891
157.558	919.044
160.451	876.615
163.344	852.544
166.237	813.456
169.129	754.876
172.022	677.109
174.915	565.554
177.807	418.462
180.7	350.938
183.593	290.857
186.485	237.354
189.378	188.742
192.271	259.595
195.163	291.018
198.056	372.112
200.949	467.725
203.842	628.822
206.734	840.881
209.627	949.07
212.52	1091.15
215.412	1109.29
218.305	1106.18
221.198	993.141
224.09	817.11
226.983	618.729
229.876	424.118
232.769	294.53
235.661	189.477
238.554	141.893
241.447	52.5228
244.339	2.64893
247.232	40.671
250.125	36.6013
253.018	9.27429
255.91	28.9305
258.803	12.4833
261.696	42.621
264.588	10.9037
267.481	38.3971
270.374	15.61
273.266	18.2295
276.159	47.3783
279.052	27.5835
281.945	82.0868
284.837	56.7797
287.73	90.4144
290.623	91.2324
293.515	59.1456
296.408	69.7999
299.301	35.9401
302.193	33.4315
305.086	28.7561
307.979	17.6486
310.872	0.127075
313.764	23.0225
316.657	0.123291
319.55	9.2616
322.442	39.0516
325.335	18.2707
328.228	49.3279
331.12	40.78
334.013	38.1373
336.906	72.3541
339.798	61.8171
342.691	109.272
345.584	154.609
348.476	182.899
351.369	217.856
354.262	209.782
357.155	243.678
360.047	275.21
362.94	308.662
365.833	303.547
368.725	314.794
371.618	310.53
374.511	273.416
377.404	240.998
380.296	238.812
383.189	202.19
386.082	169.38
388.974	167.047
391.867	102.362
394.76	114.967
397.652	69.7444
400.545	72.6752
403.438	32.6753
406.33	3.73657
409.223	5.84326
412.116	34.0564
415.009	22.4582
417.901	29.355
420.794	39.65
423.687	59.2782
426.579	137.847
429.472	249.406
432.365	341.961
435.257	533.965
438.15	777.76
441.043	957.984
443.936	889.389
446.828	743.524
449.721	617.918
452.614	576.782
455.506	433.439
458.399	412.294
461.292	351.349
464.185	323.31
467.077	295.013
469.97	253.199
472.863	209.815
475.755	149.8
478.648	140.853
481.541	147.417
484.433	82.5005
487.326	118.753
490.219	104.453
493.111	136.987
496.004	179.444
498.897	127.901
501.79	145.339
504.682	111.182
507.575	124.362
510.468	80.6044
513.36	117.347
516.253	56.9337
519.146	102.357
522.038	102.477
524.931	91.753
527.824	57.1507
530.717	56.4665
533.609	22.9088
536.502	51.8789
539.395	1.15637
542.287	19.3793
545.18	24.9016
548.073	12.138
550.966	3.0155
553.858	15.6081
556.751	19.5919
559.644	8.07196
562.536	49.2692
565.429	75.4849
568.322	41.3699
571.214	13.8452
574.107	34.9158
577	20.26
579.893	60.3685
582.785	111.541
585.678	134.844
588.571	158.292
591.463	244.733
594.356	349.582
597.249	482.478
600.141	675.876
603.034	893.576
605.927	888.713
608.819	614.041
611.712	486.183
614.605	434.795
617.498	553.925
620.39	648.234
623.283	778.504
626.176	903.674
629.068	1099.62
631.961	1144.72
634.854	962.153
637.746	701.014
640.639	445.932
643.532	287.15
646.425	197.845
649.317	148.501
652.21	92.5495
655.103	83.3344
657.995	54.6281
660.888	70.4945
663.781	96.7388
666.673	98.0753
669.566	133.295
672.459	72.967
675.352	61.3302
678.244	40.6941
681.137	26.8038
684.03	10.7963
686.922	3.40332
689.815	19.6643
692.708	9.88635
695.601	10.6877
698.493	6.01184
701.386	12.2277
704.279	0.903137
707.171	34.5224
710.064	15.8067
712.957	13.4225
715.849	24.7052
718.742	48.9863
721.635	0.346069
724.528	54.4905
727.42	33.1158
730.313	34.0347
733.206	12.421
736.098	28.3462
738.991	6.9635
741.884	35.1327
744.776	24.4545
747.669	45.6851
750.562	20.4074
753.455	18.1384
756.347	49.6558
759.24	17.3604
762.133	54.097
765.025	48.2506
767.918	8.82245
770.811	34.6135
773.703	38.824
776.596	34.835
779.489	0.710449
782.381	33.1987
785.274	25.3011
788.167	15.695
791.059	26.8198
793.952	11.5677
796.845	18.1276
799.738	10.6448
802.63	47.4786
805.523	32.2877
808.416	8.63568
811.308	26.9791
814.201	49.2521
817.094	9.31055
819.986	27.4802
822.879	43.8782
825.772	26.1651
828.665	36.4224
831.557	0.778809
834.45	25.0048
837.343	1.70654
840.235	43.5684
843.128	23.4321
846.021	21.6874
848.913	33.113
851.806	27.8655
854.699	25.0225
857.592	4.20325
860.484	28.5214
863.377	21.0651
866.27	13.2632
869.162	4.26154
872.055	16.5903
874.948	29.3141
877.841	34.3331
880.733	12.7284
883.626	14.733
886.519	31.7575
889.411	29.4279
892.304	21.5252
895.197	17.7394
898.089	70.9642
900.982	50.7786
903.875	16.8854
906.768	61.9255
909.66	70.7635
912.553	2.26025
915.446	32.3935
918.338	3.01489
921.231	4.29114
924.124	25.2891
927.016	36.5607
929.909	52.9295
932.802	8.8783
935.694	17.6852
938.587	10.2201
941.48	5.828
944.373	2.2821
947.265	15.634
950.158	4.99182
953.051	3.28149
955.943	27.8908
958.836	26.2977
961.729	61.3105
964.621	45.2581
967.514	47.6977
970.407	126.288
973.3	215.328
976.192	293.906
979.085	474.69
981.978	825.088
984.87	1342.32
987.763	2118.24
990.656	3033
993.548	4036.25
996.441	4831.78
999.334	5064.48
1002.23	4510.67
1005.12	3000.05
1008.01	1672.12
1010.9	930.638
1013.8	520.938
1016.69	324.121
1019.58	214.642
1022.48	239.65
1025.37	256.067
1028.26	392.246
1031.15	540.029
1034.05	665.798
1036.94	937.033
1039.83	1098.45
1042.72	1275.27
1045.62	1339.35
1048.51	1287.86
1051.4	1189.17
1054.3	930.115
1057.19	604.85
1060.08	371.205
1062.97	190.839
1065.87	128.745
1068.76	55.3733
1071.65	9.77887
1074.54	21.5526
1077.44	13.3603
1080.33	1.39905
1083.22	15.2855
1086.12	3.04736
1089.01	22.0713
1091.9	2.08417
1094.79	2.90277
1097.69	11.9844
1100.58	9.08868
1103.47	4.13507
1106.36	22.4793
1109.26	63.6475
1112.15	66.4249
1115.04	49.4573
1117.93	50.5805
1120.83	61.0326
1123.72	75.9593
1126.61	74.1226
1129.51	59.7772
1132.4	52.6489
1135.29	40.9174
1138.18	10.1357
1141.08	20.1065
1143.97	0.283813
1146.86	7.84558
1149.75	20.7703
1152.65	9.98267
1155.54	39.3859
1158.43	45.5015
1161.33	39.6183
1164.22	76.7129
1167.11	52.7107
1170	62.9219
1172.9	59.3375
1175.79	25.4845
1178.68	35.114
1181.57	48.1029
1184.47	7.57873
1187.36	45.4969
1190.25	45.8969
1193.14	29.1411
1196.04	7.75757
