Measurement: Raman, 780 nm, unoriented, Raman Data Processed
Mineral: Euclase
Rruff sample: R050623
Ideal chemistry: BeAlSiO_4_(OH)
Locality: Minas Gerais, Brazil
Source: Gemmological Center
Description: Colorless flattened prismatic crystal
Measured chemistry: Be_1.00_Al_1.00_Si_1.00_O_4_(OH) ; Be not measured but estimated by stoichiometry
Raman shift (cm-1)	intensity
149.919	0
152.812	0.112877
155.705	1.54082
158.597	0.396385
161.49	0.455338
164.383	2.51347
167.276	2.86205
170.168	6.54576
173.061	6.83194
175.954	19.3841
178.846	90.2431
181.739	24.0477
184.632	3.98741
187.524	1.73395
190.417	1.48368
193.31	0.438412
196.203	0.931107
199.095	1.39571
201.988	1.06522
204.881	1.19933
207.773	0.802834
210.666	1.02499
213.559	2.84986
216.451	7.00831
219.344	6.89853
222.237	9.60609
225.13	13.9582
228.022	20.9158
230.915	39.1774
233.808	138.097
236.7	127.039
239.593	33.2928
242.486	30.4151
245.378	34.4972
248.271	51.3996
251.164	76.7305
254.056	168.866
256.949	454.977
259.842	226.552
262.735	39.4199
265.627	15.0977
268.52	9.72825
271.413	8.51419
274.305	10.4342
277.198	13.0633
280.091	19.4077
282.983	40.0851
285.876	105.603
288.769	44.7792
291.662	10.2462
294.554	4.54428
297.447	3.36704
300.34	2.71407
303.232	0.717216
306.125	0.728394
309.018	0.092243
311.911	1.24363
314.803	1.22309
317.696	0.058342
320.589	0.569511
323.481	0.818928
326.374	1.70499
329.267	1.50965
332.159	1.11135
335.052	0.383633
337.945	2.10212
340.837	1.18312
343.73	3.25216
346.623	5.76394
349.516	13.9859
352.408	28.6739
355.301	11.6687
358.194	4.71368
361.086	4.70833
363.979	7.51362
366.872	6.2219
369.764	13.0087
372.657	18.5348
375.55	34.8032
378.442	70.4154
381.335	87.0324
384.228	37.4501
387.121	21.4123
390.013	32.2696
392.906	84.5523
395.799	102.067
398.691	19.8605
401.584	4.54417
404.477	2.13803
407.37	1.13909
410.262	0.140205
413.155	0.741344
416.048	1.69776
418.94	2.36055
421.833	8.12968
424.726	3.75816
427.618	2.92983
430.511	5.22843
433.404	9.50921
436.296	16.9022
439.189	40.0306
442.082	93.0491
444.975	44.0515
447.867	47.689
450.76	60.851
453.653	53.0215
456.545	28.2923
459.438	13.4709
462.331	6.99402
465.224	3.10685
468.116	3.33836
471.009	1.80557
473.902	0.532288
476.794	0.381611
479.687	0.838043
482.58	0.88028
485.472	0.032677
488.365	0.758156
491.258	0.521709
494.151	1.13311
497.043	1.88857
499.936	6.12477
502.829	7.22932
505.721	11.7869
508.614	17.5431
511.507	14.6212
514.399	7.10029
517.292	1.13275
520.185	0.369473
523.077	0.200344
525.97	0.574341
528.863	0.188961
531.756	0.402225
534.648	0.654095
537.541	2.21738
540.434	5.91587
543.326	7.4513
546.219	5.21999
549.112	2.01476
552.004	3.79649
554.897	3.62538
557.79	6.1881
560.683	10.829
563.575	11.3544
566.468	21.4773
569.361	45.0549
572.253	83.6143
575.146	62.7495
578.039	38.688
580.931	45.6781
583.824	45.1873
586.717	19.8714
589.61	8.30222
592.502	5.66621
595.395	6.0887
598.288	9.29273
601.18	12.9265
604.073	11.1176
606.966	3.53502
609.858	1.38043
612.751	0.341122
615.644	0.571789
618.537	0.022621
621.429	0.333073
624.322	1.24252
627.215	0.07719
630.107	1.99051
633	2.50496
635.893	2.49135
638.785	5.57615
641.678	6.69989
644.571	11.9007
647.463	10.6282
650.356	5.74772
653.249	4.20416
656.141	3.97794
659.034	1.00875
661.927	1.17979
664.82	0.620956
667.712	1.35342
670.605	0.177971
673.498	1.20603
676.39	0.532898
679.283	1.65814
682.176	0.831371
685.068	1.6873
687.961	0.567333
690.854	0.296383
693.747	0.614037
696.639	0.225349
699.532	0.519363
702.425	0.996651
705.317	1.09369
708.21	0.973515
711.103	0.194801
713.995	1.61065
716.888	1.43547
719.781	2.16704
722.674	0.205349
725.566	0.213303
728.459	0.885574
731.352	0.087299
734.244	1.4032
737.137	0.238125
740.03	1.478
742.923	2.79386
745.815	6.0616
748.708	7.59439
751.601	12.0779
754.493	17.4312
757.386	21.5972
760.279	12.4124
763.171	5.59176
766.064	3.24386
768.957	1.97148
771.85	1.35292
774.742	3.68101
777.635	2.2262
780.528	4.5033
783.42	7.75767
786.313	9.94568
789.206	13.9579
792.098	14.3167
794.991	8.16206
797.884	4.71101
800.776	1.88201
803.669	0.988754
806.562	1.0179
809.455	1.12881
812.347	0.283081
815.24	0.598396
818.133	0.697319
821.025	0.313778
823.918	1.27084
826.811	0.266327
829.703	0.533199
832.596	1.30429
835.489	2.2474
838.381	2.09739
841.274	0.24247
844.167	0.945034
847.06	2.03438
849.952	2.31651
852.845	4.78023
855.738	4.24589
858.63	6.1784
861.523	10.4073
864.416	15.1615
867.308	22.3353
870.201	34.6486
873.094	55.007
875.987	94.59
878.879	178.193
881.772	214.534
884.665	104.784
887.557	44.6925
890.45	26.052
893.343	24.455
896.236	26.2996
899.128	36.0999
902.021	55.5873
904.914	90.2928
907.806	120.364
910.699	93.5905
913.592	48.9361
916.484	27.9906
919.377	16.4083
922.27	11.0117
925.163	5.66796
928.055	3.869
930.948	2.84689
933.841	2.43672
936.733	2.16581
939.626	0.757565
942.519	0.378811
945.411	0.393955
948.304	0.588623
951.197	0.709988
954.09	1.17185
956.982	3.02266
959.875	0.082844
962.768	1.18225
965.66	2.18974
968.553	5.39218
971.446	8.65832
974.338	11.0107
977.231	3.60796
980.124	3.02502
983.016	1.02485
985.909	0.351093
988.802	0.811745
991.694	0.695992
994.587	0.965893
997.48	2.16761
1000.37	2.60718
1003.26	2.76419
1006.16	6.82279
1009.05	8.63703
1011.94	14.522
1014.84	23.0715
1017.73	38.7496
1020.62	61.7949
1023.51	61.5018
1026.41	40.0009
1029.3	25.8058
1032.19	19.1675
1035.09	16.0169
1037.98	15.8996
1040.87	20.0692
1043.76	25.6369
1046.66	36.0457
1049.55	54.0627
1052.44	80.7484
1055.33	123.628
1058.23	163.246
1061.12	137.153
1064.01	77.8284
1066.9	41.2572
1069.8	24.4062
1072.69	13.8578
1075.58	10.139
1078.47	6.65565
1081.37	5.04383
1084.26	3.65445
1087.15	3.88029
1090.05	2.92992
1092.94	1.38836
1095.83	0.241909
1098.72	2.1939
1101.62	1.22184
1104.51	0.483685
1107.4	0.028141
1110.3	0.147312
1113.19	1.50058
1116.08	0.700527
1118.97	1.06361
1121.87	1.00318
1124.76	0.887829
1127.65	2.64316
1130.54	0.409451
1133.44	2.1962
1136.33	0.007767
1139.22	0.722019
1142.12	1.98909
1145.01	0.860706
1147.9	1.66087
1150.79	1.16079
1153.69	1.11832
1156.58	2.28591
1159.47	2.48142
1162.36	1.76967
1165.26	0.527832
1168.15	0.871212
1171.04	2.53276
1173.93	0.339512
1176.83	1.4846
1179.72	2.04591
1182.61	1.5821
1185.51	1.17415
1188.4	1.39703
1191.29	1.56082
1194.18	3.42578
1197.08	1.94986
1199.97	1.39744
1202.86	0.21611
1205.75	0.72987
1208.65	1.08643
1211.54	2.16628
1214.43	1.57411
1217.33	1.57598
1220.22	1.43419
1223.11	1.92136
1226	2.52132
1228.9	1.2565
1231.79	0.260925
1234.68	0.714264
1237.57	1.27225
1240.47	0.566067
1243.36	0.643856
1246.25	3.11995
1249.14	1.57826
1252.04	0.778271
1254.93	1.26534
1257.82	0.806366
1260.71	1.99654
1263.61	1.72914
1266.5	0.177212
1269.39	1.23373
1272.29	0.606922
1275.18	1.87886
1278.07	0.0135
1280.96	1.06908
1283.86	1.12429
