Measurement: Raman, 780 nm, unoriented, Raman Data Processed
Mineral: Euclase
Rruff sample: R100157
Ideal chemistry: BeAlSiO_4_(OH)
Locality: Unknown
Source: William W. Pinch
Description: Blue cut gemstone
Raman shift (cm-1)	intensity
116.158	0
119.532	1.27361
122.907	1.74493
126.282	1.82417
129.657	2.91563
133.032	2.96407
136.406	3.168
139.781	9.01221
143.156	26.8449
146.531	19.1753
149.906	2.61334
153.281	0.443321
156.655	0.091511
160.03	0.217854
163.405	0.220188
166.78	0.272163
170.155	2.15752
173.53	6.97566
176.904	21.9491
180.279	18.9905
183.654	2.96364
187.029	4.66734
190.404	11.653
193.778	33.7539
197.153	86.1147
200.528	19.5902
203.903	1.52948
207.278	0.390491
210.652	1.05686
214.027	0.569466
217.402	0.268147
220.777	0.87141
224.152	0.362812
227.526	4.3793
230.901	17.0496
234.276	64.2535
237.651	24.9338
241.026	14.6851
244.401	18.0635
247.775	31.7235
251.15	72.5299
254.525	237.441
257.9	407.432
261.275	81.818
264.649	21.1575
268.024	13.1577
271.399	12.0318
274.774	16.5583
278.149	25.1434
281.524	72.2856
284.898	203.569
288.273	106.334
291.648	21.5542
295.023	8.31498
298.398	9.29738
301.772	19.3896
305.147	49.0267
308.522	32.0923
311.897	7.57794
315.272	6.50521
318.647	3.98704
322.021	6.19704
325.396	16.1352
328.771	43.8222
332.146	45.331
335.521	18.5841
338.895	10.8426
342.27	1.84092
345.645	0.339664
349.02	0.37104
352.395	0.028332
355.769	1.05785
359.144	0.728041
362.519	0.111305
365.894	0.705132
369.269	0.489548
372.644	5.90712
376.018	12.4042
379.393	20.3921
382.768	23.1965
386.143	34.6237
389.518	75.0312
392.892	199.287
396.267	123.993
399.642	27.3722
403.017	11.1415
406.392	6.35337
409.767	4.61986
413.141	3.93549
416.516	5.20232
419.891	12.5247
423.266	12.9328
426.641	5.81158
430.015	4.22443
433.39	4.93348
436.765	9.88482
440.14	22.4909
443.515	19.362
446.889	22.6151
450.264	28.3254
453.639	16.6003
457.014	16.3671
460.389	10.774
463.764	2.15814
467.138	0.560215
470.513	0.417208
473.888	0.350521
477.263	0.183914
480.638	0.167171
484.012	0.871712
487.387	0.248932
490.762	0.527845
494.137	0.627756
497.512	1.15915
500.887	2.24909
504.261	4.33386
507.636	8.62125
511.011	7.1357
514.386	4.61243
517.761	2.09623
521.135	1.12976
524.51	0.79862
527.885	1.89051
531.26	2.95766
534.635	7.74868
538.01	21.3037
541.384	37.3773
544.759	18.3252
548.134	6.54281
551.509	3.37437
554.884	3.90511
558.258	4.29798
561.633	7.99445
565.008	14.4432
568.383	32.0414
571.758	54.1684
575.132	35.8469
578.507	24.5182
581.882	23.3774
585.257	11.7547
588.632	4.89858
592.006	4.23399
595.381	5.42107
598.756	10.8545
602.131	13.6889
605.506	5.91828
608.881	2.26424
612.255	0.466616
615.63	0.08086
619.005	0.821857
622.38	0.45188
625.755	1.74993
629.129	0.767672
632.504	1.75368
635.879	4.90138
639.254	8.89262
642.629	13.0001
646.004	12.4791
649.378	7.28072
652.753	6.51483
656.128	5.17517
659.503	7.71105
662.878	10.6707
666.252	6.94723
669.627	3.51765
673.002	2.39686
676.377	1.36689
679.752	0.742867
683.126	0.255415
686.501	0.059635
689.876	0.585102
693.251	0.162102
696.626	0.639378
700	0.146568
703.375	0.133059
706.75	0.013792
710.125	0.360641
713.5	0.096855
716.875	2.20435
720.249	0.813852
723.624	1.49751
726.999	1.63198
730.374	2.03355
733.749	3.63998
737.124	5.91134
740.498	9.95437
743.873	17.5364
747.248	16.1389
750.623	10.1692
753.998	11.61
757.372	9.78504
760.747	4.73746
764.122	1.52612
767.497	1.2953
770.872	0.785398
774.246	0.780581
777.621	2.08175
780.996	4.86977
784.371	8.68242
787.746	14.7158
791.12	16.5524
794.495	14.7815
797.87	16.8165
801.245	20.4938
804.62	18.4291
807.995	11.7586
811.369	6.12988
814.744	3.07406
818.119	1.48202
821.494	1.03141
824.869	0.268259
828.244	0.17754
831.618	0.173128
834.993	0.080488
838.368	0.114927
841.743	0.30484
845.118	0.596945
848.492	0.027195
851.867	1.77146
855.242	2.81622
858.617	5.4157
861.992	8.82804
865.366	17.845
868.741	32.9488
872.116	54.7238
875.491	107.246
878.866	207.359
882.24	188.355
885.615	88.7678
888.99	60.9109
892.365	51.7358
895.74	45.895
899.115	59.6198
902.489	98.6208
905.864	158.285
909.239	144.137
912.614	77.2883
915.989	39.3977
919.364	22.9443
922.738	13.7597
926.113	9.43417
929.488	5.74088
932.863	4.12915
936.237	1.56056
939.612	0.61307
942.987	0.432302
946.362	0.733664
949.737	0.714603
953.112	0.210249
956.486	1.88139
959.861	3.5595
963.236	5.26316
966.611	12.1427
969.986	22.659
973.361	25.9814
976.735	17.6233
980.11	10.3781
983.485	4.29339
986.86	1.74084
990.235	0.63242
993.609	0.162243
996.984	0.633036
1000.36	0.631737
1003.73	0.202658
1007.11	0.164917
1010.48	0.02751
1013.86	0.125191
1017.23	1.66647
1020.61	3.71181
1023.98	2.57163
1027.36	2.03282
1030.73	1.25798
1034.11	1.55055
1037.48	1.9435
1040.86	3.78995
1044.23	5.99334
1047.61	10.9302
1050.98	17.1005
1054.36	29.7671
1057.73	40.391
1061.11	29.8328
1064.48	13.088
1067.86	6.38281
1071.23	3.25574
1074.61	2.46536
1077.98	0.429895
1081.35	1.1628
1084.73	0.973007
1088.1	2.85574
1091.48	3.57611
1094.85	5.09535
1098.23	6.89007
1101.6	10.8216
1104.98	14.2158
1108.35	20.3786
1111.73	26.6539
1115.1	32.1328
1118.48	35.9717
1121.85	35.711
1125.23	29.4501
1128.6	22.6842
1131.98	16.2629
1135.35	11.6918
1138.73	7.88129
1142.1	5.7792
1145.48	3.97216
1148.85	2.81914
1152.23	2.27718
1155.6	1.52371
1158.97	0.720739
1162.35	1.20806
1165.72	0.057526
1169.1	0.789917
1172.47	0.315134
1175.85	0.434536
1179.22	0.243443
1182.6	0.809011
1185.97	0.062801
1189.35	0.069548
1192.72	0.222706
1196.1	0.343197
1199.47	0.348638
1202.85	0.309228
1206.22	0.311629
1209.6	0.290043
1212.97	0.240098
1216.35	1.01654
1219.72	0.38148
1223.1	0.366161
1226.47	0.762545
1229.85	1.19896
1233.22	0.235728
1236.6	0.758413
1239.97	0.595273
1243.35	1.55947
1246.72	1.00035
1250.1	1.03109
1253.47	0.372068
1256.85	0.528982
1260.22	0.212016
1263.59	0.770405
1266.97	1.19265
1270.34	0.708362
1273.72	0.795708
1277.09	0.805919
1280.47	0.987751
1283.84	0.822875
