Measurement: Raman, 532 nm, unoriented, Raman Data Processed
Mineral: Euclase
Rruff sample: R050623
Ideal chemistry: BeAlSiO_4_(OH)
Locality: Minas Gerais, Brazil
Source: Gemmological Center
Description: Colorless flattened prismatic crystal
Measured chemistry: Be_1.00_Al_1.00_Si_1.00_O_4_(OH) ; Be not measured but estimated by stoichiometry
Raman shift (cm-1)	intensity
149.934	0
152.826	7.94914
155.719	12.2691
158.612	4.86707
161.504	3.38339
164.397	3.3802
167.29	4.93843
170.183	10.5387
173.075	12.8302
175.968	22.1369
178.861	66.2768
181.753	33.6476
184.646	2.59032
187.539	5.6015
190.431	0.87944
193.324	2.90964
196.217	2.69185
199.109	0.952774
202.002	2.40176
204.895	2.28122
207.788	1.25145
210.68	0.674744
213.573	1.49257
216.466	7.79764
219.358	25.3396
222.251	35.2323
225.144	46.3442
228.036	68.9681
230.929	125.13
233.822	330.062
236.715	360.553
239.607	65.1218
242.5	72.3247
245.393	87.2382
248.286	112.042
251.178	170.618
254.071	335.981
256.964	755.702
259.856	459.216
262.749	78.5305
265.642	30.7812
268.534	20.5179
271.427	25.1644
274.32	32.8244
277.212	41.1727
280.105	60.2197
282.998	120.662
285.891	249.562
288.783	142.946
291.676	30.8242
294.569	10.9687
297.461	6.78639
300.354	1.9615
303.247	3.64372
306.14	0.535599
309.032	1.91525
311.925	1.92975
314.818	0.014496
317.71	0.34613
320.603	1.00989
323.496	2.51598
326.389	0.074081
329.281	0.779404
332.174	0.970505
335.067	4.0719
337.959	5.57727
340.852	6.79079
343.745	5.54048
346.637	14.6288
349.53	29.9199
352.423	52.3949
355.315	22.9257
358.208	4.27652
361.101	7.15515
363.994	8.03355
366.886	9.71118
369.779	14.0311
372.672	24.3759
375.565	45.4359
378.457	90.4813
381.35	120.937
384.243	75.2428
387.135	80.5569
390.028	140.905
392.921	294.951
395.813	365.086
398.706	69.4314
401.599	18.5133
404.491	4.91554
407.384	4.84253
410.277	0.261459
413.17	2.41011
416.062	0.812332
418.955	3.76328
421.848	12.6114
424.74	10.3402
427.633	25.9208
430.526	37.2047
433.418	60.0127
436.311	106.497
439.204	215.21
442.097	413.651
444.989	166.446
447.882	108.381
450.775	113.744
453.667	97.2978
456.56	49.4623
459.453	26.5222
462.346	14.247
465.238	5.96674
468.131	7.02
471.024	1.79501
473.916	2.67512
476.809	2.00708
479.702	2.85474
482.594	1.78766
485.487	1.95453
488.38	1.79915
491.273	0.931442
494.165	1.53455
497.058	4.57425
499.951	12.5105
502.843	15.6194
505.736	22.7696
508.629	30.953
511.522	26.1058
514.414	12.51
517.307	2.82404
520.2	0.083511
523.092	0.639969
525.985	0.113739
528.878	2.77464
531.77	1.20665
534.663	3.20171
537.556	5.04788
540.448	6.6523
543.341	11.1419
546.234	4.90735
549.127	0.793488
552.019	1.9881
554.912	2.76294
557.805	10.5874
560.697	18.8237
563.59	31.7357
566.483	55.6761
569.376	102.542
572.268	168.477
575.161	126.886
578.054	84.3906
580.946	96.0624
583.839	95.2059
586.732	45.4016
589.625	26.7815
592.517	22.3785
595.41	28.2318
598.303	46.71
601.195	62.4033
604.088	47.0484
606.981	18.3947
609.874	4.44714
612.766	0.698059
615.659	0.775421
618.552	0.961578
621.444	0.278107
624.337	2.01817
627.23	4.38235
630.122	1.20807
633.015	5.49631
635.908	10.3218
638.801	14.5286
641.693	23.3384
644.586	33.5488
647.479	23.5079
650.371	18.3139
653.264	13.0147
656.157	6.52934
659.049	7.43054
661.942	4.56668
664.835	3.09174
667.727	1.23691
670.62	1.07156
673.513	1.96707
676.406	2.99606
679.298	1.58501
682.191	2.7279
685.084	1.16959
687.976	4.41902
690.869	2.94913
693.762	1.00935
696.654	0.942841
699.547	1.63287
702.44	1.43446
705.333	2.33255
708.225	3.26212
711.118	2.91962
714.011	0.809479
716.904	3.17201
719.796	3.18895
722.689	2.96826
725.582	1.89661
728.474	0.578064
731.367	2.41815
734.26	0.666901
737.152	3.8759
740.045	1.68204
742.938	3.94739
745.831	4.31947
748.723	9.91315
751.616	13.5979
754.509	19.0951
757.401	18.806
760.294	8.99443
763.187	8.19337
766.08	4.19391
768.972	2.05762
771.865	3.0312
774.758	3.65179
777.65	3.75221
780.543	6.99991
783.436	10.2672
786.328	16.3544
789.221	24.1799
792.114	19.0221
795.006	9.96666
797.899	4.92592
800.792	1.39325
803.685	1.10683
806.577	4.40572
809.47	0.648102
812.363	0.07576
815.255	0.773865
818.148	0.583389
821.041	0.03125
823.933	1.47032
826.826	0.234222
829.719	2.04213
832.612	1.96896
835.504	3.94376
838.397	2.47833
841.29	4.04182
844.182	4.95894
847.075	7.39862
849.968	11.5914
852.861	13.1816
855.753	16.8642
858.646	22.3664
861.539	34.1195
864.431	55.035
867.324	99.6325
870.217	171.202
873.11	259.3
876.002	432.539
878.895	722.208
881.788	787.464
884.68	374.329
887.573	163.539
890.466	100.136
893.358	87.4988
896.251	107.023
899.144	153.768
902.037	226.911
904.929	344.139
907.822	430.777
910.715	315.842
913.607	170.301
916.5	94.9485
919.393	58.3721
922.285	36.4281
925.178	23.3231
928.071	18.7565
930.964	14.0783
933.856	7.87073
936.749	4.01733
939.642	2.66006
942.534	2.27368
945.427	1.87067
948.32	1.92316
951.212	1.61879
954.105	1.29559
956.998	0.579727
959.891	0.615616
962.783	5.14537
965.676	4.90364
968.569	8.74306
971.461	14.4671
974.354	14.2744
977.247	8.78062
980.139	3.56287
983.032	1.53006
985.925	1.21686
988.818	2.67304
991.71	0.198517
994.603	2.90744
997.496	1.84039
1000.39	6.64455
1003.28	5.12051
1006.17	11.5956
1009.07	19.1386
1011.96	31.3216
1014.85	54.845
1017.75	87.7515
1020.64	130.586
1023.53	126.11
1026.42	77.1998
1029.32	50.9839
1032.21	38.3036
1035.1	34.2741
1037.99	40.3462
1040.89	46.0091
1043.78	63.3123
1046.67	96.6194
1049.56	145.1
1052.46	218.571
1055.35	329.033
1058.24	406.1
1061.13	321.175
1064.03	180.753
1066.92	98.7026
1069.81	54.6151
1072.71	35.0311
1075.6	22.7599
1078.49	16.4391
1081.38	11.7239
1084.28	6.34677
1087.17	4.32871
1090.06	4.28281
1092.95	0.301544
1095.85	0.759521
1098.74	2.17203
1101.63	1.22403
1104.53	1.62021
1107.42	1.92157
1110.31	3.63434
1113.2	3.47519
1116.1	1.18259
1118.99	0.2323
1121.88	1.53253
1124.78	2.59192
1127.67	1.84882
1130.56	4.52701
1133.45	0.747437
1136.35	1.66058
1139.24	4.7337
1142.13	3.5404
1145.02	4.74802
1147.92	1.77771
1150.81	1.42248
1153.7	3.96329
1156.59	1.2601
1159.49	1.34415
1162.38	3.81265
1165.27	4.83099
1168.16	1.67648
1171.06	3.74194
1173.95	1.6637
1176.84	4.84561
1179.74	2.11194
1182.63	1.95956
1185.52	3.34961
1188.41	2.64163
1191.31	1.40536
1194.2	1.6676
1197.09	0.779419
1199.98	1.97601
1202.88	0.463318
1205.77	1.65961
1208.66	3.98328
1211.56	1.88474
1214.45	2.0842
1217.34	1.08109
1220.23	0.380737
1223.13	3.116
1226.02	1.52567
1228.91	1.11325
1231.81	2.1958
1234.7	2.06229
1237.59	2.733
1240.48	3.57462
1243.38	0.512024
1246.27	3.83084
1249.16	1.93603
1252.05	4.52115
1254.95	1.60901
1257.84	2.3057
1260.73	2.37842
1263.62	2.33536
1266.52	3.03024
1269.41	3.08832
1272.3	2.22726
1275.19	4.0824
1278.09	4.37943
1280.98	3.828
1283.87	1.65723
1286.77	1.65021
1289.66	1.95074
1292.55	2.22382
1295.44	0.655975
1298.34	3.68869
1301.23	1.79257
