Measurement: Raman, 514 nm, unoriented, Raman Data Processed
Mineral: Euclase
Rruff sample: R050032
Ideal chemistry: BeAlSiO_4_(OH)
Locality: Minas Gerais, Brazil
Source: University of Arizona Mineral Museum
Description: Colorless crystal fragments
Measured chemistry: Be_1.00_Al_1.00_Si_1.00_O_4_(OH)
Raman shift (cm-1)	intensity
104.516	0
108.691	16.094
112.864	152.18
117.034	1901.71
121.203	2028.33
125.369	414.359
129.534	398.867
133.696	444.233
137.857	960.524
142.016	1530.01
146.172	1368.36
150.327	570.525
154.48	411.634
158.63	402.627
162.779	442.934
166.926	398.842
171.07	607.945
175.213	2219.22
179.354	4122.6
183.493	650.047
187.63	476.438
191.765	493.817
195.898	807.277
200.029	633.125
204.158	414.509
208.285	443.446
212.41	156.014
216.533	263.46
220.654	212.048
224.773	397.331
228.891	1386.56
233.006	4620.61
237.119	2451.01
241.231	955.399
245.34	926.394
249.448	2676.87
253.553	13291.9
257.657	20303.3
261.758	4054.18
265.858	1140.47
269.956	491.539
274.052	492.743
278.146	699.504
282.237	2878.33
286.327	5248.7
290.416	1087.31
294.502	299.022
298.586	60.636
302.668	217.989
306.749	367.013
310.827	133.385
314.903	63.855
318.978	4.317
323.051	116.163
327.121	219.327
331.19	308.523
335.257	55.073
339.322	1.925
343.385	180.754
347.446	233.522
351.505	1387.02
355.563	405.806
359.618	106.924
363.672	90.418
367.723	241.24
371.773	738.242
375.821	2308.22
379.866	4714.6
383.91	1629.33
387.952	1403.11
391.992	5309.88
396.031	4243.84
400.067	987.52
404.101	403.893
408.134	158.479
412.165	140.25
416.193	261.148
420.22	450.232
424.245	522.328
428.268	202.584
432.289	179.91
436.309	588.434
440.326	1979.92
444.342	1837.99
448.355	2086.94
452.367	2429.76
456.377	1670.47
460.385	919.668
464.391	403.711
468.395	108.74
472.398	8.059
476.398	128.643
480.397	14.396
484.394	18.217
488.389	198.572
492.382	206.258
496.373	3.783
500.362	232.121
504.349	583.959
508.335	1187.55
512.319	642.906
516.3	364.408
520.28	162.451
524.259	22.197
528.235	115.85
532.209	8.891
536.182	99.82
540.152	686.111
544.121	412.57
548.088	181.537
552.053	285.564
556.017	111.738
559.978	191.379
563.938	321.67
567.895	962.486
571.851	3740.09
575.805	2118.87
579.758	1787.51
583.708	2261.09
587.657	786.15
591.603	627.992
595.548	351.615
599.491	328.902
603.432	470.178
607.372	67.115
611.309	67.23
615.245	163.945
619.179	212.924
623.111	255.576
627.041	185.93
630.97	180.404
634.896	526.475
638.821	462.1
642.744	919.027
646.665	706.311
650.584	416.658
654.502	143.389
658.418	262.336
662.331	465.287
666.244	263.385
670.154	11.5
674.062	157.17
677.969	6.346
681.874	69.117
685.777	54.406
689.678	9.127
693.577	249.055
697.475	43.543
701.371	143.283
705.265	194.184
709.157	118.107
713.047	159.309
716.936	181.148
720.823	170.34
724.708	21.527
728.591	92.324
732.472	184.904
736.352	46.186
740.23	282.066
744.106	425.789
747.98	519.354
751.853	1271.77
755.723	2312.04
759.592	1630.17
763.459	623.396
767.325	314.094
771.188	364.426
775.05	105.027
778.91	164.605
782.768	534.631
786.625	940.965
790.479	1287.32
794.332	1012.21
798.183	572.139
802.033	435.395
805.88	78.596
809.726	178.824
813.57	67.014
817.413	42.844
821.253	29.221
825.092	110.84
828.929	57.803
832.764	62.643
836.598	19.6
840.429	19
844.259	31.154
848.088	111.873
851.914	325.062
855.739	359.4
859.562	331.996
863.383	506.422
867.203	1103.84
871.02	1756.52
874.836	4384.73
878.65	11513
882.463	11339.9
886.274	4242.68
890.083	2086.12
893.89	1806.21
897.695	2243.46
901.499	3690.9
905.301	8331.52
909.102	10932.3
912.9	6238.28
916.697	2966.43
920.492	1793.8
924.285	1302.43
928.077	1030.17
931.867	841.166
935.655	668.365
939.442	335.74
943.226	407.275
947.009	457.994
950.791	315.873
954.57	131.914
958.348	285.139
962.124	145.555
965.899	641.193
969.671	1224.88
973.442	2052.87
977.211	1536.11
980.979	1082.69
984.745	211.154
988.509	330.512
992.271	607.678
996.032	582.002
999.791	275.176
1003.55	677.037
1007.3	890.404
1011.06	1153.69
1014.81	1883.11
1018.56	4141.16
1022.31	7163.85
1026.06	4990.86
1029.8	3066.16
1033.55	2108.92
1037.29	2099.8
1041.03	2263.21
1044.77	2436.78
1048.5	3112.55
1052.24	5196.4
1055.97	9335.85
1059.7	14047
1063.43	9696.92
1067.16	4741.96
1070.89	2770.16
1074.61	1710.38
1078.34	1069.62
1082.06	1010.64
1085.78	776.754
1089.5	693.906
1093.21	527.504
1096.93	496.312
1100.64	504.316
1104.35	562.457
1108.06	441.047
1111.77	544.238
1115.48	494.578
1119.18	655.762
1122.89	980.902
1126.59	476.523
1130.29	373.16
1133.99	33.629
1137.68	57.891
1141.38	109.457
1145.07	67.191
1148.76	128.609
1152.45	175.887
1156.14	260.176
1159.83	9.512
1163.51	70.734
1167.19	130.223
1170.88	136.691
1174.56	103.168
1178.23	135.199
1181.91	72.309
1185.59	233.266
1189.26	192.949
1192.93	369.195
1196.6	84.926
1200.27	290.477
1203.94	36.953
1207.6	575.652
1211.27	457.074
1214.93	218.191
1218.59	601.434
1222.25	490.047
1225.9	474.75
1229.56	401.383
1233.21	234.461
1236.86	378.469
1240.51	508.609
1244.16	359.418
1247.81	426.586
1251.45	263.621
1255.1	87.074
1258.74	496.957
1262.38	385.719
1266.02	311.883
1269.66	353.758
1273.29	122.934
1276.93	456.492
1280.56	218.473
1284.19	223.953
1287.82	242.98
1291.45	93.582
1295.07	204.203
1298.7	103.879
1302.32	166.641
1305.94	20.777
1309.56	251.836
1313.18	50.32
1316.8	116.199
1320.41	230.918
1324.02	344.281
1327.63	61.352
1331.24	59.727
1334.85	16.629
1338.46	222.691
1342.06	230.645
1345.67	147.086
1349.27	705.289
1352.87	428.16
1356.47	291.508
1360.07	604.824
1363.66	548.32
1367.25	791.363
1370.85	385.57
1374.44	386.203
1378.03	356.516
1381.61	363.637
1385.2	811.902
1388.78	774.551
1392.37	345.41
1395.95	412.504
1399.53	529.914
1403.1	426.051
1406.68	406.602
1410.26	585.301
1413.83	220.297
1417.4	287.68
1420.97	177.645
1424.54	200.285
1428.1	254.316
1431.67	131.305
1435.23	273.051
1438.8	293.652
1442.36	352.449
1445.91	87.688
1449.47	445.57
1453.03	443.426
1456.58	28.867
1460.13	0
