Measurement: Raman, 532 nm, unoriented, Raman Data Processed
Mineral: Euclase
Rruff sample: R100157
Ideal chemistry: BeAlSiO_4_(OH)
Locality: Unknown
Source: William W. Pinch
Description: Blue cut gemstone
Raman shift (cm-1)	intensity
160.46	0
163.353	0.145569
166.245	11.9381
169.138	83.2959
172.031	137.118
174.924	175.829
177.816	187.902
180.709	187.674
183.602	75.14
186.494	64.2984
189.387	76.7084
192.28	95.9453
195.173	130.043
198.065	209.344
200.958	107.216
203.851	35.6208
206.743	24.7616
209.636	17.5402
212.529	18.8557
215.421	19.9409
218.314	29.6978
221.207	36.0646
224.1	38.4781
226.992	53.9804
229.885	91.3111
232.778	205.28
235.67	389.607
238.563	129.484
241.456	95.0803
244.348	121.004
247.241	173.368
250.134	270.06
253.026	483.997
255.919	1014.55
258.812	1392.3
261.705	366.866
264.597	80.721
267.49	28.9622
270.383	32.466
273.276	37.4625
276.168	60.6766
279.061	98.6981
281.954	188.103
284.846	408.545
287.739	468.399
290.632	115.216
293.524	19.0133
296.417	0.064392
299.31	1.70441
302.202	11.8224
305.095	46.4522
307.988	89.208
310.881	14.8829
313.773	4.50177
316.666	1.13397
319.559	2.94428
322.451	0.543213
325.344	12.5563
328.237	40.6825
331.13	97.3301
334.022	60.5103
336.915	16.5987
339.808	10.9055
342.7	0.164657
345.593	6.65595
348.486	1.68872
351.378	2.5838
354.271	3.68555
357.164	4.62237
360.057	0.632019
362.949	0.587952
365.842	2.77655
368.735	3.37946
371.627	10.3527
374.52	20.1011
377.413	39.4299
380.305	65.192
383.198	77.3502
386.091	111.318
388.984	177.422
391.876	329.273
394.769	527.619
397.662	267.102
400.554	87.1342
403.447	44.0173
406.34	28.6955
409.233	19.0043
412.125	16.2118
415.018	14.5429
417.911	22.6252
420.803	32.2616
423.696	37.234
426.589	32.4388
429.481	23.6162
432.374	30.6286
435.267	48.8018
438.159	75.3904
441.052	128.578
443.945	103.711
446.838	64.0582
449.73	82.463
452.623	68.4899
455.516	48.3016
458.409	42.5647
461.301	23.9962
464.194	6.88971
467.087	3.80408
469.979	0.141357
472.872	0.739441
475.765	2.01502
478.657	1.1217
481.55	4.31757
484.443	2.92908
487.336	0.606384
490.228	5.80939
493.121	6.62115
496.014	7.82147
498.906	12.846
501.799	28.8611
504.692	32.4448
507.584	45.7983
510.477	48.7415
513.37	33.2399
516.263	22.1913
519.155	10.1279
522.048	8.94141
524.941	8.87994
527.833	7.90472
530.726	7.99475
533.619	17.459
536.511	21.2779
539.404	35.557
542.297	57.0772
545.19	35.2424
548.082	13.9875
550.975	10.0803
553.868	12.2329
556.76	18.4633
559.653	32.0037
562.546	48.3191
565.438	84.1577
568.331	146.35
571.224	241.183
574.117	241.473
577.009	142.167
579.902	105.225
582.795	95.9497
585.687	56.1795
588.58	27.7516
591.473	14.0385
594.365	17.6194
597.258	20.0378
600.151	24.0881
603.044	24.9827
605.936	10.5137
608.829	4.91657
611.722	0.901855
614.614	0.447144
617.507	2.75897
620.4	1.40411
623.293	1.38428
626.185	1.83698
629.078	2.04456
631.971	8.40411
634.863	20.6956
637.756	31.9695
640.649	55.5799
643.542	73.6822
646.434	65.6023
649.327	38.9726
652.22	23.269
655.112	22.6015
658.005	12.8825
660.898	20.2029
663.79	24.1838
666.683	19.4195
669.576	10.8674
672.468	5.49628
675.361	4.88495
678.254	4.35431
681.147	2.3103
684.039	2.06268
686.932	1.10223
689.825	7.25464
692.717	3.3081
695.61	2.41058
698.503	0.1745
701.396	2.03851
704.288	1.29413
707.181	2.40631
710.074	5.82648
712.966	9.203
715.859	7.5318
718.752	4.05438
721.644	1.50177
724.537	0.067749
727.43	3.80933
730.323	1.104
733.215	5.92908
736.108	5.24976
739.001	15.7061
741.893	23.5963
744.786	33.595
747.679	37.7426
750.572	30.7536
753.464	32.0667
756.357	37.9436
759.25	25.9119
762.142	12.3093
765.035	8.30078
767.928	6.72797
770.82	8.60724
773.713	9.37689
776.606	12.48
779.499	19.3009
782.391	32.4282
785.284	52.0124
788.177	66.8717
791.069	72.6679
793.962	60.3447
796.855	45.3101
799.747	50.224
802.64	47.6752
805.533	44.7165
808.426	30.2507
811.318	20.1481
814.211	14.0806
817.104	6.79034
819.996	0.891968
822.889	8.62146
825.782	0.61908
828.674	3.26819
831.567	0.96521
834.46	4.33899
837.353	0.03186
840.245	3.54761
843.138	1.69348
846.031	7.73724
848.923	7.34314
851.816	14.8165
854.709	17.6611
857.601	23.0052
860.494	37.0565
863.387	67.0276
866.28	117.691
869.172	210.777
872.065	336.253
874.958	535.092
877.851	885.402
880.743	1168.82
883.636	827.816
886.529	404.407
889.421	248.216
892.314	186.749
895.207	171.394
898.099	192.076
900.992	249.681
903.885	363.467
906.778	479.274
909.67	446.88
912.563	279.965
915.456	154.862
918.348	95.4105
921.241	65.8716
924.134	49.0497
927.026	35.923
929.919	29.9753
932.812	22.8898
935.705	15.0897
938.597	9.33447
941.49	4.15082
944.383	3.08173
947.275	0.892761
950.168	2.25098
953.061	2.98053
955.953	3.40576
958.846	5.52411
961.739	20.0665
964.631	34.8404
967.524	55.8571
970.417	84.4187
973.31	99.6238
976.202	74.7326
979.095	52.4747
981.988	28.0217
984.88	16.3593
987.773	6.85346
990.666	4.26404
993.559	2.6297
996.451	3.56201
999.344	-0.262519
1002.24	0.809998
1005.13	3.40973
1008.02	3.02832
1010.91	0.453186
1013.81	0.143677
1016.7	5.96472
1019.59	9.19849
1022.49	5.43433
1025.38	0.889099
1028.27	0.665588
1031.16	0.994507
1034.06	3.43872
1036.95	3.85181
1039.84	8.3905
1042.73	10.3138
1045.63	23.8555
1048.52	32.8561
1051.41	60.4736
1054.31	94.0549
1057.2	126.127
1060.09	112.665
1062.98	68.9142
1065.88	34.7451
1068.77	15.4211
1071.66	7.95221
1074.55	5.28503
1077.45	0.504272
1080.34	0.994019
1083.23	3.07684
1086.12	3.4823
1089.02	0.564941
1091.91	6.96399
1094.8	8.69043
1097.7	16.9646
1100.59	20.3558
1103.48	28.7966
1106.37	40.0941
1109.27	49.2559
1112.16	60.9829
1115.05	70.342
1117.94	83.7772
1120.84	84.3583
1123.73	80.3683
1126.62	70.5221
1129.52	54.9183
1132.41	43.9923
1135.3	31.6559
1138.19	23.3823
1141.09	13.6782
1143.98	13.2566
1146.87	11.1388
1149.77	8.82544
1152.66	5.02905
1155.55	1.26465
1158.44	3.62573
1161.34	4.44385
1164.23	4.57263
1167.12	4.25146
1170.01	0.89563
1172.91	0.454102
1175.8	1.04736
1178.69	0.734497
1181.58	4.44861
1184.48	3.58142
1187.37	2.67871
1190.26	3.89685
1193.15	8.32459
1196.05	0.279663
1198.94	6.97351
1201.83	0.283447
1204.73	1.56323
1207.62	2.61084
1210.51	7.578
1213.4	3.25293
1216.3	4.78357
1219.19	5.11084
1222.08	2.84827
1224.97	5.20361
1227.87	6.4801
1230.76	5.35657
1233.65	6.56604
1236.55	3.28113
1239.44	1.35388
1242.33	0.223877
1245.22	4.32129
1248.12	2.85693
1251.01	4.59924
1253.9	2.48462
1256.8	4.75391
1259.69	4.26648
1262.58	10.0487
1265.47	8.37439
1268.37	6.47253
1271.26	5.41174
1274.15	4.19189
1277.04	5.13232
1279.94	3.30408
1282.83	5.97278
1285.72	6.8916
1288.61	0.356934
1291.51	4.96387
1294.4	5.875
1297.29	1.18616
1300.18	0.581787
