Measurement: Raman, 785 nm, unoriented, Raman Data Processed
Mineral: Euclase
Rruff sample: R050032
Ideal chemistry: BeAlSiO_4_(OH)
Locality: Minas Gerais, Brazil
Source: University of Arizona Mineral Museum
Description: Colorless crystal fragments
Measured chemistry: Be_1.00_Al_1.00_Si_1.00_O_4_(OH)
Raman shift (cm-1)	intensity
149.946	0
152.839	185.527
155.732	115.304
158.625	17.4014
161.517	24.9067
164.41	211.751
167.303	276.532
170.195	366.994
173.088	457.765
175.981	821.781
178.873	2362.65
181.766	1261.45
184.659	124.588
187.552	34.2568
190.444	59.3606
193.337	47.8842
196.23	26.3919
199.122	32.1309
202.015	19.7235
204.908	36.6122
207.8	15.7784
210.693	9.20923
213.586	21.2483
216.478	45.484
219.371	164.24
222.264	339.2
225.157	502.771
228.049	780.982
230.942	1594.8
233.835	3844.67
236.727	2755.51
239.62	746.657
242.513	1024.5
245.405	1565.69
248.298	2235.15
251.191	3598.77
254.084	7518.98
256.976	13903
259.869	6703.65
262.762	1559.21
265.654	599.372
268.547	316.156
271.44	307.17
274.332	379.85
277.225	490.356
280.118	753.291
283.011	1463.12
285.903	2766.79
288.796	1533.06
291.689	421.93
294.581	155.484
297.474	51.1456
300.367	27.7494
303.26	7.05469
306.152	17.726
309.045	16.8519
311.938	5.24146
314.83	4.93262
317.723	26.0406
320.616	14.3348
323.508	11.3101
326.401	8.32349
329.294	8.17102
332.187	4.01672
335.079	0.639893
337.972	59.9752
340.865	68.8671
343.757	90.7466
346.65	196.701
349.543	430.313
352.435	740.708
355.328	467.245
358.221	158.553
361.113	103.283
364.006	141.599
366.899	310.225
369.792	484.881
372.684	792.994
375.577	1336.01
378.47	2313.48
381.362	2494.07
384.255	1231.17
387.148	654.643
390.041	912.869
392.933	1812.39
395.826	2132.33
398.719	814.934
401.611	277.293
404.504	102.478
407.397	0.819092
410.289	17.8801
413.182	1.05957
416.075	31.3875
418.967	142.89
421.86	279.31
424.753	201.564
427.646	55.2874
430.538	52.8379
433.431	92.0566
436.324	219.887
439.216	576.158
442.109	1095.89
445.002	884.149
447.894	934.227
450.787	1083.66
453.68	1100.91
456.573	753.723
459.465	434.134
462.358	255.459
465.251	173.501
468.143	119.417
471.036	89.3374
473.929	25.597
476.822	34.8218
479.714	21.0741
482.607	16.1897
485.5	52.137
488.392	58.5185
491.285	91.5461
494.178	119.208
497.07	148.792
499.963	272.63
502.856	380.207
505.748	579.207
508.641	685.355
511.534	517.378
514.427	278.547
517.319	122.356
520.212	13.8611
523.105	16.6653
525.997	32.563
528.89	17.2845
531.783	40.1457
534.676	62.1643
537.568	132.731
540.461	273.786
543.354	264.517
546.246	132.017
549.139	17.4274
552.032	55.0063
554.924	13.7476
557.817	121.731
560.71	221.845
563.602	422.532
566.495	718.82
569.388	1353.67
572.281	2187.93
575.173	1869.32
578.066	1140.58
580.959	1165.18
583.851	1175.6
586.744	678.947
589.637	346.964
592.529	152.51
595.422	140.594
598.315	133.924
601.208	168.117
604.1	142.476
606.993	101.422
609.886	40.4375
612.778	22.2672
615.671	6.84265
618.564	7.44678
621.457	9.65259
624.349	19.7696
627.242	51.8463
630.135	21.5331
633.027	81.3434
635.92	97.8146
638.813	169.031
641.705	206.397
644.598	277.516
647.491	254.117
650.384	182.795
653.276	114.749
656.169	97.7513
659.062	43.4236
661.954	20.7316
664.847	22.717
667.74	5.22351
670.632	57.5977
673.525	52.8456
676.418	34.3751
679.311	6.46619
682.203	25.0449
685.096	29.7979
687.989	20.5498
690.881	4.45764
693.774	3.2533
696.667	12.5984
699.559	34.0667
702.452	45.2778
705.345	48.0861
708.237	21.5859
711.13	46.0471
714.023	11.6428
716.916	17.8722
719.808	41.3174
722.701	57.083
725.594	60.1722
728.486	52.6455
731.379	61.1796
734.272	49.3497
737.164	81.5768
740.057	113.607
742.95	177.739
745.843	292.384
748.735	424.617
751.628	691.603
754.521	1069.71
757.413	1171.14
760.306	707.386
763.199	365.06
766.091	179.763
768.984	111.525
771.877	95.0618
774.77	104.302
777.662	132.174
780.555	203.605
783.448	309.17
786.34	464.723
789.233	609.625
792.126	635.189
795.019	404.105
797.911	217.047
800.804	129.228
803.697	55.0734
806.589	12.1074
809.482	17.6565
812.375	20.6436
815.267	10.4978
818.16	23.8079
821.053	4.37134
823.946	4.71814
826.838	7.74316
829.731	16.1202
832.624	27.7719
835.516	28.8199
838.409	24.4788
841.302	14.9028
844.194	9.29297
847.087	0.277466
849.98	1.51245
852.872	40.8688
855.765	63.2803
858.658	135.127
861.551	221.058
864.443	355.789
867.336	548.067
870.229	957.508
873.121	1686.28
876.014	2938.18
878.907	4451.77
881.799	4288.05
884.692	2299.97
887.585	1170.59
890.478	721.571
893.37	599.825
896.263	708.44
899.156	1068.92
902.048	1733.41
904.941	2601.45
907.834	3256.21
910.726	2653.83
913.619	1552.32
916.512	887.926
919.405	521.79
922.297	317.759
925.19	211.737
928.083	148.298
930.975	90.2035
933.868	92.467
936.761	47.4705
939.654	6.88745
942.546	11.2977
945.439	16.756
948.332	23.8202
951.224	2.72363
954.117	0.571899
957.01	19.2435
959.902	46.9978
962.795	88.3648
965.688	195.614
968.581	364.41
971.473	560.702
974.366	450.356
977.259	281.613
980.151	90.6467
983.044	59.1475
985.937	23.6309
988.829	24.9237
991.722	1.68677
994.615	13.5355
997.508	54.198
1000.4	68.0001
1003.29	115.666
1006.19	196.517
1009.08	269.939
1011.97	581.157
1014.86	1037.44
1017.76	1869.12
1020.65	2740.87
1023.54	2783.18
1026.43	1867.54
1029.33	1107.26
1032.22	786.426
1035.11	649.213
1038.01	614.154
1040.9	691.805
1043.79	846.921
1046.68	1159.41
1049.58	1721.26
1052.47	2660.35
1055.36	4108.01
1058.25	5385.65
1061.15	5155.46
1064.04	3444.37
1066.93	2015.6
1069.83	1188.53
1072.72	751.443
1075.61	480.785
1078.5	340.56
1081.4	200.788
1084.29	156.428
1087.18	137.616
1090.07	88.7584
1092.97	96.4285
1095.86	97.3084
1098.75	64.9882
1101.64	1.55212
1104.54	23.0424
1107.43	24.39
1110.32	18.0425
1113.21	12.1915
1116.11	0.333252
1119	21.8627
1121.89	16.5476
1124.79	28.7301
1127.68	8.9458
1130.57	1.47656
1133.46	5.13831
1136.36	31.6736
1139.25	31.1941
1142.14	65.8904
1145.04	47.8987
1147.93	60.0604
1150.82	24.8276
1153.71	22.2904
1156.61	48.669
1159.5	33.0597
1162.39	66.8339
1165.28	36.9573
1168.18	55.1648
1171.07	44.4299
1173.96	22.7523
1176.86	32.4518
1179.75	9.28259
1182.64	47.1816
1185.53	44.6663
1188.43	18.3632
1191.32	32.9883
1194.21	47.9348
1197.1	18.8857
1200	26.7676
1202.89	43.071
1205.78	58.3833
1208.67	79.2065
1211.57	60.8133
1214.46	22.7455
1217.35	24.7301
1220.24	59.3877
1223.14	15.7133
1226.03	0.048706
1228.92	20.0151
