Measurement: Raman, 532 nm, unoriented, Raman Data Processed
Mineral: Euclase
Rruff sample: R050032
Ideal chemistry: BeAlSiO_4_(OH)
Locality: Minas Gerais, Brazil
Source: University of Arizona Mineral Museum
Description: Colorless crystal fragments
Measured chemistry: Be_1.00_Al_1.00_Si_1.00_O_4_(OH)
Raman shift (cm-1)	intensity
130.377	0
133.752	15.1008
137.127	81.4069
140.502	201.909
143.876	461.385
147.251	252.637
150.626	26.0484
154.001	17.2662
157.376	5.7099
160.75	22.533
164.125	104.072
167.5	120.655
170.875	282.36
174.25	560.921
177.625	1367.5
180.999	1600.48
184.374	81.6571
187.749	14.7156
191.124	3.40912
194.499	22.0834
197.874	25.2941
201.248	3.70673
204.623	2.66003
207.998	10.5585
211.373	26.9888
214.748	34.3473
218.122	183.932
221.497	510.951
224.872	893.039
228.247	1886.8
231.622	3953.03
234.996	8825.63
238.371	1587.88
241.746	1291.71
245.121	2002.81
248.496	3395.64
251.871	6908.9
255.245	14538.1
258.62	13782
261.995	2339.78
265.37	784.89
268.745	437.178
272.12	517.962
275.494	697.859
278.869	1256.33
282.244	2399.14
285.619	5156.22
288.994	2121.9
292.368	544.36
295.743	274.41
299.118	116.192
302.493	80.7284
305.868	37.6174
309.243	24.9085
312.617	24.4389
315.992	1.01215
319.367	5.28973
322.742	13.9235
326.117	3.93133
329.491	22.1675
332.866	2.04883
336.241	39.7883
339.616	54.6537
342.991	119.708
346.365	354.892
349.74	759.327
353.115	1205.18
356.49	319.147
359.865	133.245
363.24	168.893
366.614	326.296
369.989	605.99
373.364	1126.19
376.739	2039.2
380.114	3366.21
383.488	2009.76
386.863	1942.56
390.238	3145.9
393.613	6375.97
396.988	3710.11
400.363	729.903
403.737	203.095
407.112	44.8503
410.487	21.8491
413.862	19.5659
417.237	43.392
420.611	221.042
423.986	231.301
427.361	225.955
430.736	596.767
434.111	1378.17
437.486	2662.95
440.86	6415.33
444.235	3872.47
447.61	2053.82
450.985	2273.88
454.36	1909.71
457.735	1103.59
461.109	570.462
464.484	310.983
467.859	167.648
471.234	92.8003
474.609	36.4934
477.983	14.4869
481.358	21.3041
484.733	7.87732
488.108	27.2364
491.483	26.8394
494.858	96.8865
498.232	250.328
501.607	466.892
504.982	728.405
508.357	886.89
511.732	584.643
515.106	182.141
518.481	30.8862
521.856	23.1502
525.231	11.8807
528.606	7.74322
531.981	23.0254
535.355	85.3779
538.73	183.862
542.105	300.642
545.48	118.409
548.855	33.0482
552.229	45.1205
555.604	108.987
558.979	297.454
562.354	703.216
565.729	1372.61
569.104	2746.37
572.478	4884.4
575.853	3105.84
579.228	2365.42
582.603	2712.86
585.978	1591.37
589.352	706.279
592.727	557.966
596.102	696.457
599.477	1000.39
602.852	1158.38
606.227	454.698
609.601	151.398
612.976	43.1757
616.351	34.848
619.726	9.19427
623.101	18.6651
626.476	29.9375
629.85	47.7808
633.225	123.092
636.6	291.461
639.975	460.774
643.35	675.958
646.724	772.349
650.099	495.717
653.474	297.308
656.849	176.992
660.224	90.7768
663.598	66.8076
666.973	11.2455
670.348	1.79816
673.723	21.4667
677.098	28.2396
680.472	10.9825
683.847	17.4296
687.222	1.8891
690.597	5.28058
693.972	1.57422
697.347	3.36548
700.721	9.71741
704.096	0.799744
707.471	18.4626
710.846	9.63165
714.221	37.1624
717.596	6.10577
720.97	34.0748
724.345	20.3734
727.72	35.0418
731.095	28.5235
734.47	71.5219
737.844	98.0928
741.219	144.538
744.594	233.535
747.969	427.835
751.344	788.421
754.719	1189.38
758.093	1165.48
761.468	553.72
764.843	246.37
768.218	157.539
771.593	140.039
774.967	156.961
778.342	231.146
781.717	363.33
785.092	596.308
788.467	862.685
791.842	881.606
795.216	530.949
798.591	275.076
801.966	160.029
805.341	90.5137
808.716	58.3016
812.091	33.9226
815.465	12.7707
818.84	14.7977
822.215	23.3911
825.59	7.17224
828.965	38.8201
832.339	1.80676
835.714	8.91968
839.089	37.8662
842.464	64.1329
845.839	114.687
849.213	176.373
852.588	266.642
855.963	372.17
859.338	608.645
862.713	1045.06
866.087	1903.54
869.462	3823.52
872.837	7408.93
876.212	12833.9
879.587	18586
882.962	12883
886.337	5436.07
889.711	2773.55
893.086	2205.8
896.461	2734.63
899.836	4355.64
903.211	6983.18
906.585	9983.62
909.96	8953.32
913.335	4958.25
916.71	2634.25
920.085	1481.26
923.46	899.729
926.834	561.261
930.209	348.82
933.584	242.384
936.959	126.391
940.334	89.0413
943.708	39.1816
947.083	5.69482
950.458	33.0443
953.833	31.5617
957.208	26.132
960.582	42.5463
963.957	216.225
967.332	427.324
970.707	709.99
974.082	630.49
977.457	255.963
980.831	62.8196
984.206	37.4441
987.581	29.1576
990.956	1.82422
994.331	29.1602
997.705	63.8774
1001.08	142.113
1004.46	266.458
1007.83	532.316
1011.21	1083.99
1014.58	2225.98
1017.95	3910.83
1021.33	5580.61
1024.7	4513.95
1028.08	2594.88
1031.45	1650.08
1034.83	1365.23
1038.2	1423.66
1041.58	1657.54
1044.95	2314.79
1048.33	3654.47
1051.7	6256.51
1055.08	9928.41
1058.45	13152.2
1061.83	11059.7
1065.2	6171.89
1068.58	3246.77
1071.95	1878.41
1075.33	1153.86
1078.7	745.048
1082.08	480.772
1085.45	294.502
1088.83	200.854
1092.2	153.1
1095.58	114.03
1098.95	51.6733
1102.33	21.1466
1105.7	35.594
1109.07	7.77332
1112.45	22.8885
1115.82	25.4747
1119.2	22.4304
1122.57	6.96082
1125.95	2.55823
1129.32	1.13965
1132.7	25.0832
1136.07	12.6984
1139.45	1.4259
1142.82	14.6459
1146.2	2.27063
1149.57	42.6882
1152.95	22.5663
1156.32	23.2129
1159.7	55.146
1163.07	30.3176
1166.45	66.6224
1169.82	41.6709
1173.2	57.0236
1176.57	61.5293
1179.95	72.3798
1183.32	68.7629
1186.69	11.0305
1190.07	21.0536
1193.44	28.7712
1196.82	35.859
1200.19	31.8727
1203.57	23.5111
1206.94	32.8844
1210.32	20.4484
1213.69	23.4724
1217.07	21.9655
1220.44	49.6885
1223.82	47.5789
1227.19	43.5614
1230.57	15.5748
1233.94	17.2664
1237.32	35.2703
1240.69	26.7164
1244.07	44.3903
1247.44	37.2111
1250.82	0.445923
1254.19	17.5265
1257.57	13.5729
1260.94	12.1565
1264.32	12.5896
1267.69	84.9885
1271.07	56.0314
1274.44	7.98486
1277.82	12.7085
1281.19	19.2067
1284.57	44.6202
1287.94	33.9119
1291.32	79.3779
1294.69	48.9819
1298.06	26.2173
1301.44	36.272
1304.81	0.209961
