Measurement: Raman, 532 nm, unoriented, Raman Data Processed
Mineral: Eucryptite
Rruff sample: R070248
Ideal chemistry: LiAlSiO_4_
Locality: Bikita, Masvingo (Fort Victoria), Masvingo District, Mashonaland West, Zimbabwe
Source: Michael Scott
Description: Colorless vitreous massive fragments
Raman shift (cm-1)	intensity
167.982	0
170.875	293.428
173.768	780.385
176.66	7.25
179.553	77.3281
182.446	11.4062
185.339	81.0059
188.231	181.15
191.124	452.123
194.017	344.293
196.909	376.309
199.802	358.621
202.695	398.174
205.587	491.779
208.48	544.775
211.373	580.74
214.266	467.357
217.158	520.031
220.051	589.621
222.944	447.025
225.836	418.228
228.729	556.58
231.622	835.627
234.514	555.705
237.407	690.268
240.3	1085.7
243.192	896.834
246.085	510.832
248.978	404.303
251.871	595.465
254.763	332.879
257.656	239.885
260.549	232.305
263.441	328.789
266.334	513.945
269.227	364.541
272.12	376.717
275.012	627.238
277.905	980.24
280.798	1873.59
283.69	2299.61
286.583	817.867
289.476	336.818
292.368	501.197
295.261	665.938
298.154	1412.76
301.046	653.926
303.939	179.287
306.832	51.6191
309.725	92.0625
312.617	48.2734
315.51	39.1934
318.403	22.3066
321.295	79.8242
324.188	15.209
327.081	38.7168
329.974	86.6738
332.866	44.1484
335.759	79.4981
338.652	258.94
341.544	295.334
344.437	171.15
347.33	301.15
350.223	374.074
353.115	378.797
356.008	375.301
358.901	817.699
361.793	570.758
364.686	231.949
367.579	280.652
370.471	173.551
373.364	475.215
376.257	18.6836
379.149	66.6055
382.042	58.6406
384.935	258.766
387.828	243.879
390.72	248.789
393.613	207.148
396.506	250.844
399.398	254.922
402.291	128.617
405.184	116.965
408.077	2.18359
410.969	125.293
413.862	50.3281
416.755	29.5859
419.647	165.195
422.54	401.969
425.433	537.25
428.325	970.172
431.218	1348.6
434.111	1745.49
437.003	1416.34
439.896	1247.71
442.789	1507.07
445.682	1812.07
448.574	2832.43
451.467	3625.46
454.36	3311.55
457.252	3476.45
460.145	5183.55
463.038	6953.27
465.93	2720.91
468.823	1140.18
471.716	839.211
474.609	1329.79
477.501	1980.91
480.394	3089.83
483.287	3990.97
486.179	2896.59
489.072	1475.03
491.965	701.508
494.858	271.344
497.75	82.125
500.643	189.316
503.536	90.4219
506.428	101.809
509.321	60.2578
512.214	27.1133
515.106	30.1055
517.999	11.1562
520.892	101.738
523.784	344.156
526.677	601.953
529.57	1199
532.463	1877.15
535.355	3228.3
538.248	4819.87
541.141	5033.61
544.033	3776.29
546.926	3948.39
549.819	5331.83
552.712	6401.59
555.604	4234.7
558.497	1963.9
561.39	963.871
564.282	665.66
567.175	351.191
570.068	262.949
572.96	70.3867
575.853	9.66797
578.746	96.6992
581.639	5.48828
584.531	158.387
587.424	3.56641
590.317	15.0742
593.209	11.4805
596.102	48.2734
598.995	79.707
601.888	66.7969
604.78	114.746
607.673	154.641
610.566	108.144
613.458	240.246
616.351	7.02344
619.244	155.676
622.136	136.637
625.029	128.394
627.922	229.699
630.814	182.102
633.707	157.945
636.6	324.223
639.493	181.144
642.385	224.508
645.278	172.312
648.171	165.512
651.063	314.055
653.956	330.066
656.849	316.746
659.741	448.668
662.634	194.66
665.527	325.078
668.42	224.312
671.312	284.375
674.205	410.731
677.098	404.773
679.99	433.582
682.883	628.004
685.776	403.203
688.668	324.34
691.561	266.152
694.454	237.824
697.347	282.148
700.239	169.566
703.132	151.719
706.025	172.977
708.917	144.57
711.81	105.809
714.703	173.918
717.596	1.96094
720.488	133.715
723.381	109.621
726.274	45.3789
729.166	35.6211
732.059	188.332
734.952	318.574
737.844	254.199
740.737	533.828
743.63	178.606
746.523	218.32
749.415	72.5547
752.308	12.082
755.201	155.039
758.093	19.5703
760.986	120.402
763.879	61.1016
766.771	170.637
769.664	102.727
772.557	14.1562
775.45	42.2461
778.342	173.57
781.235	108.094
784.128	152.555
787.02	32.6523
789.913	70.3789
792.806	66.6523
795.698	65.5078
798.591	197.062
801.484	131.801
804.377	16.2617
807.269	99.4883
810.162	17.2891
813.055	225.961
815.947	128.519
818.84	78.4336
821.733	99.2461
824.625	100.625
827.518	120.301
830.411	20.1055
833.304	66.0938
836.196	101.898
839.089	28.6328
841.982	84.1484
844.874	188.621
847.767	42.3164
850.66	111.297
853.553	93.6641
856.445	137.641
859.338	55.4297
862.231	34.6445
865.123	93.7773
868.016	59.5742
870.909	46.8398
873.801	121.422
876.694	154.164
879.587	37.5938
882.48	13.7891
885.372	161.758
888.265	12.8281
891.158	269.305
894.05	72.418
896.943	301.684
899.836	426.66
902.729	795.191
905.621	1691.16
908.514	3076.46
911.407	4663.76
914.299	3210.53
917.192	1959.67
920.085	1353.76
922.977	838.238
925.87	459.195
928.763	512.902
931.655	941.188
934.548	1437.73
937.441	1144.25
940.334	441.555
943.226	386.894
946.119	481.809
949.012	724.555
951.904	1034
954.797	1786.18
957.69	2330.11
960.582	2725.36
963.475	2988.43
966.368	1300.93
969.261	838.391
972.153	916.004
975.046	902.508
977.939	783.738
980.831	572.141
983.724	353.133
986.617	383.809
989.51	241.664
992.402	15.6133
995.295	197.992
998.188	37.3906
1001.08	330.231
1003.97	238.582
1006.87	144.184
1009.76	257.902
1012.65	335.172
1015.54	235.266
1018.44	21.1406
1021.33	322.332
1024.22	12.2031
1027.12	39.1328
1030.01	81.6641
1032.9	18.4023
1035.79	21.4805
1038.68	62.2383
1041.58	138.246
1044.47	135.965
1047.36	173.113
1050.26	1.63281
1053.15	123.856
1056.04	45.5703
1058.93	91.2266
1061.83	23.8047
1064.72	73.7852
1067.61	177.426
1070.51	63.1953
1073.4	162.352
1076.29	55.6289
1079.18	192.715
1082.08	183.723
1084.97	132.746
1087.86	195.559
1090.75	128.754
1093.65	88.1914
1096.54	190.609
1099.43	63.1094
1102.33	138.848
1105.22	214.113
1108.11	57.4883
1111	20.9297
1113.9	119.066
1116.79	104.918
1119.68	73.3906
1122.57	75.3242
1125.47	244.977
1128.36	183.543
1131.25	149.004
1134.14	88.0312
1137.04	35.8359
1139.93	50.2227
1142.82	1.40625
1145.71	143.41
1148.61	62.5938
1151.5	175.738
1154.39	118.801
1157.29	199.742
1160.18	89.957
1163.07	139.012
1165.96	134.785
1168.86	146.898
1171.75	3.05078
1174.64	181.348
1177.54	122.383
1180.43	71.5742
1183.32	120.711
1186.21	175.316
1189.11	204.902
1192	251.894
1194.89	136.828
1197.78	96.4883
1200.68	220.008
1203.57	240.586
1206.46	85.9453
1209.36	225.316
1212.25	262.746
1215.14	216.762
1218.03	132.852
1220.93	236.359
1223.82	160.785
1226.71	235.746
1229.6	1.99219
1232.5	166.156
1235.39	152.457
1238.28	76.4844
1241.17	102.062
1244.07	221.027
1246.96	106.922
1249.85	79.7969
1252.74	150.57
1255.64	211.285
1258.53	202.164
1261.42	188.356
1264.32	140.074
1267.21	302.199
1270.1	128.023
1272.99	237.231
1275.89	180.894
1278.78	167.379
1281.67	276.113
1284.57	114.652
1287.46	113.43
1290.35	195.996
1293.24	29.3359
1296.14	108.414
1299.03	5.43359
