Measurement: Raman, 785 nm, unoriented, Raman Data Processed
Mineral: Eucryptite
Rruff sample: R070248
Ideal chemistry: LiAlSiO_4_
Locality: Bikita, Masvingo (Fort Victoria), Masvingo District, Mashonaland West, Zimbabwe
Source: Michael Scott
Description: Colorless vitreous massive fragments
Raman shift (cm-1)	intensity
109.931	0
112.823	0.477287
115.716	6.46499
118.609	43.1717
121.501	7.98359
124.394	0.230469
127.287	58.3511
130.18	196.05
133.072	501.227
135.965	475.523
138.858	227.593
141.75	224.618
144.643	332.786
147.536	903.663
150.429	811.623
153.321	894.576
156.214	276.953
159.107	203.073
161.999	266.594
164.892	441.766
167.785	406.519
170.677	289.554
173.57	454.747
176.463	156.981
179.356	62.6734
182.248	53.8081
185.141	36.4859
188.034	43.9574
190.926	44.6773
193.819	49.8228
196.712	32.5097
199.604	12.8096
202.497	30.0193
205.39	42.8724
208.282	50.6796
211.175	78.6917
214.068	26.4083
216.961	45.7671
219.853	92.1125
222.746	9.47751
225.639	4.03445
228.531	39.6347
231.424	127.09
234.317	143.054
237.209	145.711
240.102	354.351
242.995	493.021
245.888	196.499
248.78	43.9929
251.673	68.4393
254.566	23.4829
257.458	10.2828
260.351	12.5431
263.244	47.7723
266.137	130.264
269.029	82.9214
271.922	84.3024
274.815	140.435
277.707	236.598
280.6	449.62
283.493	955.868
286.385	725.822
289.278	182.288
292.171	150.19
295.063	228.803
297.956	500.021
300.849	471.621
303.742	97.4228
306.634	12.5059
309.527	1.70358
312.42	11.2584
315.312	8.37787
318.205	2.04788
321.098	3.46567
323.99	2.40124
326.883	10.2808
329.776	9.02612
332.669	25.4464
335.561	54.9159
338.454	89.9223
341.347	139.38
344.239	131.311
347.132	150.805
350.025	186.67
352.918	167.544
355.81	240.461
358.703	367.693
361.596	377.654
364.488	246.575
367.381	225.707
370.274	154.562
373.166	54.6785
376.059	29.0992
378.952	7.04971
381.844	23.5813
384.737	48.2056
387.63	82.8351
390.523	118.721
393.415	194.747
396.308	276.039
399.201	330.768
402.093	218.841
404.986	104.625
407.879	32.5962
410.772	21.023
413.664	18.2695
416.557	7.7702
419.45	35.9915
422.342	87.0635
425.235	148.707
428.128	218.19
431.02	359.409
433.913	532.006
436.806	554.019
439.699	552.901
442.591	633.956
445.484	760.007
448.377	1217.58
451.269	1768.64
454.162	1801.53
457.055	1865.58
459.947	2875.19
462.84	4433.47
465.733	2733.68
468.625	867.766
471.518	461.043
474.411	449.783
477.304	605.309
480.196	941.665
483.089	1395.92
485.982	1254.96
488.874	684.392
491.767	383.028
494.66	195.143
497.553	115.348
500.445	81.4921
503.338	56.0322
506.231	25.1352
509.123	12.2701
512.016	11.1881
514.909	0.54834
517.802	13.4785
520.694	10.0165
523.587	62.2715
526.48	215.871
529.372	408.462
532.265	693.572
535.158	1148.57
538.05	1780.85
540.943	2183
543.836	1758.18
546.729	1435.8
549.621	1890.33
552.514	2408.82
555.407	1956.05
558.299	1000.61
561.192	536.257
564.085	308.78
566.977	177.505
569.87	99.7226
572.763	52.6574
575.655	29.9955
578.548	6.08972
581.441	15.9454
584.333	6.99417
587.226	0.706482
590.119	2.63001
593.012	2.32111
595.904	0.713562
598.797	3.41119
601.69	1.89829
604.582	7.93921
607.475	2.78931
610.368	3.55612
613.26	4.96594
616.153	18.616
619.046	3.02631
621.939	7.5329
624.831	4.24451
627.724	10.3109
630.617	13.4273
633.509	7.18915
636.402	12.7186
639.295	16.3249
642.188	25.1827
645.08	16.3123
647.973	12.9134
650.866	29.4634
653.758	29.3061
656.651	40.6709
659.544	42.8077
662.436	46.4791
665.329	47.0769
668.222	54.834
671.115	64.1488
674.007	88.2385
676.9	135.639
679.793	212.867
682.685	281.654
685.578	290.22
688.471	217.233
691.363	158.05
694.256	117.405
697.149	88.643
700.042	88.3976
702.934	81.1281
705.827	68.1705
708.72	47.9179
711.612	45.2605
714.505	28.1901
717.398	28.6513
720.29	24.5784
723.183	11.6787
726.076	7.4885
728.968	10.5747
731.861	12.6335
734.754	17.9088
737.647	11.6894
740.539	21.3405
743.432	28.3194
746.325	0.258026
749.217	4.82666
752.11	4.68549
755.003	0.463165
757.895	2.58411
760.788	5.7605
763.681	17.552
766.574	17.8035
769.466	18.7319
772.359	7.2453
775.252	14.458
778.144	4.00752
781.037	5.10681
783.93	14.7366
786.822	3.01256
789.715	12.4784
792.608	2.19458
795.501	5.36478
798.393	1.74339
801.286	3.04181
804.179	0.964066
807.071	3.44867
809.964	12.4619
812.857	17.6976
815.75	15.7739
818.642	16.0049
821.535	11.4333
824.428	5.56456
827.32	7.85759
830.213	0.376465
833.106	0.019684
835.998	6.93222
838.891	13.5474
841.784	4.58784
844.677	8.49316
847.569	0.80159
850.462	3.11026
853.355	3.12578
856.247	7.33827
859.14	0.593033
862.033	1.52202
864.925	0.726776
867.818	2.83891
870.711	7.48814
873.604	1.4743
876.496	2.34335
879.389	2.04945
882.282	8.02266
885.174	18.798
888.067	23.604
890.96	40.2206
893.852	53.1685
896.745	95.5257
899.638	179.679
902.53	363.622
905.423	728.72
908.316	1385.17
911.209	2307.86
914.101	1865.82
916.994	961.884
919.887	600.424
922.779	326.19
925.672	206.26
928.565	153.334
931.457	200.126
934.35	290.582
937.243	272.102
940.136	184.489
943.028	143.978
945.921	194.538
948.814	268.354
951.706	351.979
954.599	539.106
957.492	703.177
960.385	489.816
963.277	326.298
966.17	202.437
969.063	215.189
971.955	333.737
974.848	424.437
977.741	337.218
980.633	279.788
983.526	233.749
986.419	123.39
989.312	54.4807
992.204	22.8704
995.097	4.47992
997.99	21.189
1000.88	15.3391
1003.77	62.2775
1006.67	64.0474
1009.56	64.3948
1012.45	95.7027
1015.35	67.617
1018.24	7.49548
1021.13	1.08972
1024.02	10.3721
1026.92	2.47063
1029.81	5.88359
1032.7	4.07256
1035.6	3.91217
1038.49	3.65553
1041.38	9.85846
1044.27	21.0456
1047.17	11.3125
1050.06	17.1556
1052.95	14.0043
1055.84	12.8647
1058.74	10.0623
1061.63	14.6264
1064.52	14.3559
1067.41	4.42537
1070.31	14.8619
1073.2	12.9923
1076.09	16.0521
1078.98	8.57445
1081.88	27.0347
1084.77	19.9967
1087.66	21.7466
1090.56	22.7556
1093.45	17.8127
1096.34	1.5648
1099.23	11.1766
1102.13	8.69234
1105.02	12.6862
1107.91	12.0742
1110.81	7.5766
1113.7	2.91536
1116.59	2.31567
1119.48	6.72331
1122.38	11.6697
1125.27	20.8701
1128.16	11.2219
1131.05	13.9555
1133.95	9.21286
1136.84	0.126999
1139.73	6.25589
1142.62	5.1227
1145.52	4.29442
1148.41	13.541
1151.3	17.4418
1154.19	10.9584
1157.09	8.4525
1159.98	1.40967
1162.87	9.72601
1165.77	19.9083
1168.66	16.628
1171.55	13.987
1174.44	0.094971
1177.34	21.7787
1180.23	14.0968
1183.12	16.7988
1186.02	8.19412
1188.91	7.98654
1191.8	16.1913
1194.69	10.7404
1197.59	9.98918
1200.48	0.358276
1203.37	13.4937
1206.26	11.8512
1209.16	13.322
1212.05	12.7934
1214.94	14.2815
1217.84	12.7509
1220.73	8.94409
1223.62	6.97833
1226.51	4.73044
1229.41	5.33643
1232.3	0
