Measurement: Raman, 780 nm, unoriented, Raman Data Processed
Mineral: Eudidymite
Rruff sample: R060383
Ideal chemistry: Na_2_Be_2_Si_6_O_15_H_2_O
Locality: Mount Malosa, Zomba District, Malawi
Source: Herb Obodda
Description: Colorless to tan micaceous book
Measured chemistry: Na_1.00_Be_1.00_Si_3.00_O_7_(OH) ; Be not measured but estimated by stoichiometry.
Raman shift (cm-1)	intensity
154.245	0
157.137	2.73285
160.03	0.34314
162.923	3.56042
165.816	8.98883
168.708	11.1044
171.601	28.4774
174.494	29.1045
177.386	22.8138
180.279	27.8535
183.172	39.8983
186.065	55.0778
188.957	72.5182
191.85	76.2537
194.743	66.7036
197.635	46.4628
200.528	42.02
203.421	51.5225
206.313	76.7087
209.206	69.3475
212.099	96.8771
214.992	121.418
217.884	136.37
220.777	156.494
223.67	197.448
226.562	257.414
229.455	352.362
232.348	442.525
235.24	339.393
238.133	160.134
241.026	67.0219
243.918	31.4956
246.811	16.2733
249.704	4.52325
252.597	9.25043
255.489	4.54456
258.382	9.7981
261.275	10.2711
264.167	13.2335
267.06	14.8649
269.953	24.321
272.846	21.7341
275.738	14.3838
278.631	0.74054
281.524	8.62158
284.416	8.85785
287.309	2.26379
290.202	6.63812
293.094	10.7011
295.987	22.1824
298.88	52.9613
301.772	74.1804
304.665	110.834
307.558	161.8
310.45	209.761
313.343	298.886
316.236	336.41
319.129	205.031
322.021	100.331
324.914	61.5604
327.807	58.0331
330.699	79.5712
333.592	73.2746
336.485	31.6073
339.377	11.9189
342.27	11.3254
345.163	26.4813
348.056	62.82
350.948	93.6852
353.841	128.233
356.734	187.719
359.626	262.479
362.519	385.134
365.412	583.783
368.305	510.637
371.197	229.786
374.09	109.336
376.983	56.6376
379.875	22.6246
382.768	12.1716
385.661	13.7014
388.553	12.8984
391.446	9.95941
394.339	17.764
397.231	19.1224
400.124	35.2226
403.017	45.9509
405.909	26.3826
408.802	1.31427
411.695	5.68957
414.588	4.63806
417.48	4.65814
420.373	3.39661
423.266	2.61389
426.158	0.105835
429.051	9.63892
431.944	23.807
434.837	36.2275
437.729	48.2587
440.622	73.3722
443.515	103.663
446.407	139.38
449.3	150.418
452.193	109.009
455.085	63.5077
457.978	40.4028
460.871	37.2216
463.764	46.6305
466.656	57.1891
469.549	70.2653
472.442	77.202
475.334	104.686
478.227	157.388
481.12	122.161
484.012	56.3558
486.905	41.7982
489.798	52.9069
492.69	87.9684
495.583	166.407
498.476	268.918
501.369	362.321
504.261	500.35
507.154	723.392
510.047	1160.58
512.939	1668.37
515.832	1287.45
518.725	553.923
521.617	248.417
524.51	132.873
527.403	89.5607
530.296	60.4832
533.188	31.2363
536.081	14.222
538.974	6.33826
541.866	1.51984
544.759	5.6192
547.652	5.67944
550.544	3.6275
553.437	1.93652
556.33	8.60065
559.222	18.6929
562.115	35.6209
565.008	51.0404
567.901	78.0847
570.793	127.934
573.686	196.397
576.579	246.735
579.471	208.291
582.364	126.747
585.257	75.2896
588.149	42.9022
591.042	29.8399
593.935	23.5551
596.828	18.4145
599.72	12.3033
602.613	12.7493
605.506	8.37006
608.398	6.6051
611.291	5.85754
614.184	4.5643
617.077	0.377716
619.969	3.84122
622.862	7.05139
625.755	6.8544
628.647	14.7781
631.54	8.0907
634.433	11.9586
637.325	4.31192
640.218	5.49332
643.111	2.24106
646.004	0.927216
648.896	0.436981
651.789	4.33783
654.682	2.11658
657.574	2.88651
660.467	2.51349
663.36	1.28162
666.252	1.9957
669.145	1.08133
672.038	3.74927
674.931	1.20657
677.823	8.86948
680.716	10.4313
683.609	10.9662
686.501	14.1921
689.394	20.1255
692.287	24.2865
695.179	21.8596
698.072	16.8413
700.965	13.2359
703.857	13.9641
706.75	10.1861
709.643	13.8386
712.535	6.14688
715.428	5.33875
718.321	3.41354
721.214	4.12357
724.106	1.95352
726.999	1.6239
729.892	0.512512
732.784	0.997162
735.677	0.368134
738.57	0.067413
741.462	2.0101
744.355	0.611267
747.248	3.81723
750.141	3.08218
753.033	1.29227
755.926	1.75302
758.819	5.81152
761.711	6.95364
764.604	10.0992
767.497	15.7135
770.389	14.7657
773.282	23.8955
776.175	26.2113
779.068	26.4838
781.96	22.3096
784.853	13.8735
787.746	9.43182
790.638	4.39172
793.531	3.29666
796.424	0.687469
799.317	2.00974
802.209	3.72965
805.102	4.92767
807.995	4.91693
810.887	11.8059
813.78	10.0525
816.673	13.1329
819.565	7.86276
822.458	5.53519
825.351	7.62167
828.244	4.12909
831.136	0.31424
834.029	0.011658
836.922	0.981262
839.814	3.45886
842.707	4.77743
845.6	2.43103
848.492	1.90787
851.385	2.65668
854.278	3.98645
857.17	5.79495
860.063	5.9147
862.956	5.21832
865.849	9.80203
868.741	6.93619
871.634	11.7194
874.527	6.81726
877.419	6.97665
880.312	3.99316
883.205	3.34683
886.097	5.888
888.99	4.33911
891.883	6.53018
894.775	1.04681
897.668	1.0622
900.561	2.72366
903.454	2.3985
906.346	0.483398
909.239	0.187225
912.132	2.36163
915.024	2.42828
917.917	4.26422
920.81	4.16461
923.702	5.81421
926.595	1.00586
929.488	3.54721
932.381	3.983
935.273	2.09253
938.166	2.81992
941.059	2.4946
943.951	1.83026
946.844	1.33701
949.737	5.86972
952.63	5.01935
955.522	3.08154
958.415	2.93579
961.308	1.22186
964.2	0.988953
967.093	1.53525
969.986	3.02164
972.878	2.9418
975.771	4.92087
978.664	5.68131
981.557	6.75369
984.449	5.80045
987.342	10.165
990.235	11.7571
993.127	12.6372
996.02	18.9034
998.913	24.163
1001.8	27.7714
1004.7	26.4807
1007.59	24.5558
1010.48	25.4633
1013.38	24.9567
1016.27	18.0252
1019.16	13.9758
1022.05	12.2458
1024.95	8.1391
1027.84	7.24356
1030.73	12.4436
1033.62	13.0981
1036.52	16.1328
1039.41	15.5729
1042.3	14.7959
1045.2	16.1608
1048.09	18.2543
1050.98	14.3578
1053.87	9.91028
1056.77	3.98297
1059.66	3.41943
1062.55	4.4307
1065.44	6.96146
1068.34	1.51123
1071.23	2.22803
1074.12	0.573151
1077.02	0.164612
1079.91	1.27353
1082.8	2.49069
1085.69	6.60114
1088.59	12.2946
1091.48	16.2622
1094.37	25.1621
1097.26	35.2773
1100.16	51.4992
1103.05	68.4377
1105.94	73.9307
1108.84	83.6728
1111.73	94.3758
1114.62	122.079
1117.51	156.384
1120.41	199.397
1123.3	250.075
1126.19	275.601
1129.08	233.561
1131.98	153.077
1134.87	103.069
1137.76	70.6988
1140.65	56.5502
1143.55	47.2007
1146.44	40.3209
1149.33	24.3751
1152.23	15.5692
1155.12	11.0991
1158.01	6.40997
1160.9	6.54831
1163.8	0.492157
1166.69	1.54742
1169.58	0.239868
1172.47	1.45413
1175.37	1.23901
1178.26	1.93924
1181.15	2.82492
1184.05	1.65918
1186.94	3.49393
1189.83	2.00577
1192.72	4.19669
1195.62	5.83139
1198.51	8.37769
1201.4	6.93164
1204.29	9.38116
1207.19	7.23236
1210.08	10.9866
1212.97	7.93686
1215.87	9.44067
1218.76	8.96643
1221.65	8.017
1224.54	6.41208
1227.44	8.27002
1230.33	4.69611
1233.22	3.29794
1236.11	8.1705
1239.01	4.25394
1241.9	2.59402
1244.79	2.49655
1247.68	2.89441
1250.58	1.48831
1253.47	1.52783
1256.36	1.79413
1259.26	3.84753
1262.15	4.74265
1265.04	4.59442
1267.93	5.03742
1270.83	5.81125
1273.72	4.18658
1276.61	6.38071
1279.5	1.13345
1282.4	0.824158
