Measurement: Raman, 780 nm, unoriented, Raman Data Processed
Mineral: Eudialyte
Rruff sample: R060206
Ideal chemistry: Na_15_Ca_6_Fe_3_Zr_3_Si(Si_25_O_73_)(O,OH,H_2_O)_3_(Cl,OH)_2_
Locality: Desourdy Quarry, Mont Saint-Hilaire, Rouville County, Quebec, Canada
Source: Royal Ontario Museum
Description: Yellowish-brown gemmy fragment
Measured chemistry: (Na_13.12_Ca_1.62_K_0.26_)_Σ=15_(Ca_4.47_Mn_1.00_Ce_0.32_La_0.21_)_Σ=6_(Fe_2.91_Mn_0.09_)_Σ=3_Zr_3.00_(Si_0.85_Nb_0.15_)_Σ=1_Si_25.00_O_73_((OH)_2.70_O_0.30_)_Σ=3_(Cl_1.20_(OH)_0.80_)_Σ=2_
Raman shift (cm-1)	intensity
144.86	0
147.753	5.41382
150.645	3.27478
153.538	5.92835
156.431	0.936859
159.323	1.24454
162.216	4.20599
165.109	11.6059
168.002	16.3839
170.894	26.4475
173.787	45.6473
176.68	70.5084
179.572	99.2798
182.465	135.795
185.358	174.907
188.25	216.857
191.143	265.622
194.036	316.072
196.929	370.271
199.821	416.193
202.714	435.236
205.607	427.475
208.499	394.838
211.392	343.99
214.285	285.527
217.178	223.943
220.07	171.826
222.963	129.839
225.856	97.9011
228.748	74.5626
231.641	58.5322
234.534	44.1724
237.426	26.6562
240.319	14.0812
243.212	7.38849
246.105	2.97845
248.997	4.67679
251.89	3.82272
254.783	4.36575
257.675	3.54394
260.568	0.839325
263.461	6.25073
266.353	14.0092
269.246	27.8579
272.139	38.3484
275.031	43.7847
277.924	44.4354
280.817	43.6006
283.71	47.3731
286.602	54.2702
289.495	58.7604
292.388	65.9838
295.28	71.8757
298.173	72.947
301.066	73.6895
303.959	76.8729
306.851	72.3286
309.744	63.312
312.637	47.9579
315.529	38.0198
318.422	23.3411
321.315	14.9022
324.207	19.7005
327.1	28.1727
329.993	39.7278
332.885	51.3232
335.778	56.5027
338.671	56.0231
341.563	48.1158
344.456	42.574
347.349	38.9363
350.242	33.4196
353.134	33.1688
356.027	32.2008
358.92	29.3311
361.812	26.3266
364.705	21.2402
367.598	14.52
370.49	11.5942
373.383	11.8992
376.276	10.2518
379.169	12.4857
382.061	18.7285
384.954	28.9024
387.847	42.8341
390.739	54.2408
393.632	55.7939
396.525	55.143
399.418	48.8964
402.31	40.6212
405.203	34.0925
408.096	25.7234
410.988	20.8284
413.881	15.1569
416.774	15.0662
419.666	8.47321
422.559	4.68944
425.452	0.605591
428.344	3.98434
431.237	6.49606
434.13	4.68301
437.023	0.157028
439.915	5.49478
442.808	10.7995
445.701	11.3513
448.593	12.5578
451.486	12.3975
454.379	14.6754
457.272	16.6991
460.164	18.7666
463.057	18.5919
465.95	18.527
468.842	18.709
471.735	17.346
474.628	17.9859
477.52	13.5124
480.413	8.30926
483.306	5.74097
486.199	2.06039
489.091	0.881195
491.984	1.83025
494.877	2.34189
497.769	2.0735
500.662	8.58423
503.555	16.7662
506.447	20.0497
509.34	23.687
512.233	25.1643
515.125	27.2599
518.018	32.6037
520.911	39.8913
523.804	49.2333
526.696	55.2353
529.589	58.8948
532.482	65.4792
535.375	77.7547
538.267	92.1586
541.16	105.552
544.053	110.364
546.945	117.904
549.838	144.117
552.731	188.793
555.623	248.578
558.516	299.346
561.409	305.217
564.302	309.523
567.194	357.581
570.087	350.065
572.98	236.165
575.872	126.307
578.765	66.8463
581.658	34.9557
584.55	13.2211
587.443	0.910278
590.336	4.08716
593.228	0.392014
596.121	9.34993
599.014	22.361
601.907	41.8056
604.799	62.5603
607.692	81.6089
610.585	96.1111
613.477	97.0938
616.37	87.7906
619.263	76.5229
622.155	68.5318
625.048	69.1102
627.941	66.454
630.833	56.9258
633.726	41.2597
636.619	26.7231
639.512	17.5475
642.404	12.5417
645.297	3.47049
648.19	2.19142
651.082	4.2178
653.975	5.68173
656.868	3.17658
659.76	2.80135
662.653	0.729584
665.546	3.90273
668.439	8.04817
671.331	15.7356
674.224	27.0471
677.117	37.8208
680.009	52.5327
682.902	67.3332
685.795	80.4315
688.688	95.4615
691.58	115.32
694.473	140.594
697.366	171.337
700.258	198.722
703.151	217.025
706.044	221.859
708.936	212.935
711.829	186.739
714.722	149.555
717.615	123.853
720.507	115.883
723.4	129.696
726.293	150.563
729.185	176.829
732.078	206.125
734.971	229.033
737.863	247.403
740.756	255.52
743.649	251.26
746.542	227.545
749.434	203.368
752.327	182.999
755.22	170.118
758.112	159.394
761.005	145.919
763.898	128.632
766.79	107.492
769.683	87.6823
772.576	69.2416
775.468	51.8783
778.361	38.7629
781.254	27.9006
784.147	21.5891
787.039	17.5771
789.932	14.2747
792.825	9.08643
795.717	4.57706
798.61	1.03957
801.503	3.89828
804.395	5.03787
807.288	2.63625
810.181	0.712135
813.074	3.48791
815.966	4.78838
818.859	7.89908
821.752	8.4791
824.644	6.93211
827.537	5.30765
830.43	4.50204
833.322	4.90516
836.215	3.90134
839.108	2.8242
842.001	2.75149
844.893	2.6309
847.786	2.18722
850.679	0.895672
853.571	0.39867
856.464	0.832161
859.357	0.869209
862.25	0.151752
865.142	1.2614
868.035	1.55497
870.928	1.26921
873.82	0.047134
876.713	1.24596
879.606	1.48181
882.498	3.4683
885.391	6.28526
888.284	11.8076
891.177	15.4585
894.069	21.7388
896.962	27.0589
899.855	31.8727
902.747	40.573
905.64	45.5282
908.533	51.0675
911.425	51.4975
914.318	50.4663
917.211	51.2386
920.104	54.2579
922.996	63.7525
925.889	76.9612
928.782	88.1802
931.674	103.158
934.567	109.078
937.46	107.184
940.352	97.955
943.245	85.6788
946.138	70.9348
949.03	60.2254
951.923	49.7808
954.816	38.5079
957.709	29.5755
960.601	17.168
963.494	10.0294
966.387	4.07953
969.279	3.88782
972.172	0.6931
975.065	0.713104
977.957	1.76059
980.85	1.64592
983.743	0.888901
986.636	6.05939
989.528	13.265
992.421	24.2375
995.314	35.9509
998.206	43.1516
1001.1	47.0685
1003.99	47.8197
1006.88	46.8549
1009.78	44.3829
1012.67	46.1004
1015.56	46.5121
1018.46	48.9923
1021.35	54.6761
1024.24	57.5668
1027.13	57.4307
1030.03	55.3964
1032.92	48.6888
1035.81	37.5008
1038.7	27.384
1041.6	17.3055
1044.49	7.99922
1047.38	1.29636
1050.28	1.29192
1053.17	6.71195
1056.06	15.1407
1058.95	31.5016
1061.85	58.9522
1064.74	92.6466
1067.63	141.745
1070.52	153.147
1073.42	148.715
1076.31	134.083
1079.2	112.748
1082.1	90.6886
1084.99	77.6617
1087.88	68.117
1090.77	62.872
1093.66	57.2333
1096.56	48.4369
1099.45	39.1426
1102.34	25.354
1105.24	15.4522
1108.13	7.26881
1111.02	1.90208
1113.91	0.837944
1116.81	3.22173
1119.7	0.164574
1122.59	0.534294
1125.48	0.161667
1128.38	0.649323
1131.27	4.58899
1134.16	4.34832
1137.06	5.49339
1139.95	6.69862
1142.84	5.90512
1145.73	5.3326
1148.63	8.44028
1151.52	8.77928
1154.41	10.3622
1157.31	8.88103
1160.2	7.04482
1163.09	8.02902
1165.98	8.02999
1168.88	9.86249
1171.77	6.98325
1174.66	4.00124
1177.55	5.48496
1180.45	2.41395
1183.34	2.01944
1186.23	1.68737
1189.12	0.210831
1192.02	1.67664
1194.91	0.436386
1197.8	1.17757
1200.69	0.273041
1203.59	1.30052
1206.48	1.59544
1209.37	1.45813
1212.27	3.87514
1215.16	6.30048
1218.05	9.43993
1220.94	12.665
1223.84	15.312
1226.73	19.0605
1229.62	25.353
1232.52	30.5555
1235.41	33.6411
1238.3	39.0204
1241.19	41.7969
1244.09	43.1167
1246.98	41.5017
1249.87	44.1906
1252.76	42.1303
1255.66	40.6231
1258.55	39.2521
1261.44	38.0224
1264.34	33.2292
1267.23	30.1215
1270.12	23.0766
1273.01	19.465
1275.91	13.0858
1278.8	9.17752
1281.69	2.25024
1284.58	0.162872
