Measurement: Raman, 532 nm, unoriented, Raman Data Processed
Mineral: Eudialyte
Rruff sample: R060035
Ideal chemistry: Na_15_Ca_6_Fe_3_Zr_3_Si(Si_25_O_73_)(O,OH,H_2_O)_3_(Cl,OH)_2_
Locality: Chibini, Kola Peninsula, Russia
Source: University of Arizona Mineral Museum
Description: Deep pink coarsely crystalline
Measured chemistry: (Na_14.86_K_0.14_)_Σ=15_Ca_6.00_(Fe_1.52_Mn_1.48_)_Σ=3_(Zr_2.82_Ti_0.18_)_Σ=3_(Si_0.93_Nb_0.07_)_Σ=1_(Si_25.00_O_73_)((OH)_1.01_(H_2_O)_1.99_)_Σ=3_(Cl_1.65_(OH)_0.35_)_Σ=2_
Raman shift (cm-1)	intensity
167.479	0
170.371	0.011719
173.264	1.52734
176.157	4.31097
179.049	6.43988
181.942	11.9494
184.835	17.1293
187.728	26.4183
190.62	34.7389
193.513	41.0814
196.406	47.8754
199.298	53.6017
202.191	56.3589
205.084	57.67
207.976	54.0153
210.869	49.6822
213.762	39.3126
216.655	31.2832
219.547	24.6449
222.44	17.7291
225.333	11.9776
228.225	6.39542
231.118	4.86215
234.011	0.707489
236.904	0.279999
239.796	3.48114
242.689	0.621155
245.582	1.61014
248.474	0.015839
251.367	1.51102
254.26	0.040039
257.152	3.18359
260.045	5.61829
262.938	9.38852
265.83	11.5125
268.723	13.1742
271.616	15.6064
274.509	18.8744
277.401	20.0906
280.294	20.476
283.187	24.4349
286.079	25.5521
288.972	32.0636
291.865	34.9654
294.757	35.904
297.65	38.6505
300.543	40.249
303.435	42.2909
306.328	44.6792
309.221	45.8493
312.114	43.8634
315.006	42.837
317.899	42.0785
320.792	39.0942
323.684	37.7934
326.577	41.0865
329.47	49.0401
332.363	52.0172
335.255	54.7433
338.148	56.1886
341.041	54.6034
343.933	48.8932
346.826	41.8056
349.719	33.8539
352.611	28.7949
355.504	22.9496
358.397	18.057
361.289	14.1515
364.182	7.45599
367.075	2.02426
369.968	1.68445
372.86	1.5741
375.753	1.43323
378.646	1.47351
381.538	3.18375
384.431	6.22772
387.324	7.95981
390.216	15.2353
393.109	22.656
396.002	27.7066
398.895	31.1113
401.787	31.708
404.68	26.9433
407.573	20.5425
410.465	13.924
413.358	9.89584
416.251	5.66431
419.144	1.16745
422.036	0.301666
424.929	0.008209
427.822	1.19818
430.714	0.7789
433.607	0.763489
436.5	0.634827
439.392	2.14529
442.285	5.79538
445.178	10.092
448.07	11.1867
450.963	11.083
453.856	11.089
456.749	8.94473
459.641	4.61594
462.534	4.6026
465.427	1.66363
468.319	0.535797
471.212	1.54224
474.105	1.27509
476.998	1.80514
479.89	0.854034
482.783	0.720123
485.676	1.1253
488.568	0.919189
491.461	3.13931
494.354	4.41113
497.246	7.01321
500.139	8.97256
503.032	14.6297
505.925	18.7653
508.817	22.8721
511.71	22.9983
514.603	23.3707
517.495	24.6168
520.388	25.0841
523.281	25.6139
526.173	25.09
529.066	25.3387
531.959	25.1997
534.851	25.264
537.744	31.4353
540.637	41.6616
543.53	59.4884
546.422	79.775
549.315	101.646
552.208	131.127
555.1	163.969
557.993	191.712
560.886	204.02
563.779	210.744
566.671	217.664
569.564	192.963
572.457	135.118
575.349	78.1185
578.242	43.3902
581.135	25.4001
584.027	17.7707
586.92	14.5448
589.813	17.7494
592.705	21.9371
595.598	28.0283
598.491	34.3503
601.384	41.4189
604.276	43.523
607.169	43.5738
610.062	42.0053
612.954	36.3837
615.847	30.3973
618.74	23.2169
621.632	15.5078
624.525	13.9493
627.418	11.7732
630.311	9.81424
633.203	8.22501
636.096	3.57443
638.989	0.828217
641.881	2.50983
644.774	2.75171
647.667	3.47757
650.559	4.45175
653.452	0.364502
656.345	1.82822
659.237	3.63672
662.13	6.0184
665.023	9.60693
667.916	13.2442
670.808	16.5485
673.701	22.887
676.594	27.6984
679.486	36.1313
682.379	43.9389
685.272	52.9998
688.165	65.7372
691.057	79.4948
693.95	95.0854
696.843	109.203
699.735	123.309
702.628	132.843
705.521	133.313
708.413	125.304
711.306	106.605
714.199	80.2188
717.092	51.5736
719.984	30.0519
722.877	15.5721
725.77	12.0191
728.662	8.7822
731.555	10.0115
734.448	14.9366
737.341	20.5563
740.233	27.7431
743.126	34.3642
746.019	36.2366
748.911	34.7785
751.804	28.6223
754.697	25.8866
757.589	21.3642
760.482	18.6532
763.375	17.0997
766.268	15.2231
769.16	16.2309
772.053	16.7746
774.946	16.4403
777.838	16.9512
780.731	16.1448
783.624	15.7487
786.516	14.4651
789.409	12.6537
792.302	8.35819
795.194	5.98587
798.087	4.21405
800.98	2.79202
803.872	2.21722
806.765	0.757721
809.658	0.537903
812.551	1.31876
815.443	0.05835
818.336	0.263153
821.229	0.714142
824.121	0.316742
827.014	0.673187
829.907	1.41513
832.799	1.71564
835.692	0.6716
838.585	1.29748
841.478	0.518555
844.37	1.24332
847.263	1.23367
850.156	1.58682
853.048	1.48746
855.941	3.91367
858.834	6.31671
861.726	6.23703
864.619	7.39749
867.512	9.13422
870.405	12.3262
873.297	13.387
876.19	14.083
879.083	11.451
881.975	13.1981
884.868	12.9219
887.761	13.282
890.654	13.9661
893.546	20.4035
896.439	27.817
899.332	37.1305
902.224	48.4657
905.117	58.4821
908.01	67.4093
910.902	72.9652
913.795	78.0151
916.688	83.2777
919.581	86.1653
922.473	87.3483
925.366	81.2675
928.259	73.3122
931.151	61.0316
934.044	53.1414
936.937	48.4101
939.829	44.6909
942.722	43.9823
945.615	42.9361
948.508	40.8521
951.4	37.9524
954.293	33.618
957.186	27.2382
960.078	19.093
962.971	13.0724
965.864	8.69144
968.756	4.50195
971.649	4.34912
974.542	3.10821
977.434	6.62973
980.327	10.3245
983.22	13.5265
986.112	19.8286
989.005	24.3784
991.898	30.7843
994.791	34.7232
997.683	31.8332
1000.58	29.1326
1003.47	24.6645
1006.36	16.4732
1009.25	8.07495
1012.15	3.8833
1015.04	0.713257
1017.93	0.428192
1020.83	1.56213
1023.72	3.42651
1026.61	2.18884
1029.5	0.495514
1032.4	3.1348
1035.29	2.97864
1038.18	3.40677
1041.07	4.11313
1043.97	4.85217
1046.86	6.49576
1049.75	4.55014
1052.64	9.19843
1055.54	11.4528
1058.43	17.6727
1061.32	22.8929
1064.21	30.6089
1067.11	40.1488
1070	49.304
1072.89	54.523
1075.79	61.7858
1078.68	67.0127
1081.57	73.6197
1084.46	78.9806
1087.36	86.5154
1090.25	87.4601
1093.14	89.3349
1096.04	85.7654
1098.93	68.5291
1101.82	52.1192
1104.71	35.4305
1107.61	22.8378
1110.5	15.4898
1113.39	10.1489
1116.28	7.81476
1119.18	6.78851
1122.07	4.98273
1124.96	5.54623
1127.86	6.70444
1130.75	7.44385
1133.64	7.04288
1136.53	6.23438
1139.43	7.58993
1142.32	6.4714
1145.21	3.78861
1148.1	1.71954
1151	1.81152
1153.89	0.025879
1156.78	0.789581
1159.67	0.44519
1162.57	0.921692
1165.46	0.676453
1168.35	1.28787
1171.24	0.607544
1174.14	2.66315
1177.03	1.19321
1179.92	2.52545
1182.82	2.96399
1185.71	3.1944
1188.6	3.84708
1191.49	4.16873
1194.39	4.75452
1197.28	5.82285
1200.17	5.83829
1203.07	6.00977
1205.96	7.39523
1208.85	7.61893
1211.74	6.46899
1214.64	7.32733
1217.53	7.45895
1220.42	4.96982
1223.31	6.28113
1226.21	6.19373
1229.1	5.46634
1231.99	4.98749
1234.88	5.68497
1237.78	4.78409
1240.67	2.68634
1243.56	5.08557
1246.46	4.23657
1249.35	3.73892
1252.24	2.77985
1255.13	1.94006
1258.03	3.19522
1260.92	2.68768
1263.81	1.11194
1266.7	1.53436
1269.6	0.591705
1272.49	2.01199
1275.38	1.78595
1278.28	1.23883
1281.17	0.130157
1284.06	0.610321
