Measurement: Raman, 514 nm, unoriented, Raman Data Processed
Mineral: Eudialyte
Rruff sample: R060206
Ideal chemistry: Na_15_Ca_6_Fe_3_Zr_3_Si(Si_25_O_73_)(O,OH,H_2_O)_3_(Cl,OH)_2_
Locality: Desourdy Quarry, Mont Saint-Hilaire, Rouville County, Quebec, Canada
Source: Royal Ontario Museum
Description: Yellowish-brown gemmy fragment
Measured chemistry: (Na_13.12_Ca_1.62_K_0.26_)_Σ=15_(Ca_4.47_Mn_1.00_Ce_0.32_La_0.21_)_Σ=6_(Fe_2.91_Mn_0.09_)_Σ=3_Zr_3.00_(Si_0.85_Nb_0.15_)_Σ=1_Si_25.00_O_73_((OH)_2.70_O_0.30_)_Σ=3_(Cl_1.20_(OH)_0.80_)_Σ=2_
Raman shift (cm-1)	intensity
99.644	0
103.82	9.101
107.995	56.171
112.168	328.208
116.339	819.718
120.508	985.615
124.675	1001.67
128.84	833.085
133.003	956.139
137.164	1833
141.323	1815.19
145.48	1591.91
149.635	1218.86
153.788	942.927
157.939	772.474
162.088	794.42
166.235	832.677
170.38	824.186
174.523	983.842
178.664	1338.23
182.803	1854.51
186.94	2555.61
191.076	3509.71
195.209	4640.23
199.34	5691.95
203.47	6796.44
207.597	7014.47
211.722	6085.94
215.846	4850.93
219.967	3618.77
224.087	2525.15
228.204	1732.85
232.32	1143.88
236.434	644.236
240.545	389.936
244.655	168.967
248.763	14.682
252.869	35.976
256.973	92.935
261.075	100.17
265.175	389.883
269.273	800.909
273.369	1232.9
277.463	1539.96
281.556	1790.24
285.646	2023.42
289.734	2285.06
293.821	2627.2
297.905	2861.4
301.988	2969.94
306.069	3115.88
310.147	3174.12
314.224	2969.27
318.299	2436.92
322.372	2063.64
326.443	2272.28
330.512	2849.09
334.579	3302.11
338.645	3644.53
342.708	3313.38
346.769	3036.94
350.829	2640.56
354.887	2457.88
358.942	2293.86
362.996	2256.51
367.048	1932.78
371.098	1825.62
375.146	1657.96
379.192	1620.77
383.236	1750.99
387.279	2164.6
391.319	2805.6
395.358	2915.02
399.394	2817.85
403.429	2409.11
407.462	2021.82
411.493	1782.88
415.522	1592.93
419.549	1437.97
423.575	991.527
427.598	732.582
431.619	336.323
435.639	291.715
439.657	153.682
443.673	330.177
447.687	179.188
451.699	28.654
455.709	58.566
459.717	98.765
463.724	45.282
467.728	97.19
471.731	197.695
475.732	61.052
479.731	110.013
483.728	137.714
487.723	175.31
491.716	176.819
495.708	57.157
499.697	90.052
503.685	355.317
507.671	586.988
511.655	792.128
515.637	1018.75
519.617	1314.85
523.596	1775.44
527.572	2008.46
531.547	2240.11
535.52	2541.2
539.491	2817.81
543.46	3417.05
547.427	3944.22
551.393	4876.59
555.356	6837.19
559.318	9519.09
563.278	9611.24
567.236	10613.5
571.192	11025.5
575.147	6667.23
579.099	3154.53
583.05	1781.45
586.999	926.989
590.946	642.024
594.891	662.534
598.834	881.771
602.776	1521.66
606.715	2297.23
610.653	2922.32
614.589	3069.38
618.523	2572.55
622.456	2144.52
626.386	2150.65
630.315	2146.53
634.242	2107.41
638.167	1270.16
642.09	926.11
646.012	788.051
649.931	671.732
653.849	645.251
657.765	740.242
661.679	941.988
665.592	1119.96
669.502	1414.22
673.411	1695.53
677.318	2225.89
681.223	2701.58
685.126	3244.81
689.028	3700.39
692.927	4274.06
696.825	5103.95
700.721	6340.83
704.616	7672.32
708.508	8918.17
712.399	9080.85
716.288	7501.8
720.175	6352.02
724.06	6339.53
727.944	7240.61
731.825	8787.77
735.705	10334.9
739.584	11392.1
743.46	12239.3
747.334	11866.5
751.207	10743.8
755.078	10411.2
758.947	10358.6
762.815	9956.06
766.68	9323.68
770.544	8031.51
774.406	6989.71
778.267	5958.43
782.125	4847.72
785.982	3999.68
789.837	3298.4
793.69	2683.75
797.542	2093.85
801.391	1541.76
805.239	1300.78
809.085	1234.88
812.93	1241.81
816.772	1505.98
820.613	1723.29
824.452	1598.72
828.29	1278.28
832.125	909.963
835.959	806.771
839.791	662.702
843.621	368.759
847.45	218.939
851.277	78.765
855.102	211.728
858.925	269.582
862.746	280.639
866.566	268.951
870.384	199.591
874.2	106.352
878.015	0.798
881.828	41.576
885.639	283.054
889.448	551.684
893.256	924.468
897.061	1330.44
900.865	1739.56
904.668	2163.87
908.468	2784.44
912.267	3161.24
916.064	3377.32
919.86	3744.72
923.653	4448.44
927.445	5490.45
931.236	6502.76
935.024	7515.23
938.811	7507.86
942.596	6970.61
946.379	6393.49
950.161	5716.5
953.94	4869.61
957.719	4362.82
961.495	3856.13
965.27	3598.53
969.043	3538.03
972.814	3518.6
976.583	3615.25
980.351	3519.98
984.117	3662.78
987.882	3916.67
991.644	4465.64
995.405	5399.72
999.165	5883.9
1002.92	6164.16
1006.68	6318.79
1010.43	6185.47
1014.18	6180.71
1017.93	6182.14
1021.68	6098.1
1025.43	6036.29
1029.18	6027.64
1032.92	5771
1036.66	5267.73
1040.4	4794.29
1044.14	4173.83
1047.88	3772.92
1051.62	3630.6
1055.35	3933.14
1059.08	4355.09
1062.81	5248.85
1066.54	6657.63
1070.27	8792.9
1073.99	8598.63
1077.72	7949.21
1081.44	6891.07
1085.16	6010.38
1088.88	5579.48
1092.59	5348.87
1096.31	4938.29
1100.02	4428.33
1103.73	3566.08
1107.44	2472.27
1111.15	1840.14
1114.86	1301.99
1118.57	1006.37
1122.27	894.292
1125.97	761.733
1129.67	673.337
1133.37	611.239
1137.07	481.555
1140.76	400.891
1144.45	305.511
1148.15	168.592
1151.84	87.537
1155.53	46.06
1159.21	23.209
1162.9	45.857
1166.58	35.257
1170.26	68.381
1173.94	101.618
1177.62	111.049
1181.3	36.75
1184.97	18.98
1188.65	18.822
1192.32	47.515
1195.99	1.85
1199.66	60.902
1203.33	80.989
1206.99	35.71
1210.65	110.532
1214.32	106.522
1217.98	6.137
1221.64	45.062
1225.29	20.739
1228.95	59.557
1232.6	109.476
1236.26	46.452
1239.91	99.43
1243.56	32.17
1247.2	90.837
1250.85	98.264
1254.49	38.337
1258.13	42.44
1261.78	38.019
1265.41	147.453
1269.05	128.112
1272.69	99.92
1276.32	78.054
1279.95	50.933
1283.59	68.725
1287.21	96.214
1290.84	73.17
1294.47	65.315
1298.09	65.44
1301.72	89.764
1305.34	47.263
1308.96	69.994
1312.58	56.855
1316.19	46.194
1319.81	5.208
1323.42	62.587
1327.03	61.339
1330.64	101.945
1334.25	102.85
1337.86	11.706
1341.46	4.235
1345.07	68.762
1348.67	87.335
1352.27	0.943
1355.87	130.975
1359.46	114.306
1363.06	121.93
1366.65	133.775
1370.25	94.367
1373.84	103.512
1377.43	27.66
1381.02	81.785
1384.6	95.966
1388.18	104.339
1391.77	78.634
1395.35	134.361
1398.93	107.835
1402.51	83.276
1406.08	91.395
1409.66	82.512
1413.23	64.072
1416.8	39.935
1420.37	139.772
1423.94	124.205
1427.51	203.007
1431.08	114
1434.64	144.281
1438.2	80.133
1441.76	138.228
1445.32	56.42
1448.88	188.921
1452.43	106.68
1455.99	152.512
1459.54	191.396
1463.09	209.891
1466.64	186.354
1470.19	177.551
1473.74	221.089
1477.28	254.34
1480.83	220.292
1484.37	101.66
1487.91	94.173
1491.45	108.145
1494.98	56.31
1498.52	97.221
1502.05	77.539
1505.59	69.499
1509.12	151.947
1512.65	108.62
1516.17	152.549
1519.7	102.329
1523.23	51.111
1526.75	113.791
1530.27	68.132
1533.79	95.807
