Measurement: Raman, 532 nm, unoriented, Raman Data Processed
Mineral: Eudialyte
Rruff sample: R060206
Ideal chemistry: Na_15_Ca_6_Fe_3_Zr_3_Si(Si_25_O_73_)(O,OH,H_2_O)_3_(Cl,OH)_2_
Locality: Desourdy Quarry, Mont Saint-Hilaire, Rouville County, Quebec, Canada
Source: Royal Ontario Museum
Description: Yellowish-brown gemmy fragment
Measured chemistry: (Na_13.12_Ca_1.62_K_0.26_)_Σ=15_(Ca_4.47_Mn_1.00_Ce_0.32_La_0.21_)_Σ=6_(Fe_2.91_Mn_0.09_)_Σ=3_Zr_3.00_(Si_0.85_Nb_0.15_)_Σ=1_Si_25.00_O_73_((OH)_2.70_O_0.30_)_Σ=3_(Cl_1.20_(OH)_0.80_)_Σ=2_
Raman shift (cm-1)	intensity
145.593	0
148.968	2.97559
152.343	40.5208
155.718	66.4497
159.092	47.9117
162.467	23.727
165.842	3.77835
169.217	0.466644
172.592	14.704
175.966	28.835
179.341	49.5862
182.716	66.3028
186.091	105.346
189.466	133.001
192.84	172.617
196.215	215.6
199.59	227.865
202.965	228.378
206.34	217.881
209.715	186.837
213.089	147.417
216.464	106.349
219.839	74.167
223.214	46.3144
226.589	27.3714
229.964	13.147
233.338	4.33826
236.713	4.71295
240.088	9.56161
243.463	8.7901
246.838	5.25766
250.212	1.41785
253.587	3.10925
256.962	9.48465
260.337	15.0657
263.712	24.1018
267.086	42.8569
270.461	60.0431
273.836	81.2164
277.211	88.6638
280.586	94.8198
283.961	104.433
287.335	120.368
290.71	135.752
294.085	137.469
297.46	126.12
300.835	118.476
304.209	114.498
307.584	114.073
310.959	106.17
314.334	80.5105
317.709	49.4706
321.084	30.9641
324.458	32.0679
327.833	53.5465
331.208	81.1754
334.583	117.276
337.958	144.681
341.332	172.284
344.707	183.841
348.082	198.761
351.457	186.96
354.832	172.888
358.207	158.697
361.581	146.074
364.956	128.617
368.331	112.971
371.706	100.264
375.08	98.8414
378.455	105.368
381.83	135.593
385.205	159.39
388.58	192.782
391.955	207.297
395.329	186.819
398.704	157.604
402.079	127.72
405.454	102.113
408.829	82.4819
412.204	69.5272
415.578	49.2277
418.953	35.3189
422.328	18.6615
425.703	7.11733
429.078	3.83316
432.452	8.97987
435.827	11.8914
439.202	9.30937
442.577	3.01681
445.952	0.43869
449.327	1.67526
452.701	3.24707
456.076	5.15977
459.451	5.78748
462.826	10.1642
466.201	14.268
469.575	12.1488
472.95	7.7923
476.325	3.48813
479.7	0.591141
483.075	1.03809
486.45	0.626953
489.824	6.16028
493.199	10.8394
496.574	16.2174
499.949	30.8595
503.324	49.5847
506.698	65.6357
510.073	67.0278
513.448	60.1458
516.823	59.2641
520.198	63.2025
523.572	76.2862
526.947	90.1394
530.322	101.935
533.697	106.256
537.072	103.061
540.447	103.384
543.821	109.635
547.196	133.793
550.571	180.49
553.946	256.928
557.321	352.624
560.695	420.138
564.07	473.738
567.445	581.683
570.82	594.73
574.195	348.917
577.569	157.131
580.944	71.4652
584.319	25.275
587.694	3.59303
591.069	3.25467
594.443	14.2868
597.818	37.3802
601.193	71.017
604.568	113.373
607.943	158.126
611.318	182.364
614.692	180.281
618.067	147.204
621.442	103.311
624.817	77.5764
628.192	75.3314
631.567	45.9719
634.941	25.5938
638.316	8.45782
641.691	1.02559
645.066	3.52731
648.441	8.33176
651.815	9.13054
655.19	5.40787
658.565	2.24497
661.94	2.15352
665.315	9.17302
668.689	20.1658
672.064	36.5677
675.439	57.546
678.814	86.9594
682.189	120.294
685.564	166.168
688.938	187.31
692.313	234.788
695.688	292.253
699.063	362.031
702.438	411.201
705.812	425.267
709.187	412.551
712.562	345.1
715.937	256.863
719.312	195.181
722.687	184.178
726.061	204.482
729.436	240.105
732.811	274.862
736.186	305.714
739.561	325.109
742.936	335.848
746.31	318.082
749.685	281.088
753.06	236.204
756.435	215.154
759.81	195.703
763.184	169.333
766.559	142.529
769.934	112.181
773.309	82.4134
776.684	56.8509
780.058	34.587
783.433	21.822
786.808	12.6817
790.183	5.49701
793.558	1.41873
796.933	4.19116
800.307	3.94707
803.682	4.0258
807.057	3.05063
810.432	8.67245
813.807	18.7492
817.181	25.9415
820.556	29.7688
823.931	29.9256
827.306	25.4173
830.681	20.9664
834.056	18.005
837.43	14.66
840.805	12.3259
844.18	8.88551
847.555	6.53571
850.93	3.37132
854.304	1.53131
857.679	0.638603
861.054	0.630463
864.429	1.96299
867.804	2.22958
871.178	3.5124
874.553	3.25562
877.928	2.52012
881.303	0.564957
884.678	4.30591
888.053	10.7875
891.427	22.1714
894.802	34.7216
898.177	49.0057
901.552	64.6736
904.927	81.3469
908.302	93.6559
911.676	98.2059
915.051	86.9326
918.426	82.3937
921.801	83.1777
925.176	98.7339
928.55	125.773
931.925	158.285
935.3	186.088
938.675	185.56
942.05	167.876
945.424	138.812
948.799	120.29
952.174	105.717
955.549	88.0315
958.924	60.2296
962.298	36.0291
965.673	24.7102
969.048	18.9247
972.423	16.799
975.798	14.93
979.173	12.2283
982.547	9.77744
985.922	14.1286
989.297	32.2241
992.672	70.8819
996.047	107.617
999.421	130.059
1002.8	132.631
1006.17	115.289
1009.55	94.3854
1012.92	79.1727
1016.3	72.055
1019.67	71.2364
1023.04	80.4984
1026.42	90.8111
1029.8	99.1062
1033.17	95.1554
1036.54	73.0837
1039.92	41.5869
1043.29	12.2906
1046.67	5.27307
1050.04	6.52927
1053.42	9.86456
1056.79	39.1451
1060.17	100.992
1063.54	182.638
1066.92	294.226
1070.29	394.129
1073.67	425.983
1077.04	404.437
1080.42	333.606
1083.79	260.299
1087.17	219.655
1090.54	194.309
1093.92	176.936
1097.29	152.71
1100.67	119.543
1104.04	88.2389
1107.42	49.7415
1110.79	13.2322
1114.16	0.874405
1117.54	4.85305
1120.91	5.42941
1124.29	3.16284
1127.66	0.443436
1131.04	4.34446
1134.41	9.50609
1137.79	13.7508
1141.16	13.2279
1144.54	17.348
1147.91	15.8037
1151.29	17.1292
1154.66	15.6826
1158.04	14.8602
1161.41	15.9723
1164.79	18.2715
1168.16	19.5567
1171.54	22.3804
1174.91	20.075
1178.29	17.6278
1181.66	16.8454
1185.04	14.338
1188.41	14.9214
1191.79	14.4421
1195.16	14.8012
1198.54	15.3412
1201.91	16.2551
1205.29	17.3548
1208.66	17.4783
1212.04	15.6277
1215.41	15.7272
1218.79	14.4098
1222.16	13.2245
1225.53	12.4009
1228.91	11.2441
1232.28	10.6069
1235.66	9.15558
1239.03	7.33635
1242.41	8.33071
1245.78	7.50495
1249.16	6.35083
1252.53	5.50773
1255.91	5.66261
1259.28	3.75834
1262.66	4.14936
1266.03	3.16394
1269.41	2.46221
1272.78	1.17231
1276.16	0.870564
1279.53	1.05296
1282.91	0.131916
1286.28	0.237949
1289.66	0.038452
1293.03	0.378151
1296.4	0.991325
1299.78	0.074566
1303.15	0.320824
