Measurement: Raman, 532 nm, unoriented, Raman Data Processed
Mineral: Eudialyte
Rruff sample: R050230
Ideal chemistry: Na_15_Ca_6_Fe_3_Zr_3_Si(Si_25_O_73_)(O,OH,H_2_O)_3_(Cl,OH)_2_
Locality: Kipawa alkaline complex, near Sheffield Lake, Villedieu Township, Temiscamingue County, Quebec, Canada
Source: Marcus Origlieri
Description: Massive aggregate of red crystals
Measured chemistry: (Na_14.50_K_0.35_Ca_0.15_)_Σ=15_Ca_6.00_(Fe_1.86_Mn_1.01_Mg_0.13_)_Σ=3_(Zr_2.91_Ti_0.09_)_3_(Si_0.94_Nb_0.06_)_Σ=1.00_(Si_25.00_O_73_)(OH)_1.10_(H_2_O)_1.90_)_Σ=3_(Cl_1.17_(OH)_0.83_)_Σ=2_
Raman shift (cm-1)	intensity
177.634	0
180.527	3.82312
183.42	6.0647
186.312	12.5199
189.205	19.2978
192.098	32.3574
194.991	47.3995
197.883	53.7137
200.776	67.0817
203.669	76.2079
206.561	84.2983
209.454	93.4278
212.347	97.9635
215.239	98.025
218.132	90.5209
221.025	77.5741
223.918	60.1621
226.81	42.4555
229.703	27.3522
232.596	18.7488
235.488	5.19272
238.381	3.96072
241.274	0.47998
244.167	3.23508
247.059	3.3736
249.952	2.93954
252.845	1.76755
255.737	3.32437
258.63	4.0593
261.523	8.33331
264.415	14.8353
267.308	21.4088
270.201	26.6912
273.093	32.0325
275.986	39.0918
278.879	41.7118
281.772	48.365
284.664	41.9809
287.557	40.8893
290.45	40.1105
293.342	38.4339
296.235	38.3282
299.128	40.4631
302.02	36.3835
304.913	36.0156
307.806	34.5884
310.699	31.8208
313.591	34.1886
316.484	32.2541
319.377	37.0852
322.269	42.64
325.162	45.8163
328.055	54.4582
330.947	61.4439
333.84	69.4809
336.733	78.6128
339.625	89.987
342.518	93.061
345.411	94.0545
348.304	87.0537
351.196	76.2678
354.089	69.6037
356.982	57.9605
359.874	45.4019
362.767	30.7089
365.66	20.7507
368.553	10.2936
371.445	4.6394
374.338	0.982666
377.231	7.69113
380.123	6.52893
383.016	5.84772
385.909	2.34741
388.801	5.12723
391.694	13.5165
394.587	22.1118
397.479	30.94
400.372	37.6104
403.265	45.7953
406.158	47.3552
409.05	48.6684
411.943	49.1256
414.836	52.0431
417.728	51.2806
420.621	49.0478
423.514	47.7027
426.406	44.6054
429.299	47.0586
432.192	52.0531
435.085	54.5797
437.977	66.214
440.87	79.1642
443.763	93.4422
446.655	113.264
449.548	127.539
452.441	141.194
455.334	153.654
458.226	150.564
461.119	151.116
464.012	149.747
466.904	144.823
469.797	134.237
472.69	125.1
475.582	115.248
478.475	108.028
481.368	100.364
484.26	95.2354
487.153	90.7822
490.046	88.6728
492.939	73.2412
495.831	47.8293
498.724	18.3828
501.617	3.5929
504.509	13.9286
507.402	12.9412
510.295	4.89356
513.188	14.7729
516.08	43.022
518.973	76.5803
521.866	110.819
524.758	145.592
527.651	168.633
530.544	194.019
533.436	210.265
536.329	212.466
539.222	220.474
542.115	221.971
545.007	222.834
547.9	233.855
550.793	252.413
553.685	276.09
556.578	299.074
559.471	313.741
562.363	308.305
565.256	309.728
568.149	317.056
571.042	296.458
573.934	239.001
576.827	170.424
579.72	107.376
582.612	70.3412
585.505	46.3148
588.398	41.1158
591.29	42.3933
594.183	57.0805
597.076	67.1233
599.968	73.5823
602.861	83.7606
605.754	85.4772
608.646	76.8664
611.539	68.115
614.432	50.2649
617.325	40.6194
620.217	39.0042
623.11	40.2855
626.003	41.264
628.895	39.3695
631.788	30.5596
634.681	22.267
637.573	11.2317
640.466	1.18854
643.359	4.65057
646.252	9.92734
649.144	7.42554
652.037	5.2934
654.93	0.622589
657.822	5.50351
660.715	14.8048
663.608	29.2232
666.5	43.3969
669.393	59.5362
672.286	76.5018
675.179	91.9277
678.071	103.2
680.964	113.886
683.857	127.771
686.75	139.381
689.642	153.294
692.535	164.154
695.428	178.44
698.32	190.062
701.213	196.825
704.106	187.694
706.998	162.545
709.891	123.259
712.784	85.2471
715.677	45.2288
718.569	18.6565
721.462	5.33548
724.355	0.834198
727.247	6.90854
730.14	15.2805
733.033	23.3953
735.925	35.131
738.818	43.6461
741.711	51.5174
744.604	54.8574
747.496	54.1342
750.389	47.367
753.282	38.1988
756.174	33.0438
759.067	26.5862
761.96	22.5017
764.852	19.6722
767.745	17.6793
770.638	15.1181
773.53	10.5197
776.423	10.7894
779.316	8.62454
782.209	6.63437
785.101	2.25812
787.994	2.79236
790.887	1.76178
793.779	2.45087
796.672	1.15936
799.565	2.1239
802.457	5.09735
805.35	1.53479
808.243	2.14685
811.135	2.89136
814.028	1.52167
816.921	7.25574
819.814	4.20197
822.706	6.35931
825.599	3.31238
828.492	1.49799
831.384	0.909302
834.277	4.97815
837.17	2.93103
840.062	7.61707
842.955	6.61798
845.848	2.53449
848.741	1.66894
851.633	2.742
854.526	7.05475
857.419	7.21655
860.311	12.7633
863.204	15.7763
866.097	18.4126
868.99	25.1349
871.882	29.8203
874.775	37.2876
877.668	41.1037
880.56	42.1717
883.453	42.8292
886.346	45.6305
889.238	52.3478
892.131	54.1373
895.024	56.2054
897.917	60.9795
900.809	62.1618
903.702	67.2256
906.595	69.1713
909.487	74.7612
912.38	81.9888
915.273	89.7178
918.165	111.703
921.058	129.852
923.951	146.549
926.843	160.816
929.736	180.364
932.629	186.042
935.522	195.554
938.414	197.269
941.307	214.331
944.2	220.319
947.092	228.569
949.985	226.35
952.878	220.525
955.77	216.454
958.663	202.988
961.556	187.574
964.449	171.78
967.341	146.7
970.234	136.374
973.127	125.202
976.019	113.592
978.912	107.89
981.805	106.343
984.697	99.7164
987.59	93.6189
990.483	88.592
993.375	82.5888
996.268	76.602
999.161	67.9625
1002.05	56.7253
1004.95	48.5468
1007.84	37.4543
1010.73	30.5984
1013.62	18.8497
1016.52	12.5651
1019.41	4.90381
1022.3	0.266357
1025.19	1.35675
1028.09	6.41507
1030.98	6.33932
1033.87	8.10471
1036.77	5.69428
1039.66	4.85132
1042.55	2.17648
1045.44	9.17981
1048.34	15.7152
1051.23	22.6706
1054.12	43.6472
1057.02	67.8974
1059.91	93.1582
1062.8	122.514
1065.69	156.343
1068.59	168.727
1071.48	169.516
1074.37	167.826
1077.26	178.69
1080.16	189.72
1083.05	204.77
1085.94	246.308
1088.84	211.963
1091.73	150.161
1094.62	118.253
1097.51	85.5486
1100.4	59.3407
1103.3	35.0606
1106.19	18.1753
1109.08	11.9597
1111.98	8.35281
1114.87	5.32227
1117.76	2.16028
1120.65	4.30914
1123.55	3.81955
1126.44	1.99255
1129.33	3.48315
1132.22	2.61668
1135.12	3.35591
1138.01	3.9718
1140.9	2.42836
1143.8	2.55043
1146.69	1.06717
1149.58	3.84271
1152.47	0.539703
1155.37	0.429077
1158.26	0.560822
1161.15	2.8797
1164.05	3.35657
1166.94	4.27484
1169.83	3.8436
1172.72	5.61101
1175.62	3.21785
1178.51	2.80922
1181.4	4.23575
1184.29	4.01083
1187.19	4.45911
1190.08	3.18895
1192.97	3.8201
1195.87	3.38046
1198.76	2.19089
1201.65	3.20824
1204.54	1.82863
1207.43	2.80176
1210.33	2.90427
1213.22	2.54788
1216.11	2.03451
1219.01	3.36121
1221.9	1.17902
1224.79	3.10323
1227.68	2.7314
1230.58	3.15089
1233.47	2.62872
1236.36	1.14491
1239.26	0.033417
1242.15	0.999344
1245.04	0.086563
1247.93	1.76732
1250.83	2.15088
1253.72	2.72818
1256.61	1.05452
1259.5	3.49387
1262.4	2.1151
1265.29	1.04901
1268.18	1.23052
1271.08	2.56566
1273.97	3.19318
1276.86	2.30496
1279.75	2.62584
1282.65	1.5681
1285.54	1.74972
1288.43	0.134308
