Measurement: Raman, 532 nm, unoriented, Raman Data Processed
Mineral: Eudidymite
Rruff sample: R060383
Ideal chemistry: Na_2_Be_2_Si_6_O_15_H_2_O
Locality: Mount Malosa, Zomba District, Malawi
Source: Herb Obodda
Description: Colorless to tan micaceous book
Measured chemistry: Na_1.00_Be_1.00_Si_3.00_O_7_(OH) ; Be not measured but estimated by stoichiometry.
Raman shift (cm-1)	intensity
164.317	0
167.21	0.708633
170.102	11.2738
172.995	39.6321
175.888	37.0182
178.78	24.8097
181.673	25.904
184.566	41.6347
187.459	62.1679
190.351	79.2308
193.244	74.0517
196.137	49.6161
199.029	26.4377
201.922	15.561
204.815	15.0206
207.708	14.5351
210.6	2.97156
213.493	2.30709
216.386	4.05234
219.278	10.4824
222.171	21.5601
225.064	38.8844
227.956	75.7981
230.849	131.337
233.742	167.586
236.635	116.391
239.527	52.122
242.42	24.3865
245.313	10.1693
248.205	2.55853
251.098	0.037018
253.991	0.019012
256.884	1.44601
259.776	4.13944
262.669	9.2885
265.562	10.5808
268.454	38.8086
271.347	20.1171
274.24	17.2916
277.132	7.91947
280.025	1.0403
282.918	2.55691
285.81	2.49912
288.703	1.40069
291.596	0.554283
294.489	5.30953
297.381	10.9202
300.274	26.5301
303.167	56.2512
306.059	102.478
308.952	162.472
311.845	257.48
314.738	406.052
317.63	415.661
320.523	221.486
323.416	113.162
326.308	76.2869
329.201	68.1706
332.094	73.5399
334.986	58.4055
337.879	33.254
340.772	23.7955
343.665	23.2394
346.557	26.0867
349.45	33.344
352.343	54.5739
355.235	86.9498
358.128	135.749
361.021	226.099
363.913	429.314
366.806	647.571
369.699	439.036
372.592	178.541
375.484	92.1956
378.377	51.9418
381.27	31.2084
384.162	18.8966
387.055	13.6258
389.948	9.84337
392.841	7.77436
395.733	6.68901
398.626	6.01734
401.519	9.36041
404.411	10.3294
407.304	3.9481
410.197	0.73563
413.089	0.244278
415.982	1.45189
418.875	2.91412
421.767	1.54234
424.66	1.01067
427.553	0.659111
430.446	2.58708
433.338	8.2594
436.231	15.014
439.124	23.8361
442.017	40.7463
444.909	65.346
447.802	88.3826
450.695	86.4731
453.587	52.5911
456.48	26.1619
459.373	13.4717
462.265	10.1441
465.158	10.1763
468.051	16.4882
470.943	23.2607
473.836	27.8575
476.729	49.2761
479.622	76.3822
482.514	42.9609
485.407	17.4646
488.3	13.0944
491.192	14.5157
494.085	24.1139
496.978	38.1754
499.87	70.1201
502.763	122.408
505.656	213.688
508.549	402.338
511.441	742.77
514.334	1021.04
517.227	598.326
520.119	243.419
523.012	116.658
525.905	69.7559
528.798	46.1016
531.69	28.7822
534.583	16.6564
537.476	8.31411
540.368	13.0644
543.261	1.93534
546.154	1.13239
549.047	1.72296
551.939	3.05739
554.832	1.51204
557.725	1.59017
560.617	6.50237
563.51	15.4403
566.403	31.7773
569.295	60.7026
572.188	111.18
575.081	180.042
577.973	212.947
580.866	153.262
583.759	90.229
586.652	54.8535
589.544	37.0989
592.437	26.7355
595.33	21.8541
598.222	18.1635
601.115	16.2315
604.008	14.1226
606.901	12.8492
609.793	11.6667
612.686	8.35439
615.579	7.60363
618.471	6.45587
621.364	7.9714
624.257	10.0729
627.149	26.646
630.042	16.0155
632.935	13.9065
635.828	6.75773
638.72	2.73
641.613	1.87029
644.506	1.02672
647.398	0.562023
650.291	0.402206
653.184	0.248158
656.077	1.82946
658.969	0.230064
661.862	1.64877
664.755	1.22589
667.647	1.76244
670.54	0.553474
673.433	1.5449
676.325	2.27319
679.218	3.46936
682.111	2.96633
685.004	5.56297
687.896	8.99221
690.789	14.9284
693.682	16.4971
696.574	12.1873
699.467	8.30413
702.36	16.4894
705.253	5.979
708.145	5.002
711.038	4.57228
713.931	4.98895
716.823	2.22522
719.716	1.10519
722.609	1.58348
725.501	3.45989
728.394	1.28644
731.287	0.167253
734.179	0.108152
737.072	1.30665
739.965	0.129528
742.858	0.337311
745.75	0.605627
748.643	0.087807
751.536	0.057802
754.428	1.51338
757.321	0.506256
760.214	2.98318
763.107	2.5605
765.999	3.87566
768.892	6.31315
771.785	12.9195
774.677	15.9069
777.57	20.2609
780.463	16.6747
783.356	15.1784
786.248	10.6822
789.141	7.26083
792.034	3.8111
794.926	1.9955
797.819	1.5823
800.712	2.50929
803.604	1.58799
806.497	2.1683
809.39	2.19123
812.283	3.0004
815.175	4.17438
818.068	2.39626
820.961	2.42123
823.853	1.85857
826.746	1.06147
829.639	1.00303
832.531	0.452171
835.424	0.285717
838.317	0.214432
841.21	1.23873
844.102	0.911766
846.995	2.30582
849.888	1.46749
852.78	1.90194
855.673	1.50368
858.566	3.51303
861.458	5.35553
864.351	5.20459
867.244	3.92852
870.136	3.95942
873.029	4.15763
875.922	1.0471
878.815	1.73846
881.707	0.881962
884.6	1.64445
887.493	1.63665
890.385	1.12598
893.278	1.17884
896.171	0.26107
899.064	2.07676
901.956	2.13642
904.849	1.64313
907.742	0.883083
910.634	0.766354
913.527	0.8232
916.42	1.65144
919.312	0.988106
922.205	11.7679
925.098	1.94383
927.991	1.38498
930.883	1.4848
933.776	0.81974
936.669	0.439369
939.562	0.346107
942.454	0.04311
945.347	0.923912
948.24	1.18023
951.132	0.126225
954.025	0.344509
956.918	1.9912
959.81	0.061863
962.703	0.492439
965.596	0.00798
968.489	0.433514
971.381	0.059395
974.274	1.44896
977.167	1.23622
980.059	0.431759
982.952	1.77816
985.845	1.08211
988.737	2.19446
991.63	2.22601
994.523	2.99046
997.415	5.63466
1000.31	7.79413
1003.2	8.19195
1006.09	8.37921
1008.99	10.6887
1011.88	8.46413
1014.77	7.44896
1017.66	4.35268
1020.56	4.40954
1023.45	3.02378
1026.34	2.76975
1029.23	2.15361
1032.13	1.41949
1035.02	2.00006
1037.91	3.24764
1040.81	5.81931
1043.7	7.70644
1046.59	9.23889
1049.48	8.97352
1052.38	7.7795
1055.27	5.31231
1058.16	2.78377
1061.06	0.770504
1063.95	0.647373
1066.84	1.97707
1069.73	8.26303
1072.63	0.581337
1075.52	0.853134
1078.41	0.196808
1081.3	0.558136
1084.2	0.511608
1087.09	2.85189
1089.98	4.09422
1092.88	5.05194
1095.77	21.6674
1098.66	16.6894
1101.55	26.9792
1104.45	32.2859
1107.34	35.986
1110.23	43.3389
1113.12	54.8748
1116.02	77.6411
1118.91	113.857
1121.8	170.981
1124.69	230.292
1127.59	237.377
1130.48	176.289
1133.37	113.697
1136.27	72.7006
1139.16	51.2911
1142.05	39.871
1144.94	29.0753
1147.84	25.6272
1150.73	17.9004
1153.62	20.6489
1156.51	10.1085
1159.41	6.41118
1162.3	4.90137
1165.19	5.26745
1168.09	3.88042
1170.98	2.03548
1173.87	2.2396
1176.76	1.06403
1179.66	8.30224
1182.55	1.80683
1185.44	1.4739
1188.33	0.768852
1191.23	0.912876
1194.12	0.954086
1197.01	1.5695
1199.9	0.449356
1202.8	1.95982
1205.69	0.281105
1208.58	1.73139
1211.48	0.2383
1214.37	2.02472
1217.26	0.805954
1220.15	0.273026
1223.05	0.907791
1225.94	0.84573
1228.83	0.140278
1231.72	0.604282
1234.62	0.385921
1237.51	2.12188
1240.4	0.584019
1243.3	1.07567
1246.19	0.864662
1249.08	0.09058
1251.97	1.84251
1254.87	1.84516
1257.76	2.1724
1260.65	1.52015
1263.54	2.41501
1266.44	1.14317
1269.33	1.25792
1272.22	1.20281
1275.12	1.90166
1278.01	0.559994
1280.9	1.1357
1283.79	0.765942
1286.69	1.37005
1289.58	2.61941
1292.47	0.170612
1295.36	2.46815
1298.26	0.002831
1301.15	0.394276
