Measurement: Raman, 532 nm, unoriented, Raman Data Processed
Mineral: Eudidymite
Rruff sample: R060063
Ideal chemistry: Na_2_Be_2_Si_6_O_15_H_2_O
Locality: Langesundfjord, Norway
Source: University of Arizona Mineral Museum
Description: Colorless crystal fragment
Measured chemistry: Na_1.00_Be_1.00_Si_3.00_O_7_(OH)
Raman shift (cm-1)	intensity
114.075	0
117.45	7.8383
120.825	24.7811
124.2	60.1372
127.575	126.661
130.949	175.104
134.324	84.1027
137.699	55.0183
141.074	37.785
144.449	8.98098
147.823	0.754128
151.198	1.71862
154.573	0.227524
157.948	1.14327
161.323	1.49362
164.698	2.14243
168.072	5.91602
171.447	12.1411
174.822	21.6584
178.197	19.2551
181.572	19.6487
184.946	22.2982
188.321	32.714
191.696	36.8076
195.071	31.7642
198.446	21.6911
201.821	13.3604
205.195	15.4555
208.57	17.301
211.945	15.1545
215.32	21.5339
218.695	25.7572
222.069	35.2823
225.444	48.8104
228.819	70.1324
232.194	96.8265
235.569	99.3783
238.944	48.8837
242.318	18.0571
245.693	6.31335
249.068	0.451912
252.443	0.136513
255.818	3.05891
259.192	2.1278
262.567	4.11359
265.942	4.3643
269.317	6.47818
272.692	8.60722
276.067	6.27808
279.441	0.476891
282.816	2.70602
286.191	1.72769
289.566	1.47413
292.941	3.46832
296.315	12.6194
299.69	29.8087
303.065	48.5707
306.44	74.7856
309.815	102.771
313.19	143.544
316.564	189.32
319.939	141.964
323.314	66.0121
326.689	41.2022
330.063	34.7023
333.438	40.4188
336.813	26.0128
340.188	12.5908
343.563	13.6969
346.938	21.2922
350.312	43.7813
353.687	67.4019
357.062	93.8526
360.437	130.34
363.812	193.952
367.187	275.218
370.561	201.681
373.936	81.3799
377.311	38.4999
380.686	19.5456
384.061	11.5764
387.435	7.89355
390.81	5.90603
394.185	5.88784
397.56	5.77261
400.935	8.88511
404.309	12.8364
407.684	5.57707
411.059	0.274292
414.434	1.77206
417.809	2.5974
421.183	2.17213
424.558	0.630829
427.933	1.14526
431.308	5.72614
434.683	11.4713
438.058	19.3264
441.432	26.3453
444.807	37.7881
448.182	50.0603
451.557	49.3545
454.932	28.5209
458.307	14.627
461.681	10.176
465.056	14.6326
468.431	20.3754
471.806	22.6182
475.181	27.8891
478.555	43.3506
481.93	42.3136
485.305	19.0963
488.68	13.1215
492.055	19.9561
495.43	39.6801
498.804	82.6958
502.179	139.622
505.554	199.742
508.929	306.233
512.303	481.987
515.678	569.649
519.053	300.894
522.428	113.83
525.803	53.3564
529.178	31.8187
532.552	19.2635
535.927	9.48084
539.302	2.96827
542.677	0.238571
546.052	0.070595
549.427	1.66936
552.801	0.850227
556.176	1.26972
559.551	8.42789
562.926	19.2329
566.301	32.5231
569.675	51.1793
573.05	78.2287
576.425	108.226
579.8	98.0023
583.175	59.878
586.549	34.5789
589.924	19.5084
593.299	14.2834
596.674	10.7198
600.049	9.00493
603.423	6.20009
606.798	4.72044
610.173	5.14973
613.548	5.94785
616.923	4.3447
620.298	3.69747
623.672	4.56267
627.047	4.21439
630.422	5.58937
633.797	4.44044
637.172	1.87607
640.547	0.615105
643.921	0.773506
647.296	0.691833
650.671	0.351349
654.046	0.018776
657.421	0.067268
660.795	0.435593
664.17	0.031288
667.545	0.340393
670.92	1.27367
674.295	1.99784
677.669	3.05489
681.044	5.21121
684.419	3.79169
687.794	5.5274
691.169	7.51163
694.544	9.4258
697.918	7.70139
701.293	5.42478
704.668	2.48874
708.043	2.89605
711.418	3.28056
714.792	3.69744
718.167	2.77749
721.542	1.74602
724.917	0.855484
728.292	0.92971
731.667	0.512978
735.041	0.462326
738.416	1.03691
741.791	0.261566
745.166	0.049706
748.541	0.64032
751.915	0.189613
755.29	1.03924
758.665	1.52918
762.04	2.39381
765.415	3.23084
768.789	4.64767
772.164	7.59304
775.539	11.3967
778.914	11.2974
782.289	9.82343
785.664	6.89341
789.038	2.24829
792.413	1.7571
795.788	1.51123
799.163	0.258957
802.538	0.627754
805.913	1.26785
809.287	3.87632
812.662	3.25339
816.037	3.35368
819.412	0.523758
822.787	1.13856
826.161	0.349609
829.536	1.54998
832.911	0.064667
836.286	0.133217
839.661	0.343643
843.035	0.454521
846.41	0.487053
849.785	1.81538
853.16	1.45828
856.535	1.98249
859.909	2.22014
863.284	2.18471
866.659	3.61585
870.034	2.7506
873.409	1.64071
876.784	2.78395
880.158	2.44016
883.533	2.59097
886.908	0.528313
890.283	0.990005
893.658	1.43404
897.033	0.732559
900.407	1.81466
903.782	0.283043
907.157	0.352287
910.532	1.47089
913.907	1.35519
917.281	2.42667
920.656	1.85938
924.031	1.64143
927.406	0.269859
930.781	1.65527
934.155	0.359726
937.53	0.715294
940.905	1.16513
944.28	0.666183
947.655	1.01713
951.029	0.153122
954.404	1.30013
957.779	0.751152
961.154	0.172928
964.529	1.00154
967.904	1.24891
971.278	1.5646
974.653	1.86678
978.028	1.01752
981.403	0.261292
984.778	1.76606
988.153	2.5332
991.527	3.68726
994.902	4.12087
998.277	6.87664
1001.65	8.88227
1005.03	9.02942
1008.4	8.8233
1011.78	8.71468
1015.15	7.53108
1018.53	4.45675
1021.9	3.30794
1025.28	2.2901
1028.65	3.83064
1032.03	3.82494
1035.4	4.50485
1038.78	5.50895
1042.15	6.58019
1045.52	5.54124
1048.9	7.2536
1052.27	5.88934
1055.65	3.48116
1059.02	1.07237
1062.4	1.60136
1065.77	0.853409
1069.15	0.855682
1072.52	0.18647
1075.9	0.178391
1079.27	0.352539
1082.65	2.19679
1086.02	2.73454
1089.4	6.87245
1092.77	9.03037
1096.15	12.9346
1099.52	20.2075
1102.9	27.6194
1106.27	32.3658
1109.65	37.8485
1113.02	48.5675
1116.39	66.1841
1119.77	90.2539
1123.14	119.996
1126.52	135.785
1129.89	113.394
1133.27	75.9389
1136.64	46.1462
1140.02	33.0473
1143.39	26.4091
1146.77	19.3639
1150.14	14.8512
1153.52	9.13947
1156.89	5.99302
1160.27	5.0057
1163.64	2.52651
1167.02	2.33003
1170.39	2.47528
1173.77	2.73373
1177.14	0.85994
1180.52	0.350372
1183.89	0.693001
1187.27	0.439476
1190.64	1.08598
1194.02	0.121048
1197.39	0.628914
1200.77	0.95237
1204.14	0.191971
1207.52	0.895515
1210.89	0.390244
1214.27	0.654114
1217.64	0.135803
1221.02	0.810448
1224.39	0.040375
1227.76	0.691162
1231.14	2.03995
1234.51	0.375717
1237.89	1.58092
1241.26	1.16176
1244.64	2.03718
1248.01	1.52798
1251.39	1.14329
1254.76	1.15477
1258.14	1.3581
1261.51	0.999687
1264.89	1.33066
1268.26	3.37637
1271.64	0.852669
1275.01	0.768532
1278.39	1.16633
