Measurement: Raman, 780 nm, unoriented, Raman Data Processed
Mineral: Eudidymite
Rruff sample: R060063
Ideal chemistry: Na_2_Be_2_Si_6_O_15_H_2_O
Locality: Langesundfjord, Norway
Source: University of Arizona Mineral Museum
Description: Colorless crystal fragment
Measured chemistry: Na_1.00_Be_1.00_Si_3.00_O_7_(OH)
Raman shift (cm-1)	intensity
118.206	0
121.098	9.88663
123.991	26.6859
126.884	51.532
129.776	57.4077
132.669	29.5148
135.562	24.3581
138.455	23.8439
141.347	13.1035
144.24	3.58532
147.133	0.124298
150.025	0.58897
152.918	0.931198
155.811	0.789825
158.703	0.454918
161.596	1.49038
164.489	2.87762
167.382	4.76638
170.274	6.74653
173.167	10.0344
176.06	9.15702
178.952	10.4377
181.845	13.286
184.738	16.6465
187.631	20.9184
190.523	21.6504
193.416	21.1276
196.309	18.4609
199.201	16.0187
202.094	15.4701
204.987	17.0742
207.879	17.3357
210.772	17.6357
213.665	20.7855
216.558	23.0131
219.45	23.9332
222.343	27.5496
225.236	31.8651
228.128	38.9915
231.021	44.27
233.914	41.0488
236.806	25.0836
239.699	11.7615
242.592	5.67873
245.484	3.4458
248.377	1.66294
251.27	1.2711
254.162	2.47999
257.055	2.36835
259.948	2.6166
262.841	3.35349
265.733	3.02266
268.626	3.01767
271.519	4.14049
274.411	2.54424
277.304	0.438114
280.197	1.90762
283.089	1.85143
285.982	0.286018
288.875	1.6064
291.768	3.29284
294.66	9.28595
297.553	16.7933
300.446	22.7329
303.338	29.3255
306.231	37.3899
309.124	47.045
312.017	57.2055
314.909	69.1228
317.802	59.9608
320.695	34.7127
323.587	21.4666
326.48	17.6276
329.373	16.7943
332.265	19.0801
335.158	12.8627
338.051	7.89115
340.943	6.26279
343.836	8.81034
346.729	17.2769
349.622	29.4247
352.514	36.8135
355.407	44.2885
358.3	56.2924
361.192	68.7413
364.085	88.3382
366.978	98.9666
369.87	63.3151
372.763	30.3786
375.656	16.9747
378.549	9.18907
381.441	4.8241
384.334	3.80752
387.227	2.45861
390.119	2.30207
393.012	2.15288
395.905	2.38362
398.798	2.09762
401.69	3.3377
404.583	2.94994
407.476	0.220711
410.368	0.555809
413.261	1.15133
416.154	0.701935
419.046	1.10864
421.939	0.12178
424.832	1.1281
427.724	2.12896
430.617	5.32199
433.51	6.62226
436.402	9.9043
439.295	11.893
442.188	14.6865
445.081	18.5329
447.973	19.5878
450.866	17.6617
453.759	11.5364
456.651	8.55961
459.544	7.5053
462.437	9.72071
465.329	10.515
468.222	13.3381
471.115	14.6812
474.008	15.0407
476.9	17.9874
479.793	18.422
482.686	10.8255
485.578	6.50141
488.471	7.48932
491.364	13.4215
494.257	27.9039
497.149	48.0701
500.042	67.2228
502.935	81.3204
505.827	104.751
508.72	134.557
511.613	177.729
514.505	193.464
517.398	119.93
520.291	53.0674
523.183	26.5262
526.076	15.3357
528.969	10.662
531.862	6.43547
534.754	2.50351
537.647	0.318111
540.54	0.146809
543.432	0.068882
546.325	0.893225
549.218	0.466415
552.11	0.474058
555.003	3.06616
557.896	5.30914
560.788	10.236
563.681	13.3435
566.574	17.3322
569.467	22.0674
572.359	31.0301
575.252	37.0134
578.145	34.5412
581.037	23.2633
583.93	14.23
586.823	8.69315
589.716	6.51324
592.608	4.5714
595.501	3.25951
598.394	2.83935
601.286	2.19551
604.179	1.94264
607.072	1.39235
609.964	1.20025
612.857	1.46823
615.75	1.55278
618.643	1.66204
621.535	1.37652
624.428	2.21017
627.321	2.05957
630.213	2.86845
633.106	1.60315
635.999	0.621685
638.891	0.16749
641.784	0.321184
644.677	0.048115
647.569	0.143623
650.462	0.213863
653.355	0.127245
656.248	0.346441
659.14	0.444754
662.033	0.300097
664.926	0.283461
667.818	0.281199
670.711	0.454632
673.604	0.904652
676.496	1.5271
679.389	1.69361
682.282	2.16692
685.175	2.29523
688.067	3.17069
690.96	3.60011
693.853	4.31633
696.745	3.1925
699.638	2.466
702.531	2.35082
705.423	2.12289
708.316	2.10079
711.209	0.932705
714.101	0.681179
716.994	0.439377
719.887	0.331009
722.78	0.619501
725.672	0.375893
728.565	0.181679
731.458	0.070162
734.35	0.237772
737.243	0.822638
740.136	0.174076
743.029	0.243437
745.921	0.12167
748.814	0.077274
751.707	0.399357
754.599	0.044382
757.492	0.182365
760.385	0.943827
763.277	1.55239
766.17	2.0169
769.063	3.03483
771.956	3.50536
774.848	3.76624
777.741	4.44724
780.634	3.44555
783.526	2.83064
786.419	1.61293
789.312	1.25079
792.204	0.731033
795.097	0.330126
797.99	0.801865
800.882	0.422363
803.775	0.791391
806.668	0.368784
809.561	1.24314
812.453	1.42119
815.346	1.06628
818.239	0.978441
821.131	1.25129
824.024	1.00305
826.917	0.863308
829.809	0.768137
832.702	0.873169
835.595	1.02919
838.487	0.898607
841.38	1.15228
844.273	0.870909
847.166	1.30074
850.058	1.52746
852.951	1.6301
855.844	2.02895
858.736	1.60477
861.629	2.06376
864.522	1.69411
867.415	1.67416
870.307	1.98526
873.2	1.18925
876.093	1.20581
878.985	1.03182
881.878	0.805328
884.771	0.847425
887.663	0.467562
890.556	0.914104
893.449	0.815432
896.341	0.222843
899.234	0.465027
902.127	0.425892
905.02	0.506105
907.912	0.700201
910.805	0.005304
913.698	0.013592
916.59	0.12097
919.483	0.30369
922.376	0.239767
925.269	0.020504
928.161	0.066641
931.054	0.094877
933.947	0.237103
936.839	0.517485
939.732	0.037661
942.625	0.002638
945.517	0.356977
948.41	0.355398
951.303	0.140493
954.196	0.157555
957.088	0.109844
959.981	0.033625
962.874	0.751913
965.766	0.241993
968.659	0.373224
971.552	0.344631
974.444	0.04352
977.337	0.559097
980.23	0.703913
983.122	0.990931
986.015	1.17594
988.908	1.48524
991.801	1.62731
994.693	2.19685
997.586	3.41049
1000.48	3.86735
1003.37	3.52248
1006.26	3.84405
1009.16	3.35513
1012.05	3.06172
1014.94	2.9593
1017.84	1.84422
1020.73	1.486
1023.62	1.72247
1026.51	1.07475
1029.41	1.64596
1032.3	1.78595
1035.19	2.01958
1038.08	2.26216
1040.98	2.05092
1043.87	2.95025
1046.76	2.61721
1049.65	2.83588
1052.55	1.82077
1055.44	0.777143
1058.33	0.517206
1061.22	0.172121
1064.12	0.145197
1067.01	0.087595
1069.9	0.212488
1072.8	0.081066
1075.69	0.100733
1078.58	0.242178
1081.47	1.14463
1084.37	1.01428
1087.26	1.8271
1090.15	3.09178
1093.05	4.64142
1095.94	6.39855
1098.83	8.43929
1101.72	10.8807
1104.62	12.1192
1107.51	13.5217
1110.4	16.4912
1113.29	21.5097
1116.19	27.9968
1119.08	34.2637
1121.97	41.7175
1124.87	45.0597
1127.76	40.3434
1130.65	29.7868
1133.54	20.2347
1136.43	14.0719
1139.33	10.7838
1142.22	8.62305
1145.11	6.95326
1148.01	4.8016
1150.9	3.59932
1153.79	2.78606
1156.68	1.83509
1159.58	1.53285
1162.47	1.13286
1165.36	0.936266
1168.26	0.754836
1171.15	0.187346
1174.04	0.404232
1176.93	0.546366
1179.83	0.731516
1182.72	0.154976
1185.61	0.201475
1188.5	0.082013
1191.4	0.440538
1194.29	0.538615
1197.18	0.472887
1200.08	0.000182
1202.97	0.401622
1205.86	0.139308
1208.75	0.225433
1211.65	0.005584
1214.54	0.014716
1217.43	0.405774
1220.32	0.146725
1223.22	0.267588
1226.11	0.384657
1229	1.22994
1231.89	0.66217
1234.79	0.420916
1237.68	0.671665
1240.57	0.26362
1243.46	1.0348
1246.36	0.36904
1249.25	0.028488
1252.14	0.60417
1255.04	0.26771
1257.93	0.369994
1260.82	0.030904
1263.71	0.326761
1266.61	0
