Measurement: Raman, 780 nm, unoriented, Raman Data Processed
Mineral: Eulytine
Rruff sample: R060058
Ideal chemistry: Bi_4_(SiO_4_)_3_
Locality: Schneeberg, Saxony, Germany
Source: University of Arizona Mineral Museum
Description: Pale-yellow interpenetrant tetrahedral crystals; some transmitting red color of matrix
Measured chemistry: Bi_4.00_((Si_0.96_As^5+^_0.04_)_Σ=1_((O_3.96_(OH)_0.04_)_Σ=4_)_3_ ; (OH) estimated by difference and charge balance
Raman shift (cm-1)	intensity
106.731	0
109.624	272.913
112.517	122.308
115.409	49.8179
118.302	364.262
121.195	1032.82
124.088	1952.79
126.98	3112.25
129.873	4322.24
132.766	4477.7
135.658	3620.79
138.551	2548.27
141.444	2189.73
144.336	2370.27
147.229	2810.92
150.122	2456.19
153.014	1192.86
155.907	287.291
158.8	91.6765
161.693	23.0508
164.585	32.3828
167.478	122.722
170.371	159.637
173.263	114.776
176.156	37.6172
179.049	112.296
181.941	274.055
184.834	822.292
187.727	1561.12
190.62	2483.15
193.512	3554.8
196.405	4813.51
199.298	5961.69
202.19	5855.41
205.083	4634.29
207.976	3090.63
210.869	2125.36
213.761	1449.91
216.654	1022.4
219.547	707.092
222.439	497.395
225.332	360.828
228.225	256.423
231.117	201.264
234.01	140.917
236.903	187.56
239.796	185.442
242.688	131.161
245.581	297.643
248.474	258.175
251.366	250.665
254.259	276.134
257.152	351.729
260.044	417.402
262.937	600.88
265.83	734.261
268.723	969.712
271.615	1183.15
274.508	1219.71
277.401	1043.73
280.293	679.442
283.186	332.127
286.079	128.236
288.971	29.9021
291.864	37.1924
294.757	94.6682
297.649	10.5149
300.542	63.5586
303.435	219.014
306.328	445.825
309.22	612.003
312.113	776.222
315.006	678.899
317.898	567.593
320.791	490.057
323.684	612.204
326.577	660.811
329.469	712.392
332.362	623.224
335.255	522.394
338.147	400.548
341.04	222.392
343.933	91.365
346.825	7.24292
349.718	45.8203
352.611	4.54639
355.503	14.4304
358.396	68.5051
361.289	181.036
364.182	347.918
367.074	653.24
369.967	973.688
372.86	1413.72
375.752	2158.69
378.645	2974.09
381.538	4163.75
384.43	5318.35
387.323	6498.1
390.216	7246.7
393.109	7414.15
396.001	7211.61
398.894	5908.89
401.787	4052.25
404.679	2771.5
407.572	1887.38
410.465	1349.18
413.358	1011.97
416.25	749.086
419.143	688.28
422.036	651.778
424.928	627.031
427.821	675.687
430.714	653.449
433.606	736.688
436.499	694.961
439.392	607.592
442.284	397.269
445.177	281.387
448.07	186.424
450.963	92.0513
453.855	74.2236
456.748	5.49219
459.641	4.7688
462.533	7.78955
465.426	25.2317
468.319	15.9766
471.212	18.8291
474.104	28.1912
476.997	27.408
479.89	50.0405
482.782	35.602
485.675	64.6523
488.568	150.856
491.46	157.516
494.353	229.464
497.246	379.485
500.139	418.76
503.031	579.398
505.924	547.513
508.817	416.944
511.709	355.741
514.602	306.506
517.495	284.048
520.388	264.134
523.28	338.236
526.173	472.249
529.066	453.138
531.958	528.815
534.851	422.498
537.744	352.22
540.636	255.375
543.529	198.678
546.422	187.999
549.314	106.244
552.207	111.421
555.1	78.3628
557.993	74.2921
560.885	19.3374
563.778	83.6913
566.671	15.4414
569.563	12.2452
572.456	23.9316
575.349	14.2039
578.241	57.6787
581.134	67.9934
584.027	55.6188
586.92	57.7259
589.812	25.6396
592.705	65.1171
595.598	60.9375
598.49	45.8453
601.383	69.3224
604.276	101.777
607.168	105.44
610.061	182.393
612.954	118.382
615.847	155.128
618.739	200.824
621.632	187.686
624.525	177.221
627.417	124.106
630.31	135.865
633.203	84.1829
636.096	126.56
638.988	133.914
641.881	93.764
644.774	138.827
647.666	54.1521
650.559	81.7696
653.452	119.281
656.344	54.1783
659.237	40.9424
662.13	66.0896
665.023	82.9661
667.915	38.6252
670.808	82.0215
673.701	21.1332
676.593	12.5988
679.486	47.0008
682.379	37.4028
685.271	68.4932
688.164	51.9524
691.057	42.8074
693.949	62.6437
696.842	34.6056
699.735	22.1462
702.628	30.2872
705.52	56.8923
708.413	81.788
711.306	121.24
714.198	64.3328
717.091	71.3811
719.984	104.281
722.876	164.269
725.769	122.05
728.662	100.321
731.555	67.6587
734.447	82.7712
737.34	116.222
740.233	61.15
743.125	38.0433
746.018	54.1829
748.911	51.3723
751.803	0.888306
754.696	1.69653
757.589	27.2983
760.482	61.5281
763.374	13.2596
766.267	14.2398
769.16	19.1952
772.052	26.2089
774.945	47.425
777.838	61.5617
780.731	44.0255
783.623	28.7462
786.516	36.0815
789.409	35.2645
792.301	44.907
795.194	32.6482
798.087	76.7216
800.979	70.0758
803.872	91.4541
806.765	41.0107
809.658	124.239
812.55	53.7119
815.443	83.8023
818.336	41.9607
821.228	17.3098
824.121	43.2727
827.014	54.7831
829.906	90.8224
832.799	61.1478
835.692	50.4342
838.585	83.8221
841.477	114.622
844.37	166.562
847.263	152.541
850.155	210.655
853.048	392.981
855.941	483.157
858.833	647.326
861.726	799.445
864.619	896.963
867.511	841.737
870.404	763.621
873.297	544.105
876.19	421.164
879.082	364.318
881.975	303.351
884.868	240.144
887.76	251.713
890.653	216.239
893.546	163.513
896.438	70.7253
899.331	25.5206
902.224	19.2499
905.117	17.6685
908.009	22.8926
910.902	26.908
913.795	0.171021
916.687	4.41968
919.58	1.03674
922.473	20.7936
925.365	34.4846
928.258	6.45642
931.151	2.03052
934.044	55.7755
936.936	19.8153
939.829	3.42065
942.722	36.363
945.614	46.7935
948.507	30.4033
951.4	69.846
954.293	34.064
957.185	43.8781
960.078	75.707
962.971	100.345
965.863	59.4506
968.756	71.0956
971.649	44.206
974.541	36.3439
977.434	40.7513
980.327	30.9077
983.22	17.1486
986.112	69.3085
989.005	24.6289
991.898	52.8576
994.79	0.165833
997.683	12.1749
1000.58	41.0785
1003.47	14.1907
1006.36	1.13885
1009.25	42.5587
1012.15	47.5063
1015.04	37.9722
1017.93	12.7434
1020.83	65.794
1023.72	14.9619
1026.61	79.7422
1029.5	35.6621
1032.39	52.8373
1035.29	10.6648
1038.18	16.4358
1041.07	59.2063
1043.97	47.8247
1046.86	107.273
1049.75	50.2942
1052.64	50.4348
1055.54	70.278
1058.43	46.6021
1061.32	63.1362
1064.21	7.49152
1067.11	48.6406
1070	63.8993
1072.89	44.572
1075.79	42.3101
1078.68	39.59
1081.57	29.7127
1084.46	54.1088
1087.36	55.0422
