Measurement: Raman, 532 nm, unoriented, Raman Data Processed
Mineral: Eulytine
Rruff sample: R130114
Ideal chemistry: Bi_4_(SiO_4_)_3_
Locality: Flying Saucer Group, Maricopa County, Arizona
Source: Mark Ascher
Description: White or colorless octahedra, associated with R130113 kettnerite, green mottramite
Raman shift (cm-1)	intensity
191.088	0
193.981	45.0317
196.874	182.469
199.766	421.062
202.659	589.407
205.552	367.905
208.445	156.233
211.337	80.7169
214.23	56.1568
217.123	39.2026
220.015	20.9983
222.908	11.0075
225.801	1.66074
228.693	2.77641
231.586	6.82735
234.479	6.13991
237.371	2.3663
240.264	0.979385
243.157	10.5111
246.05	17.5307
248.942	24.3333
251.835	28.9306
254.728	28.2097
257.62	36.6239
260.513	45.9158
263.406	58.0774
266.298	76.7184
269.191	107.434
272.084	145.319
274.977	170.9
277.869	139.002
280.762	87.6443
283.655	56.2386
286.547	31.0766
289.44	5.34933
292.333	5.43295
295.226	6.43205
298.118	2.08608
301.011	5.97006
303.904	19.7799
306.796	45.1284
309.689	88.1973
312.582	123.908
315.474	112.172
318.367	99.8112
321.26	110.365
324.152	143.964
327.045	198.345
329.938	253.392
332.831	272.277
335.723	215.52
338.616	130.103
341.509	64.8444
344.401	29.1447
347.294	10.686
350.187	3.1998
353.079	0.533646
355.972	3.9668
358.865	6.13335
361.758	15.7456
364.65	31.5984
367.543	55.4682
370.436	93.1046
373.328	154.243
376.221	247.694
379.114	370.228
382.007	504.985
384.899	685.022
387.792	944.99
390.685	1244.65
393.577	1352.64
396.47	1044.85
399.363	609.266
402.255	332.395
405.148	185.953
408.041	110.008
410.933	67.9439
413.826	48.9698
416.719	37.8139
419.612	40.4851
422.504	54.1865
425.397	70.7092
428.29	92.1447
431.182	120.814
434.075	155.511
436.968	167.706
439.861	134.55
442.753	77.705
445.646	37.1398
448.539	13.5892
451.431	2.63895
454.324	3.32237
457.217	4.96118
460.109	5.94533
463.002	3.66876
465.895	0.039261
468.788	4.97704
471.68	11.0198
474.573	15.1523
477.466	17.2447
480.358	20.2702
483.251	26.6454
486.144	38.9131
489.036	59.228
491.929	74.198
494.822	80.0743
497.714	94.8921
500.607	128.118
503.5	150.905
506.393	111.639
509.285	63.3209
512.178	39.3981
515.071	27.7877
517.963	23.7207
520.856	24.6324
523.749	27.9935
526.641	40.4251
529.534	58.7326
532.427	69.6389
535.32	52.5798
538.212	29.8293
541.105	24.2284
543.998	25.4747
546.89	29.564
549.783	24.8896
552.676	17.1191
555.568	8.57468
558.461	1.55605
561.354	1.44613
564.247	0.813942
567.139	2.1682
570.032	5.17273
572.925	6.89805
575.817	9.92289
578.71	8.51759
581.603	5.92712
584.495	2.26489
587.388	0.958801
590.281	0.831444
593.174	0.909309
596.066	0.224083
598.959	0.51593
601.852	0.201614
604.744	1.57686
607.637	4.22713
610.53	6.15386
613.423	7.28046
616.315	10.3616
619.208	14.8444
622.101	14.5612
624.993	13.2033
627.886	12.0989
630.779	10.0104
633.671	9.35888
636.564	7.40235
639.457	5.99223
642.35	5.24985
645.242	5.70299
648.135	3.47823
651.028	2.66934
653.92	2.67701
656.813	2.74676
659.706	0.89122
662.598	0.671913
665.491	0.800842
668.384	1.14056
671.277	0.569878
674.169	0.55574
677.062	0.136551
679.955	1.65734
682.847	0.675041
685.74	0.939041
688.633	0.829857
691.525	0.517227
694.418	0.703194
697.311	0.603592
700.203	0.2967
703.096	1.36917
705.989	0.673584
708.882	1.93668
711.774	1.17239
714.667	1.61095
717.56	1.98224
720.452	1.43323
723.345	1.36071
726.238	1.43333
729.13	0.322784
732.023	1.94917
734.916	0.74929
737.809	0.111725
740.701	0.977295
743.594	0.672295
746.487	0.492622
749.379	0.892754
752.272	0.104225
755.165	0.287689
758.058	0.253937
760.95	0.024437
763.843	0.077202
766.736	0.366524
769.628	0.562256
772.521	0.207748
775.414	0.710632
778.306	0.815666
781.199	0.89035
784.092	1.50782
786.985	1.73505
789.877	1.17484
792.77	1.50671
795.663	1.2649
798.555	0.939407
801.448	1.22374
804.341	0.716209
807.233	0.213623
810.126	0.02655
813.019	1.13236
815.912	0.400383
818.804	1.25636
821.697	2.44157
824.59	2.30466
827.482	2.58118
830.375	3.33061
833.268	3.70021
836.16	4.59605
839.053	7.09486
841.946	9.88219
844.838	15.729
847.731	22.2755
850.624	31.0159
853.517	44.7526
856.409	69.5879
859.302	97.2475
862.195	135.422
865.087	192.538
867.98	232.214
870.873	171.759
873.765	85.414
876.658	47.7636
879.551	35.4235
882.444	38.803
885.336	57.4405
888.229	77.951
891.122	50.0874
894.014	29.6023
896.907	25.9254
899.8	9.13866
902.692	2.21693
905.585	0.706123
908.478	1.73556
911.371	1.58153
914.263	0.891998
917.156	1.23074
920.049	3.1917
922.941	4.67094
925.834	8.21359
928.727	7.82954
931.62	8.13001
934.512	6.45614
937.405	3.30253
940.298	2.14649
943.19	0.95002
946.083	0.206886
948.976	0.246025
951.868	0.666588
954.761	0.790657
957.654	0.457718
960.547	0.118095
963.439	0.985054
966.332	2.21003
969.225	3.04723
972.117	2.91862
975.01	3.36568
977.903	3.52409
980.795	3.65846
983.688	3.90257
986.581	3.62826
989.473	5.03901
992.366	2.30103
995.259	2.2598
998.152	1.65952
1001.04	0.733543
1003.94	0.229233
1006.83	0.455406
1009.72	0.820206
1012.62	0.472275
1015.51	1.31002
1018.4	1.1749
1021.29	1.8849
1024.19	3.35469
1027.08	4.32167
1029.97	6.03954
1032.86	6.10017
1035.76	8.30303
1038.65	7.1208
1041.54	7.91131
1044.43	8.42331
1047.33	8.2244
1050.22	8.18531
1053.11	7.94513
1056.01	6.51474
1058.9	6.0013
1061.79	5.25664
1064.68	5.12763
1067.58	4.38583
1070.47	4.97489
1073.36	4.94228
1076.26	3.96581
1079.15	4.04942
1082.04	3.27306
1084.93	3.94431
1087.83	3.87782
1090.72	1.77797
1093.61	3.10572
1096.5	2.16084
1099.4	1.46616
1102.29	1.75615
1105.18	1.01119
1108.07	0.863792
1110.97	0.852463
1113.86	0.814743
1116.75	0.2052
1119.64	1.01105
1122.54	0.119827
1125.43	0.027191
1128.32	0.10672
1131.22	0.036919
1134.11	0.173553
1137	0.38195
1139.89	0.216599
1142.79	0.203491
1145.68	0.108246
1148.57	0.53418
1151.46	0.77005
1154.36	0.459358
1157.25	1.51073
1160.14	1.00481
1163.04	0.14798
1165.93	1.422
1168.82	1.14884
1171.71	1.42826
1174.61	2.49569
1177.5	2.43343
1180.39	1.79913
1183.28	2.22652
1186.18	2.25102
1189.07	1.47588
1191.96	1.28747
1194.86	1.23895
1197.75	2.18587
1200.64	1.3587
1203.53	1.89464
1206.43	1.62492
1209.32	0.777611
1212.21	1.42796
1215.1	0.769249
1218	1.57665
1220.89	0.783897
1223.78	1.37807
1226.67	1.28571
1229.57	1.36355
1232.46	1.5818
1235.35	0.377945
1238.25	0.077087
1241.14	0.392891
1244.03	0.637039
1246.92	0.566704
1249.82	0.655212
1252.71	1.03076
1255.6	0.632706
1258.49	0.97715
1261.39	0.634705
1264.28	0.647316
1267.17	1.31169
1270.07	1.42722
1272.96	0.027367
1275.85	0.203857
1278.74	0.614296
1281.64	0.255539
1284.53	0.533936
1287.42	1.04621
1290.31	0.724083
1293.21	0.327995
1296.1	0.714073
1298.99	0.821487
1301.88	0
