Measurement: Raman, 532 nm, unoriented, Raman Data Processed
Mineral: Eulytine
Rruff sample: R060058
Ideal chemistry: Bi_4_(SiO_4_)_3_
Locality: Schneeberg, Saxony, Germany
Source: University of Arizona Mineral Museum
Description: Pale-yellow interpenetrant tetrahedral crystals; some transmitting red color of matrix
Measured chemistry: Bi_4.00_((Si_0.96_As^5+^_0.04_)_Σ=1_((O_3.96_(OH)_0.04_)_Σ=4_)_3_ ; (OH) estimated by difference and charge balance
Raman shift (cm-1)	intensity
106.977	0
110.352	157.507
113.727	37.4893
117.102	388.699
120.477	2426.23
123.852	6554.99
127.226	12257
130.601	17171.8
133.976	15527.3
137.351	9407
140.726	7762.08
144.1	9054.16
147.475	11567.3
150.85	9155.13
154.225	2573.55
157.6	110.881
160.975	305.869
164.349	367.456
167.724	1925.11
171.099	3086.13
174.474	2558.35
177.849	1022.23
181.223	1175.86
184.598	3042.24
187.973	7910.63
191.348	16999.5
194.723	29861.7
198.098	42607
201.472	46639.8
204.847	34868.4
208.222	20784.6
211.597	12618.8
214.972	8158.92
218.346	5281.71
221.721	3005.73
225.096	1459.77
228.471	517.031
231.846	27.8701
235.221	105.089
238.595	294.353
241.97	582.396
245.345	791.352
248.72	963.925
252.095	1081.8
255.469	1203.05
258.844	1635.97
262.219	2522.4
265.594	4117.6
268.969	6190.74
272.344	7625.73
275.718	7537.64
279.093	5421.15
282.468	2747.34
285.843	869.144
289.218	149.141
292.592	595.287
295.967	650.689
299.342	39.0283
302.717	1276.19
306.092	3001.39
309.466	4546.03
312.841	5086.69
316.216	3837.24
319.591	3273.66
322.966	3551.55
326.341	3920.35
329.715	4023.84
333.09	3680.76
336.465	3022.31
339.84	2268.4
343.215	1762.46
346.59	1625.56
349.964	1432.47
353.339	1514.68
356.714	1777.69
360.089	2390.28
363.464	3473.31
366.838	5250.8
370.213	7921.53
373.588	12271.1
376.963	19046.9
380.338	28851.8
383.712	41490.1
387.087	54547.7
390.462	63104.5
393.837	63065.1
397.212	53280.9
400.587	34672.2
403.961	19879
407.336	11732.1
410.711	7240.81
414.086	4680.37
417.461	3225.28
420.836	2514.83
424.21	2386.62
427.585	2699.4
430.96	3165.46
434.335	3377.95
437.71	2963.89
441.084	1698.54
444.459	692.05
447.834	49.3418
451.209	192.11
454.584	291.539
457.958	278.311
461.333	175.65
464.708	41.8897
468.083	171.676
471.458	528.598
474.833	994.329
478.207	1434.99
481.582	1775.96
484.957	2051.91
488.332	2542.59
491.707	3058.82
495.082	3654.49
498.456	4546.75
501.831	5502.78
505.206	5266.05
508.581	3580.62
511.956	2255.14
515.33	1753.1
518.705	1688.55
522.08	2066.9
525.455	2702.34
528.83	3323.76
532.205	3609.92
535.579	2741.91
538.954	1868.37
542.329	1389.12
545.704	1181.44
549.079	925.956
552.453	649.86
555.828	442.014
559.203	279.553
562.578	103.457
565.953	95.7481
569.328	68.4961
572.702	44.3169
576.077	7.68066
579.452	28.6289
582.827	29.4819
586.202	54.1773
589.576	22.835
592.951	16.458
596.326	29.8652
599.701	104.094
603.076	202.364
606.451	308.073
609.825	508.486
613.2	716.507
616.575	868.337
619.95	982.783
623.325	998.234
626.699	899.793
630.074	832.751
633.449	672.668
636.824	567.38
640.199	495.005
643.573	445.497
646.948	386.41
650.323	330.816
653.698	323.87
657.073	279.244
660.448	261.654
663.822	221.947
667.197	280.863
670.572	246.778
673.947	255.889
677.322	196.17
680.696	258.443
684.071	259.097
687.446	177.558
690.821	135.801
694.196	159.159
697.571	132.778
700.945	126.485
704.32	76.6138
707.695	60.0859
711.07	75.8769
714.445	12.5273
717.82	15.8584
721.194	47.4326
724.569	34.561
727.944	2.90869
731.319	52.8994
734.694	85.5347
738.068	28.3066
741.443	10.0068
744.818	11.627
748.193	107.981
751.568	136.201
754.943	113.677
758.317	281.609
761.692	314.35
765.067	395.668
768.442	381.863
771.817	483.809
775.191	558.489
778.566	630.192
781.941	503.806
785.316	443.831
788.691	345.163
792.065	395.256
795.44	548.332
798.815	578.104
802.19	497.896
805.565	385.76
808.94	313.112
812.314	343.021
815.689	538.342
819.064	946.031
822.439	1683.52
825.814	2803.29
829.188	4140.09
832.563	5408.14
835.938	5827.04
839.313	5047.35
842.688	3869.48
846.063	3117.87
849.437	3002.69
852.812	3431.99
856.187	4283.54
859.562	5620.68
862.937	6683.39
866.312	6693.56
869.686	5508.49
873.061	4054.59
876.436	3095.86
879.811	3072.21
883.186	3551.51
886.56	4026.96
889.935	3339.13
893.31	1850.82
896.685	1062.85
900.06	416.477
903.435	60.5264
906.809	30.7759
910.184	100.055
913.559	94.0801
916.934	38.3911
920.309	40.1143
923.683	131.16
927.058	181.917
930.433	227.287
933.808	189.148
937.183	62.5855
940.557	76.9575
943.932	67.4531
947.307	72.9253
950.682	60.9067
954.057	130.212
957.432	148.674
960.806	246.793
964.181	332.581
967.556	378.122
970.931	270.473
974.306	221.484
977.68	232.548
981.055	212.081
984.43	213.193
987.805	183.001
991.18	64.6807
994.555	25.4067
997.929	21.2495
1001.3	7.16504
1004.68	32.5381
1008.05	11.9932
1011.43	64.9102
1014.8	63.3721
1018.18	93.2983
1021.55	115.301
1024.93	134.776
1028.3	243.648
1031.68	273.016
1035.05	269.799
1038.43	261.424
1041.8	311.507
1045.18	287.98
1048.55	271.838
1051.93	238.034
1055.3	226.829
1058.68	221.63
1062.05	235.675
1065.43	258.002
1068.8	226.33
1072.17	228.703
1075.55	250.084
1078.92	292.7
1082.3	267.464
1085.67	259.206
1089.05	252.616
1092.42	281.506
1095.8	213.196
1099.17	196.828
1102.55	70.0391
1105.92	110.627
1109.3	97.5273
1112.67	95.8193
1116.05	76.2437
1119.42	86.5527
1122.8	35.6435
1126.17	25.2852
1129.55	34.0518
1132.92	39.2515
1136.3	59.5405
1139.67	43.2158
1143.05	2.57715
1146.42	25.3447
1149.8	24.0679
1153.17	32.6606
1156.55	39.0557
1159.92	82.7598
1163.3	16.9009
1166.67	4.21094
1170.05	107.684
1173.42	2.68359
1176.8	95.395
1180.17	87.4307
1183.54	87.125
1186.92	100.089
1190.29	89.0518
1193.67	39.6084
1197.04	85.4761
1200.42	88.8394
1203.79	76.0547
1207.17	43.6318
1210.54	26.5913
1213.92	152.348
1217.29	63.7803
1220.67	49.0586
1224.04	96.04
1227.42	56.1475
1230.79	62.9385
1234.17	78.7935
1237.54	111.481
1240.92	79.1528
1244.29	103.57
1247.67	101.079
1251.04	107.154
1254.42	96.478
1257.79	52.958
1261.16	78.9746
1264.54	70.8115
1267.91	34.6318
1271.29	2.74414
1274.66	111.008
1278.04	94.3701
1281.41	77.6567
1284.79	59.6733
1288.16	50.5454
1291.54	13.9898
1294.91	87.9531
1298.29	71.3242
1301.66	17.9688
