Measurement: Raman, 780 nm, unoriented, Raman Data Processed
Mineral: Eulytine
Rruff sample: R130114
Ideal chemistry: Bi_4_(SiO_4_)_3_
Locality: Flying Saucer Group, Maricopa County, Arizona
Source: Mark Ascher
Description: White or colorless octahedra, associated with R130113 kettnerite, green mottramite
Raman shift (cm-1)	intensity
123.501	0
126.876	2034.25
130.251	7266
133.626	4790.03
137.001	210.699
140.375	124.139
143.75	1246.88
147.125	4684.06
150.5	4622.37
153.875	953.475
157.25	759.713
160.624	936.317
163.999	1035.52
167.374	941.784
170.749	786.555
174.124	492.978
177.498	569.743
180.873	1254.04
184.248	1893.47
187.623	2433.73
190.998	3374.79
194.373	4940.32
197.747	7409.91
201.122	9448.02
204.497	5959.94
207.872	2754.87
211.247	1332.55
214.621	752.97
217.996	400.569
221.371	298.011
224.746	324.998
228.121	18.5679
231.495	104.22
234.87	254.26
238.245	71.1782
241.62	126.185
244.995	185.127
248.369	345.841
251.744	450.293
255.119	621.038
258.494	1104.66
261.869	1589.33
265.244	2258.3
268.618	3255.41
271.993	3859.97
275.368	4157.32
278.743	3715.74
282.118	3400.47
285.493	2945.39
288.867	2552.97
292.242	2106.73
295.617	1448.38
298.992	854.763
302.366	485.154
305.741	556.062
309.116	1176.43
312.491	1962.25
315.866	2302.93
319.241	2648.2
322.615	3688.95
325.99	5042.17
329.365	6185.7
332.74	6724.73
336.115	6484.6
339.49	5965.12
342.864	5272.15
346.239	4408.8
349.614	3835.24
352.989	2641.07
356.364	1820.29
359.738	883.484
363.113	46.6445
366.488	283.643
369.863	242.035
373.238	169.531
376.613	1009.35
379.987	2203.22
383.362	3556.93
386.737	5376.47
390.112	7281.96
393.486	7094.45
396.861	3478.12
400.236	478.586
403.611	708.981
406.986	625.996
410.361	142.477
413.735	1516.7
417.11	3280.68
420.485	5151.19
423.86	6873.97
427.235	8122.99
430.61	8980.6
433.984	9685.43
437.359	9553.94
440.734	9125.43
444.109	9237.98
447.484	9259.1
450.858	9773.84
454.233	10217.6
457.608	10659.5
460.983	11087.8
464.358	11210.6
467.733	11198.8
471.107	10967.4
474.482	10447.4
477.857	9373.53
481.232	7969.18
484.606	6484.29
487.981	5107.64
491.356	4142.83
494.731	3699.07
498.106	4230.43
501.481	5315.26
504.855	6872.38
508.23	8274.34
511.605	10277
514.98	11835
518.355	12930.4
521.73	13331.8
525.104	12623.2
528.479	11403.5
531.854	9840.83
535.229	7674.69
538.604	5853.83
541.978	4440.71
545.353	3216.94
548.728	2163.01
552.103	1392.94
555.478	599.283
558.852	204.014
562.227	58.374
565.602	192.394
568.977	257.688
572.352	267.138
575.726	190.983
579.101	250.004
582.476	114.439
585.851	47.7236
589.226	21.0771
592.601	92.5957
595.975	100.744
599.35	271.747
602.725	312.681
606.1	464.4
609.475	624.543
612.85	671.722
616.224	822.403
619.599	923.793
622.974	992.251
626.349	1060.67
629.723	1158.46
633.098	1107.99
636.473	1140.08
639.848	1098.93
643.223	1194.72
646.598	1128.19
649.972	997.692
653.347	962.861
656.722	832.4
660.097	657.341
663.472	498.235
666.846	475.715
670.221	334.669
673.596	169.375
676.971	1.71924
680.346	70.7856
683.721	22.332
687.095	110.935
690.47	32.1592
693.845	52.3398
697.22	40.1631
700.595	91.9673
703.97	175.124
707.344	392.837
710.719	507.675
714.094	815.137
717.469	1165.15
720.843	1532.68
724.218	1923.78
727.593	2358.09
730.968	2710.06
734.343	2973.5
737.718	3114.89
741.092	2982.67
744.467	2631.34
747.842	2314.3
751.217	2050.27
754.592	1484.32
757.966	1218.7
761.341	775.57
764.716	659.222
768.091	482.041
771.466	439.361
774.841	301.222
778.215	420.893
781.59	323.817
784.965	377.739
788.34	452.247
791.715	536.639
795.089	536.009
798.464	545.144
801.839	275.561
805.214	162.212
808.589	229.918
811.963	235.716
815.338	167.347
818.713	261.435
822.088	458.981
825.463	678.965
828.838	909.708
832.212	866.894
835.587	955.699
838.962	971.754
842.337	941.737
845.712	818.059
849.087	643.446
852.461	508.984
855.836	611.125
859.211	603.231
862.586	892.592
865.961	992.263
869.335	823.653
872.71	216.623
876.085	1.0459
879.46	85.0947
882.835	9.02246
886.209	121.54
889.584	7.69043
892.959	8.14746
896.334	39.752
899.709	12.4692
903.083	109.274
906.458	178.259
909.833	317.561
913.208	516.961
916.583	766.153
919.958	779.163
923.332	805.608
926.707	931.513
930.082	826.557
933.457	727.528
936.832	601.819
940.207	510.114
943.581	470.569
946.956	291.511
950.331	170.491
953.706	55.8823
957.081	67.7742
960.455	134.991
963.83	131.559
967.205	112.462
970.58	161.074
973.955	171.813
977.329	115.375
980.704	164.419
984.079	292.791
987.454	96.4831
990.829	137.757
994.203	182.235
997.578	136.35
1000.95	107.433
1004.33	88.0232
1007.7	42.4316
1011.08	114.011
1014.45	0.772217
1017.83	24.8291
1021.2	50.7781
1024.58	26.874
1027.95	30.9255
1031.33	9.03711
1034.7	39.8213
1038.08	32.1567
1041.45	29.3196
1044.83	59.636
1048.2	62.0452
1051.58	79.8555
1054.95	8.04639
1058.33	85.8552
1061.7	25.2048
1065.08	253.307
1068.45	71.1953
1071.82	36.6108
1075.2	5.61743
1078.57	219.989
1081.95	104.7
1085.32	61.1882
1088.7	54.9451
1092.07	200.588
1095.45	179.474
1098.82	113.062
1102.2	115.341
1105.57	168.801
1108.95	209.634
1112.32	268.792
1115.7	350.799
1119.07	283.274
1122.45	465.074
1125.82	348.632
1129.2	648.681
1132.57	492.588
1135.95	537.562
1139.32	558.535
1142.69	640.09
1146.07	655.688
1149.44	639.568
1152.82	658.052
1156.19	681.183
1159.57	643.762
1162.94	694.271
1166.32	742.441
1169.69	866.129
1173.07	1051.74
1176.44	1181.69
1179.82	1242.87
1183.19	1269.89
1186.57	1200.91
1189.94	1404.85
1193.32	1352.98
1196.69	1209.14
1200.07	1293.57
1203.44	1203.44
1206.82	960.521
1210.19	878.784
1213.57	802.075
1216.94	457.532
1220.32	178.001
1223.69	88.5879
1227.07	221.656
1230.44	142.783
1233.82	154.492
1237.19	340.168
1240.57	586.332
1243.94	839.898
1247.32	1007.08
1250.69	1224.34
1254.06	1355.59
1257.44	993.098
1260.81	799.135
1264.19	901.318
1267.56	838.715
1270.94	595.75
1274.31	350.555
1277.69	213.402
1281.06	427.625
