Measurement: Raman, 532 nm, unoriented, Raman Data Processed
Mineral: Eurekadumpite
Rruff sample: R100039
Ideal chemistry: (Cu^2+^,Zn^2+^)_16_(Te^4+^O_3_)_2_(As^5+^O_4_)_3_Cl(OH)_18_7H_2_O
Locality: Centennial Eureka mine, Juab County, Utah, USA
Source: Jeff Weissman
Description: Spheres of radiating blue acicular crystals
Raman shift (cm-1)	intensity
90.9743	0
94.3491	1.80043
97.7239	3.28059
101.099	4.12376
104.474	5.63724
107.848	7.25851
111.223	13.3766
114.598	12.4734
117.973	8.55335
121.348	4.61454
124.722	1.39541
128.097	1.12692
131.472	2.97942
134.847	1.57597
138.222	2.9925
141.597	11.4859
144.971	14.9122
148.346	24.1803
151.721	40.5185
155.096	53.9894
158.471	56.7211
161.845	65.7455
165.22	74.7966
168.595	87.329
171.97	94.9265
175.345	86.5474
178.72	71.3052
182.094	68.8558
185.469	68.1984
188.844	60.7835
192.219	54.793
195.594	55.1434
198.968	64.1641
202.343	72.2926
205.718	65.2774
209.093	51.6856
212.468	43.6921
215.843	38.2238
219.217	38.6524
222.592	41.3357
225.967	47.5438
229.342	57.9673
232.717	69.5448
236.091	83.3755
239.466	96.9659
242.841	107.159
246.216	107.596
249.591	98.0281
252.965	80.4166
256.34	67.7721
259.715	52.7994
263.09	32.7694
266.465	18.7287
269.84	9.92638
273.214	6.43887
276.589	4.72523
279.964	3.85671
283.339	4.53132
286.714	6.6664
290.089	9.02674
293.463	7.54124
296.838	2.78503
300.213	1.61004
303.588	4.57842
306.963	3.04505
310.337	1.51046
313.712	0.68483
317.087	3.69321
320.462	5.99758
323.837	11.2617
327.212	11.766
330.586	12.9972
333.961	11.7006
337.336	10.026
340.711	10.3522
344.086	9.98643
347.46	11.1789
350.835	12.7403
354.21	12.8947
357.585	13.0093
360.96	13.2166
364.334	11.3358
367.709	8.43401
371.084	6.63595
374.459	5.70626
377.834	5.75784
381.209	3.20283
384.583	2.34365
387.958	0.29155
391.333	2.69349
394.708	0.679665
398.083	0.604103
401.457	0.179459
404.832	0.336433
408.207	2.13765
411.582	4.97321
414.957	7.48174
418.332	14.0847
421.706	17.6454
425.081	23.2319
428.456	25.0691
431.831	26.6001
435.206	24.7643
438.58	21.9099
441.955	20.402
445.33	19.3737
448.705	20.5462
452.08	17.3886
455.454	13.304
458.829	7.21405
462.204	3.91936
465.579	0.402527
468.954	0.67347
472.329	1.33652
475.703	1.37005
479.078	0.728012
482.453	1.73145
485.828	5.31049
489.203	9.66647
492.577	15.0445
495.952	19.6888
499.327	27.8188
502.702	32.6951
506.077	35.8443
509.452	38.1343
512.826	38.0792
516.201	35.5294
519.576	35.5328
522.951	34.5505
526.326	36.4265
529.701	36.4789
533.075	37.091
536.45	39.5023
539.825	44.1317
543.2	51.4846
546.575	61.4088
549.949	71.2007
553.324	83.8602
556.699	97.482
560.074	112.165
563.449	118.46
566.823	104.524
570.198	74.446
573.573	45.0093
576.948	24.532
580.323	12.9852
583.697	6.21875
587.072	2.69118
590.447	0.617218
593.822	1.46835
597.197	2.88194
600.572	0.686485
603.946	0.259148
607.321	3.91746
610.696	7.10485
614.071	10.2212
617.446	12.139
620.821	11.8609
624.195	10.7393
627.57	5.85945
630.945	3.282
634.32	0.786228
637.695	1.3346
641.069	1.84104
644.444	2.77176
647.819	4.87221
651.194	7.45378
654.569	11.879
657.943	15.5319
661.318	19.9965
664.693	22.7664
668.068	23.1301
671.443	22.4819
674.818	23.0709
678.192	22.9374
681.567	26.3698
684.942	31.373
688.317	42.7853
691.692	63.6064
695.067	93.6812
698.441	135.612
701.816	184.688
705.191	226.57
708.566	234.892
711.941	196.544
715.315	135.03
718.69	81.5124
722.065	49.7728
725.44	30.9112
728.815	19.5462
732.189	10.7819
735.564	6.46523
738.939	3.05978
742.314	1.24072
745.689	0.645317
749.063	0.008278
752.438	0.981617
755.813	1.1743
759.188	0.282047
762.563	0.163109
765.938	0.146198
769.312	0.183174
772.687	0.181995
776.062	1.65313
779.437	2.63695
782.812	3.50066
786.187	4.68587
789.561	5.81801
792.936	9.07681
796.311	11.1459
799.686	13.3767
803.061	15.0638
806.435	17.382
809.81	20.4518
813.185	23.8004
816.56	26.9894
819.935	31.2886
823.309	37.2659
826.684	42.0717
830.059	48.8779
833.434	56.2522
836.809	63.7287
840.184	69.6921
843.558	75.1165
846.933	80.1898
850.308	81.7492
853.683	80.3859
857.058	74.1903
860.433	67.2132
863.807	57.9651
867.182	47.081
870.557	40.478
873.932	31.8368
877.307	25.8583
880.681	22.0157
884.056	15.9416
887.431	11.212
890.806	8.75079
894.181	5.72062
897.556	3.21528
900.93	2.61131
904.305	1.04341
907.68	0.232674
911.055	0.059258
914.43	1.35177
917.804	0.301758
921.179	0.485565
924.554	0.855427
927.929	0.663952
931.304	0.728519
934.678	0.497089
938.053	0.276569
941.428	0.958874
944.803	0.24332
948.178	0.814228
951.553	0.185123
954.927	0.4105
958.302	1.59589
961.677	1.09987
965.052	1.41562
968.427	1.40728
971.802	1.02049
975.176	1.03936
978.551	2.06842
981.926	1.27699
985.301	0.441486
988.676	0.271748
992.05	1.00247
995.425	0.95134
998.8	0.600925
1002.17	1.31911
1005.55	0.456142
1008.92	2.04087
1012.3	1.61762
1015.67	3.75152
1019.05	3.36748
1022.42	3.93063
1025.8	5.6712
1029.17	6.43164
1032.55	6.66636
1035.92	7.80014
1039.3	8.1552
1042.67	7.61543
1046.05	7.19873
1049.42	5.60628
1052.8	3.27192
1056.17	3.83658
1059.55	1.80408
1062.92	1.77574
1066.3	1.87233
1069.67	2.10316
1073.05	1.49914
1076.42	2.07748
1079.8	2.43911
1083.17	1.14075
1086.55	1.22558
1089.92	0.16626
1093.3	0.179466
1096.67	0.422337
1100.04	0.194576
1103.42	0.425945
1106.79	0.94286
1110.17	1.1796
1113.54	0.731232
1116.92	1.136
1120.29	1.56042
1123.67	0.908087
1127.04	1.57522
1130.42	1.29611
1133.79	0.613894
1137.17	0.441338
1140.54	0.351736
1143.92	0.156118
1147.29	0.362667
1150.67	0.246059
1154.04	1.13793
1157.42	0.751207
1160.79	0.194088
1164.17	0.594076
1167.54	0.103386
1170.92	1.06129
1174.29	0.369049
1177.66	0.906517
1181.04	0.399519
1184.41	1.12851
1187.79	1.49759
1191.16	0.696743
1194.54	1.79449
1197.91	1.03807
1201.29	0.873056
1204.66	1.29338
1208.04	0.497442
1211.41	0.819645
1214.79	0.908772
1218.16	1.87276
1221.54	0.835428
1224.91	0.057102
1228.29	1.16197
1231.66	0.686258
1235.04	1.39016
1238.41	1.11512
1241.79	1.18376
1245.16	0.979118
1248.54	0.282009
1251.91	0.801437
1255.29	0.721148
1258.66	1.24704
1262.04	0.272078
1265.41	0.615738
1268.79	0.351852
1272.16	0.671268
1275.54	1.09874
1278.91	0.855665
1282.29	0.188477
1285.66	0.413
1289.03	0.779009
1292.41	0.363047
1295.78	0.241556
1299.16	0.63241
1302.53	0.309494
