Measurement: Raman, 532 nm, unoriented, Raman Data Processed
Mineral: Euxenite-(Y)
Rruff sample: R080101
Ideal chemistry: (Y,Ca,Ce,U,Th)(Nb,Ta,Ti)_2_O_6_
Locality: Betafo, Madagascar
Source: Michael Scott
Description: Khaki colored fragment from metamict sample R060856, after heating at T = 1000 C for 24 hours
Raman shift (cm-1)	intensity
135.363	0
138.737	91.168
142.112	140.343
145.487	159.724
148.862	261.406
152.237	281.905
155.612	279.424
158.986	355.691
162.361	520.189
165.736	529.148
169.111	466.719
172.486	297.203
175.86	108.713
179.235	42.3457
182.61	114.866
185.985	95.645
189.36	77.1836
192.734	48.1553
196.109	312.614
199.484	726.021
202.859	1164
206.234	1481.66
209.608	1560.57
212.983	1527.45
216.358	1550.03
219.733	1616.88
223.108	1630.49
226.483	1576.71
229.857	1485.76
233.232	1312.61
236.607	1160.8
239.982	1022.04
243.357	938.453
246.732	923.585
250.106	1081.31
253.481	1329.56
256.856	1651.41
260.231	2035.16
263.606	2488.4
266.98	3008.71
270.355	3487.63
273.73	3922.09
277.105	4260.12
280.48	4408.06
283.854	4323.61
287.229	4080.99
290.604	3861.77
293.979	3715.39
297.354	3589.79
300.729	3495.01
304.103	3371.56
307.478	3162.23
310.853	2928.69
314.228	2672.69
317.603	2473.36
320.978	2147.62
324.352	1869.06
327.727	1496.68
331.102	1160.36
334.477	818.009
337.851	492.948
341.226	236.207
344.601	46.5293
347.976	104.932
351.351	227.503
354.726	280.993
358.1	290.768
361.475	209.954
364.85	59.1152
368.225	185.875
371.6	597.722
374.974	1193.63
378.349	1946.1
381.724	2970.48
385.099	4315.89
388.474	5898.93
391.849	7753.1
395.223	9699.61
398.598	11643.8
401.973	13219.8
405.348	14447.2
408.723	15317.6
412.098	15947.8
415.472	16590.8
418.847	17177.3
422.222	17479.2
425.597	17186
428.972	16412.9
432.346	15682
435.721	15362.3
439.096	14847.1
442.471	12914.8
445.846	9274.81
449.221	5229.39
452.595	2278.22
455.97	893.502
459.345	840.691
462.72	1633.61
466.095	2958.12
469.469	4238.1
472.844	5437.81
476.219	6447.83
479.594	7214.59
482.969	7651.82
486.344	7553.54
489.718	6895.79
493.093	6014.85
496.468	5354.52
499.843	5068.46
503.218	4827.35
506.592	4134.06
509.967	2968.12
513.342	1569.31
516.717	385.659
520.092	335.56
523.466	530.607
526.841	239.425
530.216	328.53
533.591	1138.91
536.966	2003.97
540.341	2727.14
543.715	3111.96
547.09	3118.44
550.465	2710.81
553.84	2114.65
557.215	1495.71
560.59	1008.65
563.964	625.619
567.339	362.088
570.714	233.095
574.089	160.357
577.464	128.715
580.838	56.8096
584.213	4.42481
587.588	79.1269
590.963	117.667
594.338	238.344
597.712	335.397
601.087	484.483
604.462	695.874
607.837	968.751
611.212	1338.87
614.587	1783.85
617.961	2374.98
621.336	3304.43
624.711	4458.4
628.086	5671.43
631.461	6712.53
634.835	7525.6
638.21	8133.3
641.585	8426.61
644.96	8404.17
648.335	7999.96
651.71	7308.07
655.084	6427.34
658.459	5244.84
661.834	4039.62
665.209	2797.11
668.584	1701.64
671.958	779.672
675.333	43.7217
678.708	404.088
682.083	502.845
685.458	295.812
688.832	250.065
692.207	1140.46
695.582	2295.95
698.957	3670.6
702.332	5118.83
705.707	6604.89
709.081	7835.94
712.456	8744.18
715.831	9093.05
719.206	8917.44
722.581	8144.85
725.955	6967.5
729.33	5466.32
732.705	3848.06
736.08	2256.39
739.455	919.67
742.83	52.6465
746.204	69.3184
749.579	243.072
752.954	1084.43
756.329	2153.5
759.704	3416.1
763.078	4747.98
766.453	6047.2
769.828	7144.2
773.203	8005.79
776.578	8436.47
779.952	8299.18
783.327	7474.36
786.702	6112.88
790.077	4437.98
793.452	2874.35
796.827	1487.52
800.201	649.547
803.576	500.92
806.951	1126.24
810.326	2303.96
813.701	4003.22
817.076	6112
820.45	8272.17
823.825	10424.6
827.2	12384.4
830.575	14211.1
833.95	15732
837.324	16913.1
840.699	17774.9
844.074	18089.5
847.449	17952.2
850.824	17208.4
854.198	16077.1
857.573	14402.7
860.948	12423.3
864.323	10360.1
867.698	8298.31
871.073	6458.93
874.447	4915.75
877.822	3576.65
881.197	2507.8
884.572	1636.06
887.947	965.22
891.322	479.227
894.696	111.506
898.071	130.102
901.446	243.503
904.821	285.322
908.196	265.523
911.57	198.539
914.945	67.9258
918.32	85.856
921.695	267.847
925.07	444.089
928.444	628.03
931.819	813.846
935.194	1013.48
938.569	1207.5
941.944	1376.45
945.318	1513.41
948.693	1674.79
952.068	1794.5
955.443	1889.74
958.818	1894.41
962.193	1838.23
965.567	1725.73
968.942	1568.04
972.317	1397.62
975.692	1261.76
979.067	1163.61
982.442	1083.34
985.816	998.922
989.191	918.282
992.566	853.653
995.941	792.946
999.316	742.051
1002.69	695.097
1006.07	646.184
1009.44	596.319
1012.82	541.527
1016.19	484.524
1019.57	437.765
1022.94	397.132
1026.31	347.451
1029.69	316.642
1033.06	284.904
1036.44	259.684
1039.81	241.277
1043.19	220.658
1046.56	206.262
1049.94	190.843
1053.31	172.353
1056.69	157.98
1060.06	140.308
1063.44	118.498
1066.81	106.97
1070.19	91.5289
1073.56	74.3439
1076.94	51.6082
1080.31	37.45
1083.69	25.3993
1087.06	3.45227
1090.44	3.17346
1093.81	4.52063
1097.18	12.7955
1100.56	9.50513
1103.93	12.6696
1107.31	8.58191
1110.68	19.4464
1114.06	10.7645
1117.43	16.0001
1120.81	8.51526
1124.18	4.54883
1127.56	2.68933
1130.93	0.855835
1134.31	0.405518
1137.68	6.45325
1141.06	5.37134
1144.43	11.4421
1147.81	5.0177
1151.18	8.88574
1154.56	15.8716
1157.93	8.87476
1161.31	17.093
1164.68	15.1163
1168.06	15.5454
1171.43	13.1656
1174.81	16.6751
1178.18	9.67426
1181.56	8.63586
1184.93	10.1886
1188.31	15.5325
1191.68	13.5812
1195.06	14.2579
1198.43	19.4617
1201.81	17.5048
1205.18	17.7836
1208.55	19.0269
1211.93	21.304
1215.3	19.2406
1218.68	27.0851
1222.05	19.3181
1225.43	26.113
1228.8	23.3981
1232.18	36.5441
1235.55	22.9024
1238.93	23.2327
1242.3	25.8307
1245.68	28.0134
1249.05	26.3515
1252.43	30.577
1255.8	24.6334
1259.18	27.3689
1262.55	26.7544
1265.93	25.4721
1269.3	22.0998
1272.68	20.2038
1276.05	19.3403
1279.42	18.6145
1282.8	12.6273
1286.17	8.68762
1289.55	4.98218
1292.92	6.22766
1296.3	6.23187
1299.67	4.23792
1303.05	0.68634
