Measurement: Raman, 780 nm, unoriented, Raman Data Processed
Mineral: Euxenite-(Y)
Rruff sample: R080101
Ideal chemistry: (Y,Ca,Ce,U,Th)(Nb,Ta,Ti)_2_O_6_
Locality: Betafo, Madagascar
Source: Michael Scott
Description: Khaki colored fragment from metamict sample R060856, after heating at T = 1000 C for 24 hours
Raman shift (cm-1)	intensity
135.245	0
138.138	71.8394
141.031	352.151
143.923	723.031
146.816	1092.53
149.709	1384.42
152.601	1572.13
155.494	1644.62
158.387	1609.94
161.28	1485.86
164.172	1303.87
167.065	1134.38
169.958	987.933
172.85	840.992
175.743	741.177
178.636	724.04
181.529	808.582
184.421	965.729
187.314	1189.59
190.207	1483.23
193.099	1861
195.992	2221.22
198.885	2558.4
201.777	2865.41
204.67	3028.96
207.563	3059.87
210.456	2934.15
213.348	2705.38
216.241	2445.36
219.134	2163.13
222.026	1874.15
224.919	1607.25
227.812	1312.34
230.704	1019.78
233.597	753.558
236.49	514.74
239.382	300.469
242.275	137.079
245.168	26.5337
248.061	64.562
250.953	107.29
253.846	126.203
256.739	116.868
259.631	56.394
262.524	40.3433
265.417	148.566
268.31	266.902
271.202	398.499
274.095	529.285
276.988	637.276
279.88	722.949
282.773	751.996
285.666	747.973
288.558	674.06
291.451	640.153
294.344	631.79
297.237	650.668
300.129	683.911
303.022	702.791
305.915	704.517
308.807	660.955
311.7	628.313
314.593	589.927
317.486	586.183
320.378	571.465
323.271	593.68
326.164	607.776
329.056	609.896
331.949	588.131
334.842	586.604
337.734	579.66
340.627	609.813
343.52	620.418
346.413	644.312
349.305	653.076
352.198	658.472
355.091	649.19
357.983	647.806
360.876	641.765
363.769	634.489
366.661	607.443
369.554	572.111
372.447	547.981
375.339	527.706
378.232	479.823
381.125	443.429
384.018	403.018
386.91	380.804
389.803	345.038
392.696	332.817
395.588	329.827
398.481	334.962
401.374	332.666
404.267	302.865
407.159	278.601
410.052	247.477
412.945	217.026
415.837	161.647
418.73	96.4512
421.623	49.9756
424.515	20.9766
427.408	27.8555
430.301	60.4228
433.193	45.5596
436.086	41.1299
438.979	22.9082
441.872	18.707
444.764	27.8516
447.657	49.7832
450.55	98.3438
453.442	149.755
456.335	216.761
459.228	299.897
462.121	397.206
465.013	497.488
467.906	580.806
470.799	660.774
473.691	707.44
476.584	738.957
479.477	722.13
482.37	681.327
485.262	593.732
488.155	483.739
491.048	389.115
493.94	305.847
496.833	252.457
499.726	230.143
502.618	200.417
505.511	192.637
508.404	184.391
511.296	193.32
514.189	180.32
517.082	180.439
519.975	171.674
522.867	167.431
525.76	174.216
528.653	165.713
531.545	151.683
534.438	124.444
537.331	101.873
540.223	59.2407
543.116	52.0552
546.009	18.9658
548.902	6.53516
551.794	14.7676
554.687	20.4185
557.58	21.7393
560.472	7.33447
563.365	4.63428
566.258	34.9082
569.15	70.0464
572.043	124.348
574.936	178.183
577.829	238.139
580.721	315.15
583.614	376.977
586.507	437.188
589.399	498.408
592.292	545.217
595.185	569.555
598.078	579.96
600.97	585.63
603.863	572.606
606.756	562.636
609.648	524.743
612.541	500.623
615.434	460.577
618.327	455.733
621.219	436.413
624.112	434.913
627.005	438.776
629.897	423.016
632.79	424.72
635.683	432.415
638.575	426.175
641.468	430.505
644.361	421.328
647.254	395.627
650.146	375.168
653.039	343.778
655.932	311.092
658.824	276.954
661.717	248.079
664.61	207.956
667.502	169.664
670.395	147.273
673.288	106.891
676.181	74.2192
679.073	51.7827
681.966	38.6631
684.859	20.8916
687.751	16.4722
690.644	14.2617
693.537	5.20752
696.429	0.627197
699.322	3.58618
702.215	4.18189
705.107	3.76294
708	5.63
710.893	6.68127
713.786	8.0437
716.678	6.08569
719.571	4.33948
722.464	1.73315
725.356	2.84985
728.249	4.06104
731.142	2.75501
734.034	0.305542
736.927	9.31885
739.82	7.60376
742.713	6.25513
745.605	7.38269
748.498	4.16443
751.391	3.70667
754.283	4.86597
757.176	4.31421
760.069	0.910767
762.962	3.12036
765.854	5.8385
768.747	12.4345
771.64	16.2365
774.532	22.4777
777.425	23.9389
780.318	29.1823
783.21	38.6815
786.103	42.1415
788.996	50.3126
791.889	60.2176
794.781	65.0811
797.674	71.5696
800.567	81.178
803.459	89.9977
806.352	107.568
809.245	129.032
812.138	154.214
815.03	185.411
817.923	227.387
820.816	276.615
823.708	340.052
826.601	412.322
829.494	500.391
832.386	594.759
835.279	699.462
838.172	812.324
841.064	922.559
843.957	1017.82
846.85	1088.26
849.743	1125.94
852.635	1115.01
855.528	1060.95
858.421	966.682
861.313	849.877
864.206	715.567
867.099	585.067
869.991	468.732
872.884	370.13
875.777	289.01
878.67	211.733
881.562	154.871
884.455	108.944
887.348	71.9112
890.24	44.7127
893.133	25.2996
896.026	10.9868
898.918	0.841064
901.811	2.36261
904.704	4.27191
907.597	9.39954
910.489	4.68677
913.382	0.586792
916.275	2.5307
919.168	8.10461
922.06	11.6848
924.953	14.9727
927.846	18.823
930.738	26.3859
933.631	26.4112
936.524	30.2204
939.416	28.1467
942.309	26.7646
945.202	24.5222
948.095	20.4797
950.987	14.8999
953.88	11.2297
956.773	6.33765
959.665	3.8533
962.558	1.72324
965.451	1.22363
968.343	1.39264
971.236	1.54923
974.129	2.56259
977.021	5.77707
979.914	10.7257
982.807	15.0753
985.7	21.2763
988.592	27.3908
991.485	33.6105
994.378	38.0721
997.27	40.3392
1000.16	42.5614
1003.06	42.7518
1005.95	42.589
1008.84	39.4947
1011.73	37.5917
1014.63	33.7162
1017.52	30.4398
1020.41	25.8881
1023.3	21.3064
1026.2	17.9328
1029.09	12.1894
1031.98	9.4772
1034.88	10.4922
1037.77	12.524
1040.66	11.4005
1043.55	13.1584
1046.45	14.8481
1049.34	17.8031
1052.23	20.6413
1055.12	21.6578
1058.02	22.6202
1060.91	22.3596
1063.8	20.6524
1066.69	20.7006
1069.59	19.4871
1072.48	16.1295
1075.37	13.9259
1078.27	12.1608
1081.16	9.89569
1084.05	6.63046
1086.94	7.07547
1089.84	4.17903
1092.73	2.45941
1095.62	2.29622
1098.52	0.453903
1101.41	0.348251
1104.3	0.80162
1107.19	0.322159
1110.09	0.718719
1112.98	0.691666
1115.87	0.838242
1118.76	0.113815
1121.66	0.283005
1124.55	0.577682
1127.44	1.68422
1130.34	0.946213
1133.23	1.24637
1136.12	3.29416
1139.01	2.92071
1141.91	3.21332
1144.8	3.33044
1147.69	3.19888
1150.58	3.1008
1153.48	2.93184
1156.37	2.42343
1159.26	3.67128
1162.15	3.23235
1165.05	3.30631
1167.94	3.18666
1170.83	2.45354
1173.72	1.45633
1176.62	1.96423
1179.51	0.845306
1182.4	1.48029
1185.3	2.33946
1188.19	1.07665
1191.08	0.770508
1193.97	0.610809
1196.87	1.3712
1199.76	3.39894
1202.65	3.22226
1205.55	4.5829
1208.44	5.00774
1211.33	5.86154
1214.22	7.38844
1217.12	7.97282
1220.01	7.14304
1222.9	8.38669
1225.79	6.71631
1228.69	6.65297
1231.58	5.2724
1234.47	20.7117
1237.37	3.15448
1240.26	3.10522
1243.15	1.01755
1246.04	1.13756
1248.93	1.48714
1251.83	1.47148
1254.72	0.528198
1257.61	0.408066
1260.51	1.26961
1263.4	2.23058
1266.29	14.1586
1269.18	2.49626
1272.08	2.84178
1274.97	2.18428
1277.86	1.63641
1280.76	2.97083
1283.65	1.51886
1286.54	0.939453
