Measurement: Raman, 532 nm, unoriented, Raman Data Processed
Mineral: Evansite
Rruff sample: R061030
Ideal chemistry: Al_3_PO_4_(OH)_6_8H_2_O
Locality: Creu Olorde, Barcelona, Spain
Source: Michael Scott
Description: Colorless to very pale blue transparent botryoidal crust. Sample is amorphous to X-rays.
Raman shift (cm-1)	intensity
158.646	0
161.539	134.519
164.431	163.998
167.324	258.339
170.217	273.741
173.109	147.527
176.002	121.564
178.895	198.459
181.788	268.716
184.68	318.857
187.573	372.109
190.466	375.721
193.358	374.352
196.251	347.539
199.144	388.651
202.036	512.887
204.929	499.242
207.822	556.131
210.714	501.988
213.607	338.338
216.5	295.157
219.393	317.101
222.285	419.643
225.178	227.167
228.071	301.083
230.963	73.0234
233.856	118.07
236.749	79.2461
239.642	26.9912
242.534	41.0459
245.427	58.2559
248.32	43.0244
251.212	30.4668
254.105	69.3525
256.998	68.5019
259.89	67.3018
262.783	56.8662
265.676	88.9766
268.568	52.1592
271.461	76.5342
274.354	30.3281
277.247	89.0908
280.139	11.1494
283.032	130.398
285.925	68.9453
288.817	101.061
291.71	97.7647
294.603	72.4014
297.495	13.3916
300.388	26.6953
303.281	174.624
306.174	132.788
309.066	209.25
311.959	129.464
314.852	122.278
317.744	156.72
320.637	65.0918
323.53	206.141
326.422	290.515
329.315	223.019
332.208	295.809
335.101	276.392
337.993	275.848
340.886	392.494
343.779	323.554
346.671	360.087
349.564	478.664
352.457	519.713
355.349	504.046
358.242	446.779
361.135	449.526
364.027	524.038
366.92	488.834
369.813	490.228
372.706	492.906
375.598	359.782
378.491	274.836
381.384	228.544
384.276	151.953
387.169	145.448
390.062	96.5762
392.954	54.4805
395.847	87.793
398.74	19.5361
401.633	51.5967
404.525	49.1309
407.418	48.2197
410.311	69.5908
413.203	108.167
416.096	217.431
418.989	310.09
421.881	428.565
424.774	601.675
427.667	721.793
430.56	885.965
433.452	1251.87
436.345	1460.64
439.238	1620.87
442.13	1811.49
445.023	2012.62
447.916	2067.97
450.808	2069.73
453.701	2130.14
456.594	2225.78
459.486	2263.01
462.379	2417.38
465.272	2350.94
468.165	1839.07
471.057	1244.56
473.95	863.749
476.843	552.294
479.735	413.735
482.628	330.989
485.521	239.934
488.413	192.117
491.306	40.7373
494.199	20.3125
497.092	49.1631
499.984	50.0029
502.877	52.5176
505.77	119.832
508.662	158.605
511.555	194.148
514.448	289.64
517.341	352.146
520.233	392.787
523.126	479.642
526.019	397.632
528.911	407.47
531.804	278.869
534.697	315.286
537.589	176.617
540.482	190.074
543.375	180.951
546.268	125.352
549.16	20.8643
552.053	22.6787
554.946	12.0996
557.838	16.7559
560.731	72.0635
563.624	3.52832
566.516	26.4629
569.409	108.968
572.302	87.9385
575.194	142.843
578.087	211.148
580.98	337.851
583.872	499.808
586.765	682.821
589.658	809.867
592.551	923.847
595.443	1115.54
598.336	1314.64
601.229	1481.84
604.121	1613.31
607.014	1775.75
609.907	1961.3
612.799	1995.1
615.692	1953.6
618.585	1912.34
621.477	1861.11
624.37	1857.03
627.263	1663.26
630.156	1562.26
633.048	1430.51
635.941	1371.82
638.834	1178.68
641.726	1044.6
644.619	829.734
647.512	801.931
650.404	744.487
653.297	741.042
656.19	595.912
659.083	561.343
661.975	508.277
664.868	510.726
667.761	486.74
670.653	500.992
673.546	443.793
676.439	280.515
679.332	287.387
682.224	269.599
685.117	227.251
688.01	228.028
690.902	190.319
693.795	156.615
696.688	202.31
699.58	30.3691
702.473	4.38281
705.366	11.2119
708.259	7.80371
711.151	14.2021
714.044	54.6797
716.937	72.3066
719.829	6.87207
722.722	17.0938
725.615	42.3232
728.507	20.4023
731.4	4.83301
734.293	22.8877
737.185	60.998
740.078	12.3477
742.971	0.452148
745.864	73.124
748.756	119.536
751.649	25.5107
754.542	68.0684
757.434	105.03
760.327	48.0254
763.22	36.2266
766.112	53.0205
769.005	170.782
771.898	84.5049
774.79	54.2842
777.683	125.193
780.576	163.793
783.469	116.3
786.361	161.795
789.254	187.657
792.147	203.269
795.039	270.531
797.932	285.828
800.825	293.903
803.717	281.687
806.61	339.93
809.503	368.474
812.396	421.435
815.288	468.87
818.181	452.267
821.074	495.797
823.966	463.426
826.859	575.791
829.752	498.685
832.644	504.164
835.537	497.461
838.43	516.58
841.323	473.076
844.215	372.675
847.108	450.308
850.001	356.318
852.893	289.489
855.786	315.852
858.679	341.216
861.571	389.453
864.464	311.925
867.357	346.476
870.25	254.711
873.142	276.435
876.035	224.839
878.928	280.663
881.82	232.569
884.713	214.144
887.606	231.984
890.498	260.63
893.391	207.101
896.284	208.701
899.177	143.302
902.069	37.5957
904.962	76.7793
907.855	39.0117
910.747	76.9951
913.64	14.9658
916.533	26.3877
919.425	48.0801
922.318	16.0918
925.211	16.0498
928.104	21.5283
930.996	11.1846
933.889	25.8438
936.782	26.4707
939.674	14.9795
942.567	47.6445
945.46	55.7803
948.352	41.0039
951.245	104.219
954.138	297.572
957.03	426.359
959.923	765.682
962.816	1244.51
965.709	2074.74
968.601	3425.88
971.494	5505.33
974.387	8405.28
977.279	11646
980.172	14052.6
983.065	14172.2
985.957	12295.9
988.85	9388.96
991.743	6940.58
994.635	5361.28
997.528	4808.84
1000.42	4603.16
1003.31	4509.86
1006.21	4425.62
1009.1	4384.4
1011.99	4136.43
1014.88	3963.3
1017.78	3630.7
1020.67	3379.45
1023.56	3167.96
1026.45	2840.76
1029.35	2587.75
1032.24	2240.63
1035.13	1932.02
1038.03	1573.9
1040.92	1367.68
1043.81	1121.51
1046.7	834.955
1049.6	793.943
1052.49	574.14
1055.38	501.448
1058.28	434.354
1061.17	320.978
1064.06	147.991
1066.95	95.0283
1069.85	54.6572
1072.74	63.5527
1075.63	10.4815
1078.52	14.4238
1081.42	73.4697
1084.31	80.0537
1087.2	35.3359
1090.09	19.5029
1092.99	0.111328
1095.88	43.8516
1098.77	87.291
1101.66	47.9463
1104.56	41.0488
1107.45	105.62
1110.34	97.8486
1113.24	22.749
1116.13	56.7315
1119.02	21.6855
1121.91	49.7315
1124.81	54.6934
1127.7	135.496
1130.59	102.468
1133.48	133.394
1136.38	254.816
1139.27	97.9775
1142.16	78.4971
1145.06	72.8379
1147.95	107.017
1150.84	130.81
1153.73	104.968
1156.63	66.6807
1159.52	155.495
1162.41	167.913
1165.31	6.08496
1168.2	89.5967
1171.09	10.1924
1173.98	12.0254
1176.88	17.2979
1179.77	35.2539
1182.66	53.8965
1185.55	18.4639
1188.45	87.1885
1191.34	59.294
1194.23	44.085
1197.12	12.7266
1200.02	54.2539
1202.91	5.21387
1205.8	0.260742
