Measurement: Raman, 785 nm, unoriented, Raman Data Processed
Mineral: Evansite
Rruff sample: R061030
Ideal chemistry: Al_3_PO_4_(OH)_6_8H_2_O
Locality: Creu Olorde, Barcelona, Spain
Source: Michael Scott
Description: Colorless to very pale blue transparent botryoidal crust. Sample is amorphous to X-rays.
Raman shift (cm-1)	intensity
162.99	0
165.882	161.414
168.775	305.375
171.668	333.606
174.561	248.294
177.453	164.023
180.346	136.478
183.239	111.516
186.131	129.365
189.024	144.391
191.917	173.556
194.81	252.889
197.702	206.184
200.595	282.363
203.488	301.672
206.38	294.606
209.273	318.997
212.166	206.84
215.058	174.711
217.951	190.707
220.844	222.157
223.737	125.319
226.629	117.172
229.522	84.811
232.415	3.31103
235.307	33.2183
238.2	51.8486
241.093	45.5962
243.985	2.89941
246.878	8.95996
249.771	0.169922
252.663	19.0547
255.556	21.9702
258.449	8.71924
261.342	0.342285
264.234	87.7051
267.127	3.4458
270.02	9.21582
272.912	42.3501
275.805	29.458
278.698	68.415
281.591	71.9565
284.483	90.8843
287.376	70.8638
290.269	36.4482
293.161	74.6831
296.054	89.4165
298.947	126.907
301.839	249.118
304.732	157.38
307.625	182.803
310.517	181.532
313.41	200.679
316.303	194.989
319.196	209.082
322.088	199.527
324.981	293.3
327.874	335.611
330.766	349.469
333.659	386.795
336.552	359.276
339.445	316.159
342.337	358.808
345.23	355.871
348.123	384.361
351.015	443.65
353.908	474.727
356.801	476.661
359.693	396.435
362.586	473.331
365.479	437.617
368.372	438.036
371.264	486.017
374.157	403.983
377.05	354.057
379.942	257.848
382.835	150.116
385.728	90.7739
388.62	72.7358
391.513	26.3633
394.406	68.8564
397.299	17.5137
400.191	39.8726
403.084	9.36621
405.977	12.2793
408.869	57.4033
411.762	5.46436
414.655	14.4004
417.548	108.486
420.44	146.849
423.333	231.053
426.226	301.657
429.118	405.71
432.011	531.847
434.904	614.824
437.796	811.858
440.689	939.627
443.582	975.639
446.474	1075.14
449.367	1029.98
452.26	1055.3
455.153	1009.56
458.045	1057.52
460.938	1160.68
463.831	1151.35
466.723	956.615
469.616	690.671
472.509	501.513
475.401	338.606
478.294	253.126
481.187	144.677
484.08	117.714
486.972	101.642
489.865	102.071
492.758	62.5476
495.65	18.729
498.543	15.2886
501.436	34.1975
504.329	30.2505
507.221	20.0056
510.114	64.4175
513.007	164.295
515.899	208.012
518.792	223.672
521.685	261.545
524.577	277.835
527.47	267.596
530.363	293.872
533.255	222.076
536.148	216.245
539.041	201.482
541.934	167.679
544.826	76.9756
547.719	69.9331
550.612	43.9177
553.504	14.1372
556.397	32.2495
559.29	49.0488
562.183	34.2703
565.075	17.9731
567.968	19.0173
570.861	2.04663
573.753	39.5727
576.646	52.78
579.539	130.609
582.432	179.734
585.324	216.347
588.217	314.288
591.11	384.966
594.002	425.544
596.895	551.149
599.788	633.55
602.68	682.052
605.573	768.061
608.466	863.07
611.359	857.952
614.251	866.964
617.144	805.542
620.037	765.596
622.929	764.051
625.822	687.592
628.715	669.451
631.607	662.748
634.5	570.542
637.393	491.972
640.285	467.904
643.178	450.241
646.071	395.304
648.964	388.706
651.856	363.319
654.749	366.163
657.642	336.822
660.534	382.104
663.427	335.804
666.32	279.361
669.212	288.373
672.105	286.21
674.998	318.742
677.891	329.841
680.783	236.106
683.676	206.917
686.569	152.806
689.461	176.395
692.354	130.482
695.247	107.853
698.139	73.2405
701.032	56.9536
703.925	8.00366
706.818	13.0806
709.71	7.29614
712.603	1.18921
715.496	3.8501
718.388	11.4468
721.281	30.2217
724.174	2.6145
727.067	32.4805
729.959	5.19897
732.852	13.4436
735.745	16.3665
738.637	15.5727
741.53	28.1987
744.423	27.9805
747.315	71.249
750.208	63.6755
753.101	68.4329
755.994	46.4702
758.886	48.0327
761.779	60.2649
764.672	61.0054
767.564	29.5454
770.457	40.1138
773.35	53.8269
776.242	48.3931
779.135	52.7993
782.028	36.7998
784.92	26.928
787.813	79.8362
790.706	92.0784
793.599	66.6794
796.491	71.323
799.384	92.866
802.277	37.8755
805.169	54.6482
808.062	51.6121
810.955	67.928
813.847	41.2539
816.74	52.2293
819.633	62.2781
822.526	36.2029
825.418	26.0129
828.311	40.7119
831.204	19.1509
834.096	58.0322
836.989	38.6812
839.882	71.71
842.774	45.3611
845.667	58.3982
848.56	59.0818
851.453	102.121
854.345	95.3979
857.238	100.548
860.131	114.731
863.023	101.483
865.916	162.223
868.809	150.414
871.702	128.855
874.594	97.1558
877.487	102.609
880.38	134.401
883.272	84.8938
886.165	66.925
889.058	53.4829
891.95	57.2656
894.843	59.4685
897.736	88.4941
900.629	48.0039
903.521	14.0523
906.414	29.7866
909.307	30.9788
912.199	9.84277
915.092	10.8015
917.985	2.58423
920.877	17.3042
923.77	29.4504
926.663	6.3811
929.556	0.767822
932.448	27.874
935.341	30.3943
938.234	2.16357
941.126	3.78418
944.019	5.06055
946.912	34.5691
949.804	46.3953
952.697	115.087
955.59	173.837
958.482	277.668
961.375	440.157
964.268	745.305
967.161	1163.31
970.053	2010.07
972.946	3381.74
975.839	5176.06
978.731	6835.64
981.624	7678.52
984.517	7142.86
987.409	5653.9
990.302	4186.11
993.195	3129.7
996.088	2656.89
998.98	2561.99
1001.87	2538.97
1004.77	2519.19
1007.66	2444.26
1010.55	2346.52
1013.44	2221.71
1016.34	2125.4
1019.23	1960.66
1022.12	1803.27
1025.02	1642.69
1027.91	1423.16
1030.8	1350.08
1033.69	1114.57
1036.59	991.093
1039.48	869.257
1042.37	755.761
1045.26	559.309
1048.16	505.053
1051.05	445.167
1053.94	318.711
1056.83	243.891
1059.73	197.163
1062.62	177.476
1065.51	107.373
1068.4	65.4116
1071.3	89.0239
1074.19	68.4038
1077.08	17.136
1079.98	20.6548
1082.87	8.38281
1085.76	20.8523
1088.65	27.1025
1091.55	12.0574
1094.44	2.21948
1097.33	15.989
1100.22	8.84082
1103.12	1.3772
1106.01	2.18481
1108.9	12.8833
1111.8	42.9922
1114.69	66.2485
1117.58	17.1162
1120.47	17.687
1123.37	46.1465
1126.26	84.552
1129.15	124.466
1132.05	176.187
1134.94	194.314
1137.83	271.162
1140.72	402.086
1143.62	574.053
1146.51	785.968
1149.4	1073.84
1152.29	1481.08
1155.19	1973.2
1158.08	2610.75
1160.97	3296.28
1163.86	4072.11
1166.76	4451.86
1169.65	4469.78
1172.54	3983.99
1175.43	3241.99
1178.33	2463.91
1181.22	1645.96
1184.11	1098.7
1187.01	677.635
1189.9	367.565
1192.79	196.563
1195.68	92.8928
1198.58	25.468
1201.47	52.5378
1204.36	45.5447
1207.26	17.4065
1210.15	137.307
1213.04	341.645
1215.93	804.247
1218.83	1334.31
1221.72	2172.56
1224.61	3094.24
1227.5	4028.2
1230.4	4837.33
1233.29	5050.59
1236.18	4835.12
1239.07	4187.58
1241.97	3375.74
1244.86	2515.85
1247.75	1614.23
1250.64	1026.08
1253.54	520.202
1256.43	242.598
1259.32	1.9126
1262.22	22.0857
