Measurement: Raman, 780 nm, unoriented, Raman Data Processed
Mineral: Eveite
Rruff sample: R100048
Ideal chemistry: Mn^2+^_2_As^5+^O_4_(OH)
Locality: Langban, Filipstad, Varmland, Sweden
Source: William W Pinch
Description: Groups of very pale green (gray) crystals associated with pink akrochordite, R100028, and colorless barite, co-type (Flink 32/22). Used for structure refinement in Yang et al (2011)
Raman shift (cm-1)	intensity
155.655	0
158.547	5.57355
161.44	4.2484
164.333	8.80025
167.226	7.40039
170.118	0.07312
173.011	0.408905
175.904	4.91418
178.796	3.08185
181.689	4.16223
184.582	9.28422
187.474	4.93695
190.367	13.0715
193.26	19.5244
196.153	13.5638
199.045	17.8733
201.938	19.8358
204.831	17.5665
207.723	29.0668
210.616	27.8985
213.509	32.5689
216.401	40.8775
219.294	41.576
222.187	49.2273
225.079	36.8425
227.972	23.2914
230.865	12.4436
233.758	14.5495
236.65	12.2723
239.543	11.9486
242.436	9.44855
245.328	12.6529
248.221	3.51663
251.114	1.50549
254.006	4.34982
256.899	0.91481
259.792	1.42149
262.685	2.07234
265.577	7.12889
268.47	1.97862
271.363	9.44571
274.255	13.0981
277.148	10.086
280.041	6.48686
282.933	7.68216
285.826	7.43208
288.719	15.3837
291.612	10.3024
294.504	11.4373
297.397	13.4713
300.29	20.958
303.182	19.5725
306.075	30.1225
308.968	29.9538
311.861	23.5692
314.753	25.4632
317.646	27.8104
320.539	36.007
323.431	32.7786
326.324	22.9471
329.217	21.7073
332.109	21.7037
335.002	20.3522
337.895	26.4159
340.788	24.4424
343.68	25.0493
346.573	26.81
349.466	24.9346
352.358	22.8294
355.251	20.458
358.144	20.8358
361.036	19.3329
363.929	16.5443
366.822	14.8214
369.715	19.3972
372.607	15.7065
375.5	11.6578
378.393	1.71127
381.285	0.301437
384.178	3.2923
387.071	2.83537
389.964	3.77815
392.856	10.4927
395.749	13.5719
398.642	17.8432
401.534	28.4642
404.427	25.0261
407.32	21.268
410.212	30.5211
413.105	39.6097
415.998	54.3272
418.89	65.3053
421.783	79.6526
424.676	83.914
427.569	101.862
430.461	111.78
433.354	118.307
436.247	120.877
439.139	107.648
442.032	90.9395
444.925	68.193
447.817	45.3465
450.71	30.9224
453.603	19.448
456.496	12.1732
459.388	16.8631
462.281	17.5497
465.174	21.7013
468.066	26.9291
470.959	35.719
473.852	36.6716
476.745	27.4866
479.637	10.3855
482.53	5.57486
485.423	3.70645
488.315	6.80463
491.208	14.488
494.101	24.3782
496.993	35.6275
499.886	43.3323
502.779	53.5089
505.671	61.581
508.564	59.9159
511.457	52.2518
514.35	35.169
517.242	21.7716
520.135	13.1438
523.028	6.24285
525.92	5.36291
528.813	6.15315
531.706	0.581657
534.598	1.81146
537.491	2.62117
540.384	4.01642
543.277	4.76713
546.169	4.50906
549.062	0.042542
551.955	1.26137
554.847	4.01901
557.74	2.28003
560.633	3.85361
563.525	2.22594
566.418	2.15193
569.311	4.82153
572.204	3.05033
575.096	5.76398
577.989	4.86588
580.882	8.57307
583.774	6.55276
586.667	5.82159
589.56	5.92455
592.452	4.79993
595.345	3.54723
598.238	9.38387
601.131	8.07635
604.023	7.22113
606.916	9.59763
609.809	1.12324
612.701	7.43322
615.594	4.61616
618.487	8.28199
621.38	2.63587
624.272	3.9936
627.165	5.72568
630.058	5.34494
632.95	0.137733
635.843	5.12975
638.736	8.4912
641.628	6.91271
644.521	5.53761
647.414	7.22127
650.307	8.7776
653.199	6.8501
656.092	5.12505
658.985	1.9714
661.877	10.1865
664.77	9.85031
667.663	11.5901
670.555	6.33195
673.448	16.5313
676.341	10.0608
679.234	10.3615
682.126	12.6313
685.019	13.6476
687.912	12.4037
690.804	18.9258
693.697	13.0491
696.59	8.88229
699.482	11.7987
702.375	6.75554
705.268	9.6957
708.16	6.51943
711.053	6.22501
713.946	6.44905
716.839	3.72839
719.731	5.35262
722.624	0.344933
725.517	2.62303
728.409	1.1461
731.302	5.8837
734.195	1.18423
737.087	4.13663
739.98	1.63814
742.873	0.921234
745.766	1.70974
748.658	4.95706
751.551	3.55951
754.444	0.056442
757.336	0.288292
760.229	1.306
763.122	4.45653
766.014	9.28554
768.907	14.8191
771.8	25.0381
774.693	36.1516
777.585	57.2376
780.478	85.1332
783.371	119.18
786.263	161.873
789.156	221.346
792.049	301.031
794.942	379.14
797.834	428.536
800.727	503.247
803.62	586.643
806.512	658.231
809.405	625.841
812.298	522.236
815.19	472.181
818.083	481.167
820.976	519.812
823.869	574.002
826.761	595.553
829.654	486.241
832.547	306.154
835.439	178.262
838.332	100.411
841.225	64.46
844.117	49.0574
847.01	43.9105
849.903	56.7248
852.795	89.0774
855.688	127.772
858.581	183.503
861.474	242.782
864.366	299.668
867.259	327.654
870.152	320.43
873.044	269.247
875.937	193.427
878.83	110.197
881.722	68.6817
884.615	46.0212
887.508	29.1586
890.401	14.9573
893.293	8.99522
896.186	5.9578
899.079	6.21202
901.971	2.69535
904.864	0.933868
907.757	3.73827
910.649	3.6173
913.542	2.85046
916.435	3.60075
919.328	0.799561
922.22	0.739426
925.113	0.971107
928.006	4.52406
930.898	0.984047
933.791	2.89851
936.684	1.06683
939.577	2.26131
942.469	3.58321
945.362	0.576767
948.255	8.87923
951.147	2.59043
954.04	1.77501
956.933	4.22725
959.825	8.1745
962.718	9.50868
965.611	9.14447
968.504	4.60621
971.396	10.8066
974.289	9.6009
977.182	12.963
980.074	13.3568
982.967	12.9612
985.86	9.51559
988.752	5.87716
991.645	12.8124
994.538	11.2228
997.431	9.35234
1000.32	8.14273
1003.22	8.2454
1006.11	10.2308
1009	9.49369
1011.89	10.4526
1014.79	10.0504
1017.68	5.49044
1020.57	6.64595
1023.47	10.7902
1026.36	6.52534
1029.25	10.5109
1032.14	6.09319
1035.04	6.84487
1037.93	11.7239
1040.82	14.9034
1043.71	2.9619
1046.61	3.61137
1049.5	5.79502
1052.39	3.21731
1055.29	1.78857
1058.18	4.83524
1061.07	5.14992
1063.96	4.16906
1066.86	0.477798
1069.75	2.15106
1072.64	2.41123
1075.53	0.505371
1078.43	4.45266
1081.32	6.94127
1084.21	3.92573
1087.1	5.46775
1090	6.67483
1092.89	6.37411
1095.78	3.81433
1098.67	3.25629
1101.57	1.85814
1104.46	0.771633
1107.35	2.5887
1110.25	13.1857
1113.14	5.03534
1116.03	1.92553
1118.92	0.359364
1121.82	3.74622
1124.71	5.61339
1127.6	5.44389
1130.49	2.08573
1133.39	4.2394
1136.28	8.18002
1139.17	6.21952
1142.07	3.89438
1144.96	6.78758
1147.85	8.56799
1150.74	3.10978
1153.64	3.37424
1156.53	4.3798
1159.42	9.61111
1162.31	4.3994
1165.21	0.531281
1168.1	0.757008
1170.99	9.97126
1173.88	8.11929
1176.78	5.9762
1179.67	2.12784
1182.56	4.56738
1185.46	1.58939
1188.35	4.68985
1191.24	2.61256
1194.13	1.01731
1197.03	8.32563
1199.92	2.18244
1202.81	5.41958
1205.7	8.80187
1208.6	3.62534
1211.49	6.76011
1214.38	6.39264
1217.28	5.10677
1220.17	5.20915
1223.06	4.59087
1225.95	5.92692
1228.85	3.35929
1231.74	5.32348
1234.63	4.71497
1237.53	8.67395
1240.42	5.70148
1243.31	2.60754
1246.2	4.38251
1249.1	1.45029
1251.99	5.8217
1254.88	7.53374
1257.77	9.00817
1260.67	6.93555
1263.56	3.33047
1266.45	6.79142
1269.34	8.5613
1272.24	2.4204
1275.13	7.26418
1278.02	5.90548
1280.91	5.53427
1283.81	0.884937
