Measurement: Raman, 532 nm, unoriented, Raman Data Processed
Mineral: Eveite
Rruff sample: R100048
Ideal chemistry: Mn^2+^_2_As^5+^O_4_(OH)
Locality: Langban, Filipstad, Varmland, Sweden
Source: William W Pinch
Description: Groups of very pale green (gray) crystals associated with pink akrochordite, R100028, and colorless barite, co-type (Flink 32/22). Used for structure refinement in Yang et al (2011)
Raman shift (cm-1)	intensity
171.97	0
174.863	0.776062
177.755	1.08624
180.648	12.4432
183.541	33.7187
186.433	26.9977
189.326	39.3556
192.219	54.4108
195.112	55.0359
198.004	62.8298
200.897	67.3543
203.79	67.5427
206.682	70.4193
209.575	77.0826
212.468	80.0414
215.36	107.311
218.253	127.764
221.146	145.755
224.038	127.979
226.931	98.1895
229.824	71.5659
232.717	63.0408
235.609	40.7895
238.502	33.3769
241.395	32.2353
244.287	23.225
247.18	11.6824
250.073	7.05347
252.965	7.31958
255.858	5.50647
258.751	6.00757
261.644	3.47107
264.536	1.03589
267.429	0.016357
270.322	10.4535
273.214	19.8696
276.107	19.1768
279	21.2972
281.892	21.1876
284.785	20.8186
287.678	38.8304
290.571	41.9879
293.463	39.1807
296.356	43.9714
299.249	45.9968
302.141	42.425
305.034	58.781
307.927	56.9529
310.82	35.0565
313.712	43.0635
316.605	34.6998
319.498	49.1006
322.39	36.2949
325.283	40.4901
328.176	30.3274
331.068	26.9818
333.961	24.7176
336.854	36.8687
339.747	36.5112
342.639	48.4186
345.532	55.0834
348.425	51.5335
351.317	54.552
354.21	46.7593
357.103	51.3434
359.995	33.3599
362.888	32.5791
365.781	28.0518
368.673	35.7406
371.566	39.3252
374.459	33.1558
377.352	5.59473
380.244	6.19189
383.137	9.54297
386.03	7.46729
388.922	2.3855
391.815	15.957
394.708	37.1161
397.601	59.9225
400.493	89.8298
403.386	83.5864
406.279	90.8562
409.171	94.2108
412.064	115.05
414.957	130.199
417.849	162.54
420.742	180.518
423.635	202.477
426.527	243.071
429.42	286.624
432.313	328.706
435.206	366.484
438.098	373.049
440.991	342.491
443.884	293.197
446.776	215.661
449.669	157.542
452.562	112.744
455.454	76.7428
458.347	77.0054
461.24	67.5071
464.133	76.759
467.025	99.2477
469.918	113.695
472.811	130.604
475.703	121.419
478.596	73.0939
481.489	49.473
484.382	17.4426
487.274	14.3048
490.167	23.1932
493.06	31.9989
495.952	44.4766
498.845	88.6213
501.738	121.223
504.63	156.985
507.523	173.762
510.416	180.431
513.308	143.54
516.201	96.9669
519.094	59.5889
521.987	34.4747
524.879	22.4928
527.772	10.0144
530.665	4.15076
533.557	3.66748
536.45	1.69995
539.343	6.43298
542.236	2.95252
545.128	9.00037
548.021	3.02405
550.914	5.41638
553.806	4.82678
556.699	1.56067
559.592	3.2074
562.484	14.0092
565.377	1.67542
568.27	15.6835
571.163	22.8943
574.055	5.99475
576.948	11.1155
579.841	12.8569
582.733	13.8374
585.626	18.9437
588.519	17.462
591.411	22.6519
594.304	15.84
597.197	7.98083
600.09	22.5951
602.982	17.2203
605.875	19.5852
608.768	21.9334
611.66	14.8991
614.553	20.9869
617.446	14.8115
620.338	12.8993
623.231	11.8834
626.124	10.8452
629.016	8.85779
631.909	13.4921
634.802	12.8621
637.695	19.8391
640.587	15.9233
643.48	17.1914
646.373	21.0125
649.265	24.692
652.158	24.4645
655.051	26.6816
657.943	22.5776
660.836	24.1538
663.729	30.777
666.622	25.1272
669.514	36.8892
672.407	31.7828
675.3	45.5001
678.192	39.2717
681.085	50.5958
683.978	50.6802
686.87	55.1322
689.763	50.7714
692.656	56.4215
695.549	52.8086
698.441	49.9827
701.334	46.6838
704.227	40.8272
707.119	36.2959
710.012	33.8518
712.905	30.4813
715.798	34.9031
718.69	27.1611
721.583	9.48169
724.476	11.502
727.368	12.5857
730.261	12.4305
733.154	3.67883
736.046	3.45215
738.939	1.38245
741.832	12.2349
744.725	4.26709
747.617	3.8999
750.51	10.9383
753.403	9.11963
756.295	5.9729
759.188	2.84216
762.081	2.36987
764.973	18.6719
767.866	36.7863
770.759	65.0015
773.652	110.02
776.544	169.383
779.437	258.003
782.33	388.999
785.222	557.213
788.115	793.03
791.008	1076.36
793.9	1400.94
796.793	1680.78
799.686	1995.8
802.578	2459.46
805.471	3002.9
808.364	3234.7
811.257	2829.65
814.149	2297.47
817.042	2104.39
819.935	2240.15
822.827	2619.4
825.72	3041.12
828.613	3015.9
831.505	2239.51
834.398	1303.81
837.291	730.902
840.184	422.123
843.076	256.696
845.969	192.232
848.862	193.126
851.754	237.064
854.647	348.787
857.54	542.884
860.433	812.309
863.325	1146.67
866.218	1457.14
869.111	1619.98
872.003	1573.19
874.896	1216.98
877.789	787.775
880.681	482.659
883.574	283.447
886.467	177.87
889.36	120.896
892.252	84.4929
895.145	57.0778
898.038	30.6639
900.93	27.8705
903.823	11.3236
906.716	8.99072
909.608	0.211548
912.501	8.46057
915.394	9.06323
918.287	9.4751
921.179	0.123535
924.072	4.37366
926.965	1.56567
929.857	4.36939
932.75	3.60071
935.643	6.58435
938.535	7.27161
941.428	6.03955
944.321	7.00854
947.213	10.253
950.106	15.6047
952.999	19.3447
955.892	27.564
958.784	29.5474
961.677	32.4224
964.57	25.3317
967.462	33.4045
970.355	39.1133
973.248	42.7347
976.14	45.0282
979.033	49.421
981.926	52.1603
984.819	57.5892
987.711	54.1985
990.604	46.7293
993.497	38.3883
996.389	33.6912
999.282	34.6393
1002.17	30.9016
1005.07	27.3721
1007.96	32.0677
1010.85	29.1709
1013.75	26.4495
1016.64	33.9127
1019.53	31.2915
1022.42	28.0092
1025.32	24.6096
1028.21	19.5406
1031.1	22.3363
1033.99	17.8192
1036.89	23.6314
1039.78	18.5675
1042.67	15.8933
1045.57	16.811
1048.46	20.7097
1051.35	16.0991
1054.24	8.24085
1057.14	17.0625
1060.03	10.6851
1062.92	8.71814
1065.81	0.591553
1068.71	2.11877
1071.6	11.6119
1074.49	2.74915
1077.38	9.49988
1080.28	0.762329
1083.17	10.5773
1086.06	0.883789
1088.96	3.6582
1091.85	4.63501
1094.74	3.45618
1097.63	8.62476
1100.53	6.87317
1103.42	2.01111
1106.31	10.9159
1109.2	9.78735
1112.1	4.81201
1114.99	7.63953
1117.88	3.92944
1120.78	3.16126
1123.67	3.42114
1126.56	5.85425
1129.45	8.55176
1132.35	1.65979
1135.24	2.82959
1138.13	9.84131
1141.02	6.82739
1143.92	3.31677
1146.81	1.21387
1149.7	18.6387
1152.6	1.79907
1155.49	7.41418
1158.38	10.9634
1161.27	4.26416
1164.17	16.9571
1167.06	5.11914
1169.95	5.49902
1172.84	10.5995
1175.74	16.1307
1178.63	2.49731
1181.52	7.23743
1184.41	12.0531
1187.31	9.83704
1190.2	5.96533
1193.09	2.177
1195.99	7.37854
1198.88	11.0388
1201.77	10.1925
1204.66	1.84839
1207.56	12.2842
1210.45	19.6769
1213.34	11.5939
1216.23	24.8555
1219.13	8.20764
1222.02	9.63086
1224.91	8.57153
1227.81	8.69373
1230.7	8.24353
1233.59	9.01331
1236.48	7.24097
1239.38	9.14685
1242.27	9.97852
1245.16	5.58264
1248.05	14.2366
1250.95	11.5675
1253.84	10.6194
1256.73	17.9271
1259.62	13.0494
1262.52	5.72351
1265.41	7.82593
1268.3	12.132
1271.2	14.5781
1274.09	10.7208
1276.98	9.83313
1279.87	13.0269
1282.77	2.19873
1285.66	6.94299
1288.55	8.88794
1291.44	3.6427
1294.34	10.4259
1297.23	10.2631
1300.12	1.2738
1303.02	0
