Measurement: Raman, 780 nm, unoriented, Raman Data Processed
Mineral: Ezcurrite
Rruff sample: R060645
Ideal chemistry: Na_2_B_5_O_7_(OH)_3_2H_2_O
Locality: Salar del Hombre Muerto, Catamarca, Argentina
Source: Michael Scott
Description: Colorless prismatic fragment
Measured chemistry: Na_2.00_B_5_O_7_(OH)_3_Â·2H_2_O ;trace amounts of Si; B and OH not measured but estimated by stoichiometry
Raman shift (cm-1)	intensity
115.666	0
119.041	7.23755
122.415	43.7848
125.79	86.3792
129.165	114.698
132.54	147.31
135.915	140.644
139.29	125.25
142.664	101.132
146.039	74.0062
149.414	62.6106
152.789	45.9467
156.163	51.1647
159.538	58.4215
162.913	61.2463
166.288	47.8204
169.663	23.581
173.038	0.805054
176.412	5.67987
179.787	2.76913
183.162	1.5737
186.537	0.603882
189.912	1.83698
193.286	0.813416
196.661	2.98154
200.036	12.6558
203.411	22.9774
206.786	25.6564
210.161	35.2272
213.535	48.9647
216.91	59.3378
220.285	70.8663
223.66	86.3881
227.035	100.78
230.409	98.0004
233.784	71.4981
237.159	44.7601
240.534	26.712
243.909	18.089
247.284	10.2085
250.658	6.15726
254.033	2.42096
257.408	1.29947
260.783	4.36414
264.158	4.48923
267.532	2.14349
270.907	3.88422
274.282	7.14279
277.657	14.54
281.032	16.4833
284.406	24.1024
287.781	28.5253
291.156	27.1481
294.531	26.8019
297.906	31.2912
301.281	48.1861
304.655	72.8419
308.03	111.656
311.405	163.944
314.78	215.413
318.155	219.057
321.529	161.057
324.904	102.204
328.279	84.4563
331.654	94.8731
335.029	121.622
338.404	127.093
341.778	100.298
345.153	72.2206
348.528	46.6329
351.903	30.143
355.278	28.8762
358.652	21.6864
362.027	8.32965
365.402	2.39679
368.777	3.45361
372.152	6.2486
375.526	26.907
378.901	56.571
382.276	93.9612
385.651	149.037
389.026	211.879
392.401	262.558
395.775	228.436
399.15	115.886
402.525	39.3782
405.9	9.3692
409.275	2.11262
412.649	6.48497
416.024	2.62192
419.399	4.53386
422.774	16.6471
426.149	33.0532
429.524	52.6271
432.898	81.5376
436.273	120.704
439.648	127.198
443.023	98.2551
446.398	97.9939
449.772	124.477
453.147	108.557
456.522	40.1001
459.897	15.1847
463.272	18.6181
466.647	31.8797
470.021	61.6123
473.396	116.882
476.771	222.881
480.146	255.866
483.521	107.232
486.895	24.6872
490.27	1.28465
493.645	4.92837
497.02	21.5905
500.395	51.7008
503.769	94.3857
507.144	149.816
510.519	227.509
513.894	286.682
517.269	251.946
520.644	140.733
524.018	46.7884
527.393	8.02837
530.768	3.72206
534.143	3.47331
537.518	1.09796
540.892	11.2408
544.267	37.999
547.642	82.6332
551.017	78.466
554.392	36.3323
557.766	34.9868
561.141	60.2479
564.516	104.478
567.891	169.452
571.266	229.588
574.64	209.296
578.015	124.748
581.39	56.7506
584.765	21.9849
588.14	6.55644
591.515	3.1459
594.889	6.74008
598.264	18.5288
601.639	38.2068
605.014	60.5063
608.389	54.4087
611.764	17.3848
615.138	2.37192
618.513	4.15262
621.888	4.20521
625.263	16.4182
628.638	36.0844
632.012	67.9549
635.387	88.9288
638.762	61.6267
642.137	22.4921
645.512	4.86211
648.886	1.45723
652.261	5.56276
655.636	13.5413
659.011	24.6025
662.386	33.9404
665.76	36.6638
669.135	34.6554
672.51	25.3074
675.885	18.85
679.26	18.0192
682.635	12.0999
686.009	3.11966
689.384	0.099838
692.759	1.62698
696.134	1.05519
699.509	0.57933
702.884	0.499237
706.258	0.321228
709.633	2.81244
713.008	6.86375
716.383	10.9312
719.758	21.006
723.132	30.9885
726.507	36.2282
729.882	44.8692
733.257	53.8648
736.632	62.7955
740.006	75.7498
743.381	103.052
746.756	130
750.131	143.975
753.506	171.586
756.88	269.941
760.255	414.934
763.63	351.613
767.005	171.861
770.38	90.6466
773.755	69.9858
777.129	66.4468
780.504	50.2152
783.879	24.2468
787.254	10.7568
790.629	4.06349
794.003	1.95586
797.378	1.05939
800.753	0.388153
804.128	0.294052
807.503	4.72559
810.878	3.78911
814.252	2.17807
817.627	1.80293
821.002	6.05418
824.377	12.448
827.752	20.2098
831.126	21.1305
834.501	16.1052
837.876	8.34433
841.251	0.340286
844.626	2.00105
848	3.30785
851.375	3.18813
854.75	0.574097
858.125	3.14569
861.5	8.76125
864.875	16.4957
868.249	28.0135
871.624	38.9947
874.999	49.1841
878.374	54.0296
881.749	52.8857
885.123	45.7661
888.498	38.3312
891.873	38.2274
895.248	40.6979
898.623	43.0479
901.997	41.8075
905.372	37.0192
908.747	36.1515
912.122	45.2906
915.497	57.3808
918.872	57.2334
922.246	45.2405
925.621	37.8978
928.996	39.6408
932.371	48.1565
935.746	64.5555
939.12	82.755
942.495	109.605
945.87	157.845
949.245	225.148
952.62	294.423
955.995	311.145
959.369	249.72
962.744	168.941
966.119	111.146
969.494	75.0532
972.869	46.6648
976.243	24.1789
979.618	11.8059
982.993	6.46761
986.368	7.40393
989.743	10.201
993.117	10.9376
996.492	3.94777
999.867	1.81166
1003.24	4.71713
1006.62	3.82942
1009.99	1.82864
1013.37	3.61409
1016.74	8.4218
1020.12	15.4227
1023.49	19.3921
1026.87	21.936
1030.24	24.4488
1033.62	26.5324
1036.99	27.4209
1040.37	30.1675
1043.74	31.8798
1047.12	28.8909
1050.49	29.7316
1053.86	26.477
1057.24	28.4941
1060.61	28.2634
1063.99	28.3186
1067.36	31.0536
1070.74	32.9948
1074.11	34.8699
1077.49	37.3525
1080.86	39.6027
1084.24	45.6746
1087.61	49.949
1090.99	52.2717
1094.36	47.3736
1097.74	42.6375
1101.11	35.0399
1104.49	30.3661
1107.86	23.6469
1111.24	17.6138
1114.61	11.4592
1117.99	8.50587
1121.36	4.95682
1124.73	4.35076
1128.11	2.51664
1131.48	0.730606
1134.86	0.078323
1138.23	0.414917
1141.61	0.510918
1144.98	1.16261
1148.36	1.40578
1151.73	0.445107
1155.11	1.2606
1158.48	1.54093
1161.86	2.44677
1165.23	5.44202
1168.61	9.03768
1171.98	8.44262
1175.36	6.49977
1178.73	4.54505
1182.11	2.70744
1185.48	1.43639
1188.86	1.90701
1192.23	0.986176
1195.61	1.17195
1198.98	1.26405
1202.36	1.17464
1205.73	0.921638
1209.11	0.925461
1212.48	1.80927
1215.86	3.70898
1219.23	3.35167
1222.61	4.76964
1225.98	8.09015
1229.35	10.692
1232.73	15.2733
1236.1	18.983
1239.48	21.1998
1242.85	25.2151
1246.23	28.8413
1249.6	31.876
1252.98	31.6593
1256.35	28.0898
1259.73	20.5217
1263.1	15.2966
1266.48	7.29769
1269.85	4.17054
1273.23	1.01891
1276.6	0.616173
1279.98	1.12094
1283.35	0.005035
