Measurement: Raman, 532 nm, unoriented, Raman Data Processed
Mineral: Ezcurrite
Rruff sample: R060645
Ideal chemistry: Na_2_B_5_O_7_(OH)_3_2H_2_O
Locality: Salar del Hombre Muerto, Catamarca, Argentina
Source: Michael Scott
Description: Colorless prismatic fragment
Measured chemistry: Na_2.00_B_5_O_7_(OH)_3_Â·2H_2_O ;trace amounts of Si; B and OH not measured but estimated by stoichiometry
Raman shift (cm-1)	intensity
112.843	0
116.218	311.66
119.593	2603.08
122.968	4797.42
126.343	5887.56
129.717	6529.6
133.092	6771.2
136.467	6251.47
139.842	5491.02
143.217	3705.42
146.592	2403.65
149.966	1822.23
153.341	1806.42
156.716	1807.29
160.091	1923.01
163.466	1725.05
166.84	1544.84
170.215	1129.22
173.59	524.22
176.965	116.031
180.34	189.88
183.715	45.447
187.089	83.738
190.464	4.888
193.839	54.661
197.214	90.102
200.589	58.791
203.964	48.125
207.338	59.627
210.713	191.43
214.088	503.879
217.463	1225.54
220.838	2026.81
224.212	2684.57
227.587	2861.95
230.962	2188.44
234.337	1383.24
237.712	795.302
241.087	448.529
244.461	298.59
247.836	151.769
251.211	102.803
254.586	58.085
257.961	64.736
261.335	35.432
264.71	148.229
268.085	351.103
271.46	730.969
274.835	1307.14
278.21	2244.52
281.584	3169.81
284.959	3901.48
288.334	3864.22
291.709	3082.16
295.084	2016.56
298.458	1304.27
301.833	1320.98
305.208	1794.19
308.583	2672.31
311.958	3501.66
315.333	3813.86
318.707	3061.94
322.082	2063.26
325.457	1939.03
328.832	2502.16
332.207	3402.26
335.582	3961.4
338.956	3149.58
342.331	2174.97
345.706	1434.65
349.081	666.9
352.456	202.347
355.83	48.952
359.205	47.685
362.58	2.706
365.955	32.508
369.33	69.763
372.704	88.89
376.079	275.751
379.454	587.073
382.829	987.959
386.204	1444.56
389.579	2002.73
392.953	2475.23
396.328	1682.02
399.703	572.103
403.078	124.211
406.453	9.086
409.828	2.174
413.202	15.583
416.577	10.903
419.952	137.454
423.327	417.799
426.702	724.679
430.076	793.743
433.451	559.801
436.826	254.348
440.201	393.152
443.576	921.761
446.951	1696.18
450.325	2069.59
453.7	673.608
457.075	34.852
460.45	102.408
463.825	263.097
467.199	2068.94
470.574	5122.8
473.949	9980.8
477.324	14276
480.699	8561.92
484.073	2625.04
487.448	732.19
490.823	518.028
494.198	1099.37
497.573	2401.84
500.948	4539.85
504.322	7319.13
507.697	10813.3
511.072	13725
514.447	12831.3
517.822	7702.67
521.196	2920.89
524.571	1035.57
527.946	24.854
531.321	161.814
534.696	33.228
538.071	790.268
541.445	2126.9
544.82	4295
548.195	5524.3
551.57	2670.89
554.945	1578.72
558.32	2267.44
561.694	4058.7
565.069	6944.85
568.444	9891.58
571.819	10436.3
575.194	7404.41
578.568	3758.59
581.943	1710.92
585.318	775.289
588.693	325.202
592.068	147.591
595.443	348.265
598.817	685.206
602.192	1132.63
605.567	1363.86
608.942	611.126
612.317	45.709
615.692	28.046
619.066	45.984
622.441	24.584
625.816	47.195
629.191	2.843
632.566	165.02
635.94	464.482
639.315	185.585
642.69	89.86
646.065	144.759
649.44	294.279
652.815	666.251
656.189	1019.11
659.564	1361.08
662.939	1517.56
666.314	1394.34
669.689	1136.07
673.063	1167.42
676.438	1331.22
679.813	1346
683.188	611.261
686.563	101.973
689.938	11.395
693.312	32.18
696.687	58.602
700.062	116.424
703.437	28.373
706.812	25.266
710.187	13.394
713.561	121.247
716.936	585.496
720.311	1020.18
723.686	1317.61
727.06	1421.09
730.435	1644.68
733.81	1730.54
737.185	1885.48
740.56	2561.55
743.935	3513.23
747.309	4492.96
750.684	5876.15
754.059	9494.9
757.434	15696.6
760.809	17835.2
764.184	9808.3
767.558	4621.81
770.933	3020.95
774.308	2507.25
777.683	2136.32
781.058	1240.41
784.432	535.728
787.807	241.094
791.182	66.814
794.557	24.853
797.932	29.672
801.307	38.19
804.681	6.938
808.056	0.294
811.431	4.401
814.806	17.264
818.181	176.229
821.555	391.729
824.93	644.07
828.305	888.993
831.68	924.192
835.055	576.468
838.43	103.301
841.804	81.39
845.179	6.775
848.554	25.286
851.929	64.727
855.304	73.274
858.679	229.067
862.053	576.515
865.428	1076.17
868.803	1687.94
872.178	2361
875.553	2924.71
878.927	3168.9
882.302	2884.46
885.677	2310.18
889.052	2048.59
892.427	1922.46
895.802	1899.46
899.176	1761.05
902.551	1506.94
905.926	1506.58
909.301	1940.76
912.676	2435.26
916.05	2731.93
919.425	2199.81
922.8	1624.24
926.175	1219.95
929.55	1268.54
932.925	1339.08
936.299	1758.93
939.674	2666.78
943.049	4351.24
946.424	6921.29
949.799	9916.56
953.174	11770.3
956.548	10305.9
959.923	7367
963.298	4859.05
966.673	3419.02
970.048	2216.81
973.422	1242.35
976.797	646.914
980.172	224.158
983.547	84.144
986.922	91.219
990.297	30.793
993.671	34.591
997.046	2.506
1000.42	9.475
1003.8	69.37
1007.17	77.845
1010.54	223.429
1013.92	372.83
1017.29	787.75
1020.67	1013.36
1024.05	1281.8
1027.42	1616.38
1030.79	1932.18
1034.17	2389.53
1037.54	2944.45
1040.92	3134.9
1044.29	3042.09
1047.67	2802.57
1051.04	2662.06
1054.42	2035.16
1057.79	1739.36
1061.17	1514.11
1064.54	1439.39
1067.92	1627.78
1071.29	1759.48
1074.67	1853.81
1078.04	1947.17
1081.42	2070.67
1084.79	2199.27
1088.17	2211.14
1091.54	2047.12
1094.92	1773.58
1098.29	1476.57
1101.67	1208.28
1105.04	895.354
1108.41	730.603
1111.79	514.895
1115.16	267.69
1118.54	183.921
1121.91	24.923
1125.29	36.592
1128.66	36.401
1132.04	2.747
1135.41	7.084
1138.79	9.239
1142.16	5.473
1145.54	31.353
1148.91	44.622
1152.29	164.502
1155.66	330.906
1159.04	575.285
1162.41	901.232
1165.79	1206.37
1169.16	1446.72
1172.54	1235.26
1175.91	783.884
1179.29	524.885
1182.66	408.926
1186.04	224.55
1189.41	171.665
1192.79	66.061
1196.16	94.058
1199.54	48.838
1202.91	3.961
1206.29	54.498
1209.66	12.247
1213.04	80.228
1216.41	88.319
1219.78	186.699
1223.16	252.438
1226.53	483.327
1229.91	772.422
1233.28	891.909
1236.66	1052.29
1240.03	1244.78
1243.41	1169.7
1246.78	1398.57
1250.16	1285.14
1253.53	1091.09
1256.91	795.383
1260.28	526.344
1263.66	231.886
1267.03	53.222
1270.41	75.826
1273.78	52.584
1277.16	44.297
1280.53	1.179
1283.91	42.472
1287.28	1.712
1290.66	67.954
