Measurement: Raman, 780 nm, unoriented, Raman Data Processed
Mineral: Faheyite
Rruff sample: R100084
Ideal chemistry: Be_2_Mn^2+^Fe^3+^_2_(PO_4_)_4_6H_2_O
Locality: Sapucaia mine, Galil√©ia, Minas Gerais, Brazil
Source: Royal Ontaario Museum
Description: Parallel aggregates of white fibrous acicular crystals associated with muscovite
Raman shift (cm-1)	intensity
146.977	0
149.869	0.519974
152.762	0.055069
155.655	0.6371
158.547	0.596329
161.44	3.05824
164.333	2.86243
167.226	6.44388
170.118	5.18364
173.011	3.29369
175.904	4.69023
178.796	5.29009
181.689	3.08408
184.582	2.46826
187.474	0.91951
190.367	1.21915
193.26	1.24515
196.153	0.412079
199.045	0.037277
201.938	2.56058
204.831	6.13899
207.723	8.52588
210.616	12.6615
213.509	10.8999
216.401	8.36647
219.294	10.7636
222.187	16.4287
225.079	21.4238
227.972	33.0393
230.865	45.674
233.758	66.6229
236.65	88.1117
239.543	111.429
242.436	122.901
245.328	127.624
248.221	115.614
251.114	95.3782
254.006	74.5911
256.899	59.564
259.792	55.4841
262.685	56.6702
265.577	56.9537
268.47	60.0003
271.363	63.3385
274.255	65.4879
277.148	56.8818
280.041	41.9253
282.933	29.6719
285.826	22.243
288.719	13.1019
291.612	10.1385
294.504	6.49503
297.397	6.43572
300.29	4.90742
303.182	3.37762
306.075	2.07408
308.968	1.22662
311.861	0.345398
314.753	0.625694
317.646	0.01368
320.539	0.951851
323.431	1.00601
326.324	0.496933
329.217	0.813789
332.109	1.4374
335.002	1.43904
337.895	1.60187
340.788	3.44454
343.68	4.37428
346.573	5.73326
349.466	7.74684
352.358	12.0345
355.251	17.2597
358.144	21.8788
361.036	29.7259
363.929	40.419
366.822	48.0992
369.715	52.7404
372.607	47.1949
375.5	36.8634
378.393	26.1379
381.285	15.3894
384.178	9.69371
387.071	7.05503
389.964	4.36281
392.856	2.86807
395.749	2.55605
398.642	0.182625
401.534	2.6823
404.427	2.49795
407.32	1.82169
410.212	1.50976
413.105	0.782898
415.998	1.2814
418.89	1.44478
421.783	2.76561
424.676	4.72105
427.569	8.04098
430.461	11.9864
433.354	17.6521
436.247	26.3329
439.139	35.6926
442.032	40.8356
444.925	47.9244
447.817	48.6689
450.71	40.3443
453.603	27.9902
456.496	18.7755
459.388	13.1175
462.281	8.19689
465.174	4.88971
468.066	2.54332
470.959	1.57357
473.852	1.31654
476.745	1.25831
479.637	0.69236
482.53	0.030426
485.423	0.246323
488.315	0.296234
491.208	0.210213
494.101	0.28064
496.993	0.044807
499.886	0.045967
502.779	0.362961
505.671	1.29951
508.564	0.699829
511.457	0.307938
514.35	2.7064
517.242	3.45341
520.135	2.37364
523.028	4.57777
525.92	5.92128
528.813	6.37241
531.706	9.08203
534.598	11.93
537.491	14.477
540.384	16.2466
543.277	20.6756
546.169	26.165
549.062	33.1328
551.955	42.1168
554.847	48.5259
557.74	51.1743
560.633	45.2995
563.525	31.637
566.418	22.0609
569.311	14.8789
572.204	9.77023
575.096	7.88786
577.989	4.91566
580.882	6.69038
583.774	4.66582
586.667	3.1247
589.56	3.63223
592.452	3.67851
595.345	2.63151
598.238	2.88825
601.131	3.84904
604.023	5.23207
606.916	6.35263
609.809	9.10059
612.701	12.3139
615.594	14.5468
618.487	15.8082
621.38	15.2469
624.272	12.135
627.165	9.19017
630.058	7.33458
632.95	4.49737
635.843	5.24218
638.736	4.82555
641.628	4.27082
644.521	2.29909
647.414	2.02412
650.307	1.18593
653.199	0.173454
656.092	2.16885
658.985	1.13081
661.877	0.85305
664.77	0.444035
667.663	0.113525
670.555	0.445801
673.448	0.049591
676.341	1.26291
679.234	0.520809
682.126	0.935524
685.019	2.62371
687.912	2.11326
690.804	3.81041
693.697	4.21088
696.59	4.79724
699.482	6.46589
702.375	7.61022
705.268	7.82941
708.16	8.58331
711.053	10.6827
713.946	11.7329
716.839	10.42
719.731	10.4874
722.624	7.29468
725.517	6.3649
728.409	5.12368
731.302	4.87786
734.195	4.41354
737.087	3.01815
739.98	2.87621
742.873	2.26728
745.766	3.53515
748.658	2.92998
751.551	3.07931
754.444	2.06329
757.336	1.13609
760.229	1.73396
763.122	1.29142
766.014	0.110287
768.907	1.58258
771.8	1.63773
774.693	0.209763
777.585	0.040173
780.478	0.468975
783.371	0.315071
786.263	0.000278
789.156	0.33226
792.049	0.164276
794.942	0.456928
797.834	0.516094
800.727	0.20821
803.62	1.2933
806.512	0.394997
809.405	2.44768
812.298	2.47816
815.19	2.06923
818.083	3.10507
820.976	3.85583
823.869	2.93397
826.761	4.32896
829.654	3.90422
832.547	4.38847
835.439	4.05228
838.332	3.62529
841.225	3.35281
844.117	3.15905
847.01	3.83076
849.903	4.4516
852.795	3.72574
855.688	3.19625
858.581	3.39219
861.474	2.32572
864.366	2.1394
867.259	1.53057
870.152	1.13914
873.044	1.65315
875.937	0.941387
878.83	2.07957
881.722	1.549
884.615	0.249287
887.508	0.041115
890.401	0.759888
893.293	2.41363
896.186	2.17154
899.079	1.05779
901.971	1.59829
904.864	1.27206
907.757	1.45575
910.649	1.62033
913.542	1.64392
916.435	1.12819
919.328	1.74348
922.22	1.82035
925.113	1.20758
928.006	1.41125
930.898	1.40361
933.791	0.430489
936.684	0.367161
939.577	0.437473
942.469	0.143883
945.362	0.382702
948.255	1.28217
951.147	0.423462
954.04	0.098915
956.933	0.3064
959.825	1.20014
962.718	2.26881
965.611	2.39815
968.504	4.01372
971.396	6.39938
974.289	8.71938
977.182	9.70297
980.074	10.0608
982.967	9.76892
985.86	11.164
988.752	13.1562
991.645	14.3949
994.538	14.7401
997.431	16.5981
1000.32	18.8122
1003.22	19.8868
1006.11	21.7457
1009	24.9946
1011.89	27.8917
1014.79	31.1629
1017.68	31.269
1020.57	34.5131
1023.47	38.6631
1026.36	45.0162
1029.25	49.2671
1032.14	52.4563
1035.04	52.8076
1037.93	58.3631
1040.82	64.5066
1043.71	70.7657
1046.61	77.3876
1049.5	69.8434
1052.39	52.7409
1055.29	36.4269
1058.18	24.8304
1061.07	19.0031
1063.96	13.9049
1066.86	11.0599
1069.75	6.70252
1072.64	4.03001
1075.53	2.9416
1078.43	2.87526
1081.32	3.2937
1084.21	5.87813
1087.1	5.90955
1090	9.69824
1092.89	12.4082
1095.78	10.8644
1098.67	7.63679
1101.57	2.97737
1104.46	1.40773
1107.35	0.137466
1110.25	0.400826
1113.14	1.56953
1116.03	0.894279
1118.92	0.291187
1121.82	0.370056
1124.71	0.187553
1127.6	0.837593
1130.49	1.51604
1133.39	1.00403
1136.28	0.007408
1139.17	0.919975
1142.07	2.51795
1144.96	2.31377
1147.85	2.37517
1150.74	2.3101
1153.64	2.9684
1156.53	3.6572
1159.42	2.75512
1162.31	1.90806
1165.21	2.91283
1168.1	3.09467
1170.99	2.98313
1173.88	3.01398
1176.78	2.25315
1179.67	1.65978
1182.56	2.05778
1185.46	0.477108
1188.35	0.610958
1191.24	0.686848
1194.13	1.25547
1197.03	0.331036
1199.92	1.51824
1202.81	0.848854
1205.7	1.64908
1208.6	1.61545
1211.49	0.69099
1214.38	1.53976
1217.28	2.22481
1220.17	2.71364
1223.06	3.7286
1225.95	2.85717
1228.85	3.11009
1231.74	2.5001
1234.63	2.08876
1237.53	2.03977
1240.42	0.549534
1243.31	0.756386
1246.2	0.433716
1249.1	0.833927
1251.99	0.516003
1254.88	0.148178
1257.77	1.31546
1260.67	1.68038
1263.56	1.76484
1266.45	1.31403
1269.34	0.025162
1272.24	0.230965
1275.13	0.076237
1278.02	0.429436
1280.91	0.787315
1283.81	0.969749
