Measurement: Raman, 532 nm, unoriented, Raman Data Processed
Mineral: Faheyite
Rruff sample: R100084
Ideal chemistry: Be_2_Mn^2+^Fe^3+^_2_(PO_4_)_4_6H_2_O
Locality: Sapucaia mine, Galil√©ia, Minas Gerais, Brazil
Source: Royal Ontaario Museum
Description: Parallel aggregates of white fibrous acicular crystals associated with muscovite
Raman shift (cm-1)	intensity
157.988	0
160.881	0.774963
163.774	42.0112
166.667	79.1255
169.559	119.791
172.452	144.506
175.345	161.634
178.237	159.639
181.13	128.623
184.023	98.051
186.916	80.5004
189.808	80.2734
192.701	72.8441
195.594	53.3984
198.486	44.8288
201.379	47.422
204.272	69.0073
207.164	98.9078
210.057	120.019
212.95	122.857
215.843	108.976
218.735	100.957
221.628	101.786
224.521	107.231
227.413	125.673
230.306	146.184
233.199	198.696
236.091	253.436
238.984	320.335
241.877	357.805
244.769	371.83
247.662	353.902
250.555	302.596
253.448	237.757
256.34	212.313
259.233	203.547
262.126	206.49
265.018	221.805
267.911	221.632
270.804	230.028
273.697	227.368
276.589	187.209
279.482	129.115
282.375	79.4706
285.267	44.8936
288.16	30.8534
291.053	9.45044
293.945	21.7091
296.838	1.78693
299.731	0.335815
302.623	6.09418
305.516	10.5845
308.409	8.18054
311.302	9.71338
314.194	4.91248
317.087	3.04474
319.98	10.2152
322.872	16.8507
325.765	21.5508
328.658	26.6531
331.55	31.6069
334.443	38.5169
337.336	49.845
340.229	60.6436
343.121	72.7554
346.014	87.2779
348.907	101.636
351.799	135.404
354.692	171.082
357.585	216.963
360.478	284.524
363.37	354.653
366.263	427.374
369.156	456.087
372.048	393.365
374.941	291.636
377.834	195.865
380.726	118.718
383.619	71.0408
386.512	42.9446
389.404	25.7946
392.297	12.4779
395.19	7.51672
398.083	1.69354
400.975	0.234924
403.868	5.97607
406.761	13.1774
409.653	16.1156
412.546	16.7023
415.439	23.3577
418.332	34.8649
421.224	44.5457
424.117	66.4261
427.01	101.022
429.902	133.878
432.795	162.039
435.688	190.185
438.58	225.905
441.473	264.962
444.366	297.921
447.259	291.04
450.151	250.483
453.044	175.769
455.937	118.842
458.829	80.0615
461.722	49.3955
464.615	33.3637
467.507	16.994
470.4	7.71765
473.293	2.86932
476.185	1.73065
479.078	1.53735
481.971	1.01251
484.864	1.96612
487.756	5.5675
490.649	0.078674
493.542	1.7984
496.434	1.96539
499.327	4.82562
502.22	10.7195
505.113	19.3348
508.005	28.3149
510.898	39.1334
513.791	45.2699
516.683	53.8035
519.576	61.3518
522.469	62.4083
525.361	64.535
528.254	66.0827
531.147	66.1319
534.04	73.3411
536.932	71.8673
539.825	78.0118
542.718	93.9542
545.61	112.098
548.503	139.672
551.396	178.852
554.288	209.954
557.181	228.584
560.074	207.056
562.967	162.479
565.859	108.915
568.752	75.1285
571.645	54.7856
574.537	42.0048
577.43	34.4213
580.323	30.2092
583.216	34.9714
586.108	33.2628
589.001	31.6917
591.894	27.1169
594.786	24.1544
597.679	19.8834
600.572	25.4721
603.464	27.9034
606.357	39.3622
609.25	56.9637
612.142	70.0352
615.035	88.1008
617.928	92.5715
620.821	86.7345
623.713	66.7208
626.606	50.8601
629.499	34.0909
632.391	26.3121
635.284	23.5682
638.177	17.0649
641.069	9.17371
643.962	4.70953
646.855	1.60828
649.747	0.122498
652.64	0.153931
655.533	2.47479
658.426	0.43512
661.318	0.476013
664.211	2.04504
667.104	4.22534
669.996	1.14935
672.889	1.61426
675.782	5.87097
678.674	8.98029
681.567	8.37848
684.46	17.2917
687.353	18.5117
690.245	28.7365
693.138	36.1491
696.031	38.163
698.923	43.992
701.816	43.0734
704.709	47.9933
707.601	49.4879
710.494	54.8251
713.387	58.1921
716.28	54.448
719.172	51.166
722.065	39.7433
724.958	30.6237
727.85	23.1618
730.743	23.9603
733.636	14.3246
736.529	17.3795
739.421	14.5188
742.314	9.75348
745.207	10.4838
748.099	9.81043
750.992	8.104
753.885	7.50012
756.777	2.88574
759.67	1.53809
762.563	1.29059
765.456	5.51099
768.348	0.979736
771.241	1.94311
774.134	0.102112
777.026	0.032654
779.919	2.44971
782.812	1.04486
785.704	2.60626
788.597	3.85742
791.49	4.03888
794.383	6.64435
797.275	10.0908
800.168	7.74249
803.061	16.0098
805.953	12.4953
808.846	15.4908
811.739	20.9378
814.631	24.5356
817.524	26.9852
820.417	28.0474
823.309	33.4172
826.202	31.8022
829.095	29.8423
831.988	29.0547
834.88	25.0092
837.773	22.3194
840.666	20.0327
843.558	16.9573
846.451	14.8364
849.344	16.7374
852.236	18.5064
855.129	14.5156
858.022	13.7726
860.915	10.68
863.807	13.0361
866.7	11.6455
869.593	8.71198
872.485	10.1751
875.378	9.45642
878.271	9.25269
881.163	12.2618
884.056	8.56049
886.949	14.0264
889.842	13.1739
892.734	12.6992
895.627	17.2002
898.52	11.1865
901.412	17.0572
904.305	13.1375
907.198	11.0793
910.091	9.30774
912.983	11.3528
915.876	6.64123
918.769	7.22589
921.661	10.0488
924.554	5.45581
927.447	4.82446
930.339	1.51617
933.232	0.795776
936.125	6.19983
939.018	3.76483
941.91	5.5929
944.803	2.77472
947.696	6.24933
950.588	5.23602
953.481	0.873718
956.374	5.88507
959.266	14.4566
962.159	24.523
965.052	45.6157
967.944	65.5729
970.837	95.1519
973.73	105.896
976.623	121.308
979.515	122.112
982.408	141.217
985.301	156.756
988.193	184.885
991.086	211.859
993.979	229.112
996.871	242.987
999.764	255.424
1002.66	290.275
1005.55	326.476
1008.44	377.022
1011.34	411.864
1014.23	411.956
1017.12	377.461
1020.01	349.223
1022.91	342.336
1025.8	357.762
1028.69	391.663
1031.58	413.483
1034.48	417.713
1037.37	404.418
1040.26	390.079
1043.15	413.194
1046.05	442.085
1048.94	435.442
1051.83	370.776
1054.73	294.949
1057.62	248.417
1060.51	222.059
1063.4	196.572
1066.3	185.674
1069.19	137.754
1072.08	90.7543
1074.97	53.3071
1077.87	37.0385
1080.76	23.5914
1083.65	20.0673
1086.55	20.3767
1089.44	28.5609
1092.33	43.2126
1095.22	53.077
1098.12	32.9567
1101.01	12.382
1103.9	2.0116
1106.79	8.94214
1109.69	8.64459
1112.58	8.17175
1115.47	2.86017
1118.37	3.47705
1121.26	14.5883
1124.15	14.4641
1127.04	11.6336
1129.94	9.06805
1132.83	5.77747
1135.72	5.42596
1138.61	13.0809
1141.51	18.3908
1144.4	23.2749
1147.29	30.3597
1150.18	42.1149
1153.08	49.2247
1155.97	44.4416
1158.86	40.5106
1161.76	37.1716
1164.65	31.9373
1167.54	34.0779
1170.43	29.6736
1173.33	23.194
1176.22	17.4185
1179.11	11.0756
1182	5.4422
1184.9	6.93768
1187.79	0.6922
1190.68	0.856018
1193.58	2.7171
1196.47	3.21735
1199.36	6.66132
1202.25	1.06018
1205.15	3.7323
1208.04	6.66974
1210.93	6.19141
1213.82	10.7488
1216.72	8.52216
1219.61	5.7854
1222.5	17.3758
1225.39	11.1393
1228.29	14.1337
1231.18	15.366
1234.07	11.1699
1236.97	13.3724
1239.86	7.76636
1242.75	8.92572
1245.64	6.85596
1248.54	1.83032
1251.43	6.91492
1254.32	9.04437
1257.21	3.79034
1260.11	4.57922
1263	4.0415
1265.89	0.297791
1268.79	2.20447
1271.68	7.43957
1274.57	5.4195
1277.46	10.5486
1280.36	5.35644
1283.25	3.18072
1286.14	6.49768
1289.03	0.711426
1291.93	6.67188
1294.82	1.61664
1297.71	2.48737
1300.61	5.03394
