Measurement: Raman, 780 nm, unoriented, Raman Data Processed
Mineral: Fairfieldite
Rruff sample: R070630
Ideal chemistry: Ca_2_Mn^2+^(PO_4_)_2_2H_2_O
Locality: Tip Top mine, Custer County, South Dakota, USA
Source: Dakota Matrix Minerals
Description: Transparent white to colorless lamellar and massive crystals associated with whitlockite
Measured chemistry: Ca_1.99_(Mn_0.83_Mg_0.16_Fe_0.01_)_Ʃ=1_(P_1.00_O_4_)_2_·2H_2_O
Raman shift (cm-1)	intensity
112.72	0
115.613	52.1853
118.505	26.7202
121.398	19.712
124.291	88.2441
127.183	10.5746
130.076	52.0793
132.969	108.102
135.862	99.0476
138.754	195.981
141.647	197.221
144.54	333.571
147.432	331.949
150.325	118.336
153.218	48.2582
156.11	57.8464
159.003	1.27881
161.896	0.40979
164.788	95.2665
167.681	177.162
170.574	333.451
173.467	631.923
176.359	952.424
179.252	1094.13
182.145	1146.73
185.037	1614.44
187.93	1919.63
190.823	1185.6
193.715	1038.12
196.608	1127.53
199.501	1463.57
202.394	2060.7
205.286	1934.41
208.179	1522.03
211.072	1358.29
213.964	1572.57
216.857	1440.88
219.75	1050.61
222.643	746.075
225.535	649.138
228.428	880.851
231.321	1169.97
234.213	1722.63
237.106	1988.54
239.999	1424.4
242.891	720.445
245.784	342.009
248.677	216.233
251.57	163.997
254.462	131.744
257.355	29.9767
260.248	3.06482
263.14	17.0497
266.033	66.0629
268.926	185.6
271.818	290.91
274.711	512.277
277.604	803.303
280.497	1097.65
283.389	1373.34
286.282	1471.47
289.175	1125.33
292.067	695.829
294.96	391.616
297.853	298.047
300.745	213.206
303.638	276.485
306.531	290.212
309.424	368.075
312.316	314.55
315.209	187.107
318.102	111.558
320.994	38.1119
323.887	1.74084
326.78	33.1257
329.673	9.20618
332.565	51.9177
335.458	23.8706
338.351	6.70349
341.243	6.22321
344.136	21.9541
347.029	20.2731
349.921	160.195
352.814	214.659
355.707	305.038
358.599	368.926
361.492	472.084
364.385	489.287
367.278	457.394
370.17	388.803
373.063	261.973
375.956	301.943
378.848	228.256
381.741	179.719
384.634	203.162
387.526	198.763
390.419	195.207
393.312	281.733
396.205	307.877
399.097	484.409
401.99	637.432
404.883	930.119
407.775	1303.18
410.668	1858.21
413.561	2572.54
416.454	3339.52
419.346	4244.38
422.239	4798.65
425.132	4852.58
428.024	4230.75
430.917	3615.91
433.81	3287.37
436.702	3123.59
439.595	3150.04
442.488	2865.51
445.38	2324.06
448.273	1630.98
451.166	1121.55
454.059	777.491
456.951	586.255
459.844	419.071
462.737	243.492
465.629	207.665
468.522	158.898
471.415	109.481
474.308	116.536
477.2	83.236
480.093	48.6517
482.986	13.7142
485.878	4.2229
488.771	16.9959
491.664	23.509
494.556	11.3726
497.449	13.923
500.342	11.0237
503.235	42.2546
506.127	23.2415
509.02	2.95888
511.913	11.7861
514.805	48.9295
517.698	17.4799
520.591	30.8683
523.484	32.4725
526.376	51.5732
529.269	42.0662
532.162	115.426
535.054	96.1069
537.947	192.063
540.84	255.346
543.732	376.51
546.625	526.585
549.518	623.484
552.41	668.83
555.303	502.983
558.196	422.189
561.089	275.579
563.981	233.15
566.874	230.897
569.767	230.502
572.659	244.656
575.552	298.257
578.445	410.721
581.337	515.287
584.23	686.651
587.123	662.518
590.016	626.952
592.908	800.193
595.801	1119.76
598.694	1519.71
601.586	2187.93
604.479	2173.71
607.372	1219.73
610.264	585.385
613.157	251.895
616.05	138.734
618.943	76.282
621.835	48.6255
624.728	37.0827
627.621	9.30753
630.513	9.90607
633.406	23.3394
636.299	44.4059
639.192	30.2762
642.084	58.5593
644.977	19.9762
647.87	28.0219
650.762	34.196
653.655	38.8731
656.548	51.8716
659.44	21.0727
662.333	49.2442
665.226	10.3796
668.119	5.30457
671.011	43.0961
673.904	47.2057
676.797	33.3793
679.689	4.21057
682.582	22.0326
685.475	55.5117
688.367	39.3504
691.26	26.7695
694.153	13.9355
697.045	15.1215
699.938	49.2005
702.831	0.317322
705.724	37.6358
708.616	32.5231
711.509	22.1217
714.402	35.7156
717.294	35.0319
720.187	52.6057
723.08	16.6606
725.972	64.0297
728.865	31.2433
731.758	95.3325
734.651	77.258
737.543	119.428
740.436	116.319
743.329	138.593
746.221	170.964
749.114	190.587
752.007	268.844
754.899	296.163
757.792	316.931
760.685	409.068
763.578	380.165
766.47	400.748
769.363	361.595
772.256	293.002
775.148	279.045
778.041	193.944
780.934	187.086
783.827	161.885
786.719	143.101
789.612	107.515
792.505	93.5544
795.397	78.5609
798.29	65.3951
801.183	45.2925
804.075	40.0231
806.968	6.84027
809.861	73.4789
812.754	48.5355
815.646	41.9396
818.539	23.0283
821.432	7.19782
824.324	20.7035
827.217	3.63773
830.11	13.5477
833.003	35.6004
835.895	8.72769
838.788	50.6042
841.681	24.9103
844.573	7.96075
847.466	16.5297
850.359	14.1824
853.251	20.3616
856.144	12.7944
859.037	11.7071
861.929	3.14077
864.822	29.2294
867.715	31.4664
870.608	28.4141
873.5	6.53043
876.393	1.34177
879.286	25.0724
882.178	17.1406
885.071	63.4987
887.964	83.2935
890.856	107.296
893.749	119.324
896.642	206.012
899.535	295.822
902.427	388.298
905.32	605.089
908.213	1021.1
911.105	1525.65
913.998	2537.56
916.891	3830.67
919.784	5282.13
922.676	6399.19
925.569	6427.98
928.462	5453.14
931.354	4300.63
934.247	3664.09
937.14	3558.87
940.032	3834.54
942.925	4206.82
945.818	4719.39
948.711	5314.51
951.603	5726.04
954.496	5586.7
957.389	4636.63
960.281	3277.69
963.174	2078.5
966.067	1428.5
968.959	967.187
971.852	802.443
974.745	690.072
977.638	500.176
980.53	276.513
983.423	143.015
986.316	75.0543
989.208	9.16614
992.101	20.9443
994.994	0.61731
997.886	10.235
1000.78	10.0227
1003.67	14.1583
1006.57	9.0741
1009.46	21.5931
1012.35	19.1654
1015.24	53.9387
1018.13	109.312
1021.03	186.951
1023.92	308.644
1026.81	347.821
1029.71	264.802
1032.6	113.129
1035.49	52.5465
1038.38	42.6527
1041.28	18.179
1044.17	49.9236
1047.06	39.2411
1049.95	6.93094
1052.85	58.657
1055.74	21.301
1058.63	10.4428
1061.53	10.0507
1064.42	24.7252
1067.31	20.0721
1070.2	25.9056
1073.1	76.2094
1075.99	100.222
1078.88	138.076
1081.78	241.178
1084.67	412.013
1087.56	719.36
1090.45	1139.63
1093.35	1755.83
1096.24	2186.85
1099.13	1910.87
1102.02	1127.27
1104.92	601.139
1107.81	332.303
1110.7	209.225
1113.59	146.017
1116.49	129.835
1119.38	59.3456
1122.27	51.7761
1125.16	46.4768
1128.06	20.8871
1130.95	52.8007
1133.84	38.9065
1136.74	56.7628
1139.63	5.27918
1142.52	22.4656
1145.41	23.8089
1148.31	10.7677
1151.2	6.0477
1154.09	1.86093
1156.98	6.51975
1159.88	5.70688
1162.77	20.1525
1165.66	21.7486
1168.56	4.22757
1171.45	44.3323
1174.34	3.28522
1177.23	46.183
1180.13	103.488
1183.02	94.6693
1185.91	81.6084
1188.81	64.3272
1191.7	54.1814
1194.59	71.4501
1197.48	61.4602
1200.38	79.2609
1203.27	30.6193
1206.16	50.3787
1209.05	40.5134
1211.95	37.4669
1214.84	40.1024
1217.73	17.0971
1220.62	16.5487
1223.52	59.1613
1226.41	42.3778
1229.3	16.2396
1232.19	45.09
1235.09	37.348
1237.98	14.8459
1240.87	6.25186
1243.77	8.95843
1246.66	64.4583
1249.55	57.189
1252.44	39.2571
1255.34	8.65509
1258.23	8.71191
