Measurement: Raman, 532 nm, unoriented, Raman Data Processed
Mineral: Fairfieldite
Rruff sample: R070630
Ideal chemistry: Ca_2_Mn^2+^(PO_4_)_2_2H_2_O
Locality: Tip Top mine, Custer County, South Dakota, USA
Source: Dakota Matrix Minerals
Description: Transparent white to colorless lamellar and massive crystals associated with whitlockite
Measured chemistry: Ca_1.99_(Mn_0.83_Mg_0.16_Fe_0.01_)_Ʃ=1_(P_1.00_O_4_)_2_·2H_2_O
Raman shift (cm-1)	intensity
115.675	0
119.05	7.00464
122.425	12.0867
125.8	32.1449
129.174	260.767
132.549	429.416
135.924	452.358
139.299	724.751
142.674	714.642
146.048	892.972
149.423	567.813
152.798	386.117
156.173	377.699
159.548	462.099
162.923	613.646
166.297	738.945
169.672	1145.87
173.047	1587.09
176.422	2055.61
179.797	1922.27
183.172	2200.43
186.546	3120.93
189.921	2645.08
193.296	2559.96
196.671	3143.45
200.046	4114.11
203.42	4592.9
206.795	3047.11
210.17	2304.76
213.545	2204.6
216.92	2124.79
220.294	1501.11
223.669	1405.92
227.044	1625.15
230.419	1971.03
233.794	2637.88
237.168	2772.34
240.543	1541.8
243.918	602.913
247.293	208.79
250.668	60.944
254.043	87.3716
257.417	5.95093
260.792	111.983
264.167	13.0222
267.542	301.997
270.917	714.292
274.291	982.593
277.666	1324.92
281.041	1693.65
284.416	1971.54
287.791	1640.77
291.166	896.957
294.54	492.15
297.915	362.762
301.29	276.733
304.665	243.058
308.04	294.292
311.414	255.794
314.789	147.568
318.164	36.7294
321.539	55.3739
324.914	47.517
328.288	24.9074
331.663	5.0116
335.038	47.2236
338.413	10.253
341.788	91.6925
345.163	188.359
348.537	300.471
351.912	363.518
355.287	491.623
358.662	616.794
362.037	670.239
365.411	655.567
368.786	551.019
372.161	416.134
375.536	352.549
378.911	331.559
382.286	330.972
385.66	383.611
389.035	510.675
392.41	600.361
395.785	903.917
399.16	1309.21
402.534	1937.6
405.909	2854.11
409.284	4023.47
412.659	5191.64
416.034	6506.23
419.409	7609.3
422.783	8176.75
426.158	7394.99
429.533	5991.56
432.908	4960.8
436.283	4458.72
439.657	4042.95
443.032	3334.02
446.407	2362.81
449.782	1572.74
453.157	1012.08
456.531	686.485
459.906	492.624
463.281	339.81
466.656	189.795
470.031	173.105
473.406	56.7739
476.78	77.4705
480.155	87.863
483.53	8.58997
486.905	4.49463
490.28	22.0668
493.654	51.839
497.029	4.91565
500.404	29.4111
503.779	17.4164
507.154	54.5308
510.529	1.87854
513.903	11.5283
517.278	36.7438
520.653	20.8894
524.028	93.1326
527.403	145.593
530.777	215.604
534.152	390.666
537.527	632.024
540.902	838.811
544.277	1043.68
547.652	1281.11
551.026	1396.75
554.401	1080.04
557.776	699.072
561.151	531.474
564.526	453.599
567.9	437.868
571.275	536.589
574.65	731.224
578.025	884.538
581.4	1186.07
584.774	1657.52
588.149	1782.43
591.524	1884.6
594.899	2070.64
598.274	2432.45
601.649	3059.17
605.023	2310.99
608.398	986.606
611.773	402.54
615.148	157.871
618.523	94.6571
621.897	62.4005
625.272	26.9694
628.647	41.3727
632.022	47.4467
635.397	30.0762
638.771	15.4434
642.146	20.9559
645.521	37.9941
648.896	1.83362
652.271	66.6161
655.646	29.5435
659.02	23.436
662.395	5.1283
665.77	7.95874
669.145	40.7606
672.52	20.6174
675.894	1.19263
679.269	60.2095
682.644	25.8375
686.019	69.4603
689.394	38.2899
692.769	11.8857
696.143	27.9224
699.518	48.5402
702.893	49.2527
706.268	9.46924
709.643	12.0384
713.017	28.8497
716.392	80.5321
719.767	99.9059
723.142	82.7705
726.517	139.5
729.891	258.815
733.266	190.82
736.641	254.003
740.016	307.934
743.391	346.156
746.766	453.322
750.14	512.738
753.515	603.482
756.89	676.38
760.265	800.472
763.64	790.957
767.014	731.911
770.389	634.005
773.764	492.479
777.139	418.026
780.514	351.906
783.889	300.083
787.263	214.38
790.638	191.788
794.013	160.972
797.388	144.985
800.763	121.469
804.137	97.9969
807.512	80.7617
810.887	75.323
814.262	82.6674
817.637	50.4246
821.011	47.575
824.386	29.6258
827.761	37.6323
831.136	0.98291
834.511	37.919
837.885	11.7886
841.26	0.662109
844.635	8.50293
848.01	1.4303
851.385	0.716675
854.76	30.8334
858.134	34.9141
861.509	39.9772
864.884	35.9663
868.259	19.2689
871.634	5.06726
875.009	14.9442
878.383	23.5902
881.758	108.269
885.133	128.797
888.508	171.857
891.883	268.597
895.257	417.797
898.632	643.005
902.007	1060.48
905.382	1895.3
908.757	3255.89
912.131	5291.5
915.506	7721.86
918.881	10182.5
922.256	12079.2
925.631	11699.8
929.005	9539.38
932.38	7856.92
935.755	7453.86
939.13	8065.49
942.505	9141.18
945.88	10048.8
949.254	10716.1
952.629	10628.3
956.004	9022.65
959.379	6197.76
962.754	3883.72
966.129	2625.12
969.503	2110
972.878	1908.01
976.253	1656.29
979.628	906.56
983.003	425.506
986.377	198.01
989.752	63.9186
993.127	15.77
996.502	13.6532
999.877	30.9595
1003.25	45.0826
1006.63	9.93726
1010	65.0288
1013.38	166.843
1016.75	344.318
1020.12	557.392
1023.5	799.521
1026.88	823.002
1030.25	538.321
1033.62	221.595
1037	76.2778
1040.37	61.4607
1043.75	44.1588
1047.12	3.60608
1050.5	4.65991
1053.87	31.0879
1057.25	4.36926
1060.62	5.2157
1064	14.6434
1067.37	58.7924
1070.75	104.395
1074.12	185.035
1077.5	332.973
1080.87	624.706
1084.25	1068.49
1087.62	1685.94
1091	2400.14
1094.37	3014.2
1097.75	2963.94
1101.12	1770.49
1104.5	832.609
1107.87	448.774
1111.24	221.109
1114.62	160.384
1117.99	97.229
1121.37	95.2994
1124.74	68.9981
1128.12	56.788
1131.49	8.78967
1134.87	51.9203
1138.24	2.23962
1141.62	32.2242
1144.99	19.0698
1148.37	18.4874
1151.74	32.3672
1155.12	11.7816
1158.49	19.0743
1161.87	10.8675
1165.24	143.328
1168.62	2.44751
1171.99	31.394
1175.37	15.3048
1178.74	43.0487
1182.12	55.017
1185.49	27.9293
1188.87	43.9534
1192.24	49.3804
1195.62	31.3896
1198.99	32.5791
1202.37	61.7728
1205.74	45.1332
1209.12	88.0817
1212.49	38.1621
1215.87	51.4598
1219.24	0.045044
1222.61	41.5674
1225.99	8.05908
1229.36	40.6473
1232.74	18.2539
1236.11	29.5123
1239.49	14.8505
1242.86	22.3507
1246.24	6.20361
1249.61	60.6602
1252.99	15.5032
1256.36	110.282
1259.74	29.0656
1263.11	41.2327
1266.49	4.18408
1269.86	33.7772
1273.24	62.9325
1276.61	5.52795
1279.99	6.05859
