Measurement: Raman, 532 nm, unoriented, Raman Data Processed
Mineral: Fairfieldite
Rruff sample: R050539
Ideal chemistry: Ca_2_Mn^2+^(PO_4_)_2_2H_2_O
Locality: Foote mine, Kings Mountain, Cleveland County, North Carolina, USA
Source: University of Arizona Mineral Museum
Description: Transparent tabular crystals associated with fluorapatite
Measured chemistry: Ca_2.00_(Mn^2+^_0.82_Fe^2+^_0.15_Mg_0.03_)_Σ=1_(P_1.00_O_4_)_2_·2H_2_O
Raman shift (cm-1)	intensity
126.603	0
129.977	1.15461
133.352	4.21069
136.727	21.2758
140.102	44.3061
143.477	107.71
146.852	233.853
150.226	96.2713
153.601	34.1517
156.976	16.2112
160.351	19.1212
163.726	27.259
167.101	52.3431
170.475	94.2516
173.85	142.7
177.225	229.621
180.6	330.349
183.975	566.845
187.349	888.93
190.724	588.019
194.099	615.547
197.474	954.751
200.849	1656.48
204.224	1937.6
207.598	953.41
210.973	564.488
214.348	662.131
217.723	756.903
221.097	486.558
224.472	340.834
227.847	360.065
231.222	505.924
234.597	766.804
237.972	921.939
241.346	572.418
244.721	243.967
248.096	156.391
251.471	176.043
254.846	156.014
258.221	74.6557
261.595	23.2078
264.97	3.52173
268.345	13.8189
271.72	10.8646
275.095	1.94373
278.469	23.2732
281.844	55.9917
285.219	92.1099
288.594	92.4865
291.969	64.7656
295.344	55.6087
298.718	74.3802
302.093	105.572
305.468	175.346
308.843	286.129
312.218	322.336
315.592	174.579
318.967	73.2413
322.342	28.6305
325.717	9.74458
329.092	2.0565
332.466	8.88527
335.841	11.1736
339.216	7.30313
342.591	1.41742
345.966	13.3209
349.341	28.4641
352.715	53.6124
356.09	87.2184
359.465	132.596
362.84	160.939
366.215	151.9
369.589	113.718
372.964	75.7942
376.339	59.2746
379.714	50.1979
383.089	47.8838
386.464	53.5024
389.838	65.1519
393.213	89.7078
396.588	126.606
399.963	189.358
403.338	292.498
406.712	443.137
410.087	669.931
413.462	1001.03
416.837	1456.1
420.212	2016.36
423.587	2433.77
426.961	2369.68
430.336	2002.54
433.711	1733.52
437.086	1683.24
440.461	1644.11
443.835	1375.77
447.21	936.586
450.585	592.135
453.96	377.488
457.335	249.588
460.709	173.766
464.084	119.142
467.459	80.7024
470.834	55.5447
474.209	37.2191
477.584	25.595
480.958	14.3088
484.333	7.7236
487.708	1.90863
491.083	1.11597
494.458	3.76468
497.832	3.11603
501.207	7.06424
504.582	5.79868
507.957	4.97562
511.332	1.13199
514.707	0.342896
518.081	2.51691
521.456	7.86377
524.831	14.5029
528.206	26.2816
531.581	39.7366
534.955	57.9715
538.33	88.3129
541.705	132.862
545.08	188.491
548.455	258.411
551.83	292.779
555.204	224.189
558.579	132.947
561.954	94.6719
565.329	102.082
568.704	150.315
572.078	255.839
575.453	409.146
578.828	693.541
582.203	1201.4
585.578	1624.17
588.952	1074.3
592.327	505.464
595.702	351.688
599.077	409.269
602.452	574.951
605.827	574.65
609.201	255.85
612.576	107.01
615.951	51.8638
619.326	27.0459
622.701	15.5606
626.075	7.77884
629.45	5.92072
632.825	3.71565
636.2	1.00334
639.575	2.7993
642.949	1.69737
646.324	1.19989
649.699	1.14442
653.074	0.127258
656.449	0.110214
659.824	3.00719
663.198	0.723221
666.573	0.454224
669.948	0.24823
673.323	0.248886
676.698	1.29269
680.072	0.797852
683.447	1.3558
686.822	3.21318
690.197	1.7856
693.572	1.70518
696.947	2.72565
700.321	1.98144
703.696	2.46179
707.071	1.9373
710.446	1.96877
713.821	2.41023
717.196	3.46883
720.57	6.85243
723.945	7.41492
727.32	11.1824
730.695	10.4214
734.07	15.3113
737.444	18.1931
740.819	23.5382
744.194	28.4433
747.569	38.8603
750.944	47.0345
754.318	59.341
757.693	69.3484
761.068	77.0065
764.443	75.4189
767.818	66.9548
771.193	58.2694
774.567	49.6388
777.942	39.5101
781.317	31.867
784.692	29.3627
788.067	24.4437
791.441	19.1777
794.816	21.8389
798.191	20.7818
801.566	19.3251
804.941	20.7667
808.316	20.5572
811.69	17.8996
815.065	17.3073
818.44	15.076
821.815	12.5129
825.19	9.94537
828.564	11.7503
831.939	5.31903
835.314	4.76544
838.689	1.82767
842.064	2.55914
845.438	0.73053
848.813	3.33774
852.188	2.45584
855.563	2.30362
858.938	5.88617
862.313	7.40942
865.687	4.86813
869.062	0.144897
872.437	0.3909
875.812	8.1499
879.187	12.8484
882.562	24.5171
885.936	42.686
889.311	63.2924
892.686	98.0367
896.061	151.312
899.436	231.459
902.81	365.556
906.185	600.444
909.56	1015.48
912.935	1708.62
916.31	2749.16
919.684	4209.61
923.059	5575.22
926.434	5429.38
929.809	4092.74
933.184	3080.99
936.558	2673.42
939.933	2701.82
943.308	3003.47
946.683	3546.29
950.058	4282.02
953.433	4966.4
956.807	4594.58
960.182	3001.55
963.557	1633.48
966.932	915.63
970.307	567.627
973.682	400.12
977.056	257.842
980.431	120.932
983.806	54.1663
987.181	16.9721
990.556	1.3949
993.93	13.5512
997.305	14.2048
1000.68	4.34421
1004.05	14.1042
1007.43	42.6669
1010.8	92.1228
1014.18	189.349
1017.55	349.946
1020.93	614.085
1024.3	1042.95
1027.68	1293.64
1031.05	791.893
1034.43	350.3
1037.8	163.37
1041.18	78.9959
1044.55	41.4226
1047.93	26.8946
1051.3	18.5213
1054.68	4.46915
1058.05	4.14999
1061.43	4.61108
1064.8	1.668
1068.18	4.17837
1071.55	13.5396
1074.93	20.352
1078.3	36.8965
1081.68	67.2826
1085.05	129.161
1088.42	240.77
1091.8	424.626
1095.17	762.784
1098.55	1119.34
1101.92	795.062
1105.3	374.98
1108.67	191.102
1112.05	111.937
1115.42	74.7888
1118.8	48.7783
1122.17	37.8433
1125.55	28.4718
1128.92	23.7583
1132.3	17.7438
1135.67	11.7665
1139.05	7.6012
1142.42	2.96005
1145.8	1.5625
1149.17	1.5578
1152.55	3.29578
1155.92	0.856354
1159.3	2.51819
1162.67	4.51349
1166.05	10.1273
1169.42	11.1415
1172.8	16.4788
1176.17	19.1357
1179.55	18.3951
1182.92	16.5791
1186.3	17.2646
1189.67	16.6158
1193.05	13.7437
1196.42	11.5154
1199.79	14.0698
1203.17	13.2902
1206.54	14.0724
1209.92	14.4524
1213.29	13.4946
1216.67	7.84064
1220.04	8.7796
1223.42	5.54529
1226.79	4.08225
1230.17	3.64008
1233.54	2.52191
1236.92	0.09552
1240.29	1.3226
1243.67	0.122772
1247.04	1.87653
1250.42	1.03674
1253.79	0.115875
1257.17	0.170197
1260.54	2.90112
1263.92	3.43341
1267.29	3.43408
1270.66	6.1557
1274.04	4.18024
1277.41	3.21582
1280.79	2.44486
1284.16	2.51578
1287.54	0.930634
1290.91	4.06894
1294.29	2.68884
1297.66	2.86096
1301.04	1.88184
