Measurement: Raman, 780 nm, unoriented, Raman Data Processed
Mineral: Fairfieldite
Rruff sample: R050539
Ideal chemistry: Ca_2_Mn^2+^(PO_4_)_2_2H_2_O
Locality: Foote mine, Kings Mountain, Cleveland County, North Carolina, USA
Source: University of Arizona Mineral Museum
Description: Transparent tabular crystals associated with fluorapatite
Measured chemistry: Ca_2.00_(Mn^2+^_0.82_Fe^2+^_0.15_Mg_0.03_)_Σ=1_(P_1.00_O_4_)_2_·2H_2_O
Raman shift (cm-1)	intensity
98.1624	0
101.537	36.9139
104.912	95.7678
108.287	38.2777
111.662	14.7517
115.036	3.6784
118.411	1.62494
121.786	2.8017
125.161	1.38888
128.536	3.84642
131.911	4.56027
135.285	9.57303
138.66	19.8458
142.035	49.0645
145.41	126.068
148.785	60.501
152.159	9.01059
155.534	0.925964
158.909	0.059464
162.284	4.9402
165.659	14.2434
169.034	25.014
172.408	38.6619
175.783	73.7947
179.158	110.007
182.533	152.548
185.908	245.074
189.282	189.336
192.657	181.549
196.032	267.612
199.407	447.812
202.782	613.764
206.156	346.662
209.531	156.745
212.906	135.596
216.281	164.56
219.656	127.559
223.03	95.3369
226.405	103.709
229.78	144.109
233.155	214.911
236.53	254.972
239.905	177.824
243.279	78.7588
246.654	41.5827
250.029	39.497
253.404	39.5325
256.779	19.7467
260.154	5.48872
263.528	2.12749
266.903	3.80733
270.278	2.46445
273.653	1.55225
277.028	9.88991
280.402	21.7457
283.777	36.0017
287.152	42.757
290.527	33.1343
293.902	28.7557
297.276	31.2491
300.651	40.4875
304.026	64.2412
307.401	110.188
310.776	152.261
314.151	103.791
317.525	45.1479
320.9	18.3369
324.275	5.83391
327.65	0.769966
331.025	3.90545
334.399	5.24417
337.774	3.4646
341.149	0.186325
344.524	4.47713
347.899	11.3502
351.274	21.3887
354.648	36.918
358.023	55.6843
361.398	74.301
364.773	78.7131
368.148	64.2605
371.522	43.5215
374.897	31.8392
378.272	23.7044
381.647	20.8242
385.022	18.8474
388.397	23.1665
391.771	29.3094
395.146	42.3964
398.521	67.403
401.896	107.074
405.271	162.337
408.645	241.895
412.02	347.88
415.395	502.386
418.77	708.113
422.145	900.427
425.519	952.96
428.894	855.952
432.269	763.934
435.644	746.455
439.019	761.351
442.394	679.23
445.768	481.209
449.143	299.871
452.518	190.237
455.893	122.426
459.268	83.8358
462.642	56.583
466.017	39.3558
469.392	25.7714
472.767	18.2771
476.142	11.0597
479.517	7.33312
482.891	2.25165
486.266	0.980118
489.641	0.088013
493.016	0.697456
496.391	1.90139
499.765	2.1363
503.14	2.39584
506.515	2.75636
509.89	1.25454
513.265	0.816025
516.64	2.38142
520.014	2.52927
523.389	5.21226
526.764	9.15301
530.139	13.6667
533.514	23.1641
536.889	34.5264
540.263	48.0621
543.638	67.2613
547.013	95.679
550.388	124.049
553.763	112.087
557.137	66.6603
560.512	38.9598
563.887	30.9469
567.262	40.2231
570.637	60.6767
574.011	87.5311
577.386	137.077
580.761	245.472
584.136	414.717
587.511	370.794
590.885	187.017
594.26	124.524
597.635	137.915
601.01	221.371
604.385	311.115
607.76	171.232
611.134	66.5146
614.509	31.5652
617.884	15.619
621.259	9.40822
624.634	5.31258
628.009	3.58466
631.383	1.54748
634.758	0.863087
638.133	0.558781
641.508	0.40366
644.883	0.035549
648.257	0.758934
651.632	0.581131
655.007	0.427757
658.382	0.062744
661.757	0.024258
665.131	0.365341
668.506	0.431683
671.881	0.775223
675.256	1.20755
678.631	0.378006
682.006	0.645023
685.38	0.332043
688.755	2.27126
692.13	1.25092
695.505	1.39599
698.88	1.17825
702.255	0.77507
705.629	1.44365
709.004	0.764992
712.379	1.06499
715.754	0.514462
719.129	1.57463
722.503	1.24551
725.878	2.01459
729.253	2.60001
732.628	3.53608
736.003	4.48125
739.377	5.91131
742.752	6.34829
746.127	8.25444
749.502	10.6079
752.877	11.9638
756.251	14.2595
759.626	14.6741
763.001	15.0178
766.376	12.4907
769.751	12.0597
773.126	9.44793
776.5	7.85556
779.875	6.26091
783.25	5.05428
786.625	3.5192
790	3.55421
793.375	3.84647
796.749	3.32115
800.124	2.58363
803.499	2.97903
806.874	3.38693
810.249	4.29682
813.623	3.43492
816.998	2.99547
820.373	2.5869
823.748	2.79984
827.123	1.924
830.497	2.4702
833.872	1.06454
837.247	1.09491
840.622	0.655521
843.997	0.693729
847.372	0.681454
850.746	1.20936
854.121	0.613312
857.496	0.996742
860.871	0.988045
864.246	1.37432
867.62	1.22333
870.995	0.366997
874.37	0.907036
877.745	2.09081
881.12	3.99013
884.495	7.69983
887.869	12.7133
891.244	19.5368
894.619	31.2209
897.994	47.3244
901.369	76.1161
904.744	123.674
908.118	207.338
911.493	340.022
914.868	530.719
918.243	809.19
921.617	1161.28
924.992	1302.96
928.367	1063.23
931.742	786.87
935.117	655.239
938.492	638.559
941.866	697.929
945.241	796.181
948.616	932.368
951.991	1095.19
955.366	1124.22
958.74	831.382
962.115	467.964
965.49	253.148
968.865	151.154
972.24	100.263
975.615	68.4723
978.989	37.1813
982.364	17.0507
985.739	7.4729
989.114	1.23721
992.489	2.12467
995.864	3.31828
999.238	2.16245
1002.61	0.243034
1005.99	6.03551
1009.36	14.1598
1012.74	31.1107
1016.11	57.4158
1019.49	96.6584
1022.86	170.267
1026.24	253.052
1029.61	199.982
1032.99	92.6437
1036.36	41.2561
1039.74	18.5457
1043.11	9.47343
1046.49	3.97907
1049.86	5.52773
1053.23	4.40514
1056.61	1.09655
1059.98	1.39321
1063.36	1.09033
1066.73	1.98266
1070.11	4.89591
1073.48	6.97101
1076.86	12.6859
1080.23	23.3172
1083.61	44.5745
1086.98	80.5673
1090.36	131.63
1093.73	223.68
1097.11	372.398
1100.48	350.26
1103.86	174.703
1107.23	82.6556
1110.61	46.9332
1113.98	28.1879
1117.36	18.498
1120.73	12.341
1124.11	10.6887
1127.48	10.8766
1130.86	4.93733
1134.23	3.42147
1137.61	2.79106
1140.98	1.4891
1144.36	0.625851
1147.73	0.449688
1151.11	0.484875
1154.48	0.113403
1157.86	0.36985
1161.23	0.089294
1164.6	1.87223
1167.98	2.3057
1171.35	3.80519
1174.73	3.624
1178.1	3.24444
1181.48	3.12972
1184.85	3.71337
1188.23	4.03397
1191.6	3.47857
1194.98	2.88078
1198.35	3.13375
1201.73	2.54873
1205.1	2.81566
1208.48	4.0711
1211.85	3.72329
1215.23	3.69721
1218.6	2.09989
1221.98	1.22671
1225.35	1.19213
1228.73	0.647129
1232.1	0.201832
1235.47	1.06781
1238.85	0.491524
1242.22	1.22791
1245.6	0.521431
1248.97	0.836174
1252.35	0.244179
1255.72	0.542095
1259.1	0.821358
1262.47	1.28664
1265.85	1.03349
1269.22	1.7528
1272.6	0.847004
1275.97	1.17709
1279.35	0.385109
1282.72	0.25172
1286.1	0
