Measurement: Raman, 780 nm, unoriented, Raman Data Processed
Mineral: Famatinite
Rruff sample: R110022
Ideal chemistry: Cu_3_SbS_4_
Locality: Quiruvilca, La Libertad Department, Peru
Source: William Pinch
Description: Pinkish grey metallic massive associated with black metallic tetrahedral tennantite R110024 on pyrite
Measured chemistry: Cu_2.99_(Sb_0.61_As_0.40_)_Î£=1.01_S_4_
Raman shift (cm-1)	intensity
176.904	0
179.797	1.41221
182.69	0.297401
185.582	0.762062
188.475	3.48146
191.368	1.06536
194.261	1.63685
197.153	3.28803
200.046	2.56268
202.939	4.53866
205.831	2.13955
208.724	0.19842
211.617	0.299938
214.509	1.11312
217.402	0.519281
220.295	1.17643
223.188	1.55004
226.08	1.46184
228.973	5.19226
231.866	9.944
234.758	9.525
237.651	10.9379
240.544	12.3131
243.436	12.3701
246.329	10.3657
249.222	8.66446
252.114	7.90306
255.007	5.04523
257.9	7.06342
260.793	8.29655
263.685	8.07767
266.578	6.31665
269.471	5.47804
272.363	7.03216
275.256	7.15559
278.149	1.55437
281.041	2.61327
283.934	1.6735
286.827	0.951996
289.719	3.99655
292.612	6.29436
295.505	12.3991
298.398	24.7246
301.29	42.0393
304.183	71.8564
307.076	97.5022
309.968	110.154
312.861	116.644
315.754	119.01
318.647	102.309
321.539	75.571
324.432	43.3437
327.325	23.298
330.217	17.5106
333.11	13.956
336.003	17.3293
338.895	19.1799
341.788	20.3367
344.681	20.9353
347.574	14.8604
350.466	11.9799
353.359	7.81782
356.252	6.88568
359.144	4.26328
362.037	1.48747
364.93	3.32305
367.822	4.3074
370.715	1.26028
373.608	2.43112
376.5	1.35169
379.393	0.309688
382.286	1.60188
385.179	0.686828
388.071	1.19232
390.964	0.375939
393.857	0.460032
396.749	3.58197
399.642	2.10452
402.535	0.68993
405.427	1.10788
408.32	0.334404
411.213	4.00615
414.106	3.3733
416.998	0.888279
419.891	4.50014
422.784	2.01957
425.676	1.19342
428.569	2.87522
431.462	4.83919
434.354	3.61605
437.247	1.89797
440.14	3.06985
443.033	2.10425
445.925	2.42091
448.818	2.98823
451.711	4.22494
454.603	3.36851
457.496	2.10064
460.389	2.86296
463.281	3.63538
466.174	2.09631
469.067	1.87509
471.959	1.86259
474.852	1.66036
477.745	1.34277
480.638	0.99553
483.53	2.33029
486.423	0.675204
489.316	2.53698
492.208	3.26919
495.101	4.37312
497.994	0.01757
500.887	2.33701
503.779	1.20303
506.672	1.4196
509.565	3.93709
512.457	1.63845
515.35	2.338
518.243	2.83548
521.135	1.09168
524.028	0.292841
526.921	2.2279
529.813	1.86139
532.706	1.39782
535.599	2.9954
538.492	1.23344
541.384	1.09485
544.277	0.099856
547.17	1.68331
550.062	0.597499
552.955	1.22033
555.848	3.37657
558.74	2.60205
561.633	1.97456
564.526	3.02309
567.418	2.62758
570.311	2.03008
573.204	1.28782
576.097	2.20242
578.989	3.15934
581.882	1.0957
584.775	0.988179
587.667	0.45953
590.56	2.60429
593.453	1.20678
596.346	0.478
599.238	0.254473
602.131	1.18028
605.024	2.39239
607.916	2.60741
610.809	1.94071
613.702	4.41847
616.594	3.78444
619.487	4.91254
622.38	6.22507
625.273	5.69052
628.165	8.9018
631.058	8.05854
633.951	8.87346
636.843	7.23704
639.736	9.67846
642.629	5.07261
645.521	5.53015
648.414	4.18371
651.307	4.72794
654.199	5.95339
657.092	2.61659
659.985	3.53595
662.878	2.33647
665.77	4.41649
668.663	4.60122
671.556	3.4626
674.448	3.20777
677.341	3.17951
680.234	2.31291
683.126	3.05281
686.019	2.62162
688.912	4.86046
691.805	2.05596
694.697	1.49854
697.59	2.58398
700.483	1.7797
703.375	3.33453
706.268	3.93543
709.161	3.60705
712.053	2.78629
714.946	3.21412
717.839	2.75398
720.731	2.75134
723.624	3.65877
726.517	3.6149
729.41	0.600114
732.302	2.49045
735.195	3.22998
738.088	0.416652
740.98	0.602509
743.873	2.6226
746.766	2.42891
749.659	1.82762
752.551	1.87223
755.444	2.11992
758.337	2.76722
761.229	1.22812
764.122	4.00237
767.015	1.70882
769.907	0.232837
772.8	1.6854
775.693	0.529799
778.586	0.775393
781.478	2.64683
784.371	0.16918
787.264	1.73909
790.156	0.505833
793.049	0.103395
795.942	1.27089
798.834	4.78614
801.727	2.06201
804.62	1.57622
807.513	0.491633
810.405	0.646463
813.298	1.09113
816.191	2.5575
819.083	1.55104
821.976	0.993629
824.869	2.13855
827.761	1.73237
830.654	1.38797
833.547	0.353619
836.439	2.60326
839.332	2.81926
842.225	3.0157
845.118	2.17041
848.01	2.46652
850.903	3.44276
853.796	2.56386
856.688	2.67332
859.581	2.06405
862.474	0.899686
865.366	0.802593
868.259	1.981
871.152	0.550601
874.044	1.79067
876.937	1.31918
879.83	2.33301
882.723	2.21729
885.615	0.502745
888.508	1.32033
891.401	2.39589
894.293	0.896194
897.186	2.3784
900.079	0.582184
902.971	0.879755
905.864	1.52529
908.757	0.409632
911.65	3.1236
914.542	2.03257
917.435	1.37224
920.328	2.01184
923.22	1.50667
926.113	2.77318
929.006	0.502727
931.899	2.43539
934.791	0.40539
937.684	0.59833
940.577	1.17579
943.469	1.9575
946.362	1.74599
949.255	2.6462
952.147	2.85624
955.04	3.64601
957.933	3.11544
960.825	0.761114
963.718	3.72858
966.611	3.69597
969.504	2.03841
972.396	1.13077
975.289	1.08374
978.182	1.96393
981.074	2.45868
983.967	2.59019
986.86	2.99777
989.752	2.24675
992.645	0.532987
995.538	1.60822
998.431	1.61011
1001.32	1.65266
1004.22	3.1446
1007.11	0.676997
1010	2.73593
1012.89	2.35389
1015.79	3.26571
1018.68	1.50747
1021.57	1.77361
1024.46	1.26684
1027.36	3.63892
1030.25	5.53712
1033.14	0.301935
1036.04	4.84017
1038.93	3.16828
1041.82	2.9912
1044.71	1.93916
1047.61	3.09359
1050.5	1.57863
1053.39	1.66158
1056.29	0.874519
1059.18	3.48765
1062.07	1.59686
1064.96	1.51193
1067.86	2.05361
1070.75	0.903226
1073.64	2.70244
1076.53	0.180427
1079.43	2.18865
1082.32	1.58491
1085.21	4.19714
1088.1	0.117803
1091	1.80418
1093.89	1.58081
1096.78	2.08453
1099.67	0.071859
1102.57	3.93982
1105.46	2.05689
1108.35	2.33602
1111.25	1.44126
1114.14	3.57539
1117.03	0.552423
1119.92	1.88538
1122.82	1.74394
1125.71	2.60468
1128.6	4.33454
1131.49	2.15013
1134.39	0.990258
1137.28	2.08896
1140.17	2.01404
1143.07	2.6132
1145.96	2.62748
1148.85	1.81183
1151.74	2.39794
1154.64	1.063
1157.53	1.79527
1160.42	1.69132
1163.31	1.3819
1166.21	1.86814
1169.1	1.60524
1171.99	0.611482
1174.88	2.85061
1177.78	1.04418
1180.67	2.42205
1183.56	0.471253
1186.46	2.57598
1189.35	4.55414
1192.24	2.20828
1195.13	1.62732
1198.03	1.7857
1200.92	3.52319
1203.81	0.025467
1206.7	2.05599
1209.6	2.86278
1212.49	2.01371
1215.38	1.57944
1218.28	2.27765
1221.17	1.57563
1224.06	2.65825
1226.95	1.61697
1229.85	4.56738
1232.74	2.3504
1235.63	2.92337
1238.53	0.542537
1241.42	2.47215
1244.31	0.636422
1247.2	1.29186
1250.1	2.80211
1252.99	1.66019
1255.88	0.36754
1258.77	0.614249
1261.67	3.8222
1264.56	1.6518
1267.45	2.82388
1270.34	0.179652
1273.24	0.932958
1276.13	2.31247
1279.02	0.720645
1281.91	1.44432
1284.81	0
