Measurement: Raman, 532 nm, unoriented, Raman Data Processed
Mineral: Farringtonite
Rruff sample: R130127
Ideal chemistry: Mg_3_(PO_4_)_2_
Locality: Springwater meteorite, Springwater, Canada
Source: Rock Currier
Description: Pale yellow transparent fragment, embedded in a polished epoxy mount
Raman shift (cm-1)	intensity
89.8438	0
93.2186	2.57059
96.5934	1.13278
99.9682	8.59482
103.343	10.5611
106.718	19.8479
110.093	24.2447
113.468	33.8684
116.842	38.8713
120.217	42.7556
123.592	50.6544
126.967	59.6803
130.342	80.6936
133.716	91.3947
137.091	78.8762
140.466	63.6858
143.841	48.5951
147.216	33.1244
150.59	26.6855
153.965	21.8921
157.34	14.4501
160.715	6.70506
164.09	1.88188
167.464	9.38324
170.839	13.7668
174.214	10.8282
177.589	14.0531
180.964	61.3395
184.339	106.972
187.713	147.226
191.088	194.575
194.463	237.543
197.838	267.483
201.213	295.564
204.588	313.765
207.962	322.269
211.337	317.628
214.712	309.797
218.087	304.514
221.462	297.815
224.836	280.129
228.211	257.642
231.586	231.592
234.961	210.945
238.336	197.844
241.71	191.842
245.085	184.401
248.46	166.929
251.835	154.843
255.21	143.093
258.585	133.422
261.959	123.478
265.334	117.549
268.709	107.755
272.084	88.9114
275.459	75.3049
278.834	62.8777
282.208	52.707
285.583	42.0488
288.958	31.2312
292.333	24.6486
295.708	16.7813
299.082	13.4387
302.457	10.3898
305.832	9.05725
309.207	11.8483
312.582	11.9964
315.957	18.3654
319.331	20.5916
322.706	12.1226
326.081	5.23322
329.456	4.2038
332.831	1.92938
336.205	3.19
339.58	4.1319
342.955	10.9047
346.33	13.3594
349.705	15.9354
353.079	17.1861
356.454	14.9456
359.829	6.90704
363.204	7.24982
366.579	0.470581
369.954	5.89294
373.328	5.70886
376.703	4.78101
380.078	2.97089
383.453	3.47943
386.828	0.751221
390.202	1.79218
393.577	3.23175
396.952	5.80249
400.327	4.70264
403.702	5.29047
407.077	11.447
410.451	13.7184
413.826	23.5551
417.201	32.5582
420.576	40.5087
423.951	34.729
427.325	17.1256
430.7	16.7401
434.075	8.18591
437.45	8.93249
440.825	9.43219
444.2	8.67279
447.574	7.07519
450.949	5.4444
454.324	4.25012
457.699	6.70813
461.074	10.5298
464.448	15.0836
467.823	18.9443
471.198	26.5359
474.573	27.2739
477.948	30.8713
481.322	27.1418
484.697	26.2615
488.072	31.501
491.447	29.2802
494.822	30.6348
498.197	29.1963
501.571	27.3011
504.946	18.2841
508.321	9.83795
511.696	6.77081
515.071	5.11212
518.446	1.80573
521.82	1.13715
525.195	0.882507
528.57	4.23419
531.945	0.816589
535.32	2.98144
538.694	4.53271
542.069	1.16882
545.444	1.35431
548.819	1.42468
552.194	6.12921
555.568	7.33618
558.943	12.8729
562.318	19.3881
565.693	26.579
569.068	41.7438
572.443	59.7542
575.817	63.1065
579.192	34.086
582.567	12.9959
585.942	8.82782
589.317	3.66138
592.692	2.70593
596.066	1.0899
599.441	4.95019
602.816	3.54242
606.191	8.45764
609.566	13.7682
612.94	15.958
616.315	23.0631
619.69	35.2379
623.065	31.699
626.44	21.6313
629.814	18.9977
633.189	21.9777
636.564	32.9847
639.939	34.9085
643.314	15.7974
646.688	10.025
650.063	13.5692
653.438	10.6007
656.813	6.66467
660.188	4.3811
663.563	5.88489
666.937	0.77002
670.312	2.4154
673.687	4.75915
677.062	3.97717
680.437	2.65283
683.812	1.41028
687.186	1.92468
690.561	5.17981
693.936	5.68274
697.311	0.062134
700.686	1.71143
704.06	1.25415
707.435	3.82556
710.81	0.356689
714.185	1.34668
717.56	0.653687
720.934	0.775391
724.309	5.11658
727.684	1.86963
731.059	5.01648
734.434	5.11279
737.809	2.48096
741.183	0.102661
744.558	4.67786
747.933	4.53271
751.308	6.02441
754.683	0.891602
758.058	0.930298
761.432	2.26123
764.807	4.18945
768.182	2.35522
771.557	3.05762
774.932	5.43457
778.306	2.89893
781.681	0.109375
785.056	1.11658
788.431	2.2915
791.806	2.83606
795.181	4.57935
798.555	6.19824
801.93	4.72034
805.305	5.14954
808.68	13.4924
812.055	10.5002
815.429	7.60803
818.804	11.2761
822.179	20.2227
825.554	18.2462
828.929	12.6226
832.303	12.0704
835.678	10.973
839.053	12.6499
842.428	14.4436
845.803	9.68726
849.178	8.5221
852.552	6.698
855.927	5.31787
859.302	3.56287
862.677	6.51672
866.052	3.64099
869.427	3.22046
872.801	7.62024
876.176	6.46252
879.551	0.259644
882.926	1.78613
886.301	0.295166
889.675	3.6665
893.05	1.17188
896.425	2.14417
899.8	4.22766
903.175	3.25085
906.549	2.92932
909.924	4.06811
913.299	5.31567
916.674	1.00561
920.049	1.3634
923.423	8.38513
926.798	2.16211
930.173	2.50159
933.548	3.7196
936.923	1.88184
940.298	2.55591
943.672	1.99536
947.047	3.15185
950.422	1.08484
953.797	4.7699
957.172	9.22449
960.547	22.6635
963.921	41.0776
967.296	76.0073
970.671	136.381
974.046	228.7
977.421	329.211
980.795	557.93
984.17	601.232
987.545	242.016
990.92	99.8528
994.295	50.5922
997.669	28.9428
1001.04	21.3008
1004.42	17.6998
1007.79	21.6171
1011.17	34.7543
1014.54	59.532
1017.92	111.337
1021.29	202.742
1024.67	355.32
1028.04	490.657
1031.42	308.569
1034.79	135.238
1038.17	57.792
1041.54	29.2705
1044.92	16.8187
1048.29	4.5282
1051.67	3.12292
1055.04	2.40729
1058.42	3.00513
1061.79	10.2341
1065.17	34.078
1068.54	82.0291
1071.92	128.83
1075.29	69.2462
1078.66	25.1617
1082.04	13.3132
1085.41	11.8534
1088.79	14.3351
1092.16	20.9303
1095.54	15.2842
1098.91	8.16803
1102.29	8.83521
1105.66	9.85199
1109.04	19.8441
1112.41	25.3944
1115.79	9.34827
1119.16	6.38446
1122.54	4.89764
1125.91	2.96448
1129.29	0.216431
1132.66	2.32849
1136.04	2.37494
1139.41	5.05341
1142.79	5.80444
1146.16	12.2783
1149.54	15.0375
1152.91	12.7265
1156.29	4.58948
1159.66	3.32849
1163.04	0.332642
1166.41	2.28278
1169.79	0.953125
1173.16	3.70758
1176.54	7.24402
1179.91	6.54987
1183.28	7.5379
1186.66	7.50476
1190.03	2.73901
1193.41	1.26508
1196.78	0.873413
1200.16	2.2207
1203.53	3.4411
1206.91	1.69
1210.28	3.89642
1213.66	9.39209
1217.03	3.39636
1220.41	3.85803
1223.78	6.19135
1227.16	6.76459
1230.53	5.94794
1233.91	4.70587
1237.28	5.09717
1240.66	2.63385
1244.03	3.74383
1247.41	6.1839
1250.78	8.21875
1254.16	4.66205
1257.53	6.09351
1260.9	7.06665
1264.28	5.38391
1267.65	3.68964
1271.03	1.51306
1274.4	1.06866
1277.78	0.767883
1281.15	6.33453
1284.53	1.98364
1287.9	3.59015
1291.28	2.53223
1294.65	2.27454
1298.03	3.67798
1301.4	0.025757
