Measurement: Raman, 780 nm, unoriented, Raman Data Processed
Mineral: Farringtonite
Rruff sample: R130127
Ideal chemistry: Mg_3_(PO_4_)_2_
Locality: Springwater meteorite, Springwater, Canada
Source: Rock Currier
Description: Pale yellow transparent fragment, embedded in a polished epoxy mount
Raman shift (cm-1)	intensity
91.1996	0
94.5744	11.8709
97.9492	7.96277
101.324	0.61647
104.699	0.587784
108.074	1.01457
111.448	0.280823
114.823	3.33803
118.198	10.1598
121.573	27.4161
124.948	46.2191
128.322	68.2061
131.697	52.9679
135.072	22.8734
138.447	9.01094
141.822	1.19365
145.197	1.00424
148.571	2.73619
151.946	0.013153
155.321	3.25663
158.696	7.63179
162.071	16.4852
165.446	32.9032
168.82	67.2422
172.195	63.1711
175.57	32.159
178.945	17.4109
182.32	13.307
185.694	12.4514
189.069	11.7455
192.444	11.297
195.819	12.6055
199.194	10.6538
202.569	10.3252
205.943	10.2292
209.318	8.88453
212.693	10.0127
216.068	11.9268
219.442	11.0133
222.817	8.06252
226.192	7.40407
229.567	7.04459
232.942	9.79297
236.317	8.82429
239.691	11.1885
243.066	11.4224
246.441	10.1822
249.816	8.30077
253.191	7.13135
256.565	6.63206
259.94	9.02556
263.315	9.5447
266.69	9.9846
270.065	7.32015
273.44	5.03469
276.814	2.89167
280.189	1.94756
283.564	1.35709
286.939	0.279198
290.314	0.513863
293.688	0.129585
297.063	0.69516
300.438	0.866531
303.813	0.394974
307.188	0.336288
310.562	3.15328
313.937	6.1014
317.312	9.34763
320.687	7.79092
324.062	3.20151
327.437	2.49799
330.811	1.68787
334.186	2.32468
337.561	3.28145
340.936	3.87102
344.311	7.20184
347.685	9.76929
351.06	13.6685
354.435	15.1832
357.81	11.3035
361.185	7.65633
364.56	4.75954
367.934	2.06926
371.309	0.857239
374.684	0.513298
378.059	0.624146
381.434	0.465179
384.808	0.661751
388.183	0.99649
391.558	0.955055
394.933	0.564308
398.308	0.409256
401.683	0.342964
405.057	0.493881
408.432	1.33261
411.807	3.79793
415.182	8.17312
418.557	14.5866
421.931	14.8481
425.306	6.65164
428.681	2.89134
432.056	2.61493
435.431	0.759827
438.805	0.732719
442.18	0.042816
445.555	0.039879
448.93	0.610924
452.305	1.02934
455.68	1.49809
459.054	2.20551
462.429	4.08319
465.804	7.16812
469.179	9.42608
472.554	11.7071
475.928	9.58109
479.303	7.72283
482.678	7.60038
486.053	10.2029
489.428	10.8744
492.803	12.1058
496.177	13.3506
499.552	13.9439
502.927	9.7868
506.302	6.31781
509.677	3.05934
513.051	2.41441
516.426	2.409
519.801	0.511169
523.176	0.77652
526.551	0.821205
529.926	0.364265
533.3	0.516075
536.675	0.303604
540.05	0.692978
543.425	0.206566
546.799	0.541687
550.174	1.16843
553.549	2.01241
556.924	3.35817
560.299	4.76597
563.674	7.66682
567.048	14.5218
570.423	26.3719
573.798	33.8936
577.173	23.5422
580.548	11.3294
583.923	4.69941
587.297	2.33934
590.672	0.096455
594.047	0.219093
597.422	0.539886
600.797	0.438828
604.171	1.46711
607.546	2.12825
610.921	3.9567
614.296	6.32988
617.671	10.8032
621.045	12.2606
624.42	8.36295
627.795	7.66019
631.17	9.20793
634.545	15.2463
637.919	19.5405
641.294	11.1397
644.669	6.71247
648.044	5.59112
651.419	6.49144
654.794	5.31682
658.168	3.43415
661.543	2.76999
664.918	2.57139
668.293	2.17028
671.668	3.11822
675.043	1.69963
678.417	1.10842
681.792	1.05724
685.167	0.342262
688.542	0.080002
691.917	0.521427
695.291	0.138138
698.666	0.377266
702.041	0.173496
705.416	0.054081
708.791	0.281746
712.165	0.073208
715.54	0.718395
718.915	0.947208
722.29	0.671921
725.665	1.36811
729.039	0.831757
732.414	1.55137
735.789	2.99956
739.164	1.98695
742.539	1.74049
745.914	3.50194
749.288	3.89964
752.663	1.27535
756.038	1.22826
759.413	0.886944
762.788	0.380943
766.163	1.13786
769.537	0.87513
772.912	0.076771
776.287	0.055546
779.662	0.345409
783.037	0.207298
786.411	0.061108
789.786	0.932457
793.161	1.05486
796.536	2.15647
799.911	2.8057
803.285	4.72243
806.66	6.13186
810.035	6.31079
813.41	6.26733
816.785	7.59908
820.159	9.04691
823.534	9.12144
826.909	8.20248
830.284	8.44685
833.659	6.47244
837.034	7.8586
840.408	6.52367
843.783	4.88627
847.158	3.99967
850.533	2.95536
853.908	2.98629
857.283	2.27755
860.657	3.07652
864.032	1.90128
867.407	1.87135
870.782	1.99253
874.157	1.22276
877.531	0.755402
880.906	1.03731
884.281	1.06338
887.656	0.094429
891.031	0.035179
894.405	0.509163
897.78	0.275677
901.155	0.185204
904.53	0.244843
907.905	0.061001
911.279	0.374031
914.654	0.108402
918.029	0.361652
921.404	0.010612
924.779	0.405499
928.154	0.420128
931.528	0.711033
934.903	0.464531
938.278	1.14724
941.653	0.454227
945.028	0.464619
948.403	0.317028
951.777	1.31766
955.152	2.81075
958.527	4.22851
961.902	7.97549
965.277	15.3147
968.651	31.7143
972.026	57.4378
975.401	95.6417
978.776	185.047
982.151	263.538
985.525	125.265
988.9	46.0441
992.275	19.7319
995.65	10.1568
999.025	5.60578
1002.4	2.17816
1005.77	3.2769
1009.15	5.1969
1012.52	10.5365
1015.9	21.1438
1019.27	45.3716
1022.65	92.2817
1026.02	152.541
1029.4	122.184
1032.77	53.6661
1036.15	23.5782
1039.52	10.9459
1042.9	5.83644
1046.27	1.65023
1049.65	0.456791
1053.02	0.327007
1056.4	0.616482
1059.77	2.24355
1063.15	9.36789
1066.52	27.9937
1069.9	58.2371
1073.27	44.0506
1076.64	18.7004
1080.02	7.32011
1083.39	4.02081
1086.77	4.68151
1090.14	5.79317
1093.52	5.24557
1096.89	2.86243
1100.27	2.21823
1103.64	3.88521
1107.02	9.56717
1110.39	15.1723
1113.77	8.71255
1117.14	3.69416
1120.52	1.03238
1123.89	0.259003
1127.27	0.648796
1130.64	0.574688
1134.02	0.35656
1137.39	0.37215
1140.77	2.195
1144.14	4.44441
1147.52	6.34203
1150.89	4.95675
1154.27	2.22427
1157.64	2.83322
1161.02	1.36389
1164.39	1.08594
1167.77	0.360455
1171.14	0.827518
1174.52	2.56577
1177.89	3.42238
1181.27	4.7909
1184.64	6.33355
1188.01	4.6883
1191.39	1.82654
1194.76	0.834141
1198.14	0.032391
1201.51	0.324562
1204.89	0.008656
1208.26	0.654221
1211.64	1.66505
1215.01	2.03416
1218.39	2.40739
1221.76	2.7545
1225.14	3.88958
1228.51	3.2666
1231.89	2.73202
1235.26	2.01541
1238.64	2.48726
1242.01	1.79042
1245.39	2.1983
1248.76	2.487
1252.14	1.95546
1255.51	2.46934
1258.88	1.56738
1262.26	1.891
1265.63	1.23688
1269.01	0.738987
1272.38	0.800617
1275.76	0.080437
1279.13	1.32466
1282.51	0.310162
