Measurement: Raman, 785 nm, unoriented, Raman Data Processed
Mineral: Faujasite-Ca
Rruff sample: R070462
Ideal chemistry: (Ca,Na,Mg)_5_(Si,Al)_12_O_24_15H_2_O
Locality: Table Mountain, San Bernardino County, California, USA
Source: Michael Scott
Description: Isolated colorless octahedra in basalt vesicules, associated with spherical aggregates of colorless phillipsite-Ca
Measured chemistry: (Ca_1.04_Na_0.44_Mg_0.23_K_0.04_Fe_0.03_)_Σ=1.78_(Si_8.92_Al_3.08_)_12_O_24_·4.5H_2_O ; H_2_O estimated by difference
Raman shift (cm-1)	intensity
163.344	0
166.236	27.3867
169.129	180.126
172.022	385.163
174.914	496.876
177.807	397.137
180.7	356.13
183.592	374.916
186.485	367.87
189.378	367.106
192.27	563.163
195.163	519.491
198.056	368.442
200.949	371.242
203.841	238.527
206.734	25.4766
209.627	4.88281
212.519	38.2998
215.412	5.43164
218.305	44.4648
221.197	35.9199
224.09	117.43
226.983	239.578
229.876	279.835
232.768	389.962
235.661	513.2
238.554	675.713
241.446	888.55
244.339	987.376
247.232	1133.76
250.125	1198.98
253.017	1142.04
255.91	1138.95
258.803	1327.39
261.695	1453.22
264.588	1607.64
267.481	1706.48
270.373	1755.26
273.266	1803.15
276.159	1929.27
279.051	2051.3
281.944	2251.42
284.837	2459.45
287.73	2629.25
290.622	2825.71
293.515	3030.33
296.408	3222.61
299.3	3170.72
302.193	3028.44
305.086	2941.98
307.978	2605.96
310.871	2392.5
313.764	2116.82
316.657	1642.06
319.549	1375.85
322.442	1153.27
325.335	798.212
328.227	726.731
331.12	690.242
334.013	682.42
336.906	767.689
339.798	911.998
342.691	1038.16
345.584	1391.93
348.476	1616.23
351.369	1709.9
354.262	1545.3
357.154	1288.87
360.047	1022.37
362.94	737.914
365.832	497.094
368.725	239.243
371.618	131.465
374.511	52.0713
377.403	18.0938
380.296	48.1616
383.189	47.5156
386.081	12.561
388.974	86.7539
391.867	90.3032
394.76	63.3037
397.652	3.80469
400.545	11.0767
403.438	17.5205
406.33	46.8608
409.223	27.3447
412.116	34.7637
415.008	28.7959
417.901	46.4072
420.794	95.6475
423.687	124.342
426.579	130.909
429.472	158.533
432.365	232.766
435.257	231.598
438.15	322.08
441.043	422.941
443.935	447.498
446.828	494.991
449.721	597.101
452.613	763.458
455.506	1062.09
458.399	1367.61
461.292	1805.02
464.184	2245.24
467.077	2895.46
469.97	3479.7
472.862	4118.4
475.755	4802.28
478.648	5422
481.541	6095.9
484.433	6919.49
487.326	7901.39
490.219	9182.53
493.111	10976.8
496.004	12809.1
498.897	14235.6
501.789	14923.3
504.682	14688.5
507.575	13911.6
510.467	12219.2
513.36	10279.3
516.253	8108.49
519.146	6097.34
522.038	4535.64
524.931	3255.15
527.824	2306.56
530.716	1692.75
533.609	1180.64
536.502	930.757
539.394	655.51
542.287	472.145
545.18	281.243
548.073	195.784
550.965	186.5
553.858	78.728
556.751	22.3057
559.643	11.3677
562.536	8.84131
565.429	58.5049
568.322	72.0444
571.214	7.42188
574.107	15.5254
577	48.8198
579.892	29.8618
582.785	47.8154
585.678	55.0205
588.57	69.2319
591.463	42.4004
594.356	44.4951
597.249	49.4058
600.141	109.432
603.034	144.621
605.927	137.56
608.819	96.668
611.712	178.013
614.605	107.177
617.497	99.1938
620.39	127.615
623.283	167.126
626.176	160.677
629.068	130.638
631.961	154.217
634.854	108.944
637.746	166.558
640.639	220.917
643.532	186.377
646.424	177.1
649.317	217.715
652.21	216.663
655.102	213.009
657.995	193.685
660.888	211.422
663.781	182.567
666.673	142.57
669.566	141.861
672.459	117.688
675.351	65.9116
678.244	87.7803
681.137	38.2163
684.029	44.623
686.922	38.6787
689.815	51.3711
692.708	52.2788
695.6	15.0049
698.493	66.146
701.386	14.6714
704.278	7.55615
707.171	21.3672
710.064	18.4688
712.957	13.2759
715.849	20.9409
718.742	73.6973
721.635	83.606
724.527	36.6807
727.42	62.2827
730.313	49.0527
733.205	15.9106
736.098	52.023
738.991	74.5161
741.884	29.728
744.776	6.54443
747.669	26.5212
750.562	15.1262
753.454	13.1565
756.347	80.5703
759.24	71.1421
762.132	67.2368
765.025	141.432
767.918	99.3108
770.811	106.75
773.703	142.527
776.596	103.51
779.489	128.989
782.381	152.612
785.274	89.9839
788.167	113.704
791.059	134.598
793.952	131.137
796.845	148.018
799.737	120.218
802.63	139.428
805.523	122.383
808.416	140.421
811.308	148.924
814.201	67.3779
817.094	119.432
819.986	128.24
822.879	168.136
825.772	192.98
828.664	235.091
831.557	356.595
834.45	413.337
837.343	401.74
840.235	264.649
843.128	150.402
846.021	127.869
848.913	60.3398
851.806	40.4651
854.699	9.46655
857.591	29.2837
860.484	4.87866
863.377	45.7737
866.27	40.1697
869.162	2.70801
872.055	20.3667
874.948	21.8289
877.84	14.9194
880.733	31.1716
883.626	33.1292
886.519	10.2039
889.411	14.6685
892.304	31.5334
895.197	49.0088
898.089	28.332
900.982	30.1272
903.875	57.5286
906.767	49.2114
909.66	26.7686
912.553	51.3538
915.446	67.9482
918.338	57.7761
921.231	76.0505
924.124	97.2996
927.016	56.668
929.909	86.7073
932.802	85.8948
935.694	134.05
938.587	108.835
941.48	119.73
944.372	78.626
947.265	82.7002
950.158	121.522
953.051	13.8645
955.943	72.2266
958.836	13.6169
961.729	14.3001
964.621	2.38037
967.514	19.6243
970.407	22.52
973.299	8.15137
976.192	8.95044
979.085	1.06152
981.978	30.759
984.87	27.2659
987.763	10.5273
990.656	80.6096
993.548	4.95728
996.441	30.5322
999.334	79.5088
1002.23	76.3694
1005.12	82.0786
1008.01	43.0452
1010.9	68.1221
1013.8	70.0088
1016.69	75.1462
1019.58	47.2114
1022.48	30.4873
1025.37	5.23267
1028.26	28.3271
1031.15	3.33594
1034.05	16.5242
1036.94	50.9407
1039.83	42.4898
1042.72	28.2295
1045.62	23.3281
1048.51	78.8374
1051.4	68.1245
1054.3	113.113
1057.19	102.401
1060.08	145.332
1062.97	196.773
1065.87	235.57
1068.76	237.385
1071.65	218.31
1074.54	304.756
1077.44	317.656
1080.33	327.097
1083.22	388.425
1086.12	318.432
1089.01	374.847
1091.9	451.78
1094.79	415.354
1097.69	540.142
1100.58	463.773
1103.47	401.563
1106.36	471.684
1109.26	448.475
1112.15	513.609
1115.04	498.972
1117.93	473.302
1120.83	504.927
1123.72	534.177
1126.61	481.806
1129.51	465.102
1132.4	464.366
1135.29	397.573
1138.18	357.214
1141.08	332.025
1143.97	293.126
1146.86	256.881
1149.75	266.749
1152.65	131.332
1155.54	87.9297
1158.43	90.9255
1161.33	80.7246
1164.22	37.447
1167.11	2.89966
1170	13.2786
1172.9	12.6873
1175.79	8.25977
1178.68	20.6562
1181.57	30.7561
1184.47	22.3381
1187.36	18.8164
1190.25	12.8257
1193.14	66.1394
1196.04	50.0583
1198.93	60.0884
1201.82	75.1357
1204.71	57.5808
1207.61	72.4712
1210.5	92.4065
1213.39	114.414
1216.29	142.418
1219.18	132.971
1222.07	99.9399
1224.96	90.9077
1227.86	91.8413
1230.75	122.601
1233.64	78.2056
1236.54	157.669
1239.43	81.2839
1242.32	104.709
1245.21	26.8401
1248.11	25.5623
1251	49.3726
1253.89	2.90088
1256.78	22.3213
1259.68	0.763184
1262.57	34.675
