Measurement: Raman, 780 nm, unoriented, Raman Data Processed
Mineral: Faujasite-Mg
Rruff sample: R080141
Ideal chemistry: (Mg,Na,K,Ca)_5_(Si,Al)_12_O_24_15H_2_O
Locality: Limburg Quarries, Sasbach, Kaiserstuhl, Baden-Wurttemberg, Germany
Source: James Shigley
Description: Colorless octahedra in basalt vesicles
Raman shift (cm-1)	intensity
103.425	0
106.8	1.6615
110.175	5.46075
113.55	8.34125
116.925	12.1127
120.3	17.4993
123.674	20.8428
127.049	23.0544
130.424	23.3523
133.799	23.613
137.174	24.5176
140.549	26.8156
143.923	21.6041
147.298	18.2276
150.673	18.125
154.048	15.6113
157.423	15.1493
160.798	10.1598
164.172	4.72275
167.547	2.52765
170.922	4.28207
174.297	1.01132
177.672	2.13547
181.046	2.19537
184.421	0.04541
187.796	0.167633
191.171	1.26196
194.546	0.575623
197.921	2.72858
201.295	0.543488
204.67	0.631836
208.045	2.81546
211.42	1.40808
214.795	0.73291
218.169	1.40018
221.544	1.51849
224.919	3.15533
228.294	6.36462
231.669	7.96289
235.043	14.151
238.418	16.1145
241.793	18.2134
245.168	19.2427
248.543	18.554
251.918	19.2701
255.292	17.9801
258.667	21.5833
262.042	22.0727
265.417	24.4771
268.792	27.0653
272.166	32.3927
275.541	33.3031
278.916	37.5662
282.291	43.2825
285.666	47.8872
289.041	54.0023
292.415	56.8383
295.79	61.9055
299.165	64.8675
302.54	64.5366
305.915	60.1261
309.289	50.1076
312.664	43.8226
316.039	34.8897
319.414	30.553
322.789	22.2844
326.164	17.3595
329.538	12.7127
332.913	10.3119
336.288	12.6557
339.663	17.3542
343.038	20.7918
346.413	29.1331
349.787	35.8968
353.162	34.5648
356.537	31.5111
359.912	22.8368
363.287	15.6959
366.661	11.0851
370.036	8.0217
373.411	3.62309
376.786	1.94873
380.161	0.061066
383.536	0.925262
386.91	0.806
390.285	1.17416
393.66	0.306534
397.035	1.14717
400.41	0.240097
403.784	1.24214
407.159	2.12523
410.534	1.28935
413.909	0.175537
417.284	2.24594
420.659	3.11029
424.033	5.40918
427.408	2.72817
430.783	3.80135
434.158	6.32545
437.533	8.54913
440.907	7.83725
444.282	9.22572
447.657	14.0551
451.032	16.1268
454.407	22.3712
457.781	30.3036
461.156	40.6557
464.531	53.5074
467.906	63.6718
471.281	79.8497
474.656	96.3151
478.031	112.022
481.405	130.01
484.78	145.879
488.155	168.043
491.53	207.011
494.904	245.692
498.279	284.418
501.654	302.763
505.029	292.39
508.404	267.253
511.779	228.244
515.153	175.896
518.528	130.61
521.903	91.6674
525.278	63.2477
528.653	43.4562
532.028	27.6711
535.402	19.4769
538.777	13.5911
542.152	8.14288
545.527	4.24643
548.902	2.42119
552.277	0.868958
555.651	0.946365
559.026	0.834824
562.401	1.04201
565.776	2.05342
569.151	1.49683
572.525	0.625824
575.9	1.0685
579.275	0.175262
582.65	1.50325
586.025	0.783478
589.399	1.54041
592.774	1.37453
596.149	0.620499
599.524	2.56982
602.899	2.0748
606.274	2.44548
609.648	2.66322
613.023	4.33374
616.398	3.01001
619.773	3.60953
623.148	1.57715
626.523	3.22803
629.897	3.68213
633.272	3.60623
636.647	3.90338
640.022	6.48817
643.397	5.40346
646.771	5.66979
650.146	4.12502
653.521	4.34827
656.896	5.03532
660.271	4.74684
663.645	4.12235
667.02	2.92961
670.395	3.881
673.77	3.35883
677.145	2.8121
680.52	1.34067
683.894	2.21454
687.269	0.001038
690.644	0.567352
694.019	1.07617
697.394	1.11675
700.769	1.94519
704.143	1.43254
707.518	1.03604
710.893	1.62276
714.268	2.03755
717.643	1.29526
721.017	1.60492
724.392	0.212036
727.767	0.492706
731.142	2.12207
734.517	0.411896
737.891	1.62535
741.266	0.390839
744.641	1.32225
748.016	1.66344
751.391	0.877197
754.766	1.30571
758.14	0.715057
761.515	0.082687
764.89	1.99353
768.265	1.37886
771.64	1.83778
775.014	2.8372
778.389	0.728821
781.764	1.32712
785.139	2.44795
788.514	2.429
791.889	1.62837
795.263	2.30603
798.638	2.47821
802.013	1.78348
805.388	2.65207
808.763	5.08101
812.138	3.03106
815.512	3.11881
818.887	2.00715
822.262	3.47896
825.637	3.36546
829.012	6.13699
832.386	7.43572
835.761	7.75368
839.136	5.78673
842.511	5.38997
845.886	2.18775
849.261	1.95418
852.635	1.99839
856.01	2.69399
859.385	1.57754
862.76	2.60268
866.135	1.91938
869.51	2.21304
872.884	0.564072
876.259	0.305473
879.634	1.44784
883.009	0.344795
886.384	1.79884
889.758	2.54523
893.133	1.35831
896.508	0.12973
899.883	0.850105
903.258	1.31303
906.632	0.267136
910.007	1.67809
913.382	0.112953
916.757	0.629189
920.132	4.20033
923.506	2.15579
926.881	2.42297
930.256	1.6786
933.631	1.55348
937.006	2.70709
940.381	3.01887
943.755	1.32963
947.13	0.279732
950.505	1.60129
953.88	1.20173
957.255	0.800392
960.63	1.2588
964.004	1.14487
967.379	0.344994
970.754	0.028488
974.129	0.081039
977.504	2.30605
980.879	0.92614
984.253	1.28709
987.628	1.84951
991.003	1.82919
994.378	1.08421
997.753	1.96751
1001.13	1.23304
1004.5	0.529724
1007.88	2.83401
1011.25	2.25166
1014.63	2.16465
1018	2.2061
1021.38	2.16921
1024.75	0.373116
1028.13	2.04182
1031.5	0.628265
1034.88	0.363068
1038.25	2.00516
1041.62	1.1691
1045	2.63214
1048.38	2.61261
1051.75	1.75186
1055.12	2.44887
1058.5	2.97593
1061.87	3.84092
1065.25	2.54444
1068.62	3.71123
1072	6.87828
1075.37	5.50488
1078.75	8.52666
1082.12	6.37901
1085.5	9.97659
1088.87	9.36762
1092.25	8.77637
1095.62	7.62787
1099	9.35565
1102.37	9.69384
1105.75	9.45172
1109.12	9.4013
1112.5	8.96061
1115.87	8.30231
1119.25	11.0742
1122.62	9.79784
1126	10.5276
1129.37	10.5527
1132.74	9.50208
1136.12	7.93887
1139.49	7.6874
1142.87	6.26478
1146.24	5.59509
1149.62	6.54285
1152.99	3.47488
1156.37	3.33403
1159.74	3.09987
1163.12	3.10193
1166.49	1.40168
1169.87	2.23811
1173.24	0.223625
1176.62	0.415543
1179.99	0.233177
1183.37	0.27578
1186.74	0.137527
1190.12	0.875092
1193.49	0.150841
1196.87	0.079872
1200.24	1.73251
1203.62	1.91821
1206.99	2.34397
1210.37	3.19814
1213.74	1.58367
1217.12	2.28308
1220.49	2.12555
1223.87	2.50298
1227.24	3.14024
1230.62	2.8868
1233.99	2.51412
1237.37	1.18141
1240.74	1.27776
1244.11	2.28048
1247.49	0.340027
1250.86	1.88264
1254.24	2.78562
1257.61	0.978729
1260.99	2.215
1264.36	0.960373
1267.74	1.57806
1271.11	2.78021
1274.49	3.07607
1277.86	1.0738
1281.24	0.630959
1284.61	0.816757
