Measurement: Raman, 532 nm, unoriented, Raman Data Processed
Mineral: Fayalite
Rruff sample: R070157
Ideal chemistry: Fe^2+^_2_SiO_4_
Locality: Coso Hot Springs, Inyo County, California, USA
Source: James Shigley
Description: Brown transparent tabular crystals associated with fine grained quartz
Measured chemistry: (Fe^2+^_1.88_Mn_0.11_Zn_0.01_)_Î£=2_Si_1.00_O_4_ ; trace amounts of Mg
Raman shift (cm-1)	intensity
133.79	0
137.165	26.7067
140.539	27.9367
143.914	13.2669
147.289	38.9988
150.664	78.7358
154.039	144.602
157.413	144.842
160.788	225.373
164.163	330.698
167.538	579.423
170.913	935.429
174.287	559.22
177.662	141.722
181.037	37.3977
184.412	1.46545
187.787	1.51862
191.162	10.4694
194.536	7.84888
197.911	12.5989
201.286	17.6281
204.661	48.5196
208.036	123.735
211.411	210.385
214.785	325.116
218.16	480.019
221.535	646.219
224.91	638.938
228.285	512.127
231.659	506.316
235.034	573.478
238.409	571.098
241.784	463.5
245.159	308.338
248.534	205.374
251.908	152.968
255.283	82.0877
258.658	62.7549
262.033	99.8126
265.408	124.931
268.782	197.891
272.157	279.754
275.532	425.424
278.907	624.226
282.282	860.331
285.656	1064.58
289.031	1207.76
292.406	1098.04
295.781	842.743
299.156	622.483
302.531	469.677
305.905	392.995
309.28	318.98
312.655	214.027
316.03	157.896
319.405	83.0532
322.779	63.7179
326.154	33.4096
329.529	6.69574
332.904	0.904297
336.279	12.3337
339.654	14.9246
343.028	21.4454
346.403	37.789
349.778	55.0536
353.153	100.895
356.528	164.106
359.902	221.968
363.277	307.591
366.652	364.822
370.027	401.688
373.402	414.312
376.777	376.248
380.151	335.497
383.526	306.892
386.901	282.294
390.276	303.327
393.651	301.715
397.026	348.805
400.4	391.947
403.775	402.031
407.15	388.917
410.525	304.528
413.9	247.889
417.274	177.392
420.649	107.412
424.024	92.1654
427.399	59.8644
430.774	19.0507
434.149	28.6171
437.523	8.0929
440.898	13.1599
444.273	0.732849
447.648	11.4659
451.023	29.0666
454.397	2.38104
457.772	6.91406
461.147	10.3052
464.522	10.7238
467.897	21.1945
471.272	38.235
474.646	21.465
478.021	49.1821
481.396	57.8123
484.771	120.288
488.146	122.646
491.52	131.304
494.895	166.253
498.27	132.197
501.645	155.081
505.02	131.848
508.394	99.539
511.769	78.5909
515.144	59.1885
518.519	45.0044
521.894	10.4554
525.269	3.09985
528.643	12.0638
532.018	4.06152
535.393	7.49945
538.768	28.5142
542.143	82.0401
545.518	118.351
548.892	170.084
552.267	200.379
555.642	212.212
559.017	197.684
562.392	188.925
565.766	161.648
569.141	133.883
572.516	81.0181
575.891	26.6063
579.266	34.4841
582.64	11.0313
586.015	12.1686
589.39	14.0167
592.765	0.372986
596.14	33.9515
599.515	26.581
602.889	61.3917
606.264	54.6792
609.639	51.8813
613.014	26.0299
616.389	35.2096
619.764	0.478333
623.138	21.8659
626.513	3.46466
629.888	18.8072
633.263	43.1108
636.638	31.1216
640.013	41.7403
643.387	82.6635
646.762	113.41
650.137	109.924
653.512	123.886
656.886	133.136
660.261	113.722
663.636	115.147
667.011	108.746
670.386	69.1987
673.761	100.717
677.135	58.9851
680.51	59.5231
683.885	68.6475
687.26	23.5044
690.635	12.8041
694.01	17.8694
697.384	46.8342
700.759	39.256
704.134	13.7863
707.509	42.6621
710.884	39.9634
714.258	22.6322
717.633	33.632
721.008	53.8983
724.383	27.6319
727.758	17.3198
731.133	55.0451
734.507	64.0075
737.882	72.9304
741.257	45.6443
744.632	66.2787
748.007	30.6707
751.381	19.4112
754.756	32.6644
758.131	11.3093
761.506	10.6777
764.881	27.6212
768.256	11.6179
771.63	11.3074
775.005	16.5209
778.38	71.4982
781.755	114.222
785.13	201.365
788.505	322.575
791.879	545.901
795.254	832.702
798.629	1412.73
802.004	2273.45
805.379	3414.84
808.753	4766.81
812.128	5607.62
815.503	5281.57
818.878	4325.85
822.253	3682.32
825.627	3422.92
829.002	3547.01
832.377	3859.32
835.752	4195.55
839.127	4313.54
842.501	3958.3
845.876	3430.78
849.251	2615.43
852.626	1912.39
856.001	1362.96
859.376	1031.04
862.75	696.186
866.125	496.991
869.5	326.806
872.875	181.78
876.25	105.508
879.625	39.6121
882.999	31.2373
886.374	16.4023
889.749	19.2311
893.124	13.2678
896.499	13.7893
899.874	32.92
903.248	40.8379
906.623	86.7367
909.998	106.264
913.373	160.494
916.748	202.651
920.122	251.517
923.497	241.397
926.872	228.575
930.247	213.774
933.622	129.006
936.996	118.661
940.371	63.3223
943.746	19.9752
947.121	34.5397
950.496	7.95105
953.87	1.88452
957.245	14.2297
960.62	7.32812
963.995	9.43188
967.37	17.8833
970.745	8.49988
974.119	24.0181
977.494	11.8009
980.869	30.8142
984.244	27.824
987.619	0.419434
990.994	54.9874
994.368	38.5061
997.743	51.5714
1001.12	64.2364
1004.49	46.397
1007.87	81.2751
1011.24	60.7356
1014.62	45.9301
1017.99	12.4051
1021.37	41.4602
1024.74	58.064
1028.12	41.853
1031.49	41.6639
1034.87	52.6703
1038.24	28.486
1041.62	40.3829
1044.99	37.9886
1048.37	41.7782
1051.74	34.3339
1055.12	27.2023
1058.49	9.45941
1061.87	34.1493
1065.24	38.8812
1068.61	45.9535
1071.99	39.7381
1075.36	17.1795
1078.74	28.9381
1082.11	7.57532
1085.49	18.2424
1088.86	45.4969
1092.24	34.3303
1095.61	24.4123
1098.99	10.9995
1102.36	16.4055
1105.74	16.0181
1109.11	3.24676
1112.49	23.2709
1115.86	16.5294
1119.24	3.34302
1122.61	25.2068
1125.99	30.97
1129.36	25.353
1132.74	26.7152
1136.11	22.3667
1139.49	31.61
1142.86	53.8839
1146.23	22.2763
1149.61	28.6543
1152.98	29.1971
1156.36	30.4864
1159.73	34.7195
1163.11	8.74585
1166.48	35.5756
1169.86	28.9919
1173.23	9.68957
1176.61	26.1188
1179.98	12.3447
1183.36	31.3184
1186.73	1.83075
1190.11	21.076
1193.48	18.6127
1196.86	25.5175
1200.23	6.17029
1203.61	24.564
1206.98	7.50915
1210.36	6.1062
1213.73	36.0283
1217.11	28.2529
1220.48	22.224
1223.86	47.4132
1227.23	0.750122
1230.61	35.4535
1233.98	29.795
1237.36	17.8784
1240.73	12.3221
1244.11	8.62207
1247.48	16.189
1250.86	25.286
1254.23	19.727
1257.6	29.1945
1260.98	33.1183
1264.35	38.7485
1267.73	32.7542
1271.1	37.2157
1274.48	0.872559
1277.85	37.0282
1281.23	16.3594
1284.6	31.4817
1287.98	51.0546
1291.35	29.8957
1294.73	25.2375
1298.1	7.88879
1301.48	4.85413
