Measurement: Raman, 785 nm, unoriented, Raman Data Processed
Mineral: Fayalite
Rruff sample: R070293
Ideal chemistry: Fe^2+^_2_SiO_4_
Locality: Pike's Peak, Teller County, Colorado, USA
Source: Michael Scott
Description: Black single crystal fragment with internal hints of red and green
Measured chemistry: (Fe^2+^_1.87_Mn^2+^_0.13_)_Î£=2_Si_1.00_O_4_ ; trace amounts of Mg
Raman shift (cm-1)	intensity
143.197	0
146.089	92.4028
148.982	473.451
151.875	1177.27
154.768	1535.4
157.66	691.52
160.553	175.074
163.446	146.949
166.338	28.1268
169.231	63.0072
172.124	103.19
175.017	35.3037
177.909	4.94183
180.802	38.4254
183.695	43.401
186.587	85.8818
189.48	137.906
192.373	246.26
195.265	381.353
198.158	263.586
201.051	84.5253
203.944	29.0515
206.836	15.1577
209.729	26.5638
212.622	18.3683
215.514	28.3962
218.407	1.82974
221.3	9.07748
224.192	32.8761
227.085	41.0777
229.978	55.124
232.87	79.7684
235.763	103.616
238.656	122.054
241.549	119.017
244.441	94.0624
247.334	69.9176
250.227	62.0314
253.119	40.8481
256.012	55.363
258.905	45.9017
261.798	26.4955
264.69	36.1593
267.583	36.593
270.476	31.5368
273.368	44.2632
276.261	62.8132
279.154	66.8152
282.046	112.542
284.939	157.062
287.832	223.14
290.724	237.64
293.617	238.617
296.51	232.555
299.403	254.282
302.295	298.671
305.188	372.548
308.081	436.68
310.973	517.225
313.866	490.766
316.759	365.553
319.651	236.354
322.544	135.817
325.437	79.9646
328.33	20.8828
331.222	8.56418
334.115	4.25797
337.008	11.7867
339.9	10.8384
342.793	21.8986
345.686	48.6796
348.579	68.8633
351.471	133.205
354.364	186.826
357.257	245.224
360.149	329.075
363.042	406.904
365.935	536.958
368.827	630.157
371.72	699.704
374.613	761.78
377.505	784.276
380.398	804.312
383.291	797.465
386.184	749.924
389.076	641.745
391.969	526.553
394.862	405.398
397.754	298.411
400.647	228.45
403.54	165.204
406.433	111.338
409.325	86.3219
412.218	64.4197
415.111	36.7642
418.003	25.8528
420.896	10.3188
423.789	2.60062
426.681	6.6376
429.574	1.31042
432.467	8.40704
435.36	15.1222
438.252	9.17386
441.145	23.0714
444.038	2.50147
446.93	5.62851
449.823	10.4365
452.716	0.759033
455.608	0.476807
458.501	13.9277
461.394	9.20902
464.286	7.1087
467.179	4.9729
470.072	3.69675
472.965	20.1126
475.857	10.4742
478.75	19.1034
481.643	24.6298
484.535	39.0031
487.428	63.9428
490.321	73.4394
493.214	98.1248
496.106	159.473
498.999	225.439
501.892	307.717
504.784	400.281
507.677	391.351
510.57	297.383
513.462	198.938
516.355	138.786
519.248	91.2994
522.14	71.026
525.033	74.1333
527.926	44.0937
530.819	51.5093
533.711	55.4066
536.604	73.2682
539.497	73.0415
542.389	78.7963
545.282	83.5881
548.175	96.4107
551.067	121.194
553.96	141.995
556.853	163.471
559.745	176.969
562.638	211.583
565.531	204.155
568.424	184.176
571.316	168.041
574.209	118.716
577.102	120.803
579.994	102.709
582.887	84.8067
585.78	60.9157
588.673	53.9781
591.565	48.2573
594.458	26.951
597.351	17.726
600.243	12.2425
603.136	6.90646
606.029	1.68903
608.921	10.2265
611.814	7.61905
614.707	10.5957
617.6	15.4304
620.492	6.61449
623.385	5.99075
626.278	12.1272
629.17	10.4445
632.063	2.1525
634.956	13.3415
637.848	4.00835
640.741	2.07046
643.634	17.0517
646.527	8.4416
649.419	10.6706
652.312	3.31718
655.205	33.3079
658.097	24.1802
660.99	26.4614
663.883	24.4071
666.775	52.4015
669.668	36.9361
672.561	28.3438
675.454	15.08
678.346	24.4816
681.239	33.5519
684.132	17.65
687.024	19.4923
689.917	19.9568
692.81	20.6766
695.702	28.119
698.595	20.9275
701.488	13.1366
704.381	8.93012
707.273	21.5594
710.166	3.72723
713.059	1.40152
715.951	0.689728
718.844	11.2413
721.737	6.48917
724.63	0.565582
727.522	6.37259
730.415	0.947601
733.308	3.85828
736.2	2.01212
739.093	6.86472
741.986	5.51547
744.878	19.5272
747.771	2.00183
750.664	3.88693
753.557	17.1367
756.449	9.25906
759.342	7.6232
762.235	0.257111
765.127	22.4629
768.02	9.40918
770.913	42.7742
773.805	52.451
776.698	55.1379
779.591	80.947
782.484	100.423
785.376	154.506
788.269	191.916
791.162	280.455
794.054	411.411
796.947	606.55
799.84	918.323
802.732	1441.84
805.625	2205.31
808.518	3230.7
811.41	4338.59
814.303	4792.1
817.196	4426.5
820.089	3748.36
822.981	3156.6
825.874	2788.09
828.767	2549.67
831.659	2379.71
834.552	2243.2
837.445	2096.39
840.337	1892.82
843.23	1600.95
846.123	1255.58
849.016	952.908
851.908	692.821
854.801	488.777
857.694	371.659
860.586	234.021
863.479	156.386
866.372	99.0074
869.264	71.7762
872.157	48.2202
875.05	32.4127
877.943	16.8826
880.835	0.25592
883.728	7.67957
886.621	0.655579
889.513	8.41553
892.406	6.82364
895.299	4.99261
898.192	18.8657
901.084	20.5831
903.977	17.5321
906.87	4.91003
909.762	9.15839
912.655	30.7703
915.548	56.2334
918.44	66.3148
921.333	100.709
924.226	126.51
927.119	144.744
930.011	167.838
932.904	184.942
935.797	167.339
938.689	172.942
941.582	151.153
944.475	130.161
947.367	117.528
950.26	127.365
953.153	102.804
956.045	101.838
958.938	93.0437
961.831	89.2022
964.724	73.883
967.616	66.0523
970.509	80.5148
973.402	69.3682
976.294	64.4882
979.187	59.3012
982.08	53.9387
984.972	47.8903
987.865	27.7814
990.758	47.5649
993.651	53.1063
996.543	21.2543
999.436	28.2811
1002.33	22.4396
1005.22	14.7833
1008.11	11.8818
1011.01	16.3641
1013.9	19.3277
1016.79	1.50055
1019.68	13.3741
1022.58	3.22485
1025.47	7.00388
1028.36	19.2869
1031.26	3.23386
1034.15	0.846741
1037.04	8.62625
1039.93	10.0798
1042.83	14.5734
1045.72	2.35129
1048.61	3.33511
1051.51	15.6397
1054.4	9.89276
1057.29	12.3481
1060.18	15.6228
1063.08	11.249
1065.97	13.4545
1068.86	37.1559
1071.75	18.7019
1074.65	3.14175
1077.54	27.8951
1080.43	7.65717
1083.32	23.0675
1086.22	26.1515
1089.11	23.5897
1092	15.3804
1094.89	3.34244
1097.79	13.9466
1100.68	22.4185
1103.57	13.507
1106.47	21.2554
1109.36	14.9901
1112.25	5.92276
1115.14	12.4913
1118.04	25.0716
1120.93	28.6445
1123.82	24.8908
1126.71	30.2503
1129.61	33.6666
1132.5	36.0951
1135.39	26.268
1138.29	32.3537
1141.18	32.281
1144.07	19.2683
1146.96	18.6646
1149.86	25.4597
1152.75	7.60104
1155.64	37.1082
1158.53	15.6048
1161.43	31.5797
1164.32	23.95
1167.21	29.9439
1170.11	13.1601
1173	20.9255
1175.89	9.8295
1178.78	3.68188
1181.68	25.7743
1184.57	18.8549
1187.46	23.8933
1190.35	22.1017
1193.25	17.2985
1196.14	15.6762
1199.03	10.1174
1201.92	12.0261
1204.82	23.942
1207.71	9.14179
1210.6	23.2829
1213.5	0.268036
1216.39	21.8751
1219.28	31.7813
1222.17	26.3972
1225.07	21.9169
1227.96	8.32098
1230.85	28.8387
1233.74	18.7486
1236.64	6.79254
