Measurement: Raman, 532 nm, unoriented, Raman Data Processed
Mineral: Fayalite
Rruff sample: R100102
Ideal chemistry: Fe^2+^_2_SiO_4_
Locality: Bushveld Intrusive, 7 km east of Olepane, Limpopo Province, South Africa
Source: American Museum of Natural History
Description: Pale brown fragments, variety hortonolite
Measured chemistry: (Fe^+2^_1.100_Mg_0.883_Mn^+2^_0.014_Ca_0.002_Zn_0.001_Al_0.001_)_Î£=2.001_Si_0.999_O_4_
Raman shift (cm-1)	intensity
129.061	0
132.436	4.82218
135.811	0.054762
139.186	1.63914
142.561	3.09813
145.936	4.10646
149.31	9.72206
152.685	27.7199
156.06	41.6553
159.435	45.8493
162.81	55.8471
166.185	62.5729
169.559	73.2979
172.934	86.0802
176.309	97.8282
179.684	109.147
183.059	123.517
186.433	133.675
189.808	133.97
193.183	115.09
196.558	86.6511
199.933	66.901
203.308	53.4155
206.682	44.0053
210.057	30.52
213.432	25.1932
216.807	19.4443
220.182	13.3867
223.556	7.73425
226.931	4.89546
230.306	6.23486
233.681	5.34788
237.056	2.99771
240.43	3.9904
243.805	4.16899
247.18	4.49501
250.555	6.40271
253.93	5.72644
257.305	10.3726
260.679	11.1104
264.054	15.2317
267.429	20.652
270.804	24.7363
274.179	27.6506
277.553	27.4553
280.928	27.5003
284.303	26.0377
287.678	27.5655
291.053	26.7745
294.428	27.3658
297.802	29.7405
301.177	27.4056
304.552	19.8792
307.927	9.53716
311.302	7.01784
314.676	8.76346
318.051	10.7495
321.426	13.2381
324.801	15.4155
328.176	18.7361
331.55	16.6246
334.925	11.0003
338.3	3.66529
341.675	0.249229
345.05	0.302338
348.425	0.436783
351.799	1.78095
355.174	1.35171
358.549	0.719208
361.924	0.998589
365.299	1.08501
368.673	0.44928
372.048	0.344841
375.423	3.7412
378.798	8.79172
382.173	13.6365
385.548	19.7672
388.922	25.0982
392.297	29.3703
395.672	31.673
399.047	31.628
402.422	35.9653
405.796	37.4344
409.171	35.8029
412.546	31.4108
415.921	26.6278
419.296	26.9674
422.671	21.2301
426.045	18.2752
429.42	11.8241
432.795	7.52629
436.17	6.50079
439.545	4.56869
442.92	3.70757
446.294	3.90544
449.669	3.83251
453.044	2.09418
456.419	4.16493
459.793	1.98934
463.168	2.36201
466.543	1.37439
469.918	1.74108
473.293	0.479324
476.668	0.170296
480.042	0.71418
483.417	0.647034
486.792	0.576767
490.167	1.04747
493.542	3.77107
496.916	4.38705
500.291	4.72672
503.666	6.1684
507.041	12.3449
510.416	13.1286
513.791	15.197
517.165	20.6547
520.54	20.9419
523.915	21.7079
527.29	20.4449
530.665	13.1646
534.04	6.99619
537.414	0.93029
540.789	1.14506
544.164	0.269554
547.539	4.40135
550.914	6.45724
554.288	9.50569
557.663	11.8257
561.038	16.9599
564.413	19.4538
567.788	23.3123
571.163	20.9924
574.537	18.3945
577.912	15.5173
581.287	14.6109
584.662	13.2808
588.037	12.589
591.411	10.0587
594.786	10.8215
598.161	6.86071
601.536	5.5756
604.911	5.0511
608.285	2.09962
611.66	1.2056
615.035	0.645229
618.41	0.76741
621.785	1.27933
625.159	0.337051
628.534	0.167934
631.909	0.399105
635.284	1.09739
638.659	0.081627
642.034	0.100697
645.408	3.69995
648.783	3.00919
652.158	4.05136
655.533	5.55372
658.908	6.54229
662.283	7.62052
665.657	8.59165
669.032	9.67886
672.407	9.30128
675.782	11.258
679.157	12.6919
682.531	11.1526
685.906	10.7067
689.281	10.3645
692.656	10.2659
696.031	9.21205
699.405	8.21679
702.78	8.8843
706.155	9.74959
709.53	10.5839
712.905	11.2916
716.28	13.2997
719.654	14.3635
723.029	13.1303
726.404	14.8959
729.779	13.8738
733.154	14.9709
736.529	12.7742
739.903	10.8492
743.278	12.8538
746.653	11.4877
750.028	10.5309
753.403	8.89593
756.777	6.87627
760.152	3.53546
763.527	1.99033
766.902	0.650826
770.277	1.03952
773.652	4.18791
777.026	4.18529
780.401	2.1802
783.776	2.88485
787.151	3.33969
790.526	13.6383
793.9	30.8992
797.275	59.789
800.65	115.794
804.025	209.742
807.4	340.562
810.774	510.409
814.149	705.706
817.524	825.561
820.899	777.216
824.274	673.307
827.649	638.251
831.023	684.286
834.398	802.551
837.773	967.715
841.148	1147.23
844.523	1290.92
847.898	1266.77
851.272	1059.89
854.647	791.731
858.022	555.221
861.397	374.386
864.771	244.244
868.146	153.566
871.521	97.3089
874.896	59.1613
878.271	29.9131
881.646	12.9543
885.02	1.72908
888.395	0.15506
891.77	3.64227
895.145	13.6014
898.52	30.0062
901.894	51.9844
905.269	77.0707
908.644	97.4458
912.019	97.8986
915.394	83.912
918.769	66.8861
922.143	57.6371
925.518	62.1201
928.893	70.935
932.268	77.0618
935.643	76.5986
939.018	72.4017
942.392	58.1594
945.767	46.5769
949.142	32.7958
952.517	21.7988
955.892	15.3302
959.266	8.21541
962.641	2.87412
966.016	0.006477
969.391	1.91116
972.766	4.32146
976.14	4.4125
979.515	3.77409
982.89	0.400345
986.265	0.648064
989.64	3.10832
993.015	4.97276
996.389	6.52175
999.764	7.83563
1003.14	10.3991
1006.51	13.1594
1009.89	14.8074
1013.26	16.4219
1016.64	19.4355
1020.01	18.3067
1023.39	19.8054
1026.76	18.7388
1030.14	19.2354
1033.51	16.3756
1036.89	15.778
1040.26	12.5963
1043.64	9.80639
1047.01	9.30946
1050.39	9.34663
1053.76	7.42621
1057.14	6.76276
1060.51	5.69524
1063.89	5.87795
1067.26	4.67357
1070.63	2.35034
1074.01	3.95856
1077.38	2.82454
1080.76	3.3234
1084.13	2.33074
1087.51	3.43896
1090.88	1.48344
1094.26	2.68419
1097.63	1.37003
1101.01	0.083221
1104.38	1.99799
1107.76	3.69891
1111.13	2.55933
1114.51	0.884331
1117.88	0.869064
1121.26	2.16089
1124.63	1.77856
1128.01	0.230614
1131.38	2.00803
1134.76	0.120644
1138.13	0.610771
1141.51	0.897743
1144.88	0.032303
1148.26	0.529503
1151.63	0.780548
1155.01	0.379898
1158.38	0.964836
1161.76	1.19236
1165.13	0.564888
1168.51	1.55679
1171.88	2.7859
1175.26	3.64422
1178.63	1.50967
1182	4.06129
1185.38	3.32353
1188.75	4.00692
1192.13	1.98229
1195.5	2.69319
1198.88	2.40294
1202.25	4.93045
1205.63	2.40457
1209	1.49546
1212.38	2.13788
1215.75	0.861629
1219.13	1.8932
1222.5	0.350796
1225.88	0.271889
1229.25	1.40795
1232.63	0.272388
1236	0.165199
1239.38	0.695339
1242.75	0.198059
1246.13	0.400032
1249.5	0.066143
1252.88	0.889481
1256.25	1.00458
1259.62	1.09538
1263	1.65385
1266.38	1.52958
1269.75	1.90754
1273.12	2.77197
1276.5	1.23968
1279.87	2.01963
1283.25	2.14246
1286.62	2.05516
1290	0.04826
1293.37	0.939396
1296.75	1.46856
1300.12	0.117779
