Measurement: Raman, 532 nm, unoriented, Raman Data Processed
Mineral: Fayalite
Rruff sample: R070374
Ideal chemistry: Fe^2+^_2_SiO_4_
Locality: Little Lake, Lake County, California, USA
Source: Michael Scott
Description: Large dark brown crystal fragment
Measured chemistry: (Fe^2+^_1.89_Mn^2+^_0.11_)_Î£=2_Si_1.00_O_4_ ; trace amounts of Mg
Raman shift (cm-1)	intensity
120.253	0
123.627	0.990273
127.002	7.81207
130.377	28.8155
133.752	80.5349
137.127	141.298
140.502	246.087
143.876	352.393
147.251	598.031
150.626	1101.99
154.001	1994.37
157.376	1233.29
160.75	351.765
164.125	181.125
167.5	151.331
170.875	183.357
174.25	141.998
177.625	100.558
180.999	100.437
184.374	126.288
187.749	168.723
191.124	280.037
194.499	477.432
197.874	325.864
201.248	131.317
204.623	51.2457
207.998	34.3182
211.373	21.5452
214.748	18.2425
218.122	5.96088
221.497	3.75653
224.872	12.1538
228.247	1.94397
231.622	21.3833
234.996	56.3435
238.371	73.9045
241.746	43.2578
245.121	16.0623
248.496	3.57248
251.871	12.2
255.245	12.1458
258.62	1.72253
261.995	0.709076
265.37	23.8459
268.745	47.0632
272.12	77.5057
275.494	136.941
278.869	184.257
282.244	257.478
285.619	404.614
288.994	495.651
292.368	515.857
295.743	452.402
299.118	407.386
302.493	432.065
305.868	529.356
309.243	627.193
312.617	643.388
315.992	497.318
319.367	296.144
322.742	164.802
326.117	98.9023
329.491	41.1722
332.866	13.8251
336.241	0.812256
339.616	0.218384
342.991	19.4469
346.365	39.7154
349.74	90.0968
353.115	133.195
356.49	222.787
359.865	334.005
363.24	474.399
366.614	614.384
369.989	765.53
373.364	833.659
376.739	946.113
380.114	1011.64
383.488	1044.65
386.863	960.24
390.238	791.69
393.613	606.523
396.988	438.537
400.363	309.176
403.737	222.741
407.112	162.032
410.487	115.852
413.862	75.9777
417.237	54.6847
420.611	20.6905
423.986	16.8632
427.361	28.7506
430.736	2.41782
434.111	9.14468
437.486	5.36432
440.86	2.68967
444.235	6.72302
447.61	11.0794
450.985	9.25339
454.36	7.19919
457.735	12.3961
461.109	1.29959
464.484	4.27167
467.859	2.56842
471.234	9.75565
474.609	14.1249
477.983	11.9468
481.358	20.3755
484.733	27.6708
488.108	24.618
491.483	44.8402
494.858	77.4247
498.232	116.769
501.607	177.764
504.982	229.039
508.357	197.339
511.732	137.101
515.106	91.0505
518.481	66.6103
521.856	44.4081
525.231	43.1415
528.606	30.7725
531.981	33.0782
535.355	50.1562
538.73	55.1898
542.105	67.0981
545.48	88.5388
548.855	110.075
552.229	138.215
555.604	173.438
558.979	216.836
562.354	239.236
565.729	238.774
569.104	229.269
572.478	207.547
575.853	194.555
579.228	187.454
582.603	178.925
585.978	158.048
589.352	127.335
592.727	117.521
596.102	77.8984
599.477	70.3827
602.852	48.3157
606.227	33.4596
609.601	26.0814
612.976	22.4607
616.351	6.08142
619.726	1.68369
623.101	4.1994
626.476	0.806702
629.85	16.5747
633.225	13.4812
636.6	11.3692
639.975	6.87994
643.35	10.8538
646.724	6.63275
650.099	5.22559
653.474	6.64182
656.849	14.9733
660.224	25.3715
663.598	24.4226
666.973	8.37625
670.348	16.6376
673.723	16.0915
677.098	29.1582
680.472	20.2111
683.847	46.3157
687.222	24.5858
690.597	38.2307
693.972	23.3773
697.347	24.596
700.721	22.455
704.096	22.9563
707.471	22.0462
710.846	22.0173
714.221	23.3615
717.596	22.2455
720.97	1.97327
724.345	0.907532
727.72	8.71631
731.095	14.5218
734.47	7.50324
737.844	9.12616
741.219	3.06537
744.594	9.54904
747.969	3.8674
751.344	18.9249
754.719	6.38022
758.093	28.7722
761.468	0.860077
764.843	17.658
768.218	20.3773
771.593	30.6484
774.967	66.4797
778.342	68.913
781.717	128.37
785.092	155.908
788.467	258.723
791.842	390.863
795.216	557.97
798.591	914.158
801.966	1493.2
805.341	2440.73
808.716	3828.18
812.091	5001.41
815.465	5040.26
818.84	4142.73
822.215	3366.06
825.59	2869.73
828.965	2648.03
832.339	2494.39
835.714	2382.45
839.089	2186.51
842.464	1841.35
845.839	1457.03
849.213	1058.31
852.588	756.793
855.963	505.244
859.338	362.856
862.713	235.136
866.087	144.727
869.462	86.7378
872.837	71.5854
876.212	10.8025
879.587	5.30078
882.962	5.40344
886.337	0.100342
889.711	12.9906
893.086	2.53192
896.461	0.920105
899.836	0.055298
903.211	21.1487
906.585	5.97449
909.96	18.1877
913.335	5.7066
916.71	27.1556
920.085	49.0361
923.46	68.3847
926.834	98.3144
930.209	101.399
933.584	126.522
936.959	106.674
940.334	100.869
943.708	97.1912
947.083	71.8942
950.458	87.7229
953.833	84.2168
957.208	55.6619
960.582	56.6333
963.957	51.1065
967.332	72.9711
970.707	59.1834
974.082	48.0438
977.457	21.8143
980.831	41.0688
984.206	26.0261
987.581	44.1309
990.956	35.2315
994.331	42.5745
997.705	40.8433
1001.08	32.2134
1004.46	41.8489
1007.83	2.10651
1011.21	35.9537
1014.58	10.5236
1017.95	19.2131
1021.33	10.6422
1024.7	12.4286
1028.08	2.11737
1031.45	11.4556
1034.83	50.2617
1038.2	9.51569
1041.58	17.5928
1044.95	14.1561
1048.33	7.50793
1051.7	4.12085
1055.08	5.95892
1058.45	21.554
1061.83	15.7317
1065.2	14.0574
1068.58	5.86646
1071.95	8.21112
1075.33	21.2875
1078.7	19.0073
1082.08	2.39581
1085.45	4.21997
1088.83	15.5353
1092.2	13.4946
1095.58	8.16052
1098.95	17.1402
1102.33	14.4742
1105.7	10.9505
1109.07	7.27618
1112.45	9.14392
1115.82	1.14331
1119.2	11.3945
1122.57	24.2295
1125.95	27.1252
1129.32	27.0422
1132.7	28.0385
1136.07	23.184
1139.45	26.7886
1142.82	23.4838
1146.2	16.5763
1149.57	30.5654
1152.95	31.7927
1156.32	22.3931
1159.7	25.6139
1163.07	14.7072
1166.45	32.2582
1169.82	10.9521
1173.2	14.6357
1176.57	14.43
1179.95	11.4424
1183.32	3.4212
1186.69	18.5034
1190.07	16.3544
1193.44	0.956451
1196.82	2.92313
1200.19	15.5234
1203.57	4.66119
1206.94	7.33194
1210.32	13.2536
1213.69	6.35379
1217.07	1.42731
1220.44	18.9203
1223.82	3.33255
1227.19	15.6181
1230.57	23.756
1233.94	30.0754
1237.32	28.1931
1240.69	22.389
1244.07	17.5146
1247.44	13.669
1250.82	22.2914
1254.19	0.485291
1257.57	11.002
1260.94	30.9755
1264.32	23.5053
1267.69	30.321
1271.07	32.0022
1274.44	21.672
1277.82	23.4693
1281.19	20.1339
1284.57	24.186
1287.94	13.1669
1291.32	14.458
1294.69	11.9174
1298.06	16.8475
1301.44	1.55237
1304.81	21.5287
1308.19	20.3379
1311.56	0
