Measurement: Raman, 532 nm, unoriented, Raman Data Processed
Mineral: Fayalite
Rruff sample: R100103
Ideal chemistry: Fe^2+^_2_SiO_4_
Locality: Franklin, Sussex County, New Jersey, USA
Source: American Museum of Natural History
Description: Dark brown fragment
Measured chemistry: (Fe^+2^_1.908_Mg_0.046_Zn_0.028_Ca_0.009_Mn^+2^_0.006_Ni_0.001_Al_0.001_)_Î£=1.999_Si_1.000_O_4_
Raman shift (cm-1)	intensity
138.222	0
141.597	5.06883
144.971	6.11486
148.346	8.04716
151.721	21.382
155.096	38.8004
158.471	35.347
161.845	26.9201
165.22	29.1534
168.595	30.6488
171.97	39.0761
175.345	44.0597
178.72	25.6057
182.094	15.6524
185.469	11.5171
188.844	11.0813
192.219	9.11992
195.594	13.9828
198.968	10.5428
202.343	6.29251
205.718	0.195507
209.093	0.053886
212.468	1.08197
215.843	1.25097
219.217	0.469856
222.592	3.8542
225.967	3.19629
229.342	7.00911
232.717	10.0987
236.091	11.9197
239.466	18.4031
242.841	18.1438
246.216	10.6992
249.591	7.93483
252.965	5.19767
256.34	1.37618
259.715	2.93765
263.09	2.9115
266.465	4.83283
269.84	7.77814
273.214	11.9502
276.589	16.8709
279.964	26.8854
283.339	32.7958
286.714	39.5106
290.089	42.8247
293.463	42.6598
296.838	37.3436
300.213	28.5996
303.588	18.2326
306.963	20.6225
310.337	21.9784
313.712	17.915
317.087	14.5946
320.462	8.71451
323.837	5.01351
327.212	2.71317
330.586	1.11831
333.961	0.062023
337.336	1.90293
340.711	0.462803
344.086	1.836
347.46	2.39687
350.835	1.46545
354.21	2.16482
357.585	4.47872
360.96	4.23245
364.334	4.26321
367.709	8.88335
371.084	11.7529
374.459	10.2439
377.834	8.16512
381.209	12.7067
384.583	10.8559
387.958	7.84939
391.333	11.8281
394.708	8.61123
398.083	5.90533
401.457	5.9692
404.832	6.74904
408.207	0.846111
411.582	3.22554
414.957	5.01043
418.332	2.36269
421.706	1.76693
425.081	2.10242
428.456	2.94973
431.831	2.68939
435.206	1.60349
438.58	2.97731
441.955	1.30134
445.33	0.630234
448.705	1.02861
452.08	2.43141
455.454	5.28288
458.829	2.86864
462.204	1.51123
465.579	3.16262
468.954	1.67324
472.329	2.95424
475.703	2.53901
479.078	2.59759
482.453	2.81163
485.828	5.62382
489.203	5.05101
492.577	5.7547
495.952	8.20869
499.327	8.3377
502.702	9.45468
506.077	9.52335
509.452	11.7847
512.826	7.56646
516.201	2.59541
519.576	1.26262
522.951	1.24953
526.326	1.6809
529.701	0.655251
533.075	3.25233
536.45	2.34464
539.825	3.37433
543.2	4.8117
546.575	1.95736
549.949	4.87326
553.324	9.43342
556.699	11.4552
560.074	7.72728
563.449	7.02359
566.823	9.13935
570.198	5.51653
573.573	5.14014
576.948	8.5825
580.323	4.89236
583.697	5.0615
587.072	2.29923
590.447	2.83323
593.822	1.04162
597.197	2.4085
600.572	0.351547
603.946	1.75639
607.321	0.049957
610.696	2.71695
614.071	2.69615
617.446	1.97416
620.821	5.07859
624.195	4.54114
627.57	4.90249
630.945	7.20661
634.32	9.65327
637.695	10.1408
641.069	9.78777
644.444	8.17566
647.819	7.75298
651.194	6.18966
654.569	5.2194
657.943	7.08398
661.318	7.60804
664.693	4.25396
668.068	5.18318
671.443	3.40033
674.818	2.09946
678.192	1.75618
681.567	0.252357
684.942	1.65191
688.317	1.05697
691.692	2.65988
695.067	1.59245
698.441	2.51051
701.816	2.69137
705.191	4.77731
708.566	5.08526
711.941	4.38711
715.315	1.75071
718.69	5.09539
722.065	7.00839
725.44	3.68088
728.815	5.66299
732.189	4.50887
735.564	2.3795
738.939	2.83999
742.314	2.9722
745.689	1.87183
749.063	0.44408
752.438	2.01545
755.813	0.353477
759.188	0.899174
762.563	1.07332
765.938	0.476879
769.312	0.900375
772.687	0.130081
776.062	2.22139
779.437	1.74154
782.812	4.45931
786.187	7.76696
789.561	10.4177
792.936	19.2689
796.311	25.9853
799.686	45.448
803.061	73.4197
806.435	111.514
809.81	156.991
813.185	202.903
816.56	209.288
819.935	184.659
823.309	157.261
826.684	144.579
830.059	143.494
833.434	149.172
836.809	155.516
840.184	150.929
843.558	139.104
846.933	115.055
850.308	90.8959
853.683	66.6102
857.058	49.9395
860.433	37.576
863.807	26.4847
867.182	21.7855
870.557	13.5799
873.932	10.4072
877.307	5.09229
880.681	8.26221
884.056	2.11974
887.431	4.14592
890.806	5.10967
894.181	7.1463
897.556	8.19892
900.93	10.6601
904.305	10.5613
907.68	7.10776
911.055	4.3872
914.43	2.47384
917.804	0.325958
921.179	1.57572
924.554	1.82265
927.929	0.431629
931.304	1.42531
934.678	0.350124
938.053	0.670937
941.428	0.074421
944.803	0.274017
948.178	0.179504
951.553	0.702248
954.927	1.16761
958.302	1.62928
961.677	0.123135
965.052	0.28067
968.427	0.521969
971.802	0.164867
975.176	2.74991
978.551	2.17604
981.926	0.156746
985.301	1.52431
988.676	1.86342
992.05	2.34048
995.425	2.8973
998.8	2.79589
1002.17	0.828947
1005.55	1.77297
1008.92	4.11058
1012.3	1.33855
1015.67	2.69019
1019.05	2.72193
1022.42	0.304085
1025.8	4.1695
1029.17	1.33635
1032.55	2.55072
1035.92	2.20862
1039.3	2.98527
1042.67	0.264904
1046.05	1.52499
1049.42	1.5615
1052.8	0.619791
1056.17	0.226896
1059.55	2.67437
1062.92	2.63025
1066.3	0.704521
1069.67	2.70473
1073.05	3.23712
1076.42	0.255535
1079.8	1.27348
1083.17	0.767809
1086.55	2.19386
1089.92	2.30292
1093.3	1.0651
1096.67	1.86274
1100.04	2.1174
1103.42	1.43783
1106.79	1.82957
1110.17	1.68396
1113.54	2.73076
1116.92	2.66756
1120.29	4.45046
1123.67	3.10337
1127.04	2.38434
1130.42	2.23611
1133.79	2.14132
1137.17	3.10388
1140.54	1.41487
1143.92	3.56105
1147.29	1.30316
1150.67	2.36317
1154.04	3.02102
1157.42	2.48495
1160.79	3.60887
1164.17	3.24163
1167.54	2.22076
1170.92	0.675596
1174.29	2.44779
1177.66	1.5236
1181.04	2.47137
1184.41	0.207115
1187.79	0.493879
1191.16	4.95199
1194.54	0.081739
1197.91	2.10422
1201.29	2.76235
1204.66	2.15178
1208.04	1.46216
1211.41	1.78702
1214.79	3.42566
1218.16	2.31706
1221.54	0.873472
1224.91	1.76958
1228.29	0.240793
1231.66	1.91751
1235.04	3.8847
1238.41	1.21686
1241.79	1.25723
1245.16	2.4492
1248.54	1.95637
1251.91	1.24553
1255.29	0.051006
1258.66	2.35723
1262.04	1.61021
1265.41	1.41589
1268.79	1.05339
1272.16	3.75218
1275.54	2.22297
1278.91	0.901796
1282.29	1.52648
1285.66	3.07823
1289.03	1.54882
1292.41	1.89701
1295.78	4.77843
1299.16	3.28165
1302.53	0.011299
