Measurement: Raman, 532 nm, unoriented, Raman Data Processed
Mineral: Fayalite
Rruff sample: R070293
Ideal chemistry: Fe^2+^_2_SiO_4_
Locality: Pike's Peak, Teller County, Colorado, USA
Source: Michael Scott
Description: Black single crystal fragment with internal hints of red and green
Measured chemistry: (Fe^2+^_1.87_Mn^2+^_0.13_)_Î£=2_Si_1.00_O_4_ ; trace amounts of Mg
Raman shift (cm-1)	intensity
120.253	0
123.627	2.80871
127.002	16.9108
130.377	61.0939
133.752	99.2735
137.127	205.857
140.502	350.926
143.876	472.897
147.251	836.088
150.626	1461.2
154.001	2666.26
157.376	1838.34
160.75	572.026
164.125	309.628
167.5	259.89
170.875	297.976
174.25	257.438
177.625	154.562
180.999	141.885
184.374	173.671
187.749	247.306
191.124	371.877
194.499	584.878
197.874	482.018
201.248	166.907
204.623	62.151
207.998	33.5974
211.373	1.01108
214.748	5.63882
218.122	8.92883
221.497	11.5056
224.872	3.5108
228.247	5.95163
231.622	53.4025
234.996	73.2109
238.371	128.982
241.746	113.133
245.121	59.9369
248.496	5.55493
251.871	1.01617
255.245	24.4367
258.62	31.7492
261.995	12.499
265.37	32.6696
268.745	83.0122
272.12	135.602
275.494	213.176
278.869	352.974
282.244	556.499
285.619	792.516
288.994	1062.48
292.368	1091.56
295.743	890.548
299.118	676.002
302.493	621.554
305.868	716.856
309.243	848.404
312.617	880.39
315.992	642.612
319.367	414.563
322.742	218.472
326.117	100.59
329.491	38.5725
332.866	2.79877
336.241	2.46167
339.616	17.2933
342.991	37.1716
346.365	114.173
349.74	179.599
353.115	323.192
356.49	453.665
359.865	659.133
363.24	926.136
366.614	1184.02
369.989	1377.13
373.364	1516.78
376.739	1550.37
380.114	1601.8
383.488	1596.58
386.863	1425.62
390.238	1158.83
393.613	861.851
396.988	635.739
400.363	427.416
403.737	309.987
407.112	241.099
410.487	157.533
413.862	106.736
417.237	70.6476
420.611	47.2399
423.986	16.0139
427.361	9.35706
430.736	2.15497
434.111	4.95679
437.486	6.55396
440.86	2.74011
444.235	16.1691
447.61	4.55792
450.985	5.59436
454.36	6.63165
457.735	6.01904
461.109	3.90735
464.484	3.74304
467.859	1.00244
471.234	7.59354
474.609	6.87628
477.983	19.4135
481.358	24.6009
484.733	52.3406
488.108	56.0525
491.483	98.6093
494.858	144.123
498.232	232.557
501.607	357.887
504.982	468.476
508.357	399.837
511.732	292.682
515.106	179.931
518.481	115.688
521.856	79.0543
525.231	88.277
528.606	83.8816
531.981	65.9236
535.355	100.022
538.73	116.337
542.105	123.673
545.48	163.476
548.855	221.256
552.229	291.636
555.604	342.034
558.979	426.797
562.354	478.35
565.729	464.061
569.104	390.672
572.478	341.684
575.853	310.574
579.228	283.085
582.603	244.689
585.978	208.534
589.352	190.922
592.727	133.948
596.102	127.281
599.477	82.5177
602.852	65.59
606.227	32.7344
609.601	8.65692
612.976	3.15839
616.351	1.35727
619.726	3.42114
623.101	14.1652
626.476	0.304138
629.85	0.513428
633.225	8.88272
636.6	16.7885
639.975	20.1687
643.35	2.7457
646.724	26.5454
650.099	10.6645
653.474	29.9439
656.849	16.584
660.224	10.1498
663.598	27.3797
666.973	37.0435
670.348	47.0383
673.723	46.8425
677.098	54.4116
680.472	50.8239
683.847	54.0323
687.222	63.013
690.597	58.6205
693.972	51.9584
697.347	59.084
700.721	99.0089
704.096	21.9036
707.471	11.0466
710.846	11.9121
714.221	7.75171
717.596	12.0309
720.97	5.37707
724.345	3.47614
727.72	25.299
731.095	1.10767
734.47	20.0672
737.844	0.156555
741.219	2.23517
744.594	7.25037
747.969	21.3262
751.344	12.0688
754.719	8.26453
758.093	24.7547
761.468	35.187
764.843	50.8494
768.218	48.9582
771.593	73.8283
774.967	116.969
778.342	187.691
781.717	243.23
785.092	378.824
788.467	574.576
791.842	852.374
795.216	1262.65
798.591	2065.24
801.966	3471.8
805.341	5662.9
808.716	8708.81
812.091	11545.8
815.465	11797.9
818.84	9770
822.215	7919.38
825.59	6715.33
828.965	6098.35
832.339	5821.52
835.714	5642.42
839.089	5104.22
842.464	4401.08
845.839	3460.06
849.213	2564.87
852.588	1867.6
855.963	1275.02
859.338	876.044
862.713	610.489
866.087	363.378
869.462	228.635
872.837	129.28
876.212	89.5591
879.587	47.3301
882.962	1.16296
886.337	12.5061
889.711	18.5359
893.086	1.87195
896.461	29.0997
899.836	12.6774
903.211	3.45026
906.585	20.7247
909.96	14.6118
913.335	37.1067
916.71	98.7622
920.085	144.791
923.46	234.115
926.834	258.983
930.209	315.904
933.584	317.648
936.959	322.293
940.334	307.336
943.708	303.829
947.083	276.146
950.458	258.329
953.833	231.394
957.208	201.126
960.582	204.137
963.957	188.725
967.332	179.983
970.707	154.544
974.082	135.781
977.457	143.016
980.831	96.4655
984.206	109.829
987.581	104.076
990.956	94.5923
994.331	101.29
997.705	67.4629
1001.08	68.4702
1004.46	44.9297
1007.83	39.7971
1011.21	56.1886
1014.58	25.7567
1017.95	13.1433
1021.33	1.46704
1024.7	26.472
1028.08	0.97467
1031.45	18.6836
1034.83	15.8237
1038.2	7.31989
1041.58	2.72223
1044.95	1.75116
1048.33	11.4342
1051.7	4.01184
1055.08	6.85791
1058.45	9.19574
1061.83	19.3543
1065.2	13.3278
1068.58	21.2458
1071.95	5.83386
1075.33	10.7291
1078.7	27.651
1082.08	48.7873
1085.45	12.6976
1088.83	21.7055
1092.2	16.9706
1095.58	7.10187
1098.95	26.1226
1102.33	23.6256
1105.7	3.70734
1109.07	20.1858
1112.45	25.5443
1115.82	40.4672
1119.2	36.4829
1122.57	33.7213
1125.95	54.527
1129.32	64.8097
1132.7	82.7647
1136.07	63.5688
1139.45	41.5934
1142.82	71.0918
1146.2	66.7803
1149.57	61.3518
1152.95	85.3826
1156.32	50.84
1159.7	36.8339
1163.07	43.2386
1166.45	28.6902
1169.82	27.6172
1173.2	30.1891
1176.57	31.7902
1179.95	13.1283
1183.32	21.3268
1186.69	12.3116
1190.07	34.8134
1193.44	32.6772
1196.82	17.0295
1200.19	8.14941
1203.57	1.26025
1206.94	11.6182
1210.32	20.1126
1213.69	26.7203
1217.07	5.92322
1220.44	1.63342
1223.82	12.525
1227.19	9.4201
1230.57	29.1104
1233.94	9.80768
1237.32	33.4632
1240.69	21.3386
1244.07	14.2852
1247.44	34.1938
1250.82	7.19293
1254.19	32.1781
1257.57	17.4439
1260.94	11.062
1264.32	15.1561
1267.69	0.564392
1271.07	17.3521
1274.44	29.0639
1277.82	4.52582
1281.19	3.44464
1284.57	34.7621
1287.94	17.0306
1291.32	31.5283
1294.69	3.23413
1298.06	17.4766
