Measurement: Raman, 532 nm, unoriented, Raman Data Processed
Mineral: Fayalite
Rruff sample: R100104
Ideal chemistry: Fe^2+^_2_SiO_4_
Locality: Dannemora, Uppsala Province, Sweden
Source: American Museum of Natural History
Description: Dark brown fragment, variety knebelite
Measured chemistry: (Fe^+2^_1.020_Mn^+2^_0.931_Mg_0.052_Ca_0.002_Zn_0.001_)_Î£=2.006_Si_0.997_O_4_
Raman shift (cm-1)	intensity
128.579	0
131.954	1.71417
135.329	0.042528
138.704	3.77155
142.079	8.77036
145.453	15.9728
148.828	37.0412
152.203	66.1688
155.578	59.1619
158.953	61.5335
162.328	87.7423
165.702	122.781
169.077	70.2993
172.452	32.3394
175.827	19.2175
179.202	16.3811
182.577	12.3971
185.951	9.51186
189.326	7.3338
192.701	8.4022
196.076	8.84759
199.451	4.50601
202.825	0.322823
206.2	0.065521
209.575	2.24683
212.95	1.47392
216.325	1.1853
219.699	6.66554
223.074	13.4193
226.449	22.614
229.824	33.5852
233.199	47.1694
236.573	64.058
239.948	82.4765
243.323	80.1735
246.698	56.6083
250.073	35.6176
253.448	23.2872
256.822	19.5736
260.197	19.2386
263.572	24.3466
266.947	27.1951
270.322	36.8875
273.697	45.5224
277.071	58.8471
280.446	63.4157
283.821	66.8109
287.196	58.6912
290.571	53.9719
293.945	50.4806
297.32	55.0274
300.695	60.0382
304.07	60.1591
307.445	49.9288
310.82	36.8928
314.194	23.2141
317.569	14.7482
320.944	9.02318
324.319	3.35251
327.694	3.55498
331.068	1.47888
334.443	0.019817
337.818	2.29993
341.193	0.92897
344.568	0.711613
347.942	2.81331
351.317	3.61693
354.692	6.0281
358.067	12.1935
361.442	20.3747
364.817	26.7394
368.191	35.8994
371.566	45.3777
374.941	55.1095
378.316	60.8557
381.691	60.2121
385.065	56.792
388.44	53.6071
391.815	46.0279
395.19	43.1504
398.565	38.6066
401.94	33.9644
405.314	26.7564
408.689	20.6369
412.064	16.6336
415.439	11.0895
418.814	10.8602
422.188	6.65325
425.563	5.97948
428.938	4.09893
432.313	3.33393
435.688	3.18166
439.062	0.952757
442.437	1.22326
445.812	1.14687
449.187	2.31488
452.562	1.27626
455.937	2.10015
459.311	0.14159
462.686	1.25771
466.061	0.061626
469.436	1.48114
472.811	1.09862
476.185	1.6579
479.56	0.017534
482.935	1.64108
486.31	4.52212
489.685	4.95323
493.06	7.02125
496.434	6.52276
499.809	7.77823
503.184	10.9761
506.559	15.398
509.934	17.1525
513.308	16.3507
516.683	11.6319
520.058	6.57271
523.433	2.70618
526.808	2.8905
530.183	2.06918
533.557	3.5105
536.932	4.16179
540.307	5.9233
543.682	7.73576
547.057	11.342
550.432	14.0098
553.806	13.9808
557.181	10.7093
560.556	9.73117
563.931	9.36681
567.306	9.23474
570.68	6.69163
574.055	5.79779
577.43	3.61599
580.805	4.33641
584.18	1.51063
587.554	0.555649
590.929	0.408335
594.304	1.96665
597.679	1.12522
601.054	0.334282
604.428	0.47201
607.803	0.19557
611.178	2.13354
614.553	1.28889
617.928	2.54439
621.303	0.651485
624.677	2.02937
628.052	2.14697
631.427	2.25892
634.802	4.47972
638.177	3.26067
641.552	3.16255
644.926	6.23241
648.301	7.97907
651.676	9.74824
655.051	13.0588
658.426	14.3542
661.8	12.5659
665.175	10.7991
668.55	11.3214
671.925	10.0352
675.3	9.60375
678.674	9.54092
682.049	9.81068
685.424	9.82885
688.799	6.3248
692.174	7.12601
695.549	7.40376
698.923	6.5482
702.298	8.05192
705.673	7.2425
709.048	7.59025
712.423	7.49996
715.798	7.25605
719.172	6.86968
722.547	4.81887
725.922	4.76638
729.297	4.33256
732.672	3.9925
736.046	2.44931
739.421	0.924622
742.796	1.31985
746.171	0.28503
749.546	0.091858
752.92	0.011711
756.295	0.415504
759.67	1.23984
763.045	0.411198
766.42	0.944611
769.795	0.198132
773.169	2.16286
776.544	2.04818
779.919	4.64269
783.294	9.0359
786.669	17.9093
790.043	33.2737
793.418	61.7529
796.793	109.564
800.168	186.506
803.543	298.656
806.918	453.137
810.292	590.692
813.667	576.983
817.042	440.49
820.417	341.889
823.792	296.639
827.166	288.857
830.541	312.112
833.916	358.526
837.291	404.648
840.666	428.51
844.04	395.832
847.415	323.572
850.79	235.767
854.165	164.131
857.54	109.883
860.915	76.6744
864.289	50.6155
867.664	31.9446
871.039	21.8041
874.414	13.1574
877.789	6.44582
881.163	4.51911
884.538	2.26542
887.913	5.57649
891.288	6.44764
894.663	14.4819
898.038	23.1834
901.412	29.6759
904.787	26.309
908.162	22.8117
911.537	20.1405
914.912	22.0842
918.287	23.9408
921.661	25.38
925.036	24.8108
928.411	23.477
931.786	17.3962
935.161	11.1775
938.535	5.51867
941.91	1.90295
945.285	0.635532
948.66	1.77858
952.035	0.852436
955.409	1.38224
958.784	0.430046
962.159	2.6557
965.534	0.442093
968.909	0.241104
972.284	0.870007
975.658	2.42033
979.033	3.35378
982.408	5.034
985.783	6.51766
989.158	6.41935
992.533	9.54099
995.907	8.94528
999.282	8.78665
1002.66	11.0136
1006.03	14.8026
1009.41	17.7052
1012.78	21.5431
1016.16	16.874
1019.53	10.567
1022.91	9.44021
1026.28	7.7998
1029.66	6.41761
1033.03	6.58796
1036.4	6.74104
1039.78	5.29141
1043.15	2.91175
1046.53	2.90994
1049.9	2.58498
1053.28	3.21479
1056.65	2.39352
1060.03	2.67632
1063.4	2.34087
1066.78	1.53347
1070.15	1.06071
1073.53	2.00053
1076.9	2.08962
1080.28	2.74037
1083.65	0.86986
1087.03	3.38197
1090.4	0.960531
1093.78	2.01615
1097.15	1.67275
1100.53	0.407701
1103.9	2.0473
1107.28	1.36108
1110.65	0.941965
1114.03	0.483622
1117.4	0.874414
1120.78	1.48731
1124.15	2.32618
1127.53	1.87197
1130.9	3.42177
1134.28	1.82976
1137.65	2.77205
1141.02	4.38286
1144.4	2.79679
1147.77	3.04305
1151.15	3.65329
1154.52	2.56456
1157.9	2.1008
1161.27	1.64879
1164.65	1.94898
1168.02	0.656595
1171.4	2.26437
1174.77	1.91334
1178.15	0.695753
1181.52	1.55796
1184.9	0.487715
1188.27	1.28503
1191.65	0.330925
1195.02	0.099878
1198.4	1.10731
1201.77	0.794384
1205.15	0.829102
1208.52	0.283869
1211.9	0.185343
1215.27	0.598629
1218.64	0.688902
1222.02	0.226103
1225.39	1.28776
1228.77	3.55265
1232.14	1.49507
1235.52	1.67406
1238.89	0.526396
1242.27	1.49503
1245.64	2.35218
1249.02	1.69433
1252.39	0.799896
1255.77	1.68856
1259.14	2.21548
1262.52	2.54953
1265.89	0.549381
1269.27	2.10524
1272.64	2.03466
1276.02	1.63201
1279.39	2.10613
1282.77	3.19377
1286.14	2.24516
1289.52	1.24872
1292.89	2.84513
1296.27	1.87633
1299.64	0.12752
1303.02	0
