Measurement: Raman, 785 nm, unoriented, Raman Data Processed
Mineral: Fayalite
Rruff sample: R070157
Ideal chemistry: Fe^2+^_2_SiO_4_
Locality: Coso Hot Springs, Inyo County, California, USA
Source: James Shigley
Description: Brown transparent tabular crystals associated with fine grained quartz
Measured chemistry: (Fe^2+^_1.88_Mn_0.11_Zn_0.01_)_Î£=2_Si_1.00_O_4_ ; trace amounts of Mg
Raman shift (cm-1)	intensity
153.612	0
156.504	33.9915
159.397	78.2771
162.29	272.838
165.182	200.307
168.075	177.973
170.968	481.812
173.86	405.675
176.753	280.081
179.646	135.078
182.538	78.5135
185.431	47.5365
188.324	133.501
191.217	49.1596
194.109	72.5989
197.002	72.3897
199.895	6.88415
202.787	23.6893
205.68	5.78332
208.573	31.4816
211.465	38.2135
214.358	42.175
217.251	104.832
220.144	196.238
223.036	272.012
225.929	235.909
228.822	211.698
231.714	151.867
234.607	186.997
237.5	196.398
240.393	214.445
243.285	234.272
246.178	169.778
249.071	224.199
251.963	206.459
254.856	257.942
257.749	235.911
260.641	278.256
263.534	328.085
266.427	388.596
269.32	524.154
272.212	739.822
275.105	958.094
277.998	1296.3
280.89	1675.38
283.783	2110.1
286.676	2545.11
289.568	2785.05
292.461	2702.03
295.354	2164.81
298.247	1637.17
301.139	1264.33
304.032	1121.47
306.925	1016.15
309.817	873.418
312.71	715.375
315.603	514.735
318.495	359.468
321.388	217.422
324.281	135.734
327.173	47.6131
330.066	20.8838
332.959	18.4926
335.852	35.6887
338.744	8.94135
341.637	17.7731
344.53	0.390503
347.422	29.7474
350.315	105.862
353.208	151.589
356.101	238.128
358.993	356.195
361.886	456.854
364.779	591.289
367.671	668.493
370.564	730.61
373.457	738.652
376.349	686.495
379.242	576.113
382.135	477.495
385.027	403
387.92	380.595
390.813	328.662
393.706	330.023
396.598	336.143
399.491	348.971
402.384	333.605
405.276	332.287
408.169	318.902
411.062	249.98
413.954	199.192
416.847	154.537
419.74	113.671
422.633	107.17
425.525	79.0802
428.418	60.2825
431.311	86.0982
434.203	53.8113
437.096	54.2916
439.989	29.5847
442.882	22.1331
445.774	15.2028
448.667	40.7599
451.56	19.8322
454.452	11.6468
457.345	18.0673
460.238	0.37677
463.13	2.86938
466.023	17.2833
468.916	2.43109
471.808	28.7828
474.701	15.4228
477.594	8.9956
480.487	37.6846
483.379	11.9583
486.272	10.9663
489.165	86.3844
492.057	39.195
494.95	43.8268
497.843	74.8186
500.735	75.2163
503.628	60.5217
506.521	58.3577
509.413	49.1096
512.306	58.5048
515.199	51.1744
518.092	32.5898
520.984	40.1804
523.877	50.5288
526.77	54.3564
529.663	83.3244
532.555	95.7131
535.448	128.582
538.341	166.54
541.233	250.586
544.126	302.637
547.019	424.508
549.911	527.051
552.804	611.394
555.697	649.759
558.589	700.028
561.482	737.592
564.375	685.37
567.268	653.37
570.16	566.637
573.053	435.863
575.946	299.004
578.838	242.524
581.731	188.762
584.624	129.355
587.516	79.9993
590.409	47.0254
593.302	33.6587
596.194	5.12341
599.087	14.8011
601.98	22.644
604.873	6.93036
607.765	0.207153
610.658	43.2801
613.551	21.8896
616.443	26.2836
619.336	23.4081
622.229	21.6506
625.121	39.345
628.014	53.7264
630.907	46.6406
633.8	66.0396
636.692	80.7088
639.585	45.7933
642.478	69.6896
645.37	105.955
648.263	73.399
651.156	88.0449
654.048	113.549
656.941	100.511
659.834	97.0167
662.727	68.7383
665.619	75.9807
668.512	65.8857
671.405	58.9147
674.297	58.3926
677.19	48.5356
680.083	13.1126
682.976	58.8556
685.868	47.4142
688.761	36.7096
691.654	3.54211
694.546	23.9015
697.439	9.07037
700.332	24.3923
703.224	0.820923
706.117	13.5555
709.01	14.2428
711.903	11.5906
714.795	8.28961
717.688	20.671
720.581	15.7262
723.473	5.98425
726.366	6.81165
729.259	6.45563
732.151	25.9941
735.044	29.1365
737.937	49.5694
740.83	45.0794
743.722	25.6091
746.615	24.0382
749.508	12.7393
752.4	2.83966
755.293	5.63202
758.186	7.09638
761.078	8.99176
763.971	8.10852
766.864	8.32489
769.756	32.5588
772.649	58.8159
775.542	84.35
778.435	140.909
781.327	230.271
784.22	284.966
787.113	471.856
790.005	671.144
792.898	940.435
795.791	1308.46
798.683	1979.64
801.576	2873.64
804.469	4120.41
807.362	5744.46
810.254	7137.35
813.147	7653.04
816.04	7127.07
818.932	5951.16
821.825	5045.21
824.718	4478.54
827.611	4249.84
830.503	4209.02
833.396	4234.23
836.289	4384.95
839.181	4298.4
842.074	3918.96
844.967	3389.59
847.859	2710.3
850.752	2109.73
853.645	1567.67
856.538	1226.92
859.43	925.936
862.323	693.422
865.216	519.059
868.108	389.046
871.001	253.103
873.894	206.971
876.786	100.665
879.679	70.1658
882.572	21.1569
885.465	20.3557
888.357	50.7533
891.25	3.08276
894.143	4.62622
897.035	22.7677
899.928	20.3134
902.821	31.2034
905.713	13.7918
908.606	6.95343
911.499	2.48657
914.391	13.7623
917.284	49.3541
920.177	68.6422
923.07	80.0364
925.962	111.269
928.855	138.176
931.748	130.623
934.64	138.306
937.533	126.039
940.426	115.463
943.318	133.513
946.211	137.617
949.104	126.876
951.996	93.0555
954.889	95.9869
957.782	57.2773
960.675	65.4141
963.567	61.1669
966.46	36.4542
969.353	44.1984
972.245	48.8467
975.138	40.3511
978.031	58.2149
980.923	19.1329
983.816	36.8669
986.709	50.1945
989.602	55.9363
992.494	23.982
995.387	29.9172
998.28	38.8085
1001.17	31.4375
1004.07	22.6186
1006.96	27.4865
1009.85	33.6867
1012.74	20.0998
1015.64	7.71075
1018.53	32.3333
1021.42	35.8308
1024.31	28.4384
1027.21	19.2673
1030.1	8.5813
1032.99	2.53827
1035.88	47.5462
1038.78	27.2078
1041.67	12.7391
1044.56	29.9517
1047.46	42.4999
1050.35	27.2396
1053.24	16.8907
1056.13	73.8948
1059.03	14.5344
1061.92	24.7213
1064.81	29.0324
1067.7	33.592
1070.6	40.351
1073.49	33.22
1076.38	33.144
1079.28	36.5424
1082.17	26.4884
1085.06	21.6527
1087.95	13.0866
1090.85	34.7488
1093.74	6.16925
1096.63	38.0158
1099.52	18.053
1102.42	20.4198
1105.31	23.0787
1108.2	6.52875
1111.1	13.4566
1113.99	21.1193
1116.88	3.57342
1119.77	42.3139
1122.67	38.323
1125.56	48.1414
1128.45	66.6178
1131.34	39.7335
1134.24	25.6172
1137.13	5.06854
1140.02	18.2785
1142.91	22.8607
1145.81	33.4711
1148.7	47.4341
1151.59	26.0458
1154.48	43.2955
1157.38	44.1549
1160.27	32.9897
1163.16	32.0162
1166.06	19.1378
1168.95	18.0045
1171.84	6.11591
1174.73	18.2932
1177.63	5.9057
1180.52	26.1313
1183.41	5.85669
1186.31	13.1903
1189.2	24.5129
1192.09	8.94592
1194.98	17.9483
1197.88	0.213379
1200.77	17.2906
1203.66	28.3026
1206.55	43.5994
1209.45	22.1205
1212.34	17.4631
1215.23	4.98297
1218.12	12.9943
1221.02	2.40546
1223.91	22.8512
1226.8	35.3411
1229.7	31.2054
1232.59	15.8223
1235.48	11.0153
