Measurement: Raman, 785 nm, unoriented, Raman Data Processed
Mineral: Fayalite
Rruff sample: R070374
Ideal chemistry: Fe^2+^_2_SiO_4_
Locality: Little Lake, Lake County, California, USA
Source: Michael Scott
Description: Large dark brown crystal fragment
Measured chemistry: (Fe^2+^_1.89_Mn^2+^_0.11_)_Î£=2_Si_1.00_O_4_ ; trace amounts of Mg
Raman shift (cm-1)	intensity
110.413	0
113.305	4.63311
116.198	65.3345
119.091	94.0542
121.984	25.1788
124.876	5.87941
127.769	146.179
130.662	511.588
133.554	970.046
136.447	517.368
139.34	243.518
142.232	323.455
145.125	607.765
148.018	991.986
150.911	1331.37
153.803	1753.31
156.696	1512.27
159.589	755.647
162.481	630.138
165.374	483.756
168.267	490.384
171.16	511.762
174.052	438.89
176.945	361.177
179.838	297.79
182.73	266.479
185.623	273.233
188.516	288.406
191.408	377.136
194.301	493.933
197.194	496.694
200.087	252.847
202.979	140.422
205.872	116.997
208.765	68.375
211.657	37.683
214.55	34.3879
217.443	53.6772
220.335	35.7478
223.228	41.5359
226.121	18.6628
229.013	11.3738
231.906	19.6709
234.799	33.3645
237.692	57.04
240.584	80.7426
243.477	41.3109
246.37	4.95679
249.262	6.97729
252.155	13.585
255.048	3.2713
257.941	3.23468
260.833	16.3923
263.726	5.56891
266.619	14.5306
269.511	34.2188
272.404	50.77
275.297	116.907
278.19	159.137
281.082	244.753
283.975	374.476
286.868	493.199
289.76	616.51
292.653	638.013
295.546	551.835
298.438	416.334
301.331	393.108
304.224	399.756
307.116	482.187
310.009	514.731
312.902	494.616
315.795	389.37
318.687	322.453
321.58	190.74
324.473	77.9183
327.365	47.7244
330.258	15.2339
333.151	9.21942
336.043	3.1507
338.936	7.34332
341.829	10.1932
344.721	14.219
347.614	73.4005
350.507	99.3589
353.4	178.602
356.292	236.22
359.185	334.819
362.078	435.734
364.97	566.91
367.863	634.994
370.756	745.894
373.649	822.119
376.541	856.095
379.434	831.812
382.327	858.644
385.219	797.554
388.112	736.194
391.005	612.849
393.897	484.64
396.79	348.197
399.683	288.695
402.575	196.117
405.468	150.536
408.361	106.346
411.254	73.1016
414.146	61.0514
417.039	50.1254
419.932	26.1773
422.824	35.9175
425.717	21.2686
428.61	14.5867
431.502	5.84039
434.395	12.4717
437.288	8.59168
440.181	6.44714
443.073	6.22229
445.966	6.2904
448.859	6.58917
451.751	2.33185
454.644	5.82458
457.537	3.15234
460.43	5.86792
463.322	13.8183
466.215	5.17425
469.108	1.56897
472	17.6581
474.893	4.95581
477.786	18.2628
480.678	1.50513
483.571	0.205627
486.464	30.6367
489.356	49.9686
492.249	58.4065
495.142	109.843
498.035	129.341
500.927	202.796
503.82	273.701
506.713	275.895
509.605	250.333
512.498	159.827
515.391	100.835
518.284	65.0452
521.176	21.7483
524.069	41.3809
526.962	23.2946
529.854	38.5814
532.747	41.7489
535.64	56.6519
538.533	66.3961
541.425	83.2314
544.318	87.1415
547.211	135.825
550.103	147.51
552.996	203.673
555.889	252.366
558.781	297.211
561.674	355.49
564.567	365.695
567.459	324.223
570.352	276.198
573.245	251.843
576.138	205.081
579.03	155.436
581.923	150.613
584.816	143.852
587.708	86.6854
590.601	74.2049
593.494	52.7254
596.386	54.3824
599.279	43.2919
602.172	25.7047
605.064	22.6555
607.957	8.36487
610.85	20.0791
613.743	17.2765
616.635	4.08404
619.528	9.34027
622.421	1.14111
625.313	20.624
628.206	18.0158
631.099	8.17645
633.991	14.7836
636.884	1.6059
639.777	11.8315
642.67	18.7824
645.562	11.4337
648.455	5.51422
651.348	22.2825
654.24	18.0617
657.133	11.0439
660.026	16.6429
662.918	34.4919
665.811	19.9439
668.704	14.6829
671.597	21.2108
674.489	22.0107
677.382	27.6595
680.275	12.6798
683.167	42.6302
686.06	34.3338
688.953	27.8679
691.846	12.5148
694.738	12.9168
697.631	18.5012
700.524	28.398
703.416	13.662
706.309	23.8976
709.202	10.9294
712.094	11.7932
714.987	17.3693
717.88	5.30011
720.773	16.0561
723.665	9.9303
726.558	14.3573
729.451	13.6347
732.343	7.35407
735.236	2.02429
738.129	7.39258
741.021	6.01544
743.914	3.9212
746.807	15.3916
749.699	2.53955
752.592	0.971619
755.485	10.78
758.378	13.3938
761.27	9.70782
764.163	24.8847
767.056	34.9069
769.948	27.132
772.841	54.6169
775.734	71.3875
778.626	80.5847
781.519	123.428
784.412	149.607
787.305	230.489
790.197	332.14
793.09	469.801
795.983	613.519
798.875	963.505
801.768	1522.59
804.661	2220.58
807.553	3313.47
810.446	4594.29
813.339	5341.35
816.232	5251.43
819.124	4488.49
822.017	3710.86
824.91	3200.71
827.802	2942.6
830.695	2765.25
833.588	2681.6
836.481	2530.22
839.373	2353.65
842.266	2084.47
845.159	1719.06
848.051	1374.42
850.944	1011.64
853.837	766.461
856.729	560.388
859.622	385.252
862.515	233.984
865.408	171.163
868.3	124.114
871.193	92.0489
874.086	58.7715
876.978	40.1819
879.871	1.29401
882.764	18.1559
885.656	16.1537
888.549	19.082
891.442	9.98377
894.335	13.2968
897.227	7.08185
900.12	5.47632
903.013	1.09674
905.905	9.17096
908.798	19.8131
911.691	23.8639
914.583	30.9396
917.476	61.0587
920.369	73.6603
923.261	101.005
926.154	123.876
929.047	122.708
931.94	156.94
934.832	167.693
937.725	137.054
940.618	132.088
943.51	103.73
946.403	91.5638
949.296	105.915
952.188	89.0949
955.081	73.165
957.974	81.3577
960.867	60.6751
963.759	93.5278
966.652	57.1158
969.545	75.861
972.437	32.7425
975.33	55.4465
978.223	79.0683
981.115	25.9118
984.008	35.551
986.901	36.4326
989.794	37.7597
992.686	38.7142
995.579	36.1735
998.472	15.303
1001.36	8.1441
1004.26	7.41248
1007.15	23.7469
1010.04	27.3078
1012.93	9.11328
1015.83	29.8913
1018.72	8.31403
1021.61	19.9597
1024.51	9.19275
1027.4	30.8776
1030.29	10.044
1033.18	10.6468
1036.08	5.53137
1038.97	10.1143
1041.86	10.1682
1044.76	11.3833
1047.65	30.0881
1050.54	10.219
1053.43	25.9868
1056.33	18.1382
1059.22	21.4583
1062.11	2.30682
1065	19.5794
1067.9	18.4423
1070.79	38.4478
1073.68	2.11603
1076.58	16.3347
1079.47	21.4432
1082.36	12.8133
1085.25	26.8918
1088.14	6.22943
1091.04	22.128
1093.93	13.3621
1096.82	16.715
1099.72	35.2274
1102.61	18.1509
1105.5	9.85199
1108.39	36.6078
1111.29	5.92127
1114.18	13.9606
1117.07	13.2076
1119.96	19.3814
1122.86	2.35004
1125.75	18.2037
1128.64	31.2015
1131.54	38.4489
1134.43	26.8158
1137.32	14.8786
1140.21	23.1116
1143.11	14.5041
1146	17.6115
1148.89	11.7105
1151.79	24.4109
1154.68	14.7492
1157.57	38.4578
1160.46	35.1597
1163.36	16.8565
1166.25	21.2175
1169.14	4.8172
1172.03	29.0479
1174.93	17.6139
1177.82	13.4667
1180.71	25.0821
1183.6	6.25812
1186.5	13.0995
1189.39	3.1701
1192.28	29.996
1195.17	16.2291
1198.07	11.1748
1200.96	22.9465
1203.85	16.3334
1206.75	14.9218
1209.64	23.5419
1212.53	4.71783
1215.42	6.41687
1218.32	24.6252
1221.21	20.2664
1224.1	4.51233
1226.99	20.2037
1229.89	30.3115
1232.78	0.738647
