Measurement: Raman, 532 nm, unoriented, Raman Data Processed
Mineral: Fedotovite
Rruff sample: R070470
Ideal chemistry: K_2_Cu_3_O(SO_4_)_3_
Locality: Great Fissure (Main Fracture) eruption, Tolbachik volcano,  Kamchatka Oblast', Far-Eastern Region, Russia
Source: Michael Scott
Description: Emerald-green prismatic crystals
Raman shift (cm-1)	intensity
147.994	0
151.369	187.651
154.744	528.023
158.119	750.551
161.494	526.199
164.868	211.534
168.243	89.069
171.618	213.186
174.993	217.382
178.368	324.798
181.743	371.953
185.117	189.096
188.492	1.81201
191.867	69.9672
195.242	7.45898
198.617	104.427
201.991	234.58
205.366	348.174
208.741	592.131
212.116	984.895
215.491	1419.51
218.865	1940.98
222.24	2494.74
225.615	3193.78
228.99	3493.3
232.365	3086.67
235.74	2127.86
239.114	1464.41
242.489	1032.57
245.864	785.767
249.239	550.158
252.614	331.976
255.988	175.085
259.363	101.131
262.738	41.5446
266.113	38.3865
269.488	40.8318
272.863	36.3897
276.237	24.6192
279.612	43.0476
282.987	37.1311
286.362	30.5818
289.737	56.6193
293.111	87.9472
296.486	118.067
299.861	223.588
303.236	279.11
306.611	302.34
309.986	270.171
313.36	226.03
316.735	175.22
320.11	112.765
323.485	104.117
326.86	85.0583
330.235	94.7733
333.609	89.6747
336.984	62.3937
340.359	44.6644
343.734	14.6772
347.109	11.2958
350.483	6.19397
353.858	4.89569
357.233	2.4779
360.608	10.6732
363.983	14.9865
367.358	6.44336
370.732	16.9802
374.107	30.7905
377.482	31.6921
380.857	43.1943
384.232	51.2615
387.606	69.3361
390.981	62.5746
394.356	57.7257
397.731	67.9265
401.106	25.3928
404.481	20.3373
407.855	15.3355
411.23	16.2548
414.605	31.3584
417.98	54.5939
421.355	96.2338
424.729	179.975
428.104	327.38
431.479	463.546
434.854	719.053
438.229	1007.79
441.603	900.212
444.978	418.212
448.353	288.294
451.728	257.69
455.103	291.715
458.478	393.691
461.852	467.314
465.227	473.975
468.602	306.7
471.977	142.906
475.352	45.8153
478.726	36.145
482.101	17.8417
485.476	34.9976
488.851	146.458
492.226	308.377
495.601	527.927
498.975	817.469
502.35	1028.16
505.725	1207.81
509.1	1169.61
512.475	960.793
515.85	850.187
519.224	861.035
522.599	987.167
525.974	1140.26
529.349	952.843
532.724	373.697
536.098	102.707
539.473	43.291
542.848	44.6991
546.223	101.378
549.598	170.351
552.972	208.845
556.347	246.026
559.722	203.768
563.097	183.813
566.472	194.683
569.847	109.332
573.221	27.2658
576.596	4.16186
579.971	5.78516
583.346	6.66504
586.721	30.5888
590.096	43.5654
593.47	83.1228
596.845	430.065
600.22	868.01
603.595	1433.17
606.97	2253.17
610.344	2710.96
613.719	2463.05
617.094	2517.14
620.469	2069.06
623.844	1424.98
627.218	996.743
630.593	800.281
633.968	736.902
637.343	576.362
640.718	292.489
644.093	132.972
647.467	17.9497
650.842	7.77374
654.217	27.3945
657.592	153.587
660.967	354.949
664.341	607.944
667.716	863.121
671.091	1008.94
674.466	685.415
677.841	295.603
681.216	157.202
684.591	49.2527
687.965	29.089
691.34	38.0725
694.715	20.1658
698.09	15.2261
701.465	9.16644
704.839	2.91858
708.214	7.36609
711.589	6.56738
714.964	9.90656
718.339	21.564
721.713	35.5098
725.088	23.3474
728.463	29.7672
731.838	31.976
735.213	20.298
738.587	26.5309
741.962	47.4781
745.337	43.0173
748.712	52.5918
752.087	41.864
755.462	47.828
758.836	52.5845
762.211	49.6815
765.586	34.7972
768.961	40.0664
772.336	15.9359
775.711	23.2506
779.085	22.4046
782.46	8.10513
785.835	32.5223
789.21	6.5983
792.585	2.1004
795.959	15.9109
799.334	5.59476
802.709	8.39624
806.084	1.12942
809.459	22.4913
812.833	15.4666
816.208	14.2471
819.583	33.2707
822.958	8.30521
826.333	7.7569
829.708	4.07425
833.082	7.30685
836.457	0.110931
839.832	25.3705
843.207	4.23343
846.582	19.0606
849.957	26.8831
853.331	24.6828
856.706	5.16577
860.081	13.8222
863.456	10.0445
866.831	29.4203
870.205	30.3656
873.58	32.9429
876.955	7.62549
880.33	25.0011
883.705	9.10556
887.08	0.718842
890.454	15.0424
893.829	24.0374
897.204	30.4828
900.579	29.0201
903.954	48.3663
907.328	49.1932
910.703	26.8593
914.078	37.1876
917.453	34.6223
920.828	29.5338
924.202	59.9774
927.577	91.9304
930.952	124.407
934.327	148.661
937.702	133.337
941.077	69.222
944.451	15.4296
947.826	10.6213
951.201	23.7786
954.576	23.9802
957.951	16.2787
961.326	15.0199
964.7	25.3858
968.075	114.416
971.45	305.746
974.825	811.73
978.2	1650.38
981.574	2639.61
984.949	2971.54
988.324	2514.43
991.699	2793.59
995.074	3896.38
998.448	4823.69
1001.82	6144.39
1005.2	7490.74
1008.57	7595.14
1011.95	4175.67
1015.32	1424.85
1018.7	536.045
1022.07	246.139
1025.45	187.246
1028.82	267.838
1032.2	379.677
1035.57	584.956
1038.95	1039.21
1042.32	1855.53
1045.7	2710.26
1049.07	3134.72
1052.45	2697.53
1055.82	1742.6
1059.19	977.631
1062.57	495.856
1065.94	196.71
1069.32	2.60095
1072.69	5.4751
1076.07	223.467
1079.44	476.609
1082.82	621.195
1086.19	449.844
1089.57	216.058
1092.94	84.0413
1096.32	23.3693
1099.69	27.3685
1103.07	2.69617
1106.44	144.214
1109.82	340.556
1113.19	734.065
1116.57	1083.04
1119.94	1345.97
1123.32	1094.03
1126.69	862.669
1130.07	778.979
1133.44	609.826
1136.82	365.326
1140.19	322.76
1143.57	395.195
1146.94	595.997
1150.32	975.258
1153.69	1615.17
1157.07	2348.13
1160.44	2693.65
1163.82	1928.58
1167.19	919.216
1170.56	358.486
1173.94	116.931
1177.31	46.3885
1180.69	5.64783
1184.06	48.4152
1187.44	8.64392
1190.81	55.0957
1194.19	151.485
1197.56	314.364
1200.94	559.394
1204.31	923.381
1207.69	1200.54
1211.06	1266.46
1214.44	978.695
1217.81	646.882
1221.19	505.309
1224.56	397.309
1227.94	279.916
1231.31	187.158
1234.69	85.7391
1238.06	64.8341
1241.43	72.9605
1244.81	117.011
1248.18	245.986
1251.56	379.92
1254.93	401.298
1258.31	263.617
1261.68	175.297
1265.06	135.607
1268.43	39.0038
1271.81	11.2755
1275.18	4.32202
1278.56	12.2809
1281.93	3.80432
1285.31	6.51279
1288.68	16.5754
1292.06	23.363
1295.43	12.3743
1298.81	17.7618
1302.18	24.0874
1305.56	11.8048
1308.93	33.0126
1312.31	27.0808
1315.68	0.251831
