Measurement: Raman, 532 nm, unoriented, Raman Data Processed
Mineral: Fejerite
Rruff sample: R090014
Ideal chemistry: Cu_4_ClF(OH)_6_
Locality: Mina Ojuela, Mapim√≠, Durango, Mexico
Source: Marcus Origlieri
Description: Electric blue platy crystals in massive cuprite
Raman shift (cm-1)	intensity
147.334	0
150.226	0.072853
153.119	1.66882
156.012	3.17571
158.905	0.958511
161.797	2.52436
164.69	7.57011
167.583	11.7837
170.475	18.2784
173.368	20.31
176.261	26.5296
179.153	30.6245
182.046	30.7102
184.939	27.0299
187.832	23.0838
190.724	19.8098
193.617	14.3001
196.51	9.82836
199.402	7.37556
202.295	3.74259
205.188	3.5083
208.08	2.57218
210.973	0.951935
213.866	1.12466
216.758	1.45275
219.651	0.999756
222.544	1.05327
225.437	0.506866
228.329	0.124863
231.222	0.726891
234.115	0.690857
237.007	0.166573
239.9	0.829247
242.793	1.67873
245.685	2.49133
248.578	3.85541
251.471	3.32716
254.364	4.90217
257.256	6.22028
260.149	6.6633
263.042	6.77178
265.934	8.03308
268.827	8.07461
271.72	6.8148
274.613	7.1465
277.505	7.04051
280.398	7.31666
283.291	7.56191
286.183	7.69834
289.076	7.68244
291.969	6.84738
294.861	5.49404
297.754	5.95452
300.647	4.48743
303.539	4.77438
306.432	3.13455
309.325	1.97199
312.218	1.91907
315.11	1.80071
318.003	1.35634
320.896	1.31822
323.788	1.01323
326.681	1.20447
329.574	2.34626
332.466	3.61277
335.359	4.91876
338.252	5.64127
341.145	7.46884
344.037	7.12168
346.93	8.02543
349.823	9.33628
352.715	8.14853
355.608	8.02262
358.501	7.04372
361.394	6.53404
364.286	6.05411
367.179	4.3628
370.072	5.53645
372.964	5.92499
375.857	4.81851
378.75	4.32651
381.642	4.62001
384.535	4.39631
387.428	3.89066
390.32	3.32772
393.213	1.9725
396.106	1.96759
398.999	0.265003
401.891	0.193584
404.784	0.840401
407.677	1.09716
410.569	1.10562
413.462	1.47916
416.355	0.62347
419.248	1.22889
422.14	3.34022
425.033	6.72839
427.926	10.8731
430.818	14.7503
433.711	19.4496
436.604	22.6569
439.496	26.2549
442.389	27.4858
445.282	27.8751
448.174	26.628
451.067	21.9863
453.96	18.6691
456.853	14.2201
459.745	10.6659
462.638	8.22477
465.531	7.32144
468.423	6.43022
471.316	6.04663
474.209	4.11058
477.101	5.72586
479.994	6.35842
482.887	7.26689
485.779	7.56918
488.672	9.45243
491.565	10.0279
494.458	11.4933
497.35	13.2872
500.243	16.2538
503.136	20.8936
506.028	27.4653
508.921	35.765
511.814	46.5486
514.707	57.3253
517.599	69.5976
520.492	78.1673
523.385	84.3893
526.277	85.6487
529.17	79.5745
532.063	69.6665
534.955	60.4412
537.848	50.7949
540.741	43.5312
543.634	39.4593
546.526	35.4119
549.419	31.6873
552.312	30.5888
555.204	27.2569
558.097	22.4106
560.99	19.0804
563.882	14.9806
566.775	11.2671
569.668	8.41133
572.561	5.97319
575.453	3.83564
578.346	1.95638
581.239	0.99395
584.131	0.102268
587.024	0.734921
589.917	0.35104
592.809	0.584341
595.702	0.473679
598.595	0.075495
601.487	0.282013
604.38	0.229145
607.273	0.383066
610.166	0.13335
613.058	0.292027
615.951	0.456108
618.844	0.904396
621.736	0.555311
624.629	1.01493
627.522	0.715416
630.414	1.28398
633.307	1.46065
636.2	1.30578
639.093	1.63791
641.985	2.4048
644.878	2.50804
647.771	2.63317
650.663	2.62583
653.556	2.91109
656.449	3.16093
659.341	2.94528
662.234	3.01847
665.127	2.80897
668.02	2.30655
670.912	1.84222
673.805	1.97133
676.698	2.22758
679.59	2.19029
682.483	1.70934
685.376	1.66578
688.269	1.76589
691.161	1.22158
694.054	1.04202
696.947	1.16567
699.839	1.59606
702.732	0.983862
705.625	1.96158
708.517	1.3439
711.41	0.781532
714.303	1.27335
717.196	1.54033
720.088	1.50118
722.981	0.839891
725.874	0.19132
728.766	0.506166
731.659	0.053511
734.552	0.454283
737.444	0.108343
740.337	0.479683
743.23	0.006748
746.122	0.662861
749.015	0.254068
751.908	0.062819
754.801	0.391336
757.693	0.604427
760.586	0.129881
763.479	0.143314
766.371	0.1077
769.264	0.563221
772.157	0.124937
775.049	0.488955
777.942	0.357876
780.835	1.15867
783.727	0.627081
786.62	0.880239
789.513	0.818769
792.406	1.04104
795.298	1.41809
798.191	1.12887
801.084	1.65437
803.976	1.79888
806.869	1.76022
809.762	1.60158
812.654	2.04163
815.547	2.05835
818.44	2.19283
821.333	1.89641
824.225	2.21778
827.118	1.88107
830.011	2.38272
832.903	1.56467
835.796	2.00417
838.689	1.87012
841.582	1.4586
844.474	1.69492
847.367	2.01957
850.26	1.33736
853.152	1.43126
856.045	1.195
858.938	0.420612
861.83	0.877602
864.723	1.09561
867.616	1.19267
870.509	0.277327
873.401	0.814953
876.294	0.27993
879.187	0.114511
882.079	0.170828
884.972	0.139765
887.865	0.023874
890.757	0.329378
893.65	0.135454
896.543	0.121538
899.436	0.482618
902.328	0.201715
905.221	0.979483
908.114	1.06672
911.006	1.50603
913.899	1.67563
916.792	1.39686
919.684	1.09177
922.577	0.302206
925.47	0.541058
928.362	0.021976
931.255	0.235937
934.148	0.133001
937.041	0.62826
939.933	0.462025
942.826	0.179426
945.719	0.782593
948.611	0.234077
951.504	0.513052
954.397	0.490307
957.29	0.545452
960.182	0.916687
963.075	1.11644
965.968	1.8906
968.86	3.2276
971.753	3.66669
974.646	4.7059
977.538	5.16361
980.431	4.89694
983.324	3.80687
986.216	2.64301
989.109	2.42149
992.002	2.53635
994.895	2.15672
997.787	2.16273
1000.68	1.86487
1003.57	1.87016
1006.47	1.78986
1009.36	1.56784
1012.25	1.25852
1015.14	0.574053
1018.04	1.18458
1020.93	1.13268
1023.82	0.679693
1026.71	0.237961
1029.61	0.549561
1032.5	0.710899
1035.39	0.961458
1038.29	1.02677
1041.18	1.31093
1044.07	2.37012
1046.96	3.50164
1049.86	3.77563
1052.75	3.83065
1055.64	3.59863
1058.53	2.28964
1061.43	1.52999
1064.32	0.320459
1067.21	0.04217
1070.11	0.291382
1073	0.003008
1075.89	0.443136
1078.78	0.219534
1081.68	0.04557
1084.57	0.347819
1087.46	0.813039
1090.35	0.646626
1093.25	0.8845
1096.14	1.33536
1099.03	0.666408
1101.92	0.935266
1104.82	0.738432
1107.71	1.30569
1110.6	0.739774
1113.49	0.867446
1116.39	0.623158
1119.28	0.515034
1122.17	0.64935
1125.07	0.204281
1127.96	0.386125
1130.85	0.32408
1133.74	0.454092
1136.64	0.392166
1139.53	0.111746
1142.42	0.035874
1145.32	0.466491
1148.21	0.065588
1151.1	0.415022
1153.99	0.487712
1156.89	0.024434
1159.78	0.366392
1162.67	0.075794
1165.56	0.276452
1168.46	0.425254
1171.35	0.439708
1174.24	0.010779
1177.13	0.75688
1180.03	0.467558
1182.92	0.643412
1185.81	0.504459
1188.7	0.485903
1191.6	0.116418
1194.49	0.582152
1197.38	1.03686
1200.28	1.3429
1203.17	0.972157
1206.06	0.764212
1208.95	1.13594
1211.85	1.01239
1214.74	1.01418
1217.63	0.242609
1220.53	0.81286
1223.42	0.778434
1226.31	0.6022
1229.2	0.427776
1232.1	0.916535
1234.99	0.212877
1237.88	0.80207
1240.77	0.406837
1243.67	0.15488
1246.56	0.598939
1249.45	0.886048
1252.35	0.272203
1255.24	0.809532
1258.13	1.15789
1261.02	0.898962
1263.92	0.792516
1266.81	0.66118
1269.7	0.534505
1272.59	0.73789
1275.49	0.551572
1278.38	0.536626
1281.27	0.82929
1284.16	0.014616
1287.06	0.485653
1289.95	0.249384
1292.84	0.515481
1295.73	0.263259
1298.63	0.039825
1301.52	0.022254
