Measurement: Raman, 780 nm, unoriented, Raman Data Processed
Mineral: Felsobanyaite
Rruff sample: R060239
Ideal chemistry: Al_4_(SO_4_)(OH)_10_4H_2_O
Locality: El Dragon mine, Potosi, Bolivia
Source: Michael Scott
Description: White, massive powder associated with light blue chalcomenite.
Raman shift (cm-1)	intensity
107.765	0
111.139	2.40381
114.514	2.52759
117.889	1.96765
121.264	8.26184
124.639	9.99634
128.013	15.854
131.388	18.5304
134.763	23.8464
138.138	25.1145
141.513	20.874
144.888	12.1318
148.262	8.89062
151.637	1.2052
155.012	0.728882
158.387	1.78272
161.762	0.524292
165.137	3.06372
168.511	8.43665
171.886	15.7135
175.261	19.4676
178.636	32.3622
182.011	41.7512
185.385	49.3323
188.76	65.1083
192.135	79.4575
195.51	92.1566
198.885	83.979
202.26	69.3863
205.634	55.8496
209.009	49.2511
212.384	40.7268
215.759	47.0413
219.134	41.3329
222.508	43.5612
225.883	35.3832
229.258	32.7599
232.633	27.218
236.008	20.6457
239.382	17.4634
242.757	6.33398
246.132	1.74756
249.507	1.12521
252.882	3.73523
256.257	3.48462
259.631	3.73657
263.006	15.2618
266.381	16.3511
269.756	23.6356
273.131	24.8061
276.505	29.7992
279.88	38.0232
283.255	42.5259
286.63	51.4608
290.005	56.501
293.38	41.4452
296.755	31.9751
300.129	30.9404
303.504	36.4586
306.879	32.1953
310.254	41.7765
313.628	35.1044
317.003	31.8971
320.378	24.0933
323.753	15.8951
327.128	16.9633
330.503	10.1322
333.877	12.0044
337.252	10.1188
340.627	5.24036
344.002	3.08313
347.377	0.125
350.752	4.62451
354.126	2.4696
357.501	2.6676
360.876	2.42407
364.251	5.20007
367.626	11.2722
371	6.83801
374.375	14.6921
377.75	7.08643
381.125	10.3877
384.5	13.6139
387.875	10.7742
391.249	1.71375
394.624	1.36035
397.999	1.37085
401.374	1.32458
404.749	2.55493
408.123	2.61755
411.498	5.48157
414.873	11.9745
418.248	25.7465
421.623	41.8602
424.998	58.0044
428.372	73.4623
431.747	82.846
435.122	86.0757
438.497	78.9525
441.872	72.229
445.247	73.9752
448.621	78.6903
451.996	84.6234
455.371	80.6295
458.746	63.3253
462.121	50.8159
465.495	34.276
468.87	27.7289
472.245	20.0409
475.62	13.9064
478.995	13.1687
482.37	22.026
485.744	20.0608
489.119	17.9662
492.494	25.3027
495.869	27.6425
499.244	34.6443
502.618	30.8413
505.993	31.4311
509.368	19.9053
512.743	18.8867
516.118	8.26306
519.492	0.692261
522.867	0.443359
526.242	3.6571
529.617	-0.153537
532.992	1.44885
536.367	2.08032
539.741	1.72217
543.116	10.401
546.491	7.90869
549.866	13.7683
553.241	15.6406
556.615	18.7394
559.99	21.5085
563.365	16.6128
566.74	22.9835
570.115	26.7682
573.49	34.1366
576.864	39.2751
580.239	53.4086
583.614	57.8389
586.989	72.6487
590.364	83.9993
593.739	85.0223
597.113	93.8405
600.488	95.5969
603.863	93.6856
607.238	90.3634
610.613	82.7837
613.987	77.7933
617.362	62.1852
620.737	54.8755
624.112	43.2803
627.487	41.0262
630.861	25.7002
634.236	25.1227
637.611	25.4414
640.986	18.2279
644.361	19.2918
647.736	17.9116
651.11	12.4962
654.485	11.1088
657.86	8.43652
661.235	11.1191
664.61	11.006
667.985	7.6178
671.359	5.79468
674.734	3.29407
678.109	0.969849
681.484	3.19592
684.859	0.17334
688.233	1.7981
691.608	3.32068
694.983	0.828857
698.358	0.436401
701.733	3.55237
705.107	4.98645
708.482	6.28125
711.857	1.30011
715.232	4.97345
718.607	2.78394
721.982	5.03955
725.356	11.5202
728.731	15.1622
732.106	12.3111
735.481	9.34399
738.856	1.65814
742.231	3.50647
745.605	4.79895
748.98	1.2738
752.355	1.40399
755.73	1.81287
759.105	3.39655
762.479	0.677307
765.854	2.20874
769.229	4.70435
772.604	1.94476
775.979	0.582642
779.354	1.71106
782.728	5.02045
786.103	5.8559
789.478	4.93414
792.853	8.38861
796.228	6.68848
799.602	11.1542
802.977	9.13556
806.352	12.6065
809.727	9.75641
813.102	12.965
816.477	10.47
819.851	13.5709
823.226	17.3629
826.601	20.6446
829.976	18.2142
833.351	18.7406
836.726	19.569
840.1	17.4332
843.475	16.7051
846.85	11.728
850.225	14.4261
853.6	14.5816
856.974	9.44299
860.349	13.8828
863.724	11.7444
867.099	13.3943
870.474	4.5058
873.848	10.9118
877.223	12.8397
880.598	7.89081
883.973	9.86462
887.348	13.2267
890.722	5.32648
894.097	5.94122
897.472	7.3446
900.847	1.53986
904.222	1.56196
907.597	6.18213
910.971	1.27728
914.346	2.54285
917.721	3.38934
921.096	0.171204
924.471	0.92865
927.846	3.76556
931.22	0.343079
934.595	0.165649
937.97	2.40314
941.345	7.98669
944.72	11.2001
948.095	20.7996
951.469	25.5832
954.844	43.448
958.219	59.5166
961.594	99.5962
964.969	151.442
968.343	214.403
971.718	299.704
975.093	373.892
978.468	410.228
981.843	373.186
985.217	262.502
988.592	159.474
991.967	96.3309
995.342	56.223
998.717	42.1901
1002.09	29.0308
1005.47	18.8589
1008.84	13.2191
1012.22	8.19721
1015.59	4.04895
1018.97	3.18024
1022.34	4.06811
1025.71	1.26276
1029.09	1.52771
1032.46	2.9021
1035.84	2.06464
1039.21	1.30023
1042.59	4.29034
1045.96	1.729
1049.34	2.49664
1052.71	6.66461
1056.09	4.57605
1059.46	6.24188
1062.84	7.24353
1066.21	6.25397
1069.59	10.8057
1072.96	15.1224
1076.34	11.4159
1079.71	9.26544
1083.09	15.418
1086.46	15.5896
1089.84	12.0049
1093.21	10.6252
1096.59	6.19043
1099.96	5.95227
1103.34	7.01227
1106.71	4.56348
1110.09	3.14667
1113.46	3.94714
1116.84	4.66345
1120.21	4.87091
1123.59	4.61804
1126.96	4.58685
1130.34	3.79419
1133.71	4.28027
1137.08	9.08606
1140.46	9.48163
1143.83	4.9054
1147.21	4.34839
1150.58	5.27344
1153.96	1.07092
1157.33	1.45221
1160.71	6.45447
1164.08	10.2629
1167.46	7.92712
1170.83	10.1481
1174.21	11.4701
1177.58	16.2046
1180.96	13.4191
1184.33	17.1816
1187.71	16.9597
1191.08	15.532
1194.46	10.8465
1197.83	9.57068
1201.21	10.303
1204.58	9.51209
1207.96	7.81513
1211.33	9.40619
1214.7	4.80774
1218.08	1.88562
1221.45	0.362427
1224.83	2.27832
1228.2	3.2702
1231.58	2.42346
1234.95	6.20587
1238.33	3.18829
1241.7	4.19519
1245.08	4.29028
1248.45	8.94013
1251.83	5.63269
1255.2	5.63202
1258.58	3.62616
1261.95	4.62
1265.33	3.23834
1268.7	1.84656
1272.08	4.44287
1275.45	0.132568
1278.83	1.94525
