Measurement: Raman, 532 nm, unoriented, Raman Data Processed
Mineral: Felsobanyaite
Rruff sample: R060239
Ideal chemistry: Al_4_(SO_4_)(OH)_10_4H_2_O
Locality: El Dragon mine, Potosi, Bolivia
Source: Michael Scott
Description: White, massive powder associated with light blue chalcomenite.
Raman shift (cm-1)	intensity
154.647	0
157.54	16.2969
160.433	25.166
163.325	38.8789
166.218	98.0117
169.111	186.084
172.003	193.24
174.896	250.969
177.789	355.541
180.681	398.543
183.574	472.1
186.467	539.08
189.36	554.664
192.252	622.584
195.145	644.125
198.038	577.988
200.93	428.94
203.823	367.619
206.716	184.635
209.608	156.844
212.501	71.0644
215.394	96.4766
218.287	289.652
221.179	311.969
224.072	389.195
226.965	239.248
229.857	156.184
232.75	109.762
235.643	150.078
238.536	111.234
241.428	78.3301
244.321	8.86523
247.214	1.56836
250.106	77.4453
252.999	55.002
255.892	111.053
258.784	127.918
261.677	135.701
264.57	172.602
267.462	292.619
270.355	301.07
273.248	280.076
276.141	394.725
279.033	440.086
281.926	495.66
284.819	494.779
287.711	551.717
290.604	616.879
293.497	557.818
296.389	429.219
299.282	403.764
302.175	326.315
305.068	333.66
307.96	420.295
310.853	440.193
313.746	407.543
316.638	264.707
319.531	263.553
322.424	82.5391
325.317	134.402
328.209	160.289
331.102	216.777
333.995	153.553
336.887	161.894
339.78	39.7832
342.673	22.8047
345.565	50.8633
348.458	27.3984
351.351	7.29297
354.243	32.1133
357.136	69.7305
360.029	138.486
362.922	74.8848
365.814	111.283
368.707	84.209
371.6	28.9434
374.492	145.731
377.385	126.773
380.278	135.975
383.171	130.033
386.063	254.277
388.956	218.582
391.849	181.602
394.741	160.139
397.634	102.543
400.527	4.4707
403.419	43.6738
406.312	51.1328
409.205	139.096
412.098	247.549
414.99	266.951
417.883	272.717
420.776	296.215
423.668	435.002
426.561	522.064
429.454	688.793
432.346	786.16
435.239	795.393
438.132	760
441.024	791.205
443.917	927.668
446.81	929.762
449.703	1102.26
452.595	1100.94
455.488	862.594
458.381	807.777
461.273	619.219
464.166	474.594
467.059	362.168
469.952	247.992
472.844	120.559
475.737	70.7578
478.63	84.9531
481.522	47.5039
484.415	64.5
487.308	90.8711
490.2	185.961
493.093	136.121
495.986	229.609
498.878	325.273
501.771	342.519
504.664	351.398
507.557	347.434
510.449	240.965
513.342	89.2031
516.235	119.769
519.127	2.88281
522.02	50.0938
524.913	18.2812
527.806	13.6719
530.698	44.0078
533.591	7.17188
536.484	100.406
539.376	44.0156
542.269	181.676
545.162	179.781
548.054	182.129
550.947	213.445
553.84	129.723
556.732	90.7891
559.625	229.684
562.518	262.59
565.411	292.363
568.303	257.324
571.196	370.684
574.089	448.055
576.981	507.297
579.874	639
582.767	767.977
585.659	838.324
588.552	938.981
591.445	1054.48
594.338	1117.61
597.23	1134.64
600.123	1087.84
603.016	1121.75
605.908	1180.96
608.801	1190.47
611.694	1117.61
614.587	1102.38
617.479	736.027
620.372	545.688
623.265	342.953
626.157	370.965
629.05	351.695
631.943	278.441
634.835	285.195
637.728	386.129
640.621	286.191
643.514	199.852
646.406	124.269
649.299	64.9688
652.192	117.41
655.084	199.402
657.977	137.078
660.87	68.6016
663.762	56.1992
666.655	51.3125
669.548	58.2422
672.441	14.7656
675.333	73.2969
678.226	66.9141
681.119	51.0312
684.011	103.168
686.904	14.6406
689.797	48.4258
692.689	56.3789
695.582	4.32031
698.475	51.7266
701.367	31.4922
704.26	4.21484
707.153	78.0391
710.046	159.609
712.938	86.7617
715.831	103.594
718.724	78.043
721.616	25.2969
724.509	0.789063
727.402	5.29297
730.294	49.8008
733.187	113.5
736.08	69.8398
738.973	57.7148
741.865	69.9062
744.758	59.4219
747.651	11.4297
750.543	30.6328
753.436	9.28906
756.329	10.625
759.221	4.02344
762.114	81.3086
765.007	191.758
767.9	125.644
770.792	200.356
773.685	188.231
776.578	274.133
779.47	213.961
782.363	274.898
785.256	285.594
788.149	111.129
791.041	176.312
793.934	266.965
796.827	240.926
799.719	187.973
802.612	277.25
805.505	256.473
808.397	250.715
811.29	167.109
814.183	286.773
817.076	309.992
819.968	313.898
822.861	267.59
825.754	219.656
828.646	235.883
831.539	256.293
834.432	327.055
837.324	425.668
840.217	396.723
843.11	460.484
846.003	338.168
848.895	184.332
851.788	228.148
854.681	298.898
857.573	240.234
860.466	232.801
863.359	164.086
866.251	164.008
869.144	136.074
872.037	99.6094
874.929	120.231
877.822	90.3359
880.715	41.4688
883.608	2.28516
886.5	7.85547
889.393	1.07812
892.286	17.3086
895.178	75.7266
898.071	61.3867
900.964	53.7539
903.856	43.8906
906.749	129.043
909.642	92.6211
912.535	19.8047
915.427	62.7734
918.32	52.582
921.213	101.371
924.105	154.012
926.998	97.8125
929.891	96.918
932.784	57.0234
935.676	10.0039
938.569	97.0117
941.462	124.559
944.354	269.055
947.247	348.168
950.14	374.863
953.032	735.375
955.925	887.672
958.818	1212.83
961.711	1617.39
964.603	2061.57
967.496	2607.39
970.389	3634.03
973.281	4776.4
976.174	6156.15
979.067	7390.56
981.959	7209.9
984.852	4430.81
987.745	2408.79
990.638	1240.7
993.53	784.269
996.423	522.519
999.316	412.348
1002.21	304.406
1005.1	265.504
1007.99	271.012
1010.89	236.238
1013.78	179.992
1016.67	84.7227
1019.57	203.394
1022.46	301.555
1025.35	237.012
1028.24	191.781
1031.13	78.8125
1034.03	39.2109
1036.92	74.3789
1039.81	0.804688
1042.71	39.7013
1045.6	177.883
1048.49	61.1094
1051.38	4.62109
1054.28	9.84375
1057.17	22.7188
1060.06	11.5508
1062.95	145.289
1065.85	125.113
1068.74	122.434
1071.63	169.219
1074.53	149.695
1077.42	197.871
1080.31	219.941
1083.2	111.438
1086.1	187.16
1088.99	58.2969
1091.88	46.2695
1094.78	170.586
1097.67	182.984
1100.56	382.191
1103.45	350.074
1106.35	283.859
1109.24	172.484
1112.13	217.746
1115.02	247.473
1117.92	224.152
1120.81	292.602
1123.7	250.539
1126.59	158.547
1129.49	284.457
1132.38	362.793
1135.27	453.562
1138.16	356.527
1141.06	247.434
1143.95	137.543
1146.84	83.9492
1149.74	57.918
1152.63	33.3555
1155.52	90.2695
1158.41	3.21875
1161.31	30.5469
1164.2	44.9492
1167.09	84.7891
1169.98	59.6758
1172.88	29.6914
1175.77	161.988
1178.66	133.543
1181.56	151.066
1184.45	10.6641
1187.34	59.8672
1190.23	31.2891
1193.13	151.391
1196.02	99.4648
1198.91	187.664
1201.81	177.973
1204.7	24.293
1207.59	29.9297
1210.48	114.047
1213.38	146.758
1216.27	132.684
1219.16	104.422
1222.05	177.367
1224.95	112.098
1227.84	138.039
1230.73	35.3828
1233.62	55.5117
1236.52	68.0391
1239.41	17.4375
1242.3	64.0039
1245.19	20.875
1248.09	108.738
1250.98	149.535
1253.87	77.4961
1256.77	29.082
1259.66	122.168
1262.55	141.898
1265.44	117.363
1268.34	44.9961
1271.23	142.82
1274.12	204.394
1277.02	229.363
1279.91	166.59
1282.8	118.41
1285.69	193.707
1288.59	173.297
1291.48	127.75
1294.37	120.875
1297.26	85.6289
1300.16	92.7578
1303.05	80.1562
