Measurement: Raman, 780 nm, unoriented, Raman Data Processed
Mineral: Felsobanyaite
Rruff sample: R060565
Ideal chemistry: Al_4_(SO_4_)(OH)_10_4H_2_O
Locality: near Weymouth, Dorset, England
Source: Michael Scott
Description: White consolidated powder
Raman shift (cm-1)	intensity
120.3	0
123.674	9.21039
127.049	0.637024
130.424	2.51453
133.799	0.986755
137.174	2.23438
140.549	6.59119
143.923	5.86737
147.298	19.6035
150.673	26.9986
154.048	36.9619
157.423	41.8786
160.798	45.0356
164.172	37.8833
167.547	27.3355
170.922	26.4137
174.297	25.0333
177.672	25.2157
181.046	23.9479
184.421	22.7435
187.796	21.9916
191.171	21.984
194.546	22.6563
197.921	18.2344
201.295	12.8023
204.67	10.167
208.045	10.1609
211.42	8.4794
214.795	6.23328
218.169	12.0077
221.544	17.5335
224.919	25.1003
228.294	21.8709
231.669	14.3822
235.043	8.64282
238.418	2.71359
241.793	0.974152
245.168	5.71905
248.543	1.43817
251.918	5.40582
255.292	10.3489
258.667	9.30786
262.042	8.13959
265.417	7.10211
268.792	8.75864
272.166	16.7838
275.541	20.9906
278.916	27.6172
282.291	31.0859
285.666	33.3892
289.041	33.2301
292.415	35.1733
295.79	36.3729
299.165	33.4613
302.54	30.1628
305.915	30.6814
309.289	36.9481
312.664	40.4927
316.039	29.8701
319.414	17.312
322.789	16.0703
326.164	18.0738
329.538	13.3598
332.913	14.5218
336.288	9.12149
339.663	8.24112
343.038	6.29981
346.413	1.47626
349.787	3.79434
353.162	0.821899
356.537	1.66928
359.912	0.120483
363.287	1.67722
366.661	6.67957
370.036	8.7056
373.411	8.61792
376.786	12.0771
380.161	7.98688
383.536	13.3561
386.91	15.5866
390.285	12.8055
393.66	12.3161
397.035	7.18362
400.41	3.29221
403.784	4.13599
407.159	3.38013
410.534	0.054779
413.909	4.59351
417.284	8.85586
420.659	15.0806
424.033	22.1804
427.408	31.5966
430.783	43.5443
434.158	57.462
437.533	71.8158
440.907	86.3713
444.282	102.023
447.657	110.014
451.032	118.978
454.407	118.123
457.781	97.0473
461.156	78.5416
464.531	57.2197
467.906	40.2503
471.281	26.7465
474.656	17.2355
478.031	10.9639
481.405	7.29712
484.78	6.00619
488.155	8.99734
491.53	9.23697
494.904	8.51849
498.279	14.0016
501.654	19.1238
505.029	20.9774
508.404	23.578
511.779	22.9198
515.153	15.3372
518.528	4.71481
521.903	1.9823
525.278	3.94128
528.653	1.75089
532.028	2.0173
535.402	1.05362
538.777	2.04981
542.152	7.75879
545.527	8.57623
548.902	10.9602
552.277	9.28259
555.651	14.6979
559.026	18.7815
562.401	22.8148
565.776	23.9415
569.151	32.1565
572.525	36.8457
575.9	47.7601
579.275	56.4484
582.65	60.0024
586.025	67.3218
589.399	77.7445
592.774	84.2625
596.149	91.6143
599.524	94.4005
602.899	96.8025
606.274	94.043
609.648	90.549
613.023	81.6131
616.398	71.1412
619.773	59.9603
623.148	52.2576
626.523	40.1348
629.897	32.1994
633.272	27.4534
636.647	18.7598
640.022	19.2653
643.397	17.0321
646.771	13.7295
650.146	15.4565
653.521	11.5228
656.896	8.52154
660.271	7.6781
663.645	4.54294
667.02	3.53595
670.395	2.91305
673.77	3.02567
677.145	1.67481
680.52	1.34244
683.894	0.009888
687.269	0.435852
690.644	0.961624
694.019	1.01266
697.394	1.23491
700.769	1.23569
704.143	0.807678
707.518	0.115707
710.893	0.265533
714.268	1.55073
717.643	2.48894
721.017	3.60399
724.392	0.964569
727.767	1.37173
731.142	2.2758
734.517	0.283051
737.891	1.52196
741.266	1.49536
744.641	0.632187
748.016	0.312454
751.391	4.63884
754.766	4.42795
758.14	3.7791
761.515	3.53088
764.89	3.90753
768.265	3.33128
771.64	2.57231
775.014	4.46822
778.389	2.74597
781.764	2.4951
785.139	4.07777
788.514	1.96631
791.889	4.00234
795.263	2.92708
798.638	4.64806
802.013	4.61325
805.388	2.68599
808.763	2.99841
812.138	3.32455
815.512	4.05806
818.887	1.55771
822.262	2.40646
825.637	4.28212
829.012	4.83098
832.386	3.45172
835.761	1.94548
839.136	3.50984
842.511	5.39722
845.886	7.00012
849.261	4.66545
852.635	4.36101
856.01	5.43047
859.385	5.12563
862.76	6.22699
866.135	2.71033
869.51	2.9451
872.884	1.35695
876.259	3.82706
879.634	3.01289
883.009	0.814682
886.384	0.539871
889.758	0.616348
893.133	0.483032
896.508	0.353455
899.883	0.019623
903.258	0.158722
906.632	0.916977
910.007	0.092468
913.382	0.529846
916.757	2.1359
920.132	1.96695
923.506	2.82167
926.881	4.99763
930.256	4.64572
933.631	5.75845
937.006	9.7928
940.381	13.0598
943.755	19.0023
947.13	31.7652
950.505	46.7779
953.88	63.7627
957.255	84.1422
960.63	102.861
964.004	122.869
967.379	143.862
970.754	195.399
974.129	247.79
977.504	340.856
980.879	502.771
984.253	410.482
987.628	162.787
991.003	69.0461
994.378	38.1032
997.753	26.746
1001.13	20.4293
1004.5	17.9941
1007.88	17.1304
1011.25	17.7205
1014.63	18.8854
1018	21.4921
1021.38	22.5371
1024.75	22.8471
1028.13	25.409
1031.5	23.9864
1034.88	16.7324
1038.25	14.2484
1041.62	9.53848
1045	5.49112
1048.38	1.63684
1051.75	0.761108
1055.12	0.57338
1058.5	0.049561
1061.87	0.499344
1065.25	2.91737
1068.62	0.221024
1072	0.907822
1075.37	2.0089
1078.75	2.67394
1082.12	5.60753
1085.5	7.44891
1088.87	11.1054
1092.25	9.00545
1095.62	11.2183
1099	8.88681
1102.37	8.1302
1105.75	10.209
1109.12	12.0544
1112.5	11.3585
1115.87	13.1932
1119.25	15.6757
1122.62	14.1665
1126	16.3955
1129.37	15.5877
1132.74	15.5042
1136.12	14.8095
1139.49	11.1939
1142.87	8.57507
1146.24	7.00893
1149.62	6.76259
1152.99	3.29773
1156.37	2.68098
1159.74	0.970474
1163.12	2.4304
1166.49	2.81331
1169.87	2.70802
1173.24	4.20935
1176.62	3.34965
1179.99	1.22192
1183.37	2.15929
1186.74	3.41136
1190.12	3.57896
1193.49	0.301315
1196.87	2.82884
1200.24	1.73914
1203.62	0.240812
1206.99	1.49001
1210.37	0.513962
1213.74	0.110641
1217.12	0.59993
1220.49	0.746658
1223.87	0.021988
1227.24	3.60768
1230.62	0.973129
1233.99	0.61322
1237.37	3.70181
1240.74	1.64735
1244.11	1.9928
1247.49	6.20019
1250.86	3.37683
1254.24	2.43424
1257.61	2.72789
1260.99	2.5323
1264.36	0.079544
1267.74	3.23224
1271.11	2.35049
1274.49	6.2299
1277.86	2.78499
1281.24	3.81335
1284.61	2.4218
