Measurement: Raman, 532 nm, unoriented, Raman Data Processed
Mineral: Fenaksite
Rruff sample: R080135
Ideal chemistry: KNaFe^2+^Si_4_O_10_
Locality: Yukspor Mountain, Khibiny Massif, Kola Peninsula, Russia
Source: Michael Scott
Description: Light yellow, transparent, elongated prismatic to platy crystals, associated with dark gray to colorless delhayelite (R070096), brown lamprophyllite, elongated blue aegerine, and grayish brown lomonosovite
Raman shift (cm-1)	intensity
115.114	0
118.489	10.7431
121.863	43.1791
125.238	69.1993
128.613	73.3021
131.988	65.3055
135.363	36.9296
138.737	14.3945
142.112	3.41042
145.487	7.91783
148.862	12.1519
152.237	20.7771
155.612	35.1483
158.986	50.6348
162.361	65.883
165.736	84.2933
169.111	110.567
172.486	113.13
175.86	66.679
179.235	21.469
182.61	1.37482
185.985	5.77324
189.36	1.54582
192.734	3.57768
196.109	1.50153
199.484	4.71197
202.859	3.30963
206.234	3.10239
209.608	6.75006
212.983	19.466
216.358	45.2
219.733	74.4782
223.108	112.761
226.483	161.742
229.857	196.366
233.232	169.441
236.607	102.348
239.982	51.1766
243.357	31.1942
246.732	34.8216
250.106	55.2512
253.481	92.5327
256.856	126.769
260.231	158.504
263.606	189.882
266.98	222.396
270.355	245.923
273.73	256.372
277.105	231.447
280.48	217.246
283.854	246.483
287.229	292.582
290.604	284.452
293.979	183.165
297.354	89.2838
300.729	35.5855
304.103	9.13713
307.478	0.771072
310.853	2.88805
314.228	10.2512
317.603	25.9881
320.978	42.5414
324.352	66.2049
327.727	74.7382
331.102	56.2239
334.477	23.3282
337.852	4.82074
341.226	6.36301
344.601	8.02235
347.976	4.50899
351.351	3.69553
354.726	17.3438
358.1	32.3656
361.475	50.9262
364.85	76.7297
368.225	109.156
371.6	136.522
374.974	127.037
378.349	112.04
381.724	118.716
385.099	131.226
388.474	127.984
391.849	87.625
395.223	46.8968
398.598	25.6143
401.973	19.5069
405.348	28.9694
408.723	53.0703
412.098	84.4498
415.472	108.463
418.847	124.265
422.222	143.284
425.597	141.548
428.972	134.746
432.346	153.468
435.721	201.989
439.096	281.527
442.471	333.623
445.846	242.663
449.221	126.69
452.595	84.0189
455.97	85.6788
459.345	108.717
462.72	107.976
466.095	58.0437
469.469	13.4494
472.844	2.83511
476.219	6.72435
479.594	1.62453
482.969	10.5524
486.344	30.5078
489.718	57.1604
493.093	75.158
496.468	91.3036
499.843	109.718
503.218	153.164
506.592	194.375
509.967	207.927
513.342	163.046
516.717	135.87
520.092	119.387
523.466	75.933
526.841	33.8802
530.216	10.5153
533.591	3.23256
536.966	2.14271
540.341	3.5161
543.715	0.750443
547.09	1.04596
550.465	3.04759
553.84	7.41359
557.215	11.5913
560.59	21.8947
563.964	30.5599
567.339	47.3309
570.714	76.3124
574.089	128.434
577.464	232.71
580.838	449.682
584.213	758.008
587.588	1114.55
590.963	1625.94
594.338	2216.63
597.712	2264.47
601.087	1311.89
604.462	613.319
607.837	316.214
611.212	181.054
614.587	112.085
617.961	69.7542
621.336	44.5142
624.711	28.0651
628.086	17.1741
631.461	9.44434
634.835	4.49905
638.21	0.164032
641.585	1.4415
644.96	1.21758
648.335	2.01729
651.71	5.22171
655.084	16.3255
658.459	32.0188
661.834	57.1393
665.209	110.612
668.584	192.667
671.958	288.644
675.333	406.594
678.708	558.317
682.083	627.533
685.458	438.45
688.832	247.965
692.207	176.22
695.582	169.005
698.957	189.321
702.332	188.538
705.707	123.839
709.081	60.2584
712.456	26.8277
715.831	13.8188
719.206	7.74763
722.581	0.824142
725.955	0.027679
729.33	0.037323
732.705	0.001053
736.08	1.1053
739.455	1.60391
742.83	1.58337
746.204	1.45116
749.579	2.87796
752.954	3.92316
756.329	3.8988
759.704	6.19434
763.078	9.09642
766.453	17.7744
769.828	34.8382
773.203	59.7057
776.578	93.2324
779.952	142.058
783.327	195.921
786.702	163.312
790.077	86.8993
793.452	54.7054
796.827	38.0299
800.201	20.9195
803.576	11.6341
806.951	7.48494
810.326	3.51523
813.701	1.76131
817.076	2.33049
820.45	1.62192
823.825	1.11826
827.2	1.37434
830.575	1.46919
833.95	1.41092
837.324	2.76796
840.699	2.73099
844.074	2.9913
847.449	1.12743
850.824	2.63686
854.198	2.96367
857.573	4.56082
860.948	4.55797
864.323	3.73943
867.698	3.05832
871.073	4.10245
874.447	1.70348
877.822	3.17831
881.197	4.6517
884.572	4.76186
887.947	3.73203
891.322	3.49861
894.696	2.58711
898.071	3.79189
901.446	2.29584
904.821	4.20348
908.196	1.96934
911.57	0.133392
914.945	2.31976
918.32	2.54869
921.695	2.57076
925.07	2.83958
928.444	2.27188
931.819	0.723328
935.194	0.201569
938.569	0.444977
941.944	0.955872
945.318	0.967499
948.693	1.26352
952.068	0.38562
955.443	1.66757
958.818	0.683777
962.193	4.06372
965.567	11.0284
968.942	16.4246
972.317	24.9925
975.692	31.6802
979.067	30.72
982.442	31.1504
985.816	42.1236
989.191	64.9953
992.566	100.243
995.941	144.172
999.316	191.943
1002.69	199.128
1006.07	157.725
1009.44	129.704
1012.82	123.36
1016.19	145.473
1019.57	144.76
1022.94	104.384
1026.31	89.3723
1029.69	86.2847
1033.06	62.7216
1036.44	37.3262
1039.81	14.7561
1043.19	5.69757
1046.56	0.420502
1049.94	1.78204
1053.31	2.90408
1056.69	1.02182
1060.06	3.65991
1063.44	8.65305
1066.81	22.9475
1070.19	38.9315
1073.56	60.8754
1076.94	91.3106
1080.31	117.659
1083.69	141.31
1087.06	171.648
1090.44	230.965
1093.81	349.759
1097.18	579.459
1100.56	921.467
1103.93	1335.2
1107.31	1879.57
1110.68	2072.57
1114.06	1306.89
1117.43	675.155
1120.81	417.522
1124.18	300.841
1127.56	205.393
1130.93	124.109
1134.31	73.9919
1137.68	41.856
1141.06	27.1901
1144.43	15.8041
1147.81	10.2663
1151.18	4.17657
1154.56	1.27112
1157.93	1.02618
1161.31	1.27893
1164.68	0.017731
1168.06	0.7547
1171.43	0.299042
1174.81	0.636475
1178.18	1.392
1181.56	0.458099
1184.93	1.01492
1188.31	0.991638
1191.68	1.8016
1195.06	0.164673
1198.43	1.03891
1201.81	3.51123
1205.18	1.20514
1208.55	1.67447
1211.93	0.993225
1215.3	2.24866
1218.68	3.19006
1222.05	1.98703
1225.43	2.0846
1228.8	2.64703
1232.18	1.71347
1235.55	2.87942
1238.93	2.69192
1242.3	1.34424
1245.68	1.62442
1249.05	3.18295
1252.43	2.85892
1255.8	0.463959
1259.18	2.37463
1262.55	2.56311
1265.93	2.4068
1269.3	1.76611
1272.68	2.94171
1276.05	0.6698
1279.42	2.76459
1282.8	1.11948
1286.17	0.839844
1289.55	1.62872
1292.92	0.098969
