Measurement: Raman, 780 nm, unoriented, Raman Data Processed
Mineral: Fenaksite
Rruff sample: R080135
Ideal chemistry: KNaFe^2+^Si_4_O_10_
Locality: Yukspor Mountain, Khibiny Massif, Kola Peninsula, Russia
Source: Michael Scott
Description: Light yellow, transparent, elongated prismatic to platy crystals, associated with dark gray to colorless delhayelite (R070096), brown lamprophyllite, elongated blue aegerine, and grayish brown lomonosovite
Raman shift (cm-1)	intensity
114.996	0
118.371	9.59163
121.746	26.9524
125.121	43.8722
128.496	53.3532
131.87	40.4724
135.245	24.2523
138.62	7.19161
141.995	1.40067
145.37	1.04652
148.744	3.62828
152.119	6.56319
155.494	8.47476
158.869	19.637
162.244	28.445
165.619	29.3879
168.994	22.749
172.368	16.0435
175.743	6.34
179.118	0.729736
182.493	4.10022
185.868	0.52803
189.242	3.06072
192.617	9.33562
195.992	10.462
199.367	7.99829
202.742	12.3674
206.117	13.0805
209.491	18.4286
212.866	17.6053
216.241	28.0471
219.616	45.7687
222.991	71.2411
226.365	103.669
229.74	130.085
233.115	123.062
236.49	86.847
239.865	51.9055
243.239	32.354
246.614	26.2411
249.989	30.873
253.364	38.749
256.739	55.0899
260.114	72.2073
263.488	88.7393
266.863	111.686
270.238	125.933
273.613	128.704
276.988	97.5672
280.363	77.6144
283.737	77.0817
287.112	82.8188
290.487	74.6985
293.862	50.7407
297.237	22.4727
300.611	6.23584
303.986	0.036858
307.361	0.790268
310.736	0.164398
314.111	0.878227
317.486	9.21635
320.86	21.9453
324.235	33.6663
327.61	37.2567
330.985	28.5676
334.36	10.1712
337.734	1.53897
341.109	2.2356
344.484	1.29655
347.859	2.38625
351.234	1.08211
354.608	2.71973
357.983	3.55791
361.358	8.40099
364.733	17.0568
368.108	20.1986
371.483	26.6126
374.857	29.1429
378.232	32.7738
381.607	42.3856
384.982	51.3171
388.357	52.7717
391.731	38.1634
395.106	22.7938
398.481	10.5647
401.856	2.91468
405.231	1.78788
408.606	3.02669
411.98	10.4774
415.355	12.9898
418.73	16.147
422.105	16.7114
425.48	15.5791
428.854	13.8728
432.229	18.9355
435.604	28.5215
438.979	35.7935
442.354	38.2703
445.729	25.7918
449.103	12.843
452.478	11.0473
455.853	15.1172
459.228	19.4097
462.603	20.0363
465.978	10.5263
469.352	2.36395
472.727	1.46978
476.102	0.083115
479.477	2.77499
482.852	4.61373
486.226	14.3598
489.601	21.757
492.976	24.9887
496.351	27.4901
499.726	32.8027
503.101	42.2992
506.475	53.7084
509.85	60.678
513.225	46.8508
516.6	37.4153
519.975	35.4306
523.349	22.8608
526.724	10.2424
530.099	5.04391
533.474	0.751835
536.849	0.291763
540.223	1.66448
543.598	0.380615
546.973	0.976719
550.348	1.2355
553.723	0.575806
557.098	4.21638
560.472	5.16533
563.847	6.10321
567.222	10.5357
570.597	14.41
573.972	25.1855
577.346	47.8821
580.721	84.113
584.096	129.166
587.471	195.586
590.846	291.235
594.221	400.285
597.596	396.083
600.97	235.611
604.345	113.726
607.72	60.1459
611.095	36.5137
614.47	22.3605
617.844	13.8889
621.219	10.5321
624.594	6.36446
627.969	3.66972
631.344	1.90915
634.718	0.634251
638.093	0.239697
641.468	0.866249
644.843	1.21048
648.218	1.13294
651.592	2.0136
654.967	1.59946
658.342	2.36586
661.717	13.5741
665.092	19.5409
668.467	31.5836
671.841	45.4802
675.216	64.7547
678.591	86.5003
681.966	90.4118
685.341	65.8731
688.716	39.3435
692.09	25.2483
695.465	27.8974
698.84	27.369
702.215	22.2656
705.59	14.4648
708.965	6.7216
712.339	3.04823
715.714	2.24247
719.089	1.40026
722.464	0.55714
725.839	0.676823
729.213	0.153084
732.588	0.853138
735.963	0.496616
739.338	0.019974
742.713	0.709293
746.087	0.40583
749.462	0.326118
752.837	1.07135
756.212	0.80434
759.587	1.86521
762.962	3.09159
766.336	4.34643
769.711	4.47625
773.086	10.7191
776.461	12.2792
779.836	20.7091
783.21	28.8003
786.585	23.0604
789.96	13.7417
793.335	11.0838
796.71	8.60101
800.085	6.41711
803.459	4.1337
806.834	3.99527
810.209	2.3558
813.584	2.73948
816.959	3.27761
820.333	1.99585
823.708	2.71194
827.083	3.12176
830.458	2.8096
833.833	4.1926
837.208	6.13018
840.582	3.83645
843.957	3.72856
847.332	4.44243
850.707	3.79711
854.082	4.56228
857.457	4.10252
860.831	7.29287
864.206	4.7482
867.581	4.29066
870.956	4.5135
874.331	4.79966
877.705	5.15778
881.08	3.6173
884.455	3.1374
887.83	3.22277
891.205	3.12731
894.58	3.50731
897.954	1.70883
901.329	2.44407
904.704	1.81592
908.079	1.5325
911.454	1.77307
914.828	2.11078
918.203	0.569801
921.578	-0.0834814
924.953	0.435126
928.328	0.365673
931.702	0.440029
935.077	0.019581
938.452	2.05307
941.827	0.336029
945.202	0.612274
948.577	1.41034
951.951	2.64313
955.326	1.91194
958.701	2.0682
962.076	0.867569
965.451	1.46837
968.826	4.18509
972.2	6.75029
975.575	5.18464
978.95	2.43478
982.325	5.01392
985.7	5.90924
989.074	11.8459
992.449	14.328
995.824	20.4042
999.199	23.0929
1002.57	26.3209
1005.95	24.9264
1009.32	19.6721
1012.7	18.5585
1016.07	20.3709
1019.45	18.6374
1022.82	15.9667
1026.2	19.4714
1029.57	15.699
1032.95	14.0857
1036.32	10.045
1039.7	6.6334
1043.07	2.97035
1046.45	1.09351
1049.82	0.882538
1053.2	1.2466
1056.57	2.54677
1059.95	1.63067
1063.32	0.953384
1066.69	0.632488
1070.07	3.97382
1073.44	7.89611
1076.82	7.92962
1080.19	15.9524
1083.57	18.8364
1086.94	19.6537
1090.32	24.5232
1093.69	40.1347
1097.07	62.7141
1100.44	99.6983
1103.82	145.266
1107.19	195.373
1110.57	201.939
1113.94	125.838
1117.32	67.8935
1120.69	39.9748
1124.07	30.9278
1127.44	21.571
1130.82	10.0442
1134.19	5.84187
1137.57	2.07857
1140.94	2.98435
1144.32	1.03329
1147.69	0.091715
1151.07	0.032389
1154.44	0.143566
1157.82	0.58952
1161.19	3.11565
1164.57	1.19631
1167.94	1.66788
1171.32	1.99054
1174.69	1.59897
1178.06	2.41714
1181.44	0.317816
1184.81	0.705919
1188.19	1.12471
1191.56	1.42593
1194.94	3.02865
1198.31	3.596
1201.69	4.04402
1205.06	2.41099
1208.44	0.662611
1211.81	0.159332
1215.19	4.02605
1218.56	3.18078
1221.94	1.15627
1225.31	3.61789
1228.69	0.376627
1232.06	1.3405
1235.44	1.90692
1238.81	0.843904
1242.19	2.80562
1245.56	5.06983
1248.93	1.91003
1252.31	1.00271
1255.68	0.867439
1259.06	2.46878
1262.43	1.2996
1265.81	4.00611
1269.18	1.6062
1272.56	0.009499
1275.93	2.06438
1279.31	1.61689
