Measurement: Raman, 532 nm, unoriented, Raman Data Processed
Mineral: Ferberite
Rruff sample: R050090
Ideal chemistry: Fe^2+^WO_4_
Locality: Yaogangxian mine, Cheng Zhu City, South Hunan, China
Source: Rock Currier
Description: Dark gray tabular crystal
Measured chemistry: (Fe^2+^_0.56_Mn_0.44_)W_1.00_O_4_
Raman shift (cm-1)	intensity
139.798	0
143.173	3.65886
146.548	31.724
149.923	34.483
153.298	13.486
156.672	16.3604
160.047	16.3232
163.422	29.5733
166.797	27.2694
170.172	40.445
173.547	40.2678
176.921	28.7654
180.296	35.1504
183.671	27.117
187.046	32.0243
190.421	50.4303
193.796	65.2227
197.17	82.967
200.545	121.023
203.92	168.05
207.295	190.337
210.669	158.419
214.044	87.4705
217.419	51.3715
220.794	16.3459
224.169	18.2716
227.544	28.7303
230.918	8.61674
234.293	14.5279
237.668	1.01862
241.043	23.6376
244.418	12.4113
247.792	17.7932
251.167	11.3833
254.542	30.6416
257.917	40.0333
261.292	61.3541
264.667	66.6123
268.041	50.8781
271.416	33.1549
274.791	13.8473
278.166	8.86012
281.541	2.23857
284.916	15.794
288.29	6.43898
291.665	7.93643
295.04	12.5236
298.415	19.0367
301.79	15.7199
305.164	51.1016
308.539	65.0033
311.914	84.2935
315.289	145.59
318.664	232.866
322.038	313.899
325.413	404.969
328.788	432.574
332.163	345.817
335.538	232.225
338.913	167.696
342.287	119.59
345.662	76.5897
349.037	44.3385
352.412	46.4383
355.787	46.8109
359.162	8.45837
362.536	43.0424
365.911	12.5834
369.286	18.3012
372.661	17.4853
376.036	13.4951
379.411	6.36205
382.785	31.0845
386.16	39.2244
389.535	35.8902
392.91	58.8691
396.284	86.6217
399.659	116.388
403.034	70.6771
406.409	35.0806
409.784	19.1266
413.159	6.41287
416.533	26.3362
419.908	11.9684
423.283	9.49416
426.658	15.1462
430.033	11.1717
433.408	16.9063
436.782	10.7957
440.157	11.9774
443.532	6.32097
446.907	15.312
450.282	29.1318
453.656	36.7106
457.031	33.0277
460.406	51.7022
463.781	3.81773
467.156	19.2107
470.531	10.8017
473.905	24.6868
477.28	6.64136
480.655	19.5246
484.03	21.3716
487.405	14.4963
490.779	10.2402
494.154	24.8255
497.529	13.6095
500.904	28.2271
504.279	25.9105
507.654	29.5451
511.028	7.63617
514.403	20.6361
517.778	32.3659
521.153	11.5361
524.528	51.0756
527.903	39.1228
531.277	57.9855
534.652	60.1414
538.027	62.636
541.402	71.3162
544.777	57.8302
548.151	45.4654
551.526	59.0307
554.901	22.7767
558.276	16.8792
561.651	0.328552
565.025	6.05067
568.4	6.97855
571.775	6.07678
575.15	33.7266
578.525	9.17818
581.899	7.48123
585.274	29.5465
588.649	13.1186
592.024	11.3653
595.399	7.1274
598.774	8.99942
602.149	1.00998
605.523	10.3228
608.898	4.24045
612.273	30.8657
615.648	30.8058
619.023	12.0922
622.397	11.2487
625.772	13.6847
629.147	17.7617
632.522	31.1834
635.897	21.7338
639.271	35.7889
642.646	22.3718
646.021	27.7748
649.396	15.0556
652.771	12.6091
656.146	34.8806
659.52	29.6782
662.895	54.2101
666.27	62.4059
669.645	80.9136
673.02	94.6307
676.394	129.813
679.769	185.436
683.144	226.127
686.519	243.026
689.894	269.517
693.269	283.571
696.643	259.935
700.018	232.922
703.393	186.865
706.768	150.071
710.143	91.502
713.518	86.7361
716.892	64.8125
720.267	30.1372
723.642	18.5527
727.017	22.5855
730.391	15.9139
733.766	1.09482
737.141	5.95868
740.516	12.8393
743.891	5.61658
747.266	3.6669
750.64	11.6799
754.015	1.5657
757.39	9.25436
760.765	9.44315
764.14	17.1271
767.515	31.4593
770.889	34.267
774.264	27.4075
777.639	31.1102
781.014	27.9051
784.389	34.4149
787.764	13.5039
791.138	12.9785
794.513	11.3842
797.888	6.65595
801.263	2.35242
804.638	19.6455
808.012	10.1093
811.387	7.82617
814.762	5.9032
818.137	12.5797
821.512	4.55151
824.886	15.1757
828.261	11.7598
831.636	20.4319
835.011	21.7264
838.386	44.1723
841.761	38.5193
845.135	67.765
848.51	80.1682
851.885	129.083
855.26	188.912
858.635	291.258
862.01	390.94
865.384	588.93
868.759	851.339
872.134	1206.96
875.509	1608.8
878.884	1905.47
882.258	1786.09
885.633	1368.82
889.008	875.946
892.383	563.101
895.758	342.877
899.133	204.291
902.507	121.354
905.882	79.5657
909.257	46.5218
912.632	38.5782
916.007	33.4871
919.381	34.3968
922.756	1.56094
926.131	28.6456
929.506	17.6428
932.881	1.13879
936.255	0.729431
939.63	5.01462
943.005	13.6526
946.38	6.59283
949.755	14.5911
953.13	12.1981
956.504	0.644531
959.879	6.01123
963.254	5.59894
966.629	15.0733
970.004	0.775269
973.379	5.83324
976.753	14.4794
980.128	7.92795
983.503	16.2963
986.878	4.89142
990.253	3.71825
993.627	9.52676
997.002	3.09946
1000.38	14.8666
1003.75	3.48578
1007.13	3.85628
1010.5	4.27101
1013.88	14.1562
1017.25	14.5447
1020.63	7.65102
1024	33.7374
1027.38	19.354
1030.75	39.1828
1034.12	12.6601
1037.5	40.2269
1040.88	14.3517
1044.25	30.2666
1047.62	20.6397
1051	40.9081
1054.37	15.8863
1057.75	48.7082
1061.12	31.9579
1064.5	36.1784
1067.87	23.8132
1071.25	12.1158
1074.62	42.4946
1078	30.8913
1081.37	26.2842
1084.75	23.6191
1088.12	23.4414
1091.5	6.75659
1094.87	4.82825
1098.25	4.60126
1101.62	19.0177
1105	18.4905
1108.37	24.8276
1111.75	34.9324
1115.12	2.09769
1118.5	12.5605
1121.87	28.748
1125.24	21.614
1128.62	2.10106
1131.99	30.2487
1135.37	21.5588
1138.74	14.9543
1142.12	24.9884
1145.49	43.1446
1148.87	23.0618
1152.24	22.2902
1155.62	7.32849
1158.99	24.9589
1162.37	8.09605
1165.74	15.4299
1169.12	8.70683
1172.49	2.56256
1175.87	2.48473
1179.24	6.27829
1182.62	17.0844
1185.99	14.6895
1189.37	12.3772
1192.74	19.0596
1196.12	8.85176
1199.49	12.1834
1202.87	20.6924
1206.24	14.0148
1209.62	7.23564
1212.99	6.37189
1216.37	14.0592
1219.74	24.012
1223.12	28.173
1226.49	15.631
1229.87	20.1995
1233.24	16.3022
1236.61	22.0754
1239.99	25.1386
1243.36	26.8146
1246.74	15.443
1250.11	25.1739
1253.49	23.5184
1256.86	23.5589
1260.24	1.46181
1263.61	14.9383
1266.99	14.4869
1270.36	22.1089
1273.74	5.32077
1277.11	18.1714
1280.49	3.01366
1283.86	29.0134
1287.24	7.80203
1290.61	5.08673
1293.99	13.9837
1297.36	6.37602
1300.74	0.348831
