Measurement: Raman, 532 nm, unoriented, Raman Data Processed
Mineral: Ferberite
Rruff sample: R050632
Ideal chemistry: Fe^2+^WO_4_
Locality: Chance mine, Boulder, Colorado, USA
Source: University of Arizona Mineral Museum
Description: Dark brown rectangular prismatic crystals
Measured chemistry: Fe^2+^_1.00_WO_4_
Raman shift (cm-1)	intensity
191.026	0
193.919	6.00401
196.812	7.4749
199.704	7.35342
202.597	17.8481
205.49	20.4269
208.382	31.1332
211.275	34.3117
214.168	28.6581
217.06	22.1148
219.953	14.5939
222.846	2.73891
225.739	3.19163
228.631	4.68078
231.524	0.832058
234.417	3.22138
237.309	1.14239
240.202	3.63679
243.095	1.81437
245.988	0.147713
248.88	3.76649
251.773	5.09026
254.666	5.89126
257.558	10.5067
260.451	11.4363
263.344	18.5378
266.236	21.3573
269.129	25.699
272.022	27.3781
274.915	19.3263
277.807	16.0052
280.7	10.7322
283.593	5.48491
286.485	4.82659
289.378	2.38781
292.271	3.84948
295.163	0.63166
298.056	6.37157
300.949	2.37816
303.842	7.67413
306.734	7.60968
309.627	6.50776
312.52	8.40305
315.412	14.2715
318.305	18.776
321.198	21.8119
324.091	36.3268
326.983	39.0353
329.876	42.5031
332.769	34.4778
335.661	24.0432
338.554	19.0635
341.447	15.7522
344.339	6.01492
347.232	7.8704
350.125	10.0536
353.018	7.73382
355.91	2.45737
358.803	4.52351
361.696	1.71449
364.588	4.57276
367.481	6.21827
370.374	4.62465
373.267	0.736828
376.159	1.26364
379.052	4.17443
381.945	4.2314
384.837	4.38531
387.73	7.22709
390.623	12.4954
393.515	14.6302
396.408	17.3222
399.301	24.2747
402.194	22.6528
405.086	15.1901
407.979	5.13351
410.872	7.34664
413.764	3.3556
416.657	0.920341
419.55	3.71486
422.442	3.10086
425.335	0.354706
428.228	1.16745
431.121	1.43076
434.013	0.35865
436.906	3.76192
439.799	0.717377
442.691	0.214203
445.584	3.75605
448.477	0.011528
451.37	1.30216
454.262	1.90878
457.155	2.72994
460.048	4.8466
462.94	3.81337
465.833	1.26596
468.726	7.47721
471.618	5.49265
474.511	5.93556
477.404	3.17135
480.297	8.09666
483.189	5.186
486.082	7.54202
488.975	8.07229
491.867	7.6862
494.76	9.12611
497.653	11.6718
500.546	12.8157
503.438	17.0733
506.331	17.4587
509.224	22.4574
512.116	21.7511
515.009	23.6765
517.902	25.1552
520.794	23.7692
523.687	20.6008
526.58	24.2954
529.472	26.6584
532.365	25.8475
535.258	26.5631
538.151	25.8468
541.043	20.426
543.936	17.7373
546.829	18.7994
549.721	11.0061
552.614	13.0383
555.507	12.795
558.399	7.84248
561.292	6.73032
564.185	5.23393
567.078	5.32367
569.97	7.50694
572.863	3.02197
575.756	3.17006
578.649	2.45244
581.541	4.83141
584.434	4.36934
587.327	2.80427
590.219	2.92203
593.112	2.87763
596.005	0.490654
598.897	0.906944
601.79	3.85345
604.683	1.36524
607.576	3.90632
610.468	2.95151
613.361	2.48222
616.254	0.3162
619.146	1.48238
622.039	0.016312
624.932	0.756901
627.824	0.245964
630.717	0.767078
633.61	0.614727
636.503	2.18571
639.395	0.545353
642.288	2.08818
645.181	0.448105
648.073	0.560627
650.966	3.89012
653.859	2.56392
656.751	8.50843
659.644	9.56487
662.537	11.5185
665.43	12.6297
668.322	15.228
671.215	19.3533
674.108	25.8223
677	35.4944
679.893	42.4122
682.786	52.0246
685.678	60.147
688.571	62.7448
691.464	57.2241
694.357	53.582
697.249	41.9661
700.142	36.055
703.035	24.4377
705.927	22.9166
708.82	18.3711
711.713	10.6914
714.606	9.18033
717.498	7.39288
720.391	4.97138
723.284	6.95638
726.176	1.89281
729.069	3.52309
731.962	0.991089
734.855	1.08627
737.747	2.54374
740.64	2.42755
743.533	0.04541
746.425	2.36063
749.318	2.32658
752.211	7.28815
755.103	13.1885
757.996	10.0379
760.889	14.6732
763.782	20.0704
766.674	19.5681
769.567	19.3558
772.46	15.1723
775.352	19.2308
778.245	14.8737
781.138	12.9516
784.03	12.1548
786.923	6.96729
789.816	9.07688
792.709	6.00321
795.601	4.66495
798.494	0.158745
801.387	1.57035
804.279	0.230484
807.172	1.1184
810.065	0.817421
812.957	2.05039
815.85	0.592674
818.743	3.57991
821.636	3.57222
824.528	9.00663
827.421	7.75137
830.314	6.14082
833.206	15.4321
836.099	18.9495
838.992	24.8944
841.885	34.7426
844.777	48.3942
847.67	62.9066
850.563	81.086
853.455	107.109
856.348	148.432
859.241	195.486
862.134	273.28
865.026	385.386
867.919	530.223
870.812	696.981
873.704	867.303
876.597	953.731
879.49	879.611
882.382	667.628
885.275	469.025
888.168	312.289
891.061	209.222
893.953	138.219
896.846	99.6826
899.739	68.6095
902.631	48.9044
905.524	33.9322
908.417	22.8333
911.309	15.1487
914.202	12.3958
917.095	8.70961
919.987	3.8301
922.88	2.29417
925.773	0.337585
928.666	1.0033
931.558	2.04342
934.451	0.078659
937.344	0.239273
940.236	1.9496
943.129	2.48474
946.022	0.553265
948.915	4.39911
951.807	4.04088
954.7	3.28589
957.593	3.1254
960.485	3.71991
963.378	0.981503
966.271	0.615814
969.163	3.27921
972.056	0.130833
974.949	2.52429
977.842	1.31913
980.734	1.13259
983.627	1.51963
986.52	4.79188
989.412	0.666687
992.305	0.470097
995.198	5.54745
998.091	3.29499
1000.98	2.11022
1003.88	3.67713
1006.77	4.5742
1009.66	3.97053
1012.55	3.26836
1015.45	3.91353
1018.34	3.99376
1021.23	4.78547
1024.12	5.80618
1027.02	3.81802
1029.91	4.71914
1032.8	6.60916
1035.7	6.32995
1038.59	4.76115
1041.48	5.22519
1044.37	4.1349
1047.27	6.67206
1050.16	7.58469
1053.05	6.74702
1055.94	4.06845
1058.84	3.54472
1061.73	3.23687
1064.62	3.73008
1067.52	6.99197
1070.41	7.62851
1073.3	5.28976
1076.19	3.16206
1079.09	3.55232
1081.98	0.601875
1084.87	2.16773
1087.76	4.05822
1090.66	5.94972
1093.55	3.28128
1096.44	3.3014
1099.34	2.2767
1102.23	2.02032
1105.12	4.60158
1108.01	1.03643
1110.91	2.48931
1113.8	2.93372
1116.69	2.48843
1119.58	0.891163
1122.48	1.02448
1125.37	3.59679
1128.26	1.78316
1131.15	3.44616
1134.05	4.82099
1136.94	2.60769
1139.83	0.823566
1142.73	2.08618
1145.62	0.684368
1148.51	1.00004
1151.4	0.759403
1154.3	0.042896
1157.19	1.71737
1160.08	1.06431
1162.97	1.17352
1165.87	2.88664
1168.76	0.367134
1171.65	3.14154
1174.55	3.01414
1177.44	3.62
1180.33	1.22018
1183.22	1.07804
1186.12	3.70486
1189.01	1.69685
1191.9	3.03875
1194.79	4.56575
1197.69	2.89591
1200.58	0.358196
1203.47	5.46462
1206.37	3.3451
1209.26	1.02427
1212.15	7.29298
1215.04	2.13885
1217.94	0.528732
1220.83	2.14593
1223.72	6.86319
1226.61	4.83681
1229.51	1.50711
1232.4	4.38172
1235.29	4.54406
1238.18	4.05136
1241.08	3.12436
1243.97	3.81139
1246.86	1.58612
1249.76	1.86063
1252.65	4.21624
1255.54	2.16922
1258.43	1.07823
1261.33	1.95498
1264.22	5.24082
1267.11	5.30519
1270.01	2.404
1272.9	1.80932
1275.79	2.20202
1278.68	2.41245
1281.58	3.79102
1284.47	2.9217
1287.36	0.455494
1290.25	2.6515
1293.15	1.73141
1296.04	0.561447
1298.93	1.20092
1301.82	0
