Measurement: Raman, 514 nm, unoriented, Raman Data Processed
Mineral: Ferberite
Rruff sample: R050090
Ideal chemistry: Fe^2+^WO_4_
Locality: Yaogangxian mine, Cheng Zhu City, South Hunan, China
Source: Rock Currier
Description: Dark gray tabular crystal
Measured chemistry: (Fe^2+^_0.56_Mn_0.44_)W_1.00_O_4_
Raman shift (cm-1)	intensity
146.172	0
150.327	21.064
154.48	358.863
158.63	11.968
162.779	287.176
166.926	167.983
171.07	183.87
175.213	71.067
179.354	157.578
183.493	289.098
187.63	576.96
191.765	894.141
195.898	1554.75
200.029	2623.33
204.158	3693.83
208.285	3915.73
212.41	2443.06
216.533	1398.74
220.654	660.223
224.773	278.247
228.891	183.071
233.006	150.168
237.119	11.778
241.231	127.745
245.34	35.409
249.448	52.081
253.553	215.673
257.657	362.985
261.758	446.99
265.858	363.697
269.956	139.217
274.052	96.54
278.146	9.634
282.237	32.698
286.327	18.234
290.416	100.447
294.502	339.797
298.586	495.76
302.668	809.634
306.749	1299.85
310.827	2146.92
314.903	3259.88
318.978	4968.98
323.051	6727.78
327.121	7867.03
331.19	7039.95
335.257	5820.92
339.322	4270.79
343.385	3191.23
347.446	2324.59
351.505	1755.93
355.563	1325.3
359.618	1277.22
363.672	891.906
367.723	713.944
371.773	634.442
375.821	496.337
379.866	478.977
383.91	352.981
387.952	387.788
391.992	335.08
396.031	402.266
400.067	506.982
404.101	440.704
408.134	259.244
412.165	245.43
416.193	124.924
420.22	197.229
424.245	218.215
428.268	228.455
432.289	116.89
436.309	179.741
440.326	256.273
444.342	322.057
448.355	278.176
452.367	281.662
456.377	283.584
460.385	303.323
464.391	242.6
468.395	228.2
472.398	100.44
476.398	116.283
480.397	61.562
484.394	192.39
488.389	261.842
492.382	230.905
496.373	145.605
500.362	242.959
504.349	72.017
508.335	171.745
512.319	353.149
516.3	218.251
520.28	218.073
524.259	359.634
528.235	342.941
532.209	519.007
536.182	404.834
540.152	373.439
544.121	366.662
548.088	348.396
552.053	340.72
556.017	135.423
559.978	156.261
563.938	50.028
567.895	38.068
571.851	68.448
575.805	35.079
579.758	14.1
583.708	25.852
587.657	6.264
591.603	45.988
595.548	65.047
599.491	20.699
603.432	76.877
607.372	24.166
611.309	94.903
615.245	26.004
619.179	84.107
623.111	131.759
627.041	91.062
630.97	90.054
634.896	204.056
638.821	63.764
642.744	196.94
646.665	173.096
650.584	234.883
654.502	238.443
658.418	442.923
662.331	451.665
666.244	506.617
670.154	752.864
674.062	917.199
677.969	1332.65
681.874	1563.13
685.777	1946.61
689.678	2255.09
693.577	2404.59
697.475	2319.11
701.371	2321.65
705.265	1925.22
709.157	1367.83
713.047	1212.24
716.936	763.875
720.823	757.757
724.708	421.701
728.591	364.928
732.472	217.967
736.352	239.566
740.23	146.759
744.106	26.602
747.98	47.912
751.853	82.13
755.723	31.589
759.592	0.061
763.459	42.705
767.325	167.495
771.188	144.102
775.05	156.325
778.91	146.276
782.768	85.835
786.625	124.577
790.479	37.525
794.332	209.674
798.183	33.016
802.033	105.548
805.88	94.274
809.726	313.201
813.57	270.326
817.413	686.65
821.253	313.192
825.092	300.949
828.929	496.917
832.764	618.784
836.598	710.849
840.429	1083.3
844.259	1289.84
848.088	1898.31
851.914	2617.84
855.739	3519.55
859.562	4860.65
863.383	6898.96
867.203	10064.5
871.02	14552.3
874.836	20467.4
878.65	25296.8
882.463	24721.5
886.274	19357.5
890.083	13330.8
893.89	8552.41
897.695	5518.47
901.499	3780.44
905.301	2661.88
909.102	2068.65
912.9	1634.26
916.697	1202.57
920.492	918.999
924.285	804.945
928.077	656.533
931.867	584.351
935.655	491.395
939.442	185.66
943.226	359.146
947.009	322.846
950.791	208.759
954.57	91.888
958.348	251.227
962.124	193.772
965.899	94.522
969.671	85.099
973.442	150.245
977.211	85.588
980.979	103.113
984.745	38.992
988.509	15.275
992.271	137.707
996.032	65.776
999.791	26.442
1003.55	97.866
1007.3	183.258
1011.06	37.53
1014.81	33.707
1018.56	82.977
1022.31	19.021
1026.06	103.698
1029.8	128.926
1033.55	75.478
1037.29	57.896
1041.03	156.562
1044.77	203.913
1048.5	152.708
1052.24	247.289
1055.97	198.913
1059.7	285.369
1063.43	313.359
1067.16	185.521
1070.89	131.38
1074.61	169.442
1078.34	199.321
1082.06	201.43
1085.78	139.482
1089.5	99.339
1093.21	214.616
1096.93	211.471
1100.64	174.795
1104.35	194.089
1108.06	181.04
1111.77	124.369
1115.48	12.296
1119.18	23.515
1122.89	13.507
1126.59	40.189
1130.29	88.837
1133.99	52.322
1137.68	25.747
1141.38	21.521
1145.07	17.008
1148.76	16.017
1152.45	9.536
1156.14	20.796
1159.83	113.093
1163.51	47.197
1167.19	43.606
1170.88	17.131
1174.56	3.777
1178.23	44.749
1181.91	69.767
1185.59	182.471
1189.26	154.879
1192.93	58.998
1196.6	141.595
1200.27	171.521
1203.94	94.218
1207.6	125.885
1211.27	180.344
1214.93	209.235
1218.59	188.409
1222.25	216.321
1225.9	222.975
1229.56	158.305
1233.21	282.418
1236.86	112.104
1240.51	218.568
1244.16	238.872
1247.81	242.828
1251.45	204.561
1255.1	103.339
1258.74	171.59
1262.38	143.578
1266.02	182.656
1269.66	275.04
1273.29	223.037
1276.93	73.561
1280.56	58.948
1284.19	156.635
1287.82	133.771
1291.45	160.402
1295.07	167.588
1298.7	176.367
1302.32	35.071
1305.94	59.589
1309.56	6.782
1313.18	46.348
1316.8	43.127
1320.41	45.669
1324.02	123.423
1327.63	5.522
1331.24	135.462
1334.85	154.961
1338.46	80.222
1342.06	86.447
1345.67	118.322
1349.27	176.182
1352.87	25.967
1356.47	52.233
1360.07	130.473
1363.66	115.97
1367.25	99.923
1370.85	112.675
1374.44	237.848
1378.03	247.995
1381.61	175.445
1385.2	225.146
1388.78	169.19
1392.37	215.562
1395.95	130.234
1399.53	239.028
1403.1	246.386
1406.68	288.589
1410.26	229.873
1413.83	176.99
1417.4	348.475
1420.97	236.978
1424.54	116.283
1428.1	122.902
1431.67	76.267
1435.23	109.491
1438.8	197.482
1442.36	143.599
1445.91	17.672
1449.47	105.498
1453.03	219.392
1456.58	156.487
1460.13	6.71
1463.68	149.85
1467.23	227.821
1470.78	104.292
1474.33	185.266
1477.87	0.544
1481.42	225.955
1484.96	113.301
1488.5	134.733
1492.04	188.702
1495.57	21.14
1499.11	26.349
1502.64	42.264
1506.17	40.058
1509.71	23.235
1513.23	32.848
1516.76	77.429
1520.29	0
