Measurement: Raman, 785 nm, unoriented, Raman Data Processed
Mineral: Ferberite
Rruff sample: R040044
Ideal chemistry: Fe^2+^WO_4_
Locality: Chocote, Bolivia
Source: University of Arizona Mineral Museum
Description: Black tabular single crystal
Measured chemistry: (Fe_0.82_Mn_0.08_Mg_0.07_Pb_0.03_)_Î£=1_W_1.00_O_4_
Raman shift (cm-1)	intensity
82.9588	0
86.3336	0.154572
89.7084	68.0172
93.0833	59.3437
96.4581	57.4716
99.8329	42.0594
103.208	46.8305
106.582	21.0359
109.957	18.4476
113.332	3.57999
116.707	0.935287
120.082	3.86953
123.457	13.5005
126.831	74.9506
130.206	250.78
133.581	465.8
136.956	263.152
140.331	127.409
143.706	112.1
147.08	144.538
150.455	162.685
153.83	175.001
157.205	122.14
160.58	120.899
163.954	130.886
167.329	133.302
170.704	130.678
174.079	114.757
177.454	107.137
180.828	84.7134
184.203	80.5099
187.578	89.4329
190.953	82.2163
194.328	120.636
197.703	140.979
201.077	218.086
204.452	290.663
207.827	374.182
211.202	405.891
214.577	296.716
217.952	168.304
221.326	80.1549
224.701	48.8404
228.076	26.8449
231.451	37.0772
234.826	7.18179
238.2	19.5342
241.575	11.1463
244.95	6.99765
248.325	20.5139
251.7	1.46664
255.074	3.19028
258.449	27.3022
261.824	76.4199
265.199	155.435
268.574	298.41
271.949	471.649
275.323	543.758
278.698	393.827
282.073	245.509
285.448	123.92
288.823	59.1467
292.197	20.3944
295.572	0.24173
298.947	20.2171
302.322	1.03461
305.697	21.7349
309.072	40.5479
312.446	53.9138
315.821	107.795
319.196	204.169
322.571	391.574
325.946	656.409
329.32	887.309
332.695	909.174
336.07	647.327
339.445	414.385
342.82	239.952
346.195	164.036
349.569	104.62
352.944	83.7347
356.319	51.0571
359.694	31.2798
363.069	27.1221
366.443	24.6105
369.818	23.8278
373.193	54.3027
376.568	42.4613
379.943	55.6124
383.317	86.9955
386.692	94.9779
390.067	161.757
393.442	294.188
396.817	511.935
400.192	732.648
403.566	714.392
406.941	368.938
410.316	163.867
413.691	56.593
417.066	36.6885
420.44	24.0412
423.815	7.71179
427.19	2.73483
430.565	2.29877
433.94	3.21445
437.315	7.76978
440.689	0.279083
444.064	9.45422
447.439	17.1054
450.814	18.885
454.189	5.78931
457.563	18.495
460.938	17.0676
464.313	26.2208
467.688	29.147
471.063	34.4645
474.438	36.4264
477.812	28.3986
481.187	19.4189
484.562	26.8887
487.937	24.4027
491.312	19.9983
494.686	14.007
498.061	18.9391
501.436	24.3128
504.811	27.4406
508.186	36.5857
511.56	41.0603
514.935	52.2452
518.31	54.8918
521.685	71.0575
525.06	93.6782
528.435	107.036
531.809	117.685
535.184	116.34
538.559	154.628
541.934	161.76
545.309	160.096
548.683	115.883
552.058	103.048
555.433	81.0693
558.808	76.4943
562.183	43.7744
565.558	30.5792
568.932	18.8395
572.307	1.8208
575.682	7.29572
579.057	1.66363
582.432	3.68018
585.807	1.28003
589.181	17.0364
592.556	3.88635
595.931	21.8906
599.306	2.65417
602.681	5.56189
606.055	20.6522
609.43	18.3421
612.805	6.2948
616.18	16.8169
619.555	23.2753
622.929	21.721
626.304	36.5441
629.679	26.6977
633.054	34.7597
636.429	50.7313
639.803	62.3387
643.178	62.6274
646.553	73.4937
649.928	89.5643
653.303	137.264
656.678	188.404
660.052	249.103
663.427	330.058
666.802	453.997
670.177	645.346
673.552	894.737
676.927	1264.29
680.301	1781.62
683.676	2363.5
687.051	2889.31
690.426	3131.88
693.801	2923.91
697.175	2397.76
700.55	1781.15
703.925	1240.92
707.3	911.468
710.675	663.779
714.049	528.619
717.424	369.477
720.799	305.488
724.174	233.135
727.549	197.191
730.924	129.633
734.298	108.207
737.673	88.7852
741.048	71.8855
744.423	53.6511
747.798	13.2146
751.173	12.2831
754.547	15.1873
757.922	6.82629
761.297	1.55225
764.672	3.83026
768.047	30.3159
771.421	9.49689
774.796	5.65112
778.171	10.219
781.546	7.33118
784.921	8.0423
788.295	6.70215
791.67	9.59674
795.045	11.8876
798.42	2.7132
801.795	2.03742
805.17	3.05945
808.544	21.0103
811.919	41.3507
815.294	29.772
818.669	45.5864
822.044	53.7889
825.418	85.381
828.793	121.131
832.168	171.64
835.543	252.32
838.918	353.271
842.293	461.918
845.667	634.302
849.042	926.744
852.417	1264.88
855.792	1851.76
859.167	2702.07
862.541	3967.45
865.916	6021.64
869.291	9230.11
872.666	13766.7
876.041	18170.8
879.415	19333.1
882.79	15886.8
886.165	11238.7
889.54	7477.69
892.915	4895.84
896.29	3107.42
899.664	2000.3
903.039	1325.03
906.414	917.413
909.789	657.734
913.164	477.909
916.538	368.581
919.913	239.098
923.288	158.646
926.663	115.605
930.038	68.7678
933.413	46.7836
936.787	8.64844
940.162	14.3455
943.537	5.00305
946.912	10.2758
950.287	11.3897
953.661	8.96118
957.036	7.30987
960.411	24.925
963.786	4.85053
967.161	15.0617
970.535	13.9497
973.91	17.9822
977.285	24.876
980.66	28.4367
984.035	14.3737
987.41	26.558
990.784	22.0375
994.159	33.6135
997.534	13.4862
1000.91	11.9674
1004.28	27.5347
1007.66	17.74
1011.03	21.6188
1014.41	19.3121
1017.78	22.241
1021.16	18.3525
1024.53	2.83771
1027.91	5.47644
1031.28	40.2044
1034.66	24.0784
1038.03	26.0316
1041.41	29.7394
1044.78	36.9087
1048.16	34.0652
1051.53	31.752
1054.91	41.1766
1058.28	56.3916
1061.66	49.7538
1065.03	53.2154
1068.4	52.8386
1071.78	49.3657
1075.15	60.0338
1078.53	44.1765
1081.9	43.9144
1085.28	35.4482
1088.65	38.4931
1092.03	40.9415
1095.4	26.0372
1098.78	34.6746
1102.15	38.4369
1105.53	30.8691
1108.9	7.11505
1112.28	21.0222
1115.65	1.13522
1119.03	28.6562
1122.4	23.3728
1125.78	1.84384
1129.15	13.7047
1132.53	4.44992
1135.9	12.8655
1139.28	10.9712
1142.65	12.6702
1146.03	9.79748
1149.4	2.22513
1152.78	9.79654
1156.15	2.3158
1159.53	12.255
1162.9	22.5962
1166.28	30.3298
1169.65	13.6213
1173.03	12.1928
1176.4	21.4051
1179.77	15.6116
1183.15	1.28415
1186.52	6.54285
1189.9	23.9553
1193.27	7.99213
1196.65	9.40427
1200.02	0.179016
1203.4	2.35773
1206.77	7.73853
1210.15	22.7982
1213.52	13.539
1216.9	12.6761
1220.27	13.9882
1223.65	6.63419
1227.02	11.2523
1230.4	11.6048
1233.77	2.72397
1237.15	1.54575
1240.52	21.2866
1243.9	14.2878
1247.27	26.3693
1250.64	13.9388
1254.02	8.73828
1257.39	7.98419
1260.77	1.17828
1264.14	13.7162
