Measurement: Raman, 514 nm, unoriented, Raman Data Processed
Mineral: Ferberite
Rruff sample: R040044
Ideal chemistry: Fe^2+^WO_4_
Locality: Chocote, Bolivia
Source: University of Arizona Mineral Museum
Description: Black tabular single crystal
Measured chemistry: (Fe_0.82_Mn_0.08_Mg_0.07_Pb_0.03_)_Î£=1_W_1.00_O_4_
Raman shift (cm-1)	intensity
155.863	0
160.013	18.486
164.161	202.584
168.308	201.199
172.452	195.342
176.594	156.669
180.734	181.059
184.872	233.64
189.008	298.29
193.143	422.506
197.275	566.59
201.405	691.814
205.534	875.572
209.66	797.366
213.784	58.141
217.907	68.448
222.027	5.519
226.146	14.508
230.263	11.006
234.377	31.444
238.49	49.176
242.601	35.498
246.709	3.185
250.816	51.09
254.921	23.56
259.024	71.548
263.125	116.584
267.224	162.21
271.321	210.682
275.416	141.984
279.51	126.096
283.601	74.784
287.69	0.872
291.778	57.357
295.863	7.278
299.947	23.45
304.029	22.521
308.108	28.401
312.186	5.603
316.262	5.905
320.336	19.675
324.408	43.158
328.478	99.595
332.546	87.966
336.612	102.992
340.677	65.836
344.739	90.116
348.799	79.218
352.858	73.016
356.915	86.437
360.969	64.412
365.022	114.04
369.073	80.387
373.122	94.565
377.169	112.556
381.215	111.212
385.258	100.719
389.299	214
393.339	274.451
397.376	399.438
401.412	454.626
405.446	338.548
409.478	251.392
413.508	363.048
417.536	498.727
421.562	90.251
425.586	47.231
429.609	64.442
433.629	54.344
437.648	27.497
441.665	61.82
445.68	84.987
449.693	68.339
453.704	84.834
457.713	77.155
461.721	99.893
465.726	107.471
469.73	59.872
473.731	52.431
477.731	49.489
481.729	65.14
485.725	90.17
489.72	84.036
493.712	98.088
497.703	97.102
501.691	81.877
505.678	84.391
509.663	131.971
513.646	97.291
517.627	127.82
521.607	134.213
525.584	148.551
529.56	180.843
533.534	144.163
537.506	157.489
541.476	175.765
545.444	163.404
549.41	126.208
553.375	118.394
557.337	97.564
561.298	132.703
565.257	86.829
569.214	70.957
573.17	61.059
577.123	83.142
581.075	27.199
585.024	54.931
588.972	23.715
592.918	14.254
596.863	11.159
600.805	13.486
604.746	5.547
608.685	0.587
612.621	11.728
616.557	4.589
620.49	4.169
624.421	5.969
628.351	6.45
632.279	19.811
636.205	5.862
640.129	9.614
644.051	55.465
647.972	46.938
651.89	41.841
655.807	36.919
659.722	70.988
663.636	131.038
667.547	164.068
671.457	282.081
675.365	392.078
679.271	511.059
683.175	627.026
687.077	827.981
690.978	858.311
694.877	787.854
698.774	695.774
702.669	516.685
706.562	399.589
710.454	266.485
714.344	253.375
718.232	135.26
722.118	154.152
726.002	132.02
729.885	83.197
733.766	45.773
737.645	24.615
741.522	39.431
745.397	37.927
749.271	39.697
753.143	17.107
757.013	35.538
760.881	19.77
764.748	19.593
768.613	40.34
772.476	1.064
776.337	54.262
780.196	8.3
784.054	55.276
787.91	12.03
791.764	6.418
795.616	1.63
799.467	8.458
803.316	26.41
807.163	21.636
811.008	9.721
814.851	0.843
818.693	29.006
822.533	114.209
826.371	60.456
830.208	102.748
834.042	105.084
837.875	107.468
841.706	257.9
845.536	329.38
849.363	409.911
853.189	616.494
857.013	826.128
860.836	1137.82
864.656	1621.56
868.475	2425.36
872.292	3377.22
876.108	4235.15
879.922	4244.13
883.733	3422.18
887.544	2485.3
891.352	1700.48
895.159	1140.72
898.964	739.052
902.767	524.474
906.568	343.015
910.368	235.646
914.166	191.356
917.962	165.163
921.757	114.292
925.55	125.22
929.341	91.125
933.13	96.074
936.918	97.413
940.703	78.833
944.488	46.352
948.27	73.953
952.051	18.34
955.83	10.08
959.607	72.916
963.383	40.829
967.156	41.824
970.928	51.899
974.699	38.048
978.468	75.352
982.234	70.661
986	87.35
989.763	82.548
993.525	88.107
997.285	99.741
1001.04	98.438
1004.8	118.2
1008.55	142.031
1012.31	120.926
1016.06	120.886
1019.81	91.725
1023.56	111.845
1027.31	88.027
1031.05	109.268
1034.79	91.836
1038.53	134.193
1042.27	160.608
1046.01	159.407
1049.75	123.923
1053.48	167.084
1057.22	157.952
1060.95	147.605
1064.68	158.372
1068.4	172.552
1072.13	206.791
1075.86	154.922
1079.58	168.007
1083.3	182.949
1087.02	170.486
1090.74	133.114
1094.45	143.02
1098.17	83.122
1101.88	103.265
1105.59	123.587
1109.3	87.727
1113.01	100.533
1116.71	60.425
1120.42	11.818
1124.12	16.666
1127.82	45.63
1131.52	45.684
1135.22	87.501
1138.91	6.983
1142.61	42.686
1146.3	60.326
1149.99	32.479
1153.68	62.924
1157.37	39.578
1161.06	42.037
1164.74	38.347
1168.42	132.013
1172.1	14.989
1175.78	7.145
1179.46	22.223
1183.14	3.721
1186.81	30.916
1190.48	0.849
1194.15	13.022
1197.83	42.005
1201.49	28.936
1205.16	7.606
1208.82	17.258
1212.49	34.761
1216.15	22.316
1219.81	51.74
1223.46	31.099
1227.12	43.394
1230.78	72.661
1234.43	19.863
1238.08	54.004
1241.73	11.083
1245.38	23.094
1249.03	8.115
1252.67	30.96
1256.31	0.74
1259.95	4.45
1263.6	7.673
1267.23	33.858
1270.87	0.873
1274.51	34.59
1278.14	14.126
1281.77	8.063
1285.4	7.179
1289.03	25.222
1292.66	42.199
1296.28	22.264
1299.91	4.966
1303.53	23.746
1307.15	24.457
1310.77	1.104
1314.38	5.851
1318	37.325
1321.61	26.741
1325.23	48.833
1328.84	17.133
1332.45	19.516
1336.06	47.622
1339.66	35.525
1343.27	50.911
1346.87	28.134
1350.47	39.907
1354.07	40.915
1357.67	16.847
1361.26	57.054
1364.86	54.855
1368.45	37.711
1372.04	52.762
1375.63	29.807
1379.22	63.015
1382.81	43.291
1386.39	83.061
1389.98	46.02
1393.56	48.665
1397.14	51.665
1400.72	42.219
1404.3	0.671
1407.87	65.356
1411.45	19.169
1415.02	62.13
1418.59	61.005
1422.16	34.481
1425.73	36.646
1429.29	30.186
1432.86	44.185
1436.42	84.258
1439.98	33.632
1443.54	46.949
1447.1	42.008
1450.66	20.454
1454.21	63.312
1457.77	22.691
1461.32	25.426
1464.87	25.873
1468.42	51.119
1471.96	20.068
1475.51	5.172
1479.06	31.528
1482.6	42.228
1486.14	74.266
1489.68	49.25
1493.22	5.95
1496.75	73.974
1500.29	0.111
