Measurement: Raman, 532 nm, unoriented, Raman Data Processed
Mineral: Ferberite
Rruff sample: R040044
Ideal chemistry: Fe^2+^WO_4_
Locality: Chocote, Bolivia
Source: University of Arizona Mineral Museum
Description: Black tabular single crystal
Measured chemistry: (Fe_0.82_Mn_0.08_Mg_0.07_Pb_0.03_)_Î£=1_W_1.00_O_4_
Raman shift (cm-1)	intensity
122.004	0
124.897	17.1498
127.79	113.952
130.682	244.218
133.575	270.272
136.468	159.177
139.36	124.408
142.253	23.6893
145.146	35.6046
148.038	46.9857
150.931	3.68051
153.824	30.9152
156.717	11.8527
159.609	4.95865
162.502	41.0465
165.395	16.5628
168.287	4.59103
171.18	19.8495
174.073	6.74454
176.965	0.626343
179.858	20.8778
182.751	3.34711
185.644	42.1084
188.536	42.1672
191.429	63.3019
194.322	96.8512
197.214	149.318
200.107	227.723
203	311.009
205.893	405.498
208.785	430.591
211.678	399.827
214.571	308.307
217.463	177.281
220.356	88.5632
223.249	48.5772
226.141	21.8362
229.034	15.9161
231.927	13.8896
234.82	21.8723
237.712	16.7565
240.605	26.1176
243.498	12.3063
246.39	16.9559
249.283	27.3713
252.176	24.4891
255.068	35.1268
257.961	45.3426
260.854	84.5784
263.747	139.98
266.639	183.248
269.532	228.942
272.425	232.977
275.317	181.4
278.21	134.446
281.103	44.7899
283.995	22.3406
286.888	9.86099
289.781	2.48978
292.673	13.4116
295.566	7.56793
298.459	2.29504
301.351	41.6441
304.244	76.4351
307.137	102.228
310.03	157.429
312.922	251.977
315.815	366.522
318.708	551.183
321.6	830.355
324.493	1077.44
327.386	1314.95
330.279	1407.41
333.171	1275.28
336.064	992.299
338.957	684.73
341.849	508.109
344.742	378.25
347.635	292.58
350.527	229.657
353.42	172.178
356.313	134.394
359.205	96.3923
362.098	89.6216
364.991	62.2276
367.884	48.5761
370.776	43.0586
373.669	46.2702
376.562	35.7245
379.454	20.2248
382.347	28.4843
385.24	49.6868
388.132	43.8565
391.025	78.7369
393.918	113.642
396.81	143.986
399.703	172.719
402.596	170.273
405.489	139.778
408.381	56.1801
411.274	47.2643
414.167	27.169
417.059	9.75827
419.952	2.37958
422.845	6.68869
425.738	4.74136
428.63	2.33682
431.523	1.30258
434.416	13.3737
437.308	12.473
440.201	6.88214
443.094	11.3504
445.986	8.2363
448.879	11.5373
451.772	29.3889
454.664	26.0532
457.557	16.9014
460.45	12.2141
463.343	18.3522
466.235	24.9082
469.128	8.19461
472.021	19.0285
474.913	16.6351
477.806	11.4524
480.699	16.8007
483.591	24.49
486.484	19.9614
489.377	31.3287
492.27	12.0649
495.162	25.8653
498.055	27.3034
500.948	23.2961
503.84	40.3859
506.733	36.6631
509.626	46.8835
512.519	55.062
515.411	62.1618
518.304	74.7429
521.197	95.209
524.089	98.3597
526.982	113.462
529.875	116.153
532.767	105.868
535.66	109.938
538.553	112.592
541.445	109.537
544.338	92.3453
547.231	90.9091
550.124	48.8632
553.016	51.7611
555.909	38.9039
558.802	31.7462
561.694	22.2755
564.587	27.2799
567.48	13.7907
570.372	6.3504
573.265	25.4226
576.158	8.02844
579.051	25.6461
581.943	0.366669
584.836	5.77133
587.729	8.27472
590.621	8.16495
593.514	13.7577
596.407	9.616
599.299	19.0866
602.192	4.45172
605.085	14.552
607.977	14.3945
610.87	40.8017
613.763	27.6229
616.656	20.044
619.548	28.3478
622.441	38.3831
625.334	39.5307
628.226	31.5972
631.119	33.3232
634.012	13.0616
636.904	17.8324
639.797	6.15735
642.69	15.2935
645.583	9.47199
648.475	1.98547
651.368	18.255
654.261	30.5358
657.153	30.9247
660.046	47.7283
662.939	82.2237
665.832	96.8452
668.724	127.366
671.617	189.814
674.51	253.724
677.402	313.684
680.295	386.496
683.188	469.584
686.08	549.258
688.973	584.447
691.866	556.125
694.759	515.382
697.651	431.627
700.544	337.878
703.437	240.004
706.329	211.259
709.222	162.466
712.115	124.419
715.007	99.328
717.9	71.9848
720.793	59.8321
723.685	58.6928
726.578	28.4598
729.471	29.9257
732.364	14.0407
735.256	8.58878
738.149	9.21906
741.042	7.16031
743.934	7.79691
746.827	9.08914
749.72	2.22424
752.612	6.44684
755.505	3.99594
758.398	10.2197
761.29	2.08975
764.183	5.67856
767.076	3.31485
769.969	2.75296
772.861	14.4071
775.754	6.82843
778.647	13.1187
781.539	12.472
784.432	2.45804
787.325	2.39328
790.217	2.26639
793.11	0.25235
796.003	23.4369
798.896	3.92725
801.788	1.64127
804.681	2.75854
807.574	0.048126
810.466	0.771179
813.359	18.4087
816.252	25.8477
819.144	20.5602
822.037	26.7449
824.93	31.3639
827.823	41.3939
830.715	70.0358
833.608	73.2559
836.501	85.9102
839.393	93.5606
842.286	109.849
845.179	167.502
848.072	189.399
850.964	267.123
853.857	328.837
856.75	480.684
859.642	658.637
862.535	944.697
865.428	1295.06
868.32	1737
871.213	2308.63
874.106	2787.75
876.998	3138.59
879.891	3048.95
882.784	2557.06
885.677	2012.54
888.569	1479.44
891.462	1073.38
894.355	767.819
897.247	548.187
900.14	382.735
903.033	272.774
905.925	198.704
908.818	142.827
911.711	115.9
914.604	70.8173
917.496	75.1723
920.389	45.6674
923.282	38.4498
926.174	35.2529
929.067	14.919
931.96	31.0371
934.852	5.15015
937.745	29.6027
940.638	10.4729
943.53	2.25104
946.423	14.5085
949.316	5.99585
952.209	0.813293
955.101	18.0996
957.994	8.60327
960.887	12.7129
963.779	13.8536
966.672	2.00381
969.565	12.658
972.457	2.20441
975.35	1.82843
978.243	24.4026
981.136	0.912933
984.028	6.93661
986.921	2.15002
989.814	0.836578
992.706	11.4569
995.599	15.8063
998.492	4.35919
1001.38	2.45785
1004.28	1.86325
1007.17	8.61612
1010.06	33.4251
1012.96	1.20026
1015.85	14.199
1018.74	29.9398
1021.63	37.379
1024.53	39.7479
1027.42	23.6929
1030.31	28.242
1033.2	39.7279
1036.1	43.1704
1038.99	23.1619
1041.88	53.0587
1044.78	38.9068
1047.67	34.877
1050.56	52.5282
1053.45	26.2045
1056.35	35.9657
1059.24	17.0987
1062.13	28.6651
1065.02	41.7722
1067.92	30.0435
1070.81	21.1025
1073.7	21.8908
1076.6	29.3158
1079.49	27.4869
1082.38	30.2311
1085.27	21.5672
1088.16	25.8204
1091.06	26.9719
1093.95	27.5547
1096.84	20.6443
1099.74	24.7003
1102.63	13.7036
1105.52	12.6838
1108.41	18.0702
1111.31	15.7506
1114.2	17.1562
1117.09	29.6007
1119.98	18.1925
1122.88	29.893
1125.77	9.67236
1128.66	20.6566
1131.56	1.6055
1134.45	13.68
1137.34	11.3557
1140.23	0.546844
1143.13	7.87891
1146.02	16.0082
1148.91	19.1117
1151.81	13.2982
1154.7	12.1173
1157.59	1.70785
1160.48	12.0504
1163.38	9.07165
1166.27	9.30075
1169.16	3.31848
1172.05	25.4368
1174.95	13.7528
1177.84	16.8701
1180.73	9.37295
1183.62	27.5771
1186.52	4.78232
1189.41	14.7982
1192.3	29.8069
1195.19	22.6347
1198.09	20.5676
1200.98	28.3752
1203.87	16.5571
1206.77	9.34848
1209.66	22.2189
1212.55	15.0021
1215.44	27.0172
1218.34	12.2698
1221.23	31.3503
1224.12	32.4907
1227.02	6.57193
1229.91	34.4527
1232.8	34.3357
1235.69	12.863
1238.59	35.4669
1241.48	33.1841
1244.37	18.7053
1247.26	28.611
1250.16	20.8493
1253.05	11.9914
1255.94	14.09
1258.84	19.4589
1261.73	0.751465
1264.62	0.9422
1267.51	21.7955
1270.4	9.06207
1273.3	7.55151
