Measurement: Raman, 780 nm, unoriented, Raman Data Processed
Mineral: Ferberite
Rruff sample: R050632
Ideal chemistry: Fe^2+^WO_4_
Locality: Chance mine, Boulder, Colorado, USA
Source: University of Arizona Mineral Museum
Description: Dark brown rectangular prismatic crystals
Measured chemistry: Fe^2+^_1.00_WO_4_
Raman shift (cm-1)	intensity
191.341	0
194.234	5.89986
197.127	17.844
200.019	29.4723
202.912	45.5722
205.805	57.2039
208.697	63.2895
211.59	50.5468
214.483	34.6376
217.376	20.1176
220.268	12.348
223.161	7.48187
226.054	1.02598
228.946	1.91258
231.839	1.53259
234.732	2.68879
237.625	2.38062
240.517	2.35825
243.41	0.201111
246.303	3.21252
249.195	0.537277
252.088	5.7903
254.981	10.4476
257.873	13.4379
260.766	21.8633
263.659	24.9574
266.551	30.6424
269.444	26.2673
272.337	19.3387
275.23	12.0248
278.122	9.06366
281.015	6.44408
283.908	6.11646
286.8	4.63869
289.693	7.1914
292.586	8.43807
295.478	5.35089
298.371	8.62011
301.264	11.9036
304.157	12.3738
307.049	23.3744
309.942	31.6494
312.835	50.3388
315.727	66.1181
318.62	88.9985
321.513	102.76
324.406	117.363
327.298	119.051
330.191	106.103
333.084	86.4382
335.976	69.9786
338.869	55.8814
341.762	49.4384
344.654	46.2345
347.547	37.9836
350.44	30.8111
353.332	24.6127
356.225	22.0618
359.118	14.1739
362.01	10.002
364.903	9.9659
367.796	5.17699
370.689	6.85392
373.581	5.67023
376.474	4.20228
379.367	11.0281
382.259	16.3009
385.152	24.4899
388.045	31.9819
390.938	45.4344
393.83	52.1903
396.723	59.5238
399.616	60.2006
402.508	44.4327
405.401	25.0484
408.294	12.0673
411.186	3.61439
414.079	0.030785
416.972	0.622871
419.865	1.04028
422.757	0.74939
425.65	2.7174
428.543	1.76714
431.435	1.88703
434.328	0.056778
437.221	2.32482
440.113	2.40715
443.006	1.47203
445.899	1.8146
448.791	0.842766
451.684	3.0179
454.577	5.43808
457.47	5.51298
460.362	7.22063
463.255	6.46909
466.148	6.20891
469.04	8.2052
471.933	9.76628
474.826	9.8399
477.719	12.6457
480.611	13.8396
483.504	15.4077
486.397	17.4579
489.289	23.1189
492.182	24.0148
495.075	32.6808
497.967	39.6567
500.86	45.0448
503.753	50.4169
506.645	52.0877
509.538	53.2963
512.431	52.7739
515.323	53.6481
518.216	57.6144
521.109	59.1686
524.002	58.124
526.894	62.6584
529.787	62.6846
532.68	57.6921
535.572	55.0477
538.465	50.0403
541.358	43.0443
544.25	33.9294
547.143	29.476
550.036	24
552.929	20.5181
555.821	17.4687
558.714	9.89043
561.607	7.37659
564.499	5.36737
567.392	2.82134
570.285	4.46584
573.178	1.73877
576.07	2.37287
578.963	0.35463
581.856	2.17346
584.748	3.26933
587.641	0.695694
590.534	1.62074
593.426	0.755592
596.319	2.38499
599.212	0.28759
602.105	0.857368
604.997	0.784027
607.89	1.60478
610.783	1.43533
613.675	2.8824
616.568	0.968895
619.461	0.884308
622.353	1.87492
625.246	2.82323
628.139	1.2282
631.031	4.39227
633.924	2.8552
636.817	3.98559
639.71	5.73723
642.602	4.702
645.495	12.3197
648.388	12.5623
651.28	16.1663
654.173	16.5857
657.066	19.7774
659.958	29.5475
662.851	40.2016
665.744	45.654
668.636	61.145
671.529	74.8182
674.422	91.9035
677.315	110.308
680.207	131.32
683.1	141.576
685.993	150.625
688.885	143.983
691.778	126.901
694.671	108.631
697.563	83.4184
700.456	64.0409
703.349	53.448
706.242	39.6065
709.134	32.4101
712.027	24.3268
714.92	18.502
717.812	12.7908
720.705	10.9996
723.598	8.22185
726.49	7.80964
729.383	2.71648
732.276	0.84594
735.169	1.24148
738.061	1.30293
740.954	0.646042
743.847	1.27603
746.739	1.83817
749.632	1.47392
752.525	7.96771
755.418	5.01867
758.31	11.9624
761.203	18.1582
764.096	18.9076
766.988	17.7911
769.881	14.7777
772.774	18.7666
775.666	15.4875
778.559	14.6999
781.452	10.4781
784.345	7.75521
787.237	8.36373
790.13	6.49724
793.023	2.23562
795.915	0.68853
798.808	1.41465
801.701	0.21904
804.593	0.463943
807.486	1.42159
810.379	3.46458
813.271	3.99719
816.164	8.92982
819.057	8.3562
821.949	14.3403
824.842	22.9956
827.735	28.1758
830.628	39.4074
833.52	53.3465
836.413	68.9004
839.306	91.0837
842.198	118.419
845.091	148.995
847.984	200.779
850.876	262.923
853.769	353.465
856.662	485.45
859.555	683.001
862.447	951.939
865.34	1281.35
868.233	1628.92
871.125	1938.82
874.018	2059.93
876.911	1875.03
879.803	1435.16
882.696	977.354
885.589	646.271
888.482	423.016
891.374	290.253
894.267	199.75
897.16	140.932
900.052	96.1568
902.945	72.1532
905.838	50.1592
908.731	36.5187
911.623	24.6439
914.516	14.9733
917.409	7.86704
920.301	3.31565
923.194	4.02149
926.087	0.405144
928.979	1.91559
931.872	2.61475
934.765	0.267464
937.658	0.194687
940.55	0.526169
943.443	1.48598
946.336	1.77974
949.228	1.51895
952.121	0.823105
955.014	3.14736
957.906	0.06308
960.799	0.010414
963.692	1.87666
966.584	1.9644
969.477	2.53297
972.37	3.51594
975.263	6.1292
978.155	6.81834
981.048	5.88036
983.941	6.93687
986.833	6.79317
989.726	6.06945
992.619	6.6654
995.511	5.39061
998.404	5.08333
1001.3	5.62371
1004.19	3.74538
1007.08	3.89771
1009.98	3.72596
1012.87	3.30275
1015.76	4.68995
1018.65	0.473194
1021.55	5.85076
1024.44	3.85927
1027.33	4.80747
1030.22	4.14838
1033.12	3.44888
1036.01	3.24854
1038.9	1.5471
1041.8	5.41248
1044.69	6.21123
1047.58	8.25806
1050.47	2.10927
1053.37	5.83615
1056.26	3.94298
1059.15	7.47922
1062.04	9.13126
1064.94	3.78161
1067.83	5.00282
1070.72	8.08704
1073.61	4.32938
1076.51	7.7489
1079.4	7.24824
1082.29	6.28955
1085.18	4.35085
1088.08	3.71662
1090.97	3.38628
1093.86	4.07225
1096.76	2.8762
1099.65	3.6305
1102.54	3.24981
1105.43	3.81955
1108.33	0.164703
1111.22	1.00663
1114.11	2.58674
1117.01	1.42982
1119.9	2.27974
1122.79	2.82473
1125.68	0.758305
1128.58	1.60912
1131.47	1.94047
1134.36	1.21891
1137.25	1.0571
1140.15	1.75132
1143.04	1.17195
1145.93	1.49372
1148.82	2.77379
1151.72	1.45939
1154.61	1.18245
1157.5	1.58154
1160.39	1.53384
1163.29	2.04325
1166.18	1.53956
1169.07	0.263493
1171.97	1.55537
1174.86	0.918709
1177.75	1.19683
1180.64	1.06848
1183.54	0.208988
1186.43	1.75719
1189.32	4.81425
1192.21	1.10897
1195.11	0.37743
1198	5.82138
1200.89	0.322033
1203.79	1.05386
1206.68	0.535755
1209.57	5.38351
1212.46	3.66546
1215.36	0.381802
1218.25	3.14749
1221.14	1.26249
1224.04	2.27699
1226.93	0.209427
1229.82	1.85403
1232.71	4.55909
1235.61	3.71928
1238.5	3.76374
1241.39	0.454041
1244.28	1.81005
1247.18	3.5619
1250.07	1.89525
1252.96	0.933884
1255.85	2.22242
1258.75	0.531017
1261.64	3.03793
1264.53	0.841267
1267.42	0.359989
1270.32	2.137
1273.21	0.126217
1276.1	2.27053
1279	2.00745
1281.89	0.035465
1284.78	2.84909
