Measurement: Raman, 785 nm, unoriented, Raman Data Processed
Mineral: Ferberite
Rruff sample: R050090
Ideal chemistry: Fe^2+^WO_4_
Locality: Yaogangxian mine, Cheng Zhu City, South Hunan, China
Source: Rock Currier
Description: Dark gray tabular crystal
Measured chemistry: (Fe^2+^_0.56_Mn_0.44_)W_1.00_O_4_
Raman shift (cm-1)	intensity
106.084	0
108.976	21.2573
111.869	7.29736
114.762	23.0595
117.654	96.3926
120.547	141.912
123.44	217.556
126.332	435.696
129.225	953.682
132.118	1549.05
135.011	934.231
137.903	368.809
140.796	240.568
143.689	296.405
146.581	489.591
149.474	714.06
152.367	620.773
155.26	393.018
158.152	309.948
161.045	334.094
163.938	345.128
166.83	372.282
169.723	421.186
172.616	325.972
175.508	269.685
178.401	268.745
181.294	276.226
184.186	304.983
187.079	357.301
189.972	484.737
192.864	629.4
195.757	896.943
198.65	1170.11
201.543	1514.07
204.435	2064.44
207.328	2412.96
210.221	2228.58
213.113	1392.44
216.006	715.773
218.899	367.79
221.792	193.238
224.684	66.2611
227.577	45.8036
230.47	3.42828
233.362	20.1542
236.255	54.126
239.148	52.9108
242.041	15.3583
244.933	18.4969
247.826	82.3815
250.719	220.648
253.611	431.038
256.504	656.985
259.397	968.159
262.289	1312.01
265.182	1549.1
268.075	1388.72
270.967	898.018
273.86	490.964
276.753	257.582
279.646	74.2867
282.538	25.4395
285.431	29.6623
288.324	9.27991
291.216	34.0684
294.109	36.0144
297.002	94.9308
299.894	144.66
302.787	250.856
305.68	419.832
308.572	722.874
311.465	1164.26
314.358	1811.68
317.251	2608.72
320.143	3624.39
323.036	4712.39
325.929	5622.3
328.821	5582.67
331.714	4486.37
334.607	3188.41
337.5	2247.63
340.392	1649.13
343.285	1220.62
346.178	914.671
349.07	699.969
351.963	533.385
354.856	430.234
357.748	341.843
360.641	237.526
363.534	147.316
366.426	125.263
369.319	95.7751
372.212	89.7114
375.105	113.015
377.997	179.14
380.89	297.764
383.783	552.431
386.675	912.524
389.568	1331.05
392.461	1865.36
395.353	2559.56
398.246	2987.72
401.139	2339.31
404.032	1244.14
406.924	557.918
409.817	276.435
412.71	138.449
415.602	57.3379
418.495	39.2827
421.388	34.652
424.281	13.4526
427.173	13.2465
430.066	20.5934
432.959	9.09375
435.851	17.1663
438.744	5.04285
441.637	21.775
444.529	39.7173
447.422	39.9784
450.315	62.6217
453.208	45.9255
456.1	78.7763
458.993	58.021
461.886	57.7248
464.778	59.4741
467.671	76.2545
470.564	62.8073
473.457	80.7313
476.349	69.8244
479.242	71.4751
482.135	71.4134
485.027	83.2795
487.92	43.1596
490.813	52.3909
493.705	81.6078
496.598	82.2396
499.491	102.982
502.384	142.653
505.276	181.102
508.169	222.384
511.062	259.638
513.954	250.427
516.847	312.445
519.74	349.988
522.632	432.747
525.525	516.332
528.418	635.668
531.311	774.688
534.203	942.47
537.096	1045.78
539.989	1116.83
542.881	1075.11
545.774	999.388
548.667	863.696
551.559	672.563
554.452	515.104
557.345	400.848
560.237	280.457
563.13	196.001
566.023	141.608
568.915	98.7601
571.808	65.3304
574.701	17.2013
577.594	1.33167
580.486	7.68201
583.379	15.9064
586.272	12.5397
589.164	17.4591
592.057	7.73999
594.95	3.48389
597.842	1.24512
600.735	32.3169
603.628	2.99512
606.521	10.4534
609.413	35.3004
612.306	85.0474
615.199	6.56848
618.091	10.3685
620.984	19.4432
623.877	47.4266
626.769	41.8661
629.662	52.832
632.555	69.9164
635.448	71.1667
638.34	119.013
641.233	93.4319
644.126	122.829
647.018	163.697
649.911	216.299
652.804	325.097
655.697	422.963
658.589	564.623
661.482	763.077
664.375	947.617
667.267	1278.8
670.16	1588.42
673.053	2046.38
675.945	2605.62
678.838	3288.68
681.731	4090.94
684.624	4811.76
687.516	5450.51
690.409	5737.69
693.302	5679.07
696.194	5200.94
699.087	4394.34
701.98	3433.18
704.872	2546.43
707.765	1847.88
710.658	1294.31
713.551	956.988
716.443	679.809
719.336	503.774
722.229	389.684
725.121	243.285
728.014	158.9
730.907	145.04
733.799	54.34
736.692	10.957
739.585	8.8689
742.477	8.79395
745.37	25.6423
748.263	26.8491
751.156	9.83118
754.048	56.6372
756.941	104.888
759.834	153.117
762.726	229.941
765.619	320.799
768.512	349.313
771.404	373.872
774.297	355.727
777.19	298.522
780.083	249.53
782.975	181.528
785.868	156.27
788.761	102.626
791.653	84.606
794.546	56.9202
797.439	33.6364
800.332	4.55066
803.224	10.4072
806.117	73.7363
809.01	50.8446
811.902	19.5605
814.795	8.87012
817.688	28.47
820.58	36.6365
823.473	100.28
826.366	134.67
829.259	247.591
832.151	364.919
835.044	519.461
837.937	673.918
840.829	933.018
843.722	1306.07
846.615	1778.38
849.507	2371.12
852.4	3174.51
855.293	4335.54
858.186	6006.84
861.078	8355.72
863.971	11911.2
866.864	17162.1
869.756	24804.9
872.649	34827.6
875.542	46026.4
878.434	54811.4
881.327	55655.9
884.22	45806.5
887.112	31630.3
890.005	19711
892.898	12104.9
895.791	7846.25
898.683	5246.9
901.576	3684.45
904.469	2626.74
907.361	1916.45
910.254	1459.04
913.147	1120.84
916.04	811.143
918.932	620.919
921.825	472.082
924.718	358.608
927.61	264.938
930.503	191.373
933.396	127.219
936.288	55.8364
939.181	35.5956
942.074	29.5853
944.967	2.67908
947.859	5.17017
950.752	10.679
953.645	28.9922
956.537	7.74951
959.43	32.3403
962.323	1.84656
965.216	38.3274
968.108	8.66333
971.001	3.77869
973.894	9.89697
976.786	8.91028
979.679	31.0835
982.572	44.376
985.464	35.2022
988.357	22.3994
991.25	27.6551
994.143	21.3988
997.035	41.6348
999.928	21.5845
1002.82	49.9948
1005.71	39.7731
1008.61	37.0582
1011.5	66.7896
1014.39	47.8892
1017.28	52.9927
1020.18	64.225
1023.07	42.9825
1025.96	46.6106
1028.86	37.2682
1031.75	45.5927
1034.64	37.4974
1037.53	66.0438
1040.43	51.5116
1043.32	77.4795
1046.21	64.9362
1049.1	70.5328
1052	80.2955
1054.89	90.9088
1057.78	95.563
1060.67	94.369
1063.57	119.231
1066.46	91.1837
1069.35	109.141
1072.24	106.527
1075.14	106.338
1078.03	99.5482
1080.92	104.738
1083.82	94.8927
1086.71	80.6371
1089.6	73.1587
1092.49	57.516
1095.39	51.8953
1098.28	50.1755
1101.17	35.1768
1104.07	25.9009
1106.96	17.3037
1109.85	11.0123
1112.74	25.2926
1115.64	27.4697
1118.53	19.0277
1121.42	16.7667
1124.31	3.16522
1127.21	0.574036
1130.1	2.7207
1132.99	18.3696
1135.88	4.38
1138.78	13.6123
1141.67	4.83002
1144.56	12.8298
1147.46	8.90558
1150.35	10.0966
1153.24	9.01215
1156.13	23.5382
1159.03	16.6766
1161.92	4.9256
1164.81	5.107
1167.7	7.86804
1170.6	13.7254
1173.49	15.8193
1176.38	22.3898
1179.28	5.94031
1182.17	16.4074
1185.06	22.0216
1187.95	10.1339
1190.85	15.4302
1193.74	5.69397
1196.63	1.26721
1199.52	13.9853
1202.42	20.5687
1205.31	5.49707
1208.2	55.6658
1211.1	5.02918
1213.99	25.0046
1216.88	3.76947
1219.77	13.7903
1222.67	15.1428
1225.56	0.027161
1228.45	14.2104
1231.34	3.26092
