Measurement: Raman, 780 nm, unoriented, Raman Data Processed
Mineral: Fergusonite-(Y)-beta
Rruff sample: R080103
Ideal chemistry: YNbO_4_
Locality: Arendal, Aust-Agder, Norway
Source: James Shigley
Description: Olive green fragment from metamict sample R070600, after heating at T = 1000 C for 20 hours
Raman shift (cm-1)	intensity
150.673	0
153.566	426.555
156.458	827.008
159.351	1026.97
162.244	1039.38
165.137	1084.68
168.029	764.876
170.922	367.504
173.815	90.2041
176.707	64.4658
179.6	14.8838
182.493	168.619
185.385	519.558
188.278	1003.01
191.171	1584.28
194.064	2226.21
196.956	2890.15
199.849	3548.2
202.742	4279.28
205.634	4949.25
208.527	5319.96
211.42	5465.81
214.312	5335.93
217.205	5085.7
220.098	4677.3
222.991	4297.64
225.883	3922.75
228.776	3604.62
231.669	3264.42
234.561	2849.35
237.454	2281.2
240.347	1597.77
243.239	988.054
246.132	521.351
249.025	196.32
251.918	3.375
254.81	104.969
257.703	151.812
260.596	126.932
263.488	83.8945
266.381	73.3486
269.274	57.873
272.166	8.90332
275.059	13.8389
277.952	57.6748
280.845	87.0254
283.737	126.454
286.63	166.06
289.523	174.647
292.415	144.175
295.308	179.701
298.201	246.466
301.094	375.714
303.986	569.744
306.879	839.138
309.772	1203.83
312.664	1714.96
315.557	2280.64
318.45	3017.27
321.342	3862.49
324.235	4705.61
327.128	5269.72
330.021	5483.87
332.913	5367.7
335.806	5218.04
338.699	5006.16
341.591	4575.1
344.484	4075.76
347.377	3789.15
350.269	3768.31
353.162	3858.07
356.055	3963.07
358.947	4113.3
361.84	4213.04
364.733	4305.67
367.626	4370.39
370.518	4389.16
373.411	4365
376.304	4264.54
379.196	4077.11
382.089	3745.1
384.982	3385.45
387.875	2970.89
390.767	2509.97
393.66	2088.68
396.553	1724.39
399.445	1364.01
402.338	1077.35
405.231	818.062
408.123	606.832
411.016	485.843
413.909	376.146
416.802	301.519
419.694	241.929
422.587	221.812
425.48	231.499
428.372	259.378
431.265	434.753
434.158	724.626
437.05	1058.66
439.943	1361.43
442.836	1605.98
445.729	1813.18
448.621	1972.61
451.514	1983.48
454.407	1859.9
457.299	1551.73
460.192	1223.81
463.085	905.102
465.978	607.34
468.87	314.717
471.763	94.4189
474.656	61.1318
477.548	174.928
480.441	177.905
483.334	170.73
486.226	151.272
489.119	107.49
492.012	93.4346
494.904	103.78
497.797	53.8701
500.69	41.7656
503.583	162.277
506.475	307.43
509.368	413.854
512.261	506.585
515.153	615.077
518.046	747.282
520.939	862.914
523.832	1015.31
526.724	1160.14
529.617	1307.88
532.51	1404.13
535.402	1410.39
538.295	1393.4
541.188	1340.9
544.08	1322.11
546.973	1314.78
549.866	1345.95
552.759	1456.48
555.651	1573.52
558.544	1721.22
561.437	1871.43
564.329	2033.98
567.222	2167.15
570.115	2285.69
573.007	2322.06
575.9	2307.09
578.793	2231.23
581.686	2087.97
584.578	1878.7
587.471	1709.12
590.364	1533.57
593.256	1389.12
596.149	1277.64
599.042	1217.92
601.934	1208.73
604.827	1195.43
607.72	1227.96
610.613	1184.96
613.505	1165.56
616.398	1114.9
619.291	1036.19
622.183	976.102
625.076	868
627.969	781.721
630.861	694.018
633.754	633.747
636.647	596.188
639.54	579.968
642.432	560.948
645.325	526.362
648.218	532.726
651.11	511.588
654.003	513.974
656.896	520.753
659.788	498.741
662.681	479.794
665.574	418.838
668.467	420.423
671.359	413.996
674.252	402.671
677.145	373.871
680.037	331.572
682.93	306.823
685.823	272.272
688.716	228.756
691.608	186.918
694.501	131.583
697.394	95.0327
700.286	45.6162
703.179	8.42432
706.072	38.3569
708.965	68.3813
711.857	78.4761
714.75	92.8779
717.643	86.9282
720.535	78.2969
723.428	63.8481
726.321	44.2363
729.213	21.4744
732.106	1.45068
734.999	28.3831
737.891	51.1033
740.784	84.3081
743.677	120.686
746.57	162.154
749.462	200.435
752.355	249.412
755.248	294.046
758.14	342.378
761.033	402.886
763.926	458.041
766.818	509.831
769.711	571.771
772.604	630.034
775.497	688.718
778.389	746.033
781.282	818.475
784.175	897.302
787.067	1013.83
789.96	1158.17
792.853	1345.45
795.745	1573.47
798.638	1868.11
801.531	2182.64
804.424	2519.67
807.316	2828.27
810.209	3027.22
813.102	2982.7
815.994	2722.06
818.887	2348.9
821.78	1929.27
824.673	1583.43
827.565	1305.58
830.458	1086.02
833.351	924.075
836.243	770.457
839.136	633.521
842.029	490.421
844.921	356.136
847.814	224.192
850.707	124.001
853.6	54.7543
856.492	8.77368
859.385	13.9845
862.278	8.17786
865.17	9.05603
868.063	34.9955
870.956	66.9205
873.848	106.694
876.741	127.516
879.634	147.747
882.527	152.987
885.419	148.583
888.312	134.639
891.205	110.648
894.097	93.2071
896.99	82.1232
899.883	73.261
902.775	65.0128
905.668	62.1755
908.561	68.1165
911.454	82.1258
914.346	99.3934
917.239	116.945
920.132	147.93
923.024	181
925.917	204.698
928.81	232.935
931.702	255.99
934.595	259.134
937.488	246.191
940.381	222.386
943.273	192.223
946.166	148.835
949.059	108.403
951.951	68.2461
954.844	33.8784
957.737	9.79608
960.63	7.73206
963.522	16.8115
966.415	8.91956
969.308	17.9921
972.2	13.2374
975.093	7.21564
977.986	1.61353
980.878	9.65546
983.771	19.9273
986.664	32.8091
989.557	49.5836
992.449	70.6094
995.342	82.9984
998.235	113.085
1001.13	147.33
1004.02	182.784
1006.91	218.325
1009.8	263.917
1012.7	305.933
1015.59	349.341
1018.48	388.535
1021.38	420.245
1024.27	447.871
1027.16	449.956
1030.05	453.534
1032.95	439.556
1035.84	426.995
1038.73	415.925
1041.62	389.6
1044.52	380.282
1047.41	366.671
1050.3	359.156
1053.2	360.182
1056.09	358.363
1058.98	358.159
1061.87	343.366
1064.77	330.988
1067.66	309.994
1070.55	281.829
1073.44	247.027
1076.34	212.024
1079.23	167.092
1082.12	131.395
1085.02	101.032
1087.91	69.3292
1090.8	48.4581
1093.69	32.2193
1096.59	24.8577
1099.48	16.125
1102.37	11.9403
1105.27	8.28998
1108.16	5.24457
1111.05	8.75336
1113.94	0.663757
1116.84	1.93542
1119.73	4.49676
1122.62	4.25238
1125.51	2.5224
1128.41	0.55426
1131.3	3.07526
1134.19	0.072021
1137.08	1.43701
1139.98	0.664307
1142.87	2.3028
1145.76	5.05786
1148.65	5.2052
1151.55	6.40832
1154.44	12.3857
1157.33	13.8655
1160.23	14.6202
1163.12	19.4988
1166.01	22.6534
1168.9	23.7086
1171.8	20.9102
1174.69	22.2839
1177.58	18.9706
1180.47	20.9888
1183.37	17.1083
1186.26	14.5407
1189.15	18.292
1192.05	17.8463
1194.94	12.1088
1197.83	24.3257
1200.72	25.8137
1203.62	31.6101
1206.51	34.7443
1209.4	31.7093
1212.3	31.0055
1215.19	32.7685
1218.08	22.0078
1220.97	16.6028
1223.87	15.4944
1226.76	10.8784
1229.65	1.42664
1232.54	3.67291
1235.44	2.01489
1238.33	1.06665
1241.22	1.80804
1244.11	2.17395
1247.01	0.223389
1249.9	0.671631
1252.79	0.566406
1255.68	0.182495
1258.58	0.499634
1261.47	16.4564
1264.36	12.3209
1267.26	24.4849
1270.15	17.314
1273.04	18.8618
1275.93	12.1171
1278.83	10.7831
1281.72	5.65662
1284.61	2.67358
