Measurement: Raman, 532 nm, unoriented, Raman Data Processed
Mineral: Ferrosilite
Rruff sample: R070387
Ideal chemistry: Fe^2+^SiO_3_
Locality: Central Gneissic Complex (Khtada Lake), British Columbia, Canada
Source: Jibamitra Ganguly
Description: Translucent greenish-yellow grains with vitreous luster, known as Hollister enstatite
Measured chemistry: (Fe_0.48_Mg_0.47_Al_0.02_Ca_0.02_[box]_0.01_)_Î£=1_Si_1.00_O_3_ ; = light phase. There are trace amounts of Mn and Ti. The dark phase = quartz
Raman shift (cm-1)	intensity
180.529	0
183.421	40.9948
186.314	19.3827
189.207	32.6285
192.1	13.7871
194.992	22.6779
197.885	38.8987
200.778	21.1934
203.67	132.417
206.563	186.71
209.456	319.55
212.348	409.196
215.241	467.104
218.134	547.839
221.026	551.722
223.919	677.465
226.812	580.513
229.705	418.236
232.597	278.487
235.49	151.577
238.383	116.74
241.275	68.6156
244.168	61.7474
247.061	66.0824
249.953	86.9831
252.846	63.5537
255.739	79.8584
258.632	42.4227
261.524	12.847
264.417	79.8068
267.31	68.1119
270.202	3.82519
273.095	13.7002
275.988	56.0336
278.88	140.134
281.773	150.282
284.666	91.21
287.559	108.656
290.451	86.2207
293.344	120.291
296.237	154.237
299.129	229.058
302.022	297.971
304.915	458.167
307.808	635.119
310.7	927.336
313.593	1323.84
316.486	1796.14
319.378	2358.09
322.271	2997.58
325.164	3579.84
328.056	3940.8
330.949	3678.17
333.842	2964.07
336.735	2256.04
339.627	1645.66
342.52	1149.02
345.413	861.712
348.305	660.932
351.198	512.409
354.091	425.553
356.983	387.786
359.876	494.973
362.769	571.541
365.661	652.333
368.554	1007.71
371.447	1138
374.34	1468.72
377.232	2002.34
380.125	2404.49
383.018	2632.72
385.91	2484.57
388.803	1723.99
391.696	961.565
394.589	481.285
397.481	304.108
400.374	152.567
403.267	114.206
406.159	155.003
409.052	208.118
411.945	298.906
414.837	401.835
417.73	402.478
420.623	347.183
423.515	162.467
426.408	18.8154
429.301	18.9321
432.194	65.0888
435.086	41.266
437.979	33.1537
440.872	42.0784
443.764	17.1907
446.657	91.0241
449.55	108.711
452.442	94.6704
455.335	87.2068
458.228	51.7914
461.121	20.8206
464.013	6.21497
466.906	31.1893
469.799	7.59705
472.691	26.8204
475.584	37.2557
478.477	13.9071
481.37	55.9098
484.262	11.6145
487.155	91.5935
490.048	57.3991
492.94	66.0217
495.833	104.43
498.726	173.981
501.618	245.35
504.511	395.438
507.404	572.368
510.296	710.053
513.189	810.217
516.082	764.082
518.975	753.269
521.867	780.629
524.76	912.043
527.653	1017.33
530.545	1105.72
533.438	1020.01
536.331	940.348
539.223	846.691
542.116	740.361
545.009	495.699
547.902	406.344
550.794	312.729
553.687	293.8
556.58	280.412
559.472	226.573
562.365	251.174
565.258	167.598
568.15	152.503
571.043	130.049
573.936	135.976
576.829	100.586
579.721	98.3934
582.614	63.2174
585.507	38.5647
588.399	51.1996
591.292	40.946
594.185	7.08618
597.077	21.7467
599.97	24.3852
602.863	4.9823
605.756	12.3229
608.648	2.8988
611.541	19.3352
614.434	37.465
617.326	80.7196
620.219	23.1882
623.112	92.1145
626.005	122.586
628.897	149.158
631.79	210.331
634.683	256.033
637.575	382.676
640.468	652.276
643.361	936.347
646.253	1358.43
649.146	1693.89
652.039	2006.62
654.932	2039.38
657.824	1933.79
660.717	2054.66
663.61	2470.71
666.502	2976.93
669.395	3321.62
672.288	3026.9
675.18	2168.82
678.073	1417.25
680.966	907.383
683.859	611.471
686.751	376.121
689.644	270.229
692.537	195.433
695.429	167.081
698.322	64.5165
701.215	96.4633
704.107	51.3097
707	6.91003
709.893	34.5724
712.785	9.52478
715.678	19.432
718.571	24.8483
721.464	6.36914
724.356	81.3403
727.249	42.7701
730.142	103.604
733.034	127.275
735.927	126.371
738.82	151.341
741.712	126.006
744.605	113.409
747.498	147.018
750.391	90.0188
753.283	2.59131
756.176	7.56323
759.069	4.97205
761.961	12.2183
764.854	9.61536
767.747	6.38806
770.639	10.044
773.532	6.34668
776.425	2.68726
779.318	21.9702
782.21	31.9374
785.103	24.9013
787.996	60.9238
790.888	43.0022
793.781	33.485
796.674	78.199
799.567	66.9522
802.459	83.3794
805.352	70.5255
808.245	106.362
811.137	95.3207
814.03	137.413
816.923	124.433
819.815	102.094
822.708	150.308
825.601	105.131
828.494	103.582
831.386	75.7435
834.279	91.9744
837.172	67.7126
840.064	56.3763
842.957	21.014
845.85	34.7346
848.742	33.4834
851.635	7.59839
854.528	21.4059
857.42	7.87561
860.313	20.8694
863.206	42.6632
866.099	74.4471
868.991	69.4971
871.884	84.3362
874.777	113.315
877.669	161.593
880.562	198.194
883.455	217.698
886.347	189.294
889.24	171.473
892.133	158.008
895.026	147.7
897.918	84.072
900.811	36.6316
903.704	22.8865
906.596	41.114
909.489	3.22437
912.382	9.31799
915.274	9.28735
918.167	10.6112
921.06	55.4712
923.953	11.9023
926.845	86.4927
929.738	51.2561
932.631	131.067
935.523	216.868
938.416	360.233
941.309	527.877
944.202	751.289
947.094	851.302
949.987	860.763
952.88	719.069
955.772	475.866
958.665	264.103
961.558	159.216
964.45	37.5791
967.343	25.3689
970.236	69.1782
973.129	152.323
976.021	303.386
978.914	592.273
981.807	997.127
984.699	1733.39
987.592	2842.78
990.485	4195.56
993.377	5360.65
996.27	5669.24
999.163	4958.89
1002.06	3603.49
1004.95	2463.97
1007.84	1675.45
1010.73	1231.39
1013.63	805.79
1016.52	656.176
1019.41	457.893
1022.3	340.07
1025.2	294.691
1028.09	262.652
1030.98	218.077
1033.88	77.5112
1036.77	115.683
1039.66	111.451
1042.55	40.9446
1045.45	0.887695
1048.34	12.8543
1051.23	25.8413
1054.12	13.1887
1057.02	17.6419
1059.91	4.84253
1062.8	12.4031
1065.69	3.99097
1068.59	3.20825
1071.48	26.2248
1074.37	42.9924
1077.27	9.99585
1080.16	68.687
1083.05	48.5818
1085.94	59.4349
1088.84	75.1625
1091.73	101.548
1094.62	75.7349
1097.52	80.094
1100.41	108.33
1103.3	92.1598
1106.19	69.6572
1109.09	77.1423
1111.98	86.9653
1114.87	99.6894
1117.76	84.8101
1120.66	37.9462
1123.55	61.9274
1126.44	28.4794
1129.33	20.5021
1132.23	63.102
1135.12	58.4419
1138.01	23.8772
1140.9	18.6223
1143.8	21.3574
1146.69	20.7082
1149.58	48.6572
1152.48	83.2324
1155.37	61.3931
1158.26	80.85
1161.15	23.6969
1164.05	1.12183
1166.94	22.4898
1169.83	37.0444
1172.72	82.807
1175.62	50.2607
1178.51	51.2548
1181.4	14.1492
1184.3	78.8768
1187.19	57.0283
1190.08	34.6521
1192.97	59.3157
1195.87	73.0075
1198.76	1.28882
1201.65	39.67
1204.55	61.3309
1207.44	3.02856
1210.33	17.1758
1213.22	36.8715
1216.12	49.4584
1219.01	34.7667
1221.9	51.978
1224.79	51.5547
1227.69	7.88037
1230.58	6.2113
1233.47	47.755
1236.36	38.1191
1239.26	60.1741
1242.15	43.8207
1245.04	2.77771
1247.93	35.651
1250.83	38.7427
1253.72	28.5361
1256.61	55.297
1259.51	54.9716
1262.4	11.5584
1265.29	51.9937
1268.18	56.0366
1271.08	27.6084
1273.97	34.4274
1276.86	29.9355
1279.76	40.407
1282.65	19.309
1285.54	21.2279
1288.43	22.0946
1291.33	35.4042
1294.22	42.6163
1297.11	39.2014
1300	22.3474
