Measurement: Raman, 532 nm, unoriented, Raman Data Processed
Mineral: Ferro-holmquistite
Rruff sample: R070005
Ideal chemistry: [box]Li_2_(Fe^2+^_3_Al_2_)Si_8_O_22_(OH)_2_
Locality: Mount Marrion, South Australia, Australia
Source: Michael Scott
Description: Dark blue fractured prismatic crystals
Measured chemistry: (Li_1.93_Na_0.03_Mn_0.02_[box]_0.02_)_Σ=2_((Fe^2+^_1.52_Mg_1.48_)_Σ=3_(Al_1.91_Fe^3+^_0.09_)_Σ=2_)_Σ=5_Si_8.00_O_22_(OH)_2_; Li estimated by difference Li=2-(Na+K+Ca+Mn) and charge balance; OH by charge balance
Raman shift (cm-1)	intensity
174.287	0
177.179	668.297
180.072	2871.5
182.965	5680.37
185.858	8774.71
188.75	10995.8
191.643	11081.9
194.536	7537.93
197.428	3915.25
200.321	2295.47
203.214	1520.84
206.107	1003.5
208.999	793.91
211.892	428.613
214.785	497.09
217.677	13.8945
220.57	55.5391
223.463	233.449
226.355	206.871
229.248	77.25
232.141	8.6875
235.034	151.449
237.926	493.797
240.819	622.926
243.712	685.434
246.604	948.09
249.497	940
252.39	996.781
255.282	1140.17
258.175	1029.07
261.068	958.922
263.961	793.527
266.853	702.383
269.746	432.012
272.639	242.812
275.531	365.469
278.424	363.348
281.317	288.215
284.209	458.543
287.102	391.106
289.995	667.359
292.887	628.488
295.78	656.711
298.673	550.965
301.566	462.555
304.458	413.238
307.351	327.777
310.244	189.672
313.136	90.3086
316.029	123.402
318.922	1.37891
321.815	98.1367
324.707	199.523
327.6	287.121
330.493	484.621
333.385	891.062
336.278	1214.38
339.171	1334.28
342.063	1464.49
344.956	1415.73
347.849	1193.04
350.741	809.195
353.634	545.098
356.527	485.953
359.42	336.394
362.312	407.269
365.205	437.652
368.098	622.66
370.99	1201.82
373.883	2006.43
376.776	3508.12
379.668	4809.62
382.561	6035.6
385.454	6680.49
388.347	6005.87
391.239	4571.53
394.132	3387.4
397.025	2604.84
399.917	2278.55
402.81	2111.51
405.703	2016.98
408.596	1821.51
411.488	1809.02
414.381	2003.77
417.274	2195.46
420.166	2261.22
423.059	1911.89
425.952	1095.89
428.844	363.801
431.737	73.7578
434.63	105.398
437.522	7.76172
440.415	37.8945
443.308	138.484
446.201	383.434
449.093	532.32
451.986	946.531
454.879	759.211
457.771	654.168
460.664	442.805
463.557	327.125
466.45	37.7578
469.342	137.254
472.235	63.2109
475.128	176.246
478.02	57.5898
480.913	205.5
483.806	54.9336
486.698	6.65625
489.591	381.828
492.484	410.332
495.377	549.769
498.269	611.809
501.162	414.023
504.055	268.461
506.947	128.531
509.84	44.918
512.733	46.1172
515.625	42.1953
518.518	317.461
521.411	415.836
524.303	649.508
527.196	922.539
530.089	896.5
532.982	915.938
535.874	949.039
538.767	1015.95
541.66	1097.21
544.552	1046.25
547.445	1202.34
550.338	1045.76
553.231	1018.24
556.123	851.977
559.016	710.445
561.909	813.859
564.801	472.383
567.694	549.203
570.587	309.805
573.479	378.25
576.372	539.961
579.265	359.57
582.158	444.047
585.05	461.484
587.943	548.391
590.836	434.938
593.728	869.383
596.621	825.867
599.514	985.5
602.407	1533.91
605.299	1816.27
608.192	1779.19
611.085	1903.31
613.977	1410.35
616.87	748.352
619.763	317.406
622.655	454.188
625.548	142.828
628.441	43.1953
631.333	280.609
634.226	56.4141
637.119	219.516
640.012	219.875
642.904	446.32
645.797	759.703
648.69	1120.58
651.582	1369.33
654.475	2186.73
657.368	3244.94
660.26	5215.06
663.153	8305.71
666.046	12496.5
668.939	17243.5
671.831	21615.9
674.724	24149.3
677.617	21767.9
680.509	15252.1
683.402	9671.06
686.295	6608.13
689.188	4735.63
692.08	3495.3
694.973	2655.92
697.866	2268.36
700.758	2035.86
703.651	1622.38
706.544	1279.95
709.436	1118.52
712.329	490.672
715.222	423.43
718.115	89.3828
721.007	46.6328
723.9	62.6719
726.793	23.5625
729.685	116.766
732.578	257.422
735.471	389.188
738.363	922.875
741.256	1693.82
744.149	1785.1
747.042	2494.38
749.934	2234.27
752.827	1639.76
755.72	958.312
758.612	512.445
761.505	199.516
764.398	137.93
767.29	71.6875
770.183	36.5312
773.076	278.141
775.968	248.156
778.861	562.094
781.754	620.688
784.647	992.492
787.539	1040.31
790.432	782.117
793.325	860.695
796.217	485.852
799.11	259.148
802.003	225.195
804.895	95.4766
807.788	97.0391
810.681	225.867
813.574	58.9609
816.466	27.5234
819.359	85.7266
822.252	14.4922
825.144	86.6797
828.037	10.8516
830.93	18.9531
833.822	88.7109
836.715	113.383
839.608	392.836
842.501	76.1016
845.393	301.742
848.286	379.406
851.179	395.297
854.071	326.438
856.964	636.977
859.857	842.25
862.75	638.422
865.642	448.508
868.535	787.938
871.428	761.664
874.32	956.039
877.213	878.211
880.106	973.43
882.998	1134.88
885.891	1069.38
888.784	1205.32
891.677	934.859
894.569	774.016
897.462	716.195
900.355	377.406
903.247	505.031
906.14	432.203
909.033	110.945
911.925	309.016
914.818	307.086
917.711	280.25
920.604	306.188
923.496	169.734
926.389	152.43
929.282	72.3828
932.174	25.4609
935.067	21.2031
937.96	57.0156
940.852	32.6094
943.745	80.875
946.638	53.3984
949.531	47.1953
952.423	115.734
955.316	232.219
958.209	153.414
961.101	153.109
963.994	76.4844
966.887	226.32
969.779	242.219
972.672	127.883
975.565	96.9219
978.458	233.609
981.35	647.242
984.243	833.008
987.136	1425.81
990.028	1877.11
992.921	2006.77
995.814	1987.42
998.707	1565.65
1001.6	911.969
1004.49	680.359
1007.38	939.047
1010.28	597.406
1013.17	729.094
1016.06	940.742
1018.96	1260.73
1021.85	1222.74
1024.74	1379.48
1027.63	1336.7
1030.53	1418.94
1033.42	1726.72
1036.31	2101.74
1039.2	2417.45
1042.1	2460.61
1044.99	2320.91
1047.88	2654.18
1050.78	2899.93
1053.67	3353.69
1056.56	3587.23
1059.45	3575.2
1062.35	3246.13
1065.24	2075.52
1068.13	1129.31
1071.02	572.664
1073.92	407.516
1076.81	472.188
1079.7	53.5781
1082.6	129.227
1085.49	50.3438
1088.38	148.312
1091.27	64.9688
1094.17	5.53906
1097.06	129.516
1099.95	3.09375
1102.84	53.4453
1105.74	40.5234
1108.63	182.562
1111.52	185.641
1114.41	238.945
1117.31	454.297
1120.2	1004.09
1123.09	1242.8
1125.98	1304.19
1128.88	1227.64
1131.77	411.18
1134.66	409.234
1137.56	356.25
1140.45	344.969
1143.34	472.359
1146.23	323.836
1149.13	333.117
1152.02	817
1154.91	311.484
1157.81	390.945
1160.7	268.523
1163.59	207.984
1166.48	66.6797
1169.38	138.094
1172.27	147.141
1175.16	114.141
1178.05	19.3906
1180.95	45.8203
1183.84	123.344
1186.73	38.8828
1189.62	261.32
1192.52	174.039
1195.41	103.336
1198.3	153.703
1201.2	109.25
1204.09	228.469
1206.98	325.938
1209.87	279.461
1212.77	258.281
1215.66	245.625
1218.55	237.852
1221.44	310.156
1224.34	118.305
1227.23	178.266
1230.12	427.781
1233.02	299.273
1235.91	81.1719
1238.8	534.352
1241.69	368.133
1244.59	105.219
1247.48	229.688
1250.37	265.852
1253.26	227.953
1256.16	194.812
1259.05	350.625
1261.94	305.258
1264.84	512.445
1267.73	364.305
1270.62	249.195
1273.51	462.758
1276.41	458.328
1279.3	507.852
1282.19	175.203
1285.08	639.844
1287.98	563.297
1290.87	550.102
1293.76	378.859
1296.65	510.289
1299.55	179.633
1302.44	77.0312
1305.33	321.078
1308.22	293.133
1311.12	299.633
1314.01	39.3594
1316.9	205.711
