Measurement: Raman, 532 nm, unoriented, Raman Data Processed
Mineral: Ferrimolybdite
Rruff sample: R050542
Ideal chemistry: Fe^3+^_2_(Mo^6+^O_4_)_3_7H_2_O
Locality: Alicante mine, Colorado, USA
Source: University of Arizona Mineral Museum
Description: Mat of parallel fibrous yellow-green crystals
Measured chemistry: Fe^3+^_2.00_(Mo_1.00_O_4_)_3_Â·11H_2_O ; H2O estimated by difference
Raman shift (cm-1)	intensity
153.119	0
156.012	1.05438
158.905	0.819794
161.797	0.564117
164.69	3.40091
167.583	9.71609
170.475	8.46603
173.368	15.1314
176.261	16.9282
179.153	18.082
182.046	27.4429
184.939	29.7214
187.832	34.0628
190.724	40.3756
193.617	45.8654
196.51	52.0296
199.402	63.1173
202.295	72.3794
205.188	84.6528
208.08	97.9801
210.973	114.297
213.866	134.698
216.758	151.939
219.651	177.188
222.544	202.102
225.437	217.388
228.329	228.878
231.222	235.869
234.115	235.504
237.007	220.883
239.9	199.385
242.793	174.651
245.685	152.371
248.578	125.206
251.471	102.334
254.364	80.6354
257.256	66.4025
260.149	50.9891
263.042	40.8697
265.934	35.5022
268.827	32.4146
271.72	24.273
274.613	19.0578
277.505	19.8269
280.398	16.8369
283.291	7.78784
286.183	1.94742
289.076	0.410187
291.969	4.22201
294.861	5.9126
297.754	5.30331
300.647	3.03503
303.539	2.64448
306.432	4.93936
309.325	10.0531
312.218	19.6243
315.11	30.0283
318.003	43.1349
320.896	54.3658
323.788	65.0565
326.681	76.9242
329.574	89.5969
332.466	103.213
335.359	118.308
338.252	124.053
341.145	128.663
344.037	128.032
346.93	118.133
349.823	114.259
352.715	100.573
355.608	88.3067
358.501	79.2331
361.394	72.3422
364.286	62.8656
367.179	51.9948
370.072	48.5735
372.964	39.2268
375.857	29.6433
378.75	25.3388
381.642	22.907
384.535	16.1346
387.428	15.555
390.32	10.8215
393.213	10.747
396.106	11.0237
398.999	8.4151
401.891	17.049
404.784	22.4075
407.677	32.0864
410.569	39.1697
413.462	55.5301
416.355	74.3626
419.248	90.7026
422.14	103.727
425.033	117.543
427.926	125.52
430.818	129.597
433.711	125.642
436.604	115.656
439.496	109.327
442.389	102.091
445.282	93.8297
448.174	90.7483
451.067	73.8256
453.96	70.9554
456.853	62.8808
459.745	50.2823
462.638	43.0485
465.531	30.4824
468.423	22.3257
471.316	16.3349
474.209	15.1801
477.101	10.2808
479.994	5.48471
482.887	6.78439
485.779	0.039734
488.672	2.00894
491.565	1.69812
494.458	1.30533
497.35	7.40832
500.243	3.76126
503.136	0.013519
506.028	0.981171
508.921	1.13538
511.814	6.26175
514.707	4.53388
517.599	9.52228
520.492	16.0392
523.385	20.368
526.277	23.2706
529.17	28.7338
532.063	32.8381
534.955	40.3098
537.848	44.6663
540.741	52.6623
543.634	58.5283
546.526	60.6454
549.419	61.0591
552.312	63.1661
555.204	56.8286
558.097	61.1497
560.99	54.574
563.882	52.2512
566.775	47.996
569.668	47.8784
572.561	46.438
575.453	43.7518
578.346	45.2339
581.239	49.1861
584.131	47.3616
587.024	49.4594
589.917	49.7159
592.809	45.0593
595.702	44.8485
598.595	36.8719
601.487	35.2605
604.38	30.533
607.273	28.5491
610.166	23.7037
613.058	19.1119
615.951	15.3772
618.844	14.0469
621.736	7.54456
624.629	8.11743
627.522	5.19562
630.414	3.12744
633.307	0.342896
636.2	4.18811
639.093	0.197937
641.985	4.06519
644.878	2.01858
647.771	3.65085
650.663	1.26804
653.556	2.69781
656.449	1.51679
659.341	0.509033
662.234	0.493744
665.127	1.03388
668.02	1.35773
670.912	0.968842
673.805	5.45172
676.698	7.28668
679.59	8.74762
682.483	7.86496
685.376	14.9453
688.269	18.8581
691.161	20.4644
694.054	23.6195
696.947	21.8212
699.839	31.2394
702.732	35.6889
705.625	37.5546
708.517	45.2446
711.41	48.0293
714.303	54.7582
717.196	59.2694
720.088	67.8905
722.981	74.9486
725.874	76.8617
728.766	86.2351
731.659	89.0492
734.552	94.0756
737.444	98.4976
740.337	100.448
743.23	102.904
746.122	104.215
749.015	102.078
751.908	101.326
754.801	98.2505
757.693	99.9805
760.586	96.8183
763.479	91.3381
766.371	88.431
769.264	84.115
772.157	79.5895
775.049	68.9547
777.942	67.0227
780.835	60.4002
783.727	51.6451
786.62	54.2161
789.513	42.5737
792.406	38.3909
795.298	27.8519
798.191	23.2042
801.084	17.6074
803.976	10.2595
806.869	8.19293
809.762	7.0036
812.654	0.131104
815.547	2.23337
818.44	1.43921
821.333	3.37592
824.225	0.936462
827.118	0.837158
830.011	3.40674
832.903	5.0899
835.796	15.3664
838.689	16.1517
841.582	17.2376
844.474	15.0624
847.367	15.1221
850.26	8.3111
853.152	14.3546
856.045	1.37091
858.938	0.617859
861.83	0.374329
864.723	2.27908
867.616	2.72479
870.509	0.357117
873.401	2.13785
876.294	5.56378
879.187	9.4003
882.079	13.1007
884.972	21.5106
887.865	28.7659
890.757	38.6488
893.65	44.7273
896.543	57.1445
899.436	70.4698
902.328	76.458
905.221	86.3726
908.114	93.4122
911.006	104.903
913.899	118.501
916.792	134.908
919.684	151.602
922.577	164.444
925.47	179.083
928.362	200.62
931.255	218.967
934.148	240.841
937.041	267.623
939.933	298.741
942.826	333.481
945.719	369.948
948.611	401.257
951.504	414.606
954.397	414.637
957.29	384.664
960.182	329.876
963.075	274.603
965.968	220.392
968.86	171.357
971.753	129.652
974.646	90.6509
977.538	66.3596
980.431	42.2668
983.324	25.6899
986.216	13.0827
989.109	8.87366
992.002	0.037445
994.895	0.072845
997.787	2.01431
1000.68	0.810303
1003.57	2.17374
1006.47	0.321838
1009.36	2.69669
1012.25	1.72723
1015.14	2.91574
1018.04	2.79095
1020.93	6.35208
1023.82	7.27097
1026.71	11.6068
1029.61	10.9837
1032.5	13.5856
1035.39	14.1687
1038.29	13.2986
1041.18	13.1897
1044.07	14.1901
1046.96	16.1287
1049.86	20.6008
1052.75	12.1543
1055.64	12.9391
1058.53	11.797
1061.43	10.1664
1064.32	9.99112
1067.21	9.65585
1070.11	8.82323
1073	5.95422
1075.89	5.34909
1078.78	9.69237
1081.68	7.88733
1084.57	9.57684
1087.46	6.24968
1090.35	3.75902
1093.25	3.09465
1096.14	4.26204
1099.03	3.02165
1101.92	1.84485
1104.82	3.17819
1107.71	1.92497
1110.6	3.33627
1113.49	2.95148
1116.39	4.81538
1119.28	2.83826
1122.17	2.33774
1125.07	0.874985
1127.96	1.82761
1130.85	2.28188
1133.74	0.087692
1136.64	4.68401
1139.53	2.16591
1142.42	3.05869
1145.32	4.67175
1148.21	1.59908
1151.1	1.3402
1153.99	1.82011
1156.89	2.57605
1159.78	1.8434
1162.67	1.79153
1165.56	0.621643
1168.46	1.8275
1171.35	3.7599
1174.24	1.83789
1177.13	0.405746
1180.03	1.54248
1182.92	3.01813
1185.81	0.224945
1188.7	0.779633
1191.6	0.996338
1194.49	3.60074
1197.38	4.46535
1200.28	1.25619
1203.17	1.93289
1206.06	0.774185
1208.95	0.193634
1211.85	2.93257
1214.74	2.10875
1217.63	2.40218
1220.53	2.56622
1223.42	1.17067
1226.31	3.18495
1229.2	4.49594
1232.1	2.61763
1234.99	3.4539
1237.88	1.43889
1240.77	3.82642
1243.67	1.84296
1246.56	2.1678
1249.45	3.33125
1252.35	4.57683
1255.24	0.734238
1258.13	1.72832
1261.02	4.87868
1263.92	4.32022
1266.81	1.87967
1269.7	4.49966
1272.59	4.95375
1275.49	0.024094
1278.38	2.74538
1281.27	0.162155
1284.16	3.87561
1287.06	2.29741
1289.95	4.70369
1292.84	1.74818
1295.73	1.15861
1298.63	5.51723
1301.52	1.11342
