Measurement: Raman, 532 nm, unoriented, Raman Data Processed
Mineral: Ferronigerite-2N1S
Rruff sample: R120083
Ideal chemistry: (Al,Fe,Zn)_2_(Al,Sn)_6_O_11_(OH)
Locality: Seixoso quarry, Lixa, Portugal
Source: Robert Jenkins
Description: Dark reddish-brown hexagonal tablets, frozen in matrix
Raman shift (cm-1)	intensity
201.379	0
204.272	2.0603
207.164	2.21287
210.057	5.03245
212.95	4.23599
215.843	3.40572
218.735	2.04401
221.628	0.534866
224.521	0.875259
227.413	0.606949
230.306	1.94769
233.199	0.964401
236.091	1.64674
238.984	1.88408
241.877	0.835388
244.769	0.922104
247.662	1.22925
250.555	1.44545
253.448	5.86612
256.34	9.68532
259.233	13.7253
262.126	19.7016
265.018	23.86
267.911	27.4108
270.804	24.8125
273.697	20.2587
276.589	13.5267
279.482	7.11102
282.375	7.23177
285.267	2.55206
288.16	2.24007
291.053	0.412506
293.945	2.42143
296.838	0.327301
299.731	2.02917
302.623	1.44629
305.516	2.38065
308.409	3.42976
311.302	1.1611
314.194	2.25134
317.087	3.01056
319.98	5.75925
322.872	7.02199
325.765	10.169
328.658	11.2473
331.55	13.9901
334.443	15.647
337.336	12.4328
340.229	10.3935
343.121	10.8275
346.014	6.13052
348.907	5.83031
351.799	6.18344
354.692	5.49251
357.585	3.7856
360.478	3.60429
363.37	4.68404
366.263	3.13161
369.156	2.32587
372.048	2.22078
374.941	0.492188
377.834	0.71106
380.726	0.807251
383.619	3.02483
386.512	2.0321
389.404	1.2572
392.297	0.793289
395.19	0.518875
398.083	2.23503
400.975	3.54962
403.868	5.12791
406.761	6.35097
409.653	12.4625
412.546	12.4987
415.439	13.7148
418.332	15.7064
421.224	15.7614
424.117	17.5704
427.01	20.4292
429.902	21.231
432.795	22.8352
435.688	25.217
438.58	27.2937
441.473	29.6038
444.366	36.2478
447.259	42.2376
450.151	51.9942
453.044	64.896
455.937	81.9509
458.829	101.324
461.722	124.517
464.615	145.381
467.507	151.363
470.4	143.633
473.293	125.503
476.185	114.3
479.078	110.512
481.971	113.988
484.864	127.656
487.756	141.749
490.649	151.589
493.542	140.84
496.434	105.969
499.327	67.8719
502.22	40.773
505.113	28.984
508.005	15.0198
510.898	9.83449
513.791	5.42084
516.683	4.55605
519.576	2.53458
522.469	3.27867
525.361	5.32512
528.254	5.70639
531.147	5.56616
534.04	7.73146
536.932	7.99467
539.825	8.48398
542.718	8.92928
545.61	8.85117
548.503	9.60525
551.396	8.38545
554.288	6.95934
557.181	4.75899
560.074	1.98123
562.967	0.905228
565.859	1.13118
568.752	0.994537
571.645	3.18669
574.537	0.777954
577.43	0.598221
580.323	2.97992
583.216	5.83058
586.108	7.39323
589.001	7.46449
591.894	5.63414
594.786	1.75969
597.679	0.33873
600.572	0.211121
603.464	1.74965
606.357	0.481293
609.25	0.532364
612.142	0.253952
615.035	0.187012
617.928	1.59676
620.821	1.69627
623.713	1.55887
626.606	0.174576
629.499	0.740616
632.391	0.173157
635.284	1.9131
638.177	3.16296
641.069	4.99663
643.962	5.02055
646.855	6.03722
649.747	6.08781
652.64	4.8421
655.533	7.36733
658.426	7.06638
661.318	9.08003
664.211	8.63249
667.104	12.3471
669.996	16.7389
672.889	19.2136
675.782	23.6294
678.674	26.8302
681.567	28.4649
684.46	30.6346
687.353	28.9037
690.245	29.3248
693.138	30.5213
696.031	30.5146
698.923	31.6432
701.816	30.9061
704.709	29.7468
707.601	32.2911
710.494	31.1325
713.387	31.3641
716.28	29.9502
719.172	26.5312
722.065	25.464
724.958	24.0283
727.85	23.7223
730.743	21.2902
733.636	15.5948
736.529	12.2966
739.421	10.9536
742.314	9.00832
745.207	13.4558
748.099	18.1077
750.992	26.641
753.885	36.2995
756.777	47.7262
759.67	55.0955
762.563	55.5873
765.456	50.1743
768.348	37.824
771.241	23.4671
774.134	15.4803
777.026	4.52858
779.919	1.25503
782.812	2.90468
785.704	2.55139
788.597	1.01491
791.49	0.780945
794.383	4.09032
797.275	7.51051
800.168	8.58017
803.061	11.6852
805.953	14.0152
808.846	16.1212
811.739	16.5045
814.631	18.928
817.524	19.2283
820.417	20.9321
823.309	22.8607
826.202	22.2884
829.095	24.2969
831.988	25.5134
834.88	25.0267
837.773	26.0331
840.666	25.9077
843.558	28.4095
846.451	33.9424
849.344	42.5687
852.236	53.6284
855.129	65.9684
858.022	77.1859
860.915	85.6806
863.807	84.2408
866.7	77.2878
869.593	66.0584
872.485	53.7587
875.378	43.3691
878.271	33.691
881.163	26.6146
884.056	20.8318
886.949	15.6826
889.842	11.623
892.734	7.68326
895.627	6.11252
898.52	4.02869
901.412	1.50534
904.305	0.509186
907.198	0.436386
910.091	0.126953
912.983	3.30905
915.876	0.991455
918.769	0.109818
921.661	1.11858
924.554	0.627228
927.447	2.84993
930.339	1.98412
933.232	3.24376
936.125	2.71933
939.018	5.14351
941.91	6.75591
944.803	8.66873
947.696	9.57092
950.588	13.1289
953.481	16.5942
956.374	18.8809
959.266	23.1696
962.159	25.9351
965.052	29.7411
967.944	29.148
970.837	28.3866
973.73	28.2658
976.623	25.1173
979.515	24.2892
982.408	21.6733
985.301	18.4422
988.193	14.5072
991.086	10.9609
993.979	8.5188
996.871	4.3866
999.764	3.21233
1002.66	1.84363
1005.55	1.8867
1008.44	0.996414
1011.34	1.52625
1014.23	0.688675
1017.12	0.187958
1020.01	0.268097
1022.91	0.642181
1025.8	0.188248
1028.69	0.457138
1031.58	0.326828
1034.48	0.381287
1037.37	1.43823
1040.26	0.350128
1043.15	0.305222
1046.05	0.681458
1048.94	0.508652
1051.83	0.728867
1054.73	1.19461
1057.62	1.94009
1060.51	1.62399
1063.4	0.807938
1066.3	1.43739
1069.19	0.719315
1072.08	0.368805
1074.97	0.590759
1077.87	1.22846
1080.76	0.925827
1083.65	0.056808
1086.55	0.223938
1089.44	1.53195
1092.33	0.749435
1095.22	0.415741
1098.12	0.707672
1101.01	0.545288
1103.9	0.420258
1106.79	0.418716
1109.69	1.64262
1112.58	0.180176
1115.47	0.915283
1118.37	1.07929
1121.26	0.632919
1124.15	0.381729
1127.04	1.22286
1129.94	2.29817
1132.83	0.429504
1135.72	0.18071
1138.61	1.36583
1141.51	2.43146
1144.4	1.65483
1147.29	0.797577
1150.18	1.5246
1153.08	2.05258
1155.97	0.370087
1158.86	0.255249
1161.76	0.711029
1164.65	1.87035
1167.54	1.35158
1170.43	0.768463
1173.33	2.04571
1176.22	1.30165
1179.11	1.08
1182	0.837082
1184.9	1.65999
1187.79	3.21956
1190.68	1.46596
1193.58	1.24039
1196.47	2.27028
1199.36	2.37236
1202.25	1.10078
1205.15	2.00758
1208.04	2.76469
1210.93	2.25238
1213.82	1.1487
1216.72	2.23495
1219.61	1.8641
1222.5	2.32143
1225.39	1.95254
1228.29	2.8679
1231.18	1.43918
1234.07	1.58339
1236.97	0.652817
1239.86	0.408646
1242.75	0.026031
1245.64	0.330597
1248.54	0.975494
1251.43	0.164322
1254.32	0.894592
1257.21	1.64002
1260.11	2.98407
1263	2.38229
1265.89	1.56049
1268.79	1.53249
1271.68	1.87383
1274.57	2.1515
1277.46	1.05585
1280.36	1.14831
1283.25	1.21042
1286.14	0.956451
1289.03	1.11568
1291.93	1.52882
1294.82	1.65753
1297.71	1.10783
1300.61	0.088562
