Measurement: Raman, 532 nm, unoriented, Raman Data Processed
Mineral: Ferrostrunzite
Rruff sample: R100079
Ideal chemistry: Fe^2+^Fe^3+^_2_(PO_4_)_2_(OH)_2_6H_2_O
Locality: Hornerstown, Monmouth County, New Jersey, USA
Source: Jeff Weissman
Description: Radial sprays of colorless acicular crystals
Raman shift (cm-1)	intensity
174.381	0
177.273	2.62592
180.166	9.52643
183.059	14.4334
185.951	5.57361
188.844	3.12006
191.737	12.8765
194.629	32.1643
197.522	46.942
200.415	62.0635
203.308	64.1229
206.2	45.8456
209.093	25.1715
211.986	10.5377
214.878	1.19183
217.771	4.34796
220.664	2.86072
223.556	11.879
226.449	27.446
229.342	43.9405
232.234	57.8754
235.127	64.6606
238.02	52.0424
240.913	58.9121
243.805	70.6786
246.698	81.4445
249.591	85.7539
252.483	95.3959
255.376	103.328
258.269	93.8076
261.161	77.5146
264.054	68.5239
266.947	72.6365
269.84	77.293
272.732	85.0966
275.625	94.8499
278.518	97.7854
281.41	93.7659
284.303	81.462
287.196	68.6861
290.089	52.7022
292.981	46.9181
295.874	35.8872
298.767	26.6033
301.659	24.7986
304.552	28.8452
307.445	24.9348
310.337	30.7887
313.23	29.5216
316.123	30.2173
319.015	34.0601
321.908	31.6475
324.801	26.8294
327.694	11.4376
330.586	1.4184
333.479	1.92914
336.372	4.64239
339.264	2.14215
342.157	5.52966
345.05	9.32861
347.942	16.8934
350.835	23.3393
353.728	28.6984
356.621	34.6525
359.513	34.7966
362.406	30.1321
365.299	28.2919
368.191	24.6898
371.084	21.1567
373.977	15.8227
376.87	15.2303
379.762	16.6337
382.655	22.1304
385.548	23.2136
388.44	28.3436
391.333	25.7034
394.226	20.5338
397.118	14.1493
400.011	14.2733
402.904	8.39697
405.796	3.99408
408.689	4.22241
411.582	1.05054
414.475	3.18268
417.367	1.04578
420.26	2.15112
423.153	1.59228
426.045	4.4433
428.938	9.33521
431.831	17.7224
434.724	23.5933
437.616	29.1491
440.509	35.8497
443.402	39.3174
446.294	45.7822
449.187	45.6237
452.08	47.6041
454.972	44.4859
457.865	46.5617
460.758	45.7363
463.651	37.1535
466.543	40.2256
469.436	37.4762
472.329	34.936
475.221	34.9938
478.114	38.1255
481.007	40.5036
483.899	43.8587
486.792	49.2835
489.685	56.4579
492.577	67.0151
495.47	78.7904
498.363	86.4831
501.256	96.3871
504.148	96.0305
507.041	85.6589
509.934	75.5714
512.826	66.1661
515.719	59.0996
518.612	51.6189
521.505	46.674
524.397	41.4703
527.29	35.7588
530.183	28.9433
533.075	20.4615
535.968	14.2958
538.861	12.8893
541.753	12.8323
544.646	5.78491
547.539	1.20679
550.432	0.66925
553.324	0.341248
556.217	2.2514
559.11	3.12622
562.002	4.28827
564.895	5.79816
567.788	12.829
570.68	15.6887
573.573	14.3991
576.466	14.8012
579.359	10.7227
582.251	13.1347
585.144	10.821
588.037	9.24866
590.929	9.34802
593.822	3.72327
596.715	4.79736
599.607	0.310486
602.5	0.041626
605.393	0.892639
608.285	5.28503
611.178	1.09552
614.071	1.93024
616.964	0.046021
619.856	0.545959
622.749	5.98102
625.642	8.00928
628.534	7.50171
631.427	8.25458
634.32	9.08856
637.212	10.4219
640.105	10.7956
642.998	8.11517
645.891	7.07928
648.783	8.78424
651.676	8.48389
654.569	9.51385
657.461	7.61493
660.354	5.45679
663.247	3.93518
666.139	3.03534
669.032	0.020752
671.925	3.46692
674.818	1.6861
677.71	3.22815
680.603	3.66431
683.496	3.67603
686.388	0.839539
689.281	4.01093
692.174	2.07886
695.067	5.74573
697.959	4.12805
700.852	3.75787
703.745	5.79871
706.637	6.15595
709.53	6.16217
712.423	7.07886
715.315	6.94659
718.208	6.72308
721.101	7.48682
723.994	7.18896
726.886	3.48401
729.779	6.34564
732.672	3.94342
735.564	5.28876
738.457	4.00684
741.35	2.30457
744.242	3.99054
747.135	3.37128
750.028	6.15692
752.92	4.48822
755.813	1.96735
758.706	1.62353
761.599	1.03632
764.491	1.45746
767.384	1.60413
770.277	1.11407
773.169	0.384949
776.062	0.876526
778.955	2.91638
781.847	3.00915
784.74	4.22211
787.633	0.193726
790.526	3.44275
793.418	3.79828
796.311	2.13757
799.204	0.258118
802.096	3.08765
804.989	4.00354
807.882	2.49371
810.774	3.47369
813.667	3.51068
816.56	4.09155
819.453	4.27588
822.345	2.85095
825.238	4.1554
828.131	2.68646
831.023	2.60217
833.916	5.461
836.809	0.578674
839.702	3.60828
842.594	2.83405
845.487	1.74951
848.38	4.31635
851.272	4.91974
854.165	1.59625
857.058	3.87708
859.95	5.79132
862.843	0.910889
865.736	10.7263
868.629	3.90942
871.521	2.00507
874.414	4.11572
877.307	2.74207
880.199	5.47882
883.092	4.1861
885.985	1.57709
888.877	2.94934
891.77	3.33673
894.663	3.88849
897.556	8.88257
900.448	0.720398
903.341	4.29816
906.234	3.02167
909.126	3.66943
912.019	1.51398
914.912	1.66028
917.804	5.32526
920.697	2.20905
923.59	0.158325
926.482	1.28802
929.375	1.79675
932.268	1.4162
935.161	1.98242
938.053	0.419861
940.946	0.603333
943.839	0.823914
946.731	3.35229
949.624	0.434998
952.517	1.28162
955.409	4.09277
958.302	8.63983
961.195	12.3765
964.088	14.0186
966.98	21.7012
969.873	41.3225
972.766	53.6786
975.658	71.2682
978.551	85.078
981.444	98.0852
984.337	104.752
987.229	110.021
990.122	107.35
993.015	98.1554
995.907	84.2469
998.8	78.0284
1001.69	75.6255
1004.59	74.0614
1007.48	76.0786
1010.37	71.0731
1013.26	75.6536
1016.16	86.1423
1019.05	102.179
1021.94	126.413
1024.83	131.055
1027.73	119.453
1030.62	93.4224
1033.51	60.9535
1036.4	35.3272
1039.3	19.407
1042.19	10.3342
1045.08	2.21814
1047.98	2.9552
1050.87	0.973511
1053.76	3.84961
1056.65	7.69049
1059.55	11.6977
1062.44	18.7252
1065.33	25.682
1068.22	34.9527
1071.12	45.0159
1074.01	60.3959
1076.9	75.7872
1079.8	94.4164
1082.69	93.9758
1085.58	85.7069
1088.47	73.6195
1091.37	66.8473
1094.26	56.6057
1097.15	53.2749
1100.05	46.9773
1102.94	39.7324
1105.83	29.6139
1108.72	25.1473
1111.62	18.6425
1114.51	11.4593
1117.4	8.40967
1120.29	5.37158
1123.19	3.54321
1126.08	2.18292
1128.97	0.394165
1131.86	0.796509
1134.76	0.87207
1137.65	1.22406
1140.54	0.183838
1143.43	4.87482
1146.33	0.283813
1149.22	0.113586
1152.11	0.752686
1155.01	0.712585
1157.9	4.66382
1160.79	0.341003
1163.68	4.1358
1166.58	5.22052
1169.47	10.0252
1172.36	10.8888
1175.26	1.60516
1178.15	3.55011
1181.04	6.46423
1183.93	5.34277
1186.83	5.06799
1189.72	3.15979
1192.61	3.9306
1195.5	0.439575
1198.4	4.3288
1201.29	2.38946
