Measurement: Raman, 780 nm, unoriented, Raman Data Processed
Mineral: Ferronigerite-2N1S
Rruff sample: R120083
Ideal chemistry: (Al,Fe,Zn)_2_(Al,Sn)_6_O_11_(OH)
Locality: Seixoso quarry, Lixa, Portugal
Source: Robert Jenkins
Description: Dark reddish-brown hexagonal tablets, frozen in matrix
Raman shift (cm-1)	intensity
121.495	0
124.87	45.6753
128.244	90.2804
131.619	26.2999
134.994	1.13611
138.369	5.98572
141.744	7.67871
145.119	9.4115
148.493	7.073
151.868	1.677
155.243	0.773071
158.618	0.079956
161.993	5.18677
165.367	23.3
168.742	18.2961
172.117	13.9434
175.492	22.7621
178.867	46.1272
182.242	77.4468
185.616	119.166
188.991	171.522
192.366	234.113
195.741	306.52
199.115	367.447
202.49	423.096
205.865	463.888
209.24	476.073
212.615	478.476
215.99	475.02
219.364	470.973
222.739	459.94
226.114	436.293
229.489	395.914
232.864	354.373
236.238	305.168
239.613	257.959
242.988	198.564
246.363	161.157
249.738	150.494
253.113	147.97
256.487	159.944
259.862	196.596
263.237	246.055
266.612	269.73
269.987	249.777
273.361	175.926
276.736	92.3251
280.111	48.9916
283.486	13.3754
286.861	4.495
290.236	1.50977
293.61	3.27393
296.985	7.80078
300.36	4.49902
303.735	2.93774
307.11	6.60632
310.485	9.57617
313.859	18.3785
317.234	34.1345
320.609	44.7632
323.984	58.0896
327.359	69.3629
330.733	86.0362
334.108	78.2632
337.483	83.4108
340.858	71.947
344.233	66.2859
347.608	54.3157
350.982	48.1934
354.357	52.1113
357.732	42.0095
361.107	32.6043
364.482	26.8197
367.856	25.496
371.231	21.7581
374.606	13.4644
377.981	3.27893
381.356	0.151245
384.731	6.65112
388.105	10.4452
391.48	6.62439
394.855	4.99817
398.23	5.70911
401.605	11.7081
404.979	12.5079
408.354	16.9194
411.729	25.947
415.104	38.1133
418.479	42.6187
421.853	57.7023
425.228	67.7302
428.603	75.0067
431.978	88.3331
435.353	105.036
438.728	129.696
442.102	167.817
445.477	235.75
448.852	325.121
452.227	424.111
455.602	558.673
458.976	743.77
462.351	957.803
465.726	1045.75
469.101	933.58
472.476	773.346
475.851	665.547
479.225	625.184
482.6	649.974
485.975	723.641
489.35	825.239
492.725	788.951
496.099	554.629
499.474	314.627
502.849	181.704
506.224	107.54
509.599	67.39
512.973	49.2846
516.348	42.4635
519.723	25.9287
523.098	27.6107
526.473	31.7424
529.848	40.6063
533.222	37.8227
536.597	41.4216
539.972	36.484
543.347	34.2162
546.722	20.3492
550.096	13.8178
553.471	7.08325
556.846	2.07495
560.221	4.31763
563.596	13.354
566.971	11.4369
570.345	0.714844
573.72	3.84351
577.095	15.1883
580.47	33.9227
583.845	55.535
587.22	83.4075
590.594	57.2165
593.969	35.7827
597.344	24.1132
600.719	20.2101
604.094	29.899
607.468	28.9854
610.843	28.3832
614.218	31.4181
617.593	37.1052
620.968	36.1389
624.342	24.4115
627.717	9.47253
631.092	8.44727
634.467	12.0554
637.842	5.9906
641.217	8.70361
644.591	7.38428
647.966	2.13159
651.341	5.50647
654.716	3.67444
658.091	5.26404
661.466	0.050781
664.84	2.76636
668.215	8.58813
671.59	19.7131
674.965	29.8943
678.34	42.7577
681.714	54.974
685.089	73.4292
688.464	90.5574
691.839	105.509
695.214	117.302
698.588	127.119
701.963	133.108
705.338	130.497
708.713	123.283
712.088	99.6216
715.462	70.0018
718.837	39.5253
722.212	22.1929
725.587	10.4705
728.962	11.7803
732.337	21.2866
735.711	17.7046
739.086	28.4835
742.461	40.8309
745.836	59.0815
749.211	95.2763
752.586	136.742
755.96	182.113
759.335	222.875
762.71	230.198
766.085	196.771
769.46	127.828
772.834	73.3561
776.209	32.5796
779.584	15.34
782.959	0.364868
786.334	7.45898
789.708	2.4613
793.083	11.7755
796.458	10.2009
799.833	13.4163
803.208	20.2688
806.583	31.0295
809.957	33.4452
813.332	27.7653
816.707	28.443
820.082	30.2013
823.457	27.7231
826.832	13.5952
830.206	20.343
833.581	21.4999
836.956	36.9821
840.331	57.0134
843.706	89.7419
847.08	126.278
850.455	183.34
853.83	243.228
857.205	292.514
860.58	328.115
863.955	328.033
867.329	290.942
870.704	235.544
874.079	183.959
877.454	144.106
880.829	104.812
884.203	84.0312
887.578	63.0612
890.953	42.956
894.328	25.0898
897.703	12.0662
901.077	10.6554
904.452	1.21191
907.827	3.15979
911.202	0.706787
914.577	5.32019
917.952	2.47217
921.326	1.18433
924.701	4.75037
928.076	0.043579
931.451	7.09692
934.826	3.6654
938.2	7.14123
941.575	7.36963
944.95	11.7798
948.325	18.9562
951.7	26.3584
955.074	43.8323
958.449	46.796
961.824	58.156
965.199	60.2125
968.574	70.7289
971.949	52.9462
975.323	44.2695
978.698	37.6968
982.073	43.7094
985.448	24.0166
988.823	19.36
992.197	8.32727
995.572	8.33166
998.947	2.55615
1002.32	4.08313
1005.7	2.08179
1009.07	4.00293
1012.45	2.32361
1015.82	8.33435
1019.2	3.41785
1022.57	5.86169
1025.95	6.00024
1029.32	6.89514
1032.69	5.83582
1036.07	6.10522
1039.44	5.23181
1042.82	7.75928
1046.19	5.87939
1049.57	5.40259
1052.94	5.28503
1056.32	17.7328
1059.69	18.5117
1063.07	7.31311
1066.44	5.04712
1069.82	7.27991
1073.19	4.07129
1076.57	2.79797
1079.94	1.83581
1083.32	4.55273
1086.69	0.916382
1090.07	0.29126
1093.44	2.21228
1096.82	5.1604
1100.19	0.055542
1103.57	2.96558
1106.94	4.0238
1110.32	2.45752
1113.69	0.010376
1117.07	1.64136
1120.44	1.44861
1123.82	3.00061
1127.19	8.61084
1130.57	2.39978
1133.94	1.34583
1137.32	4.12903
1140.69	8.33728
1144.06	4.53857
1147.44	7.88013
1150.81	3.11328
1154.19	6.98938
1157.56	9.43384
1160.94	10.4879
1164.31	12.1996
1167.69	8.30981
1171.06	12.3799
1174.44	18.656
1177.81	9.97327
1181.19	11.2296
1184.56	1.74097
1187.94	7.34485
1191.31	8.82703
1194.69	7.35877
1198.06	9.29724
1201.44	9.21704
1204.81	14.4114
1208.19	3.64636
1211.56	2.95874
1214.93	11.9442
1218.31	5.87634
1221.68	9.17871
1225.06	2.75415
1228.43	5.31323
1231.81	8.13965
1235.18	1.24768
1238.56	3.86169
1241.93	4.40149
1245.31	4.39563
1248.68	4.2605
1252.06	4.84766
1255.43	2.27441
1258.81	2.15247
1262.18	3.89832
1265.56	20.1227
1268.93	13.9603
1272.31	6.50745
1275.68	8.39294
1279.06	5.00317
1282.43	6.5144
