Measurement: Raman, 532 nm, unoriented, Raman Data Processed
Mineral: Ferro-edenite
Rruff sample: R060044
Ideal chemistry: NaCa_2_Fe^2+^_5_(Si_7_Al)O_22_(OH)_2_
Locality: Barkevik, Norway
Source: University of Arizona Mineral Museum
Description: Black cleavage fragment
Measured chemistry: (Na_0.68_K_0.32_)(Ca_1.50_Na_0.50_)_Σ=2_(Fe^2+^_3.50_Mg_0.75_Fe^3+^_0.25_Ti_0.25_Mn_0.20_Al_0.05_)_Σ=5_(Si_6.64_Al_1.36_)_Σ=8_O_22_(OH)_2_
Raman shift (cm-1)	intensity
181.46	0
184.353	0.032669
187.245	0.675049
190.138	0.701126
193.031	1.85482
195.924	3.1015
198.816	4.19329
201.709	5.98856
204.602	7.45759
207.494	9.2581
210.387	9.66453
213.28	10.7705
216.173	11.2884
219.065	12.1477
221.958	12.4749
224.851	10.5363
227.743	8.45425
230.636	7.01345
233.529	4.23177
236.421	5.11517
239.314	2.86398
242.207	2.78921
245.099	1.79129
247.992	0.778328
250.885	0.452423
253.778	0.139694
256.67	0.441948
259.563	0.101021
262.456	0.278118
265.348	0.065838
268.241	0.084534
271.134	0.147625
274.026	0.456402
276.919	1.17627
279.812	0.091545
282.704	0.891575
285.597	0.674023
288.49	0.196831
291.383	0.9478
294.275	1.3369
297.168	1.05604
300.061	1.25246
302.953	1.65209
305.846	1.34869
308.739	0.96999
311.632	1.65654
314.524	1.37274
317.417	1.15302
320.31	1.30867
323.202	0.930557
326.095	1.14823
328.988	0.752666
331.88	1.3463
334.773	1.45657
337.666	2.20831
340.558	2.85845
343.451	2.46352
346.344	3.60537
349.237	4.69435
352.129	5.07867
355.022	5.22844
357.915	5.6524
360.807	5.53226
363.7	5.01764
366.593	4.96241
369.486	4.52559
372.378	4.0118
375.271	3.86989
378.164	3.27465
381.056	1.69155
383.949	1.06078
386.842	1.2382
389.734	1.52401
392.627	0.213505
395.52	0.19215
398.413	0.464767
401.305	0.194439
404.198	0.28828
407.091	0.436424
409.983	0.350723
412.876	0.763859
415.769	1.43733
418.661	2.48796
421.554	3.11871
424.447	3.29496
427.339	3.78735
430.232	3.8344
433.125	4.44421
436.018	3.44393
438.91	2.74303
441.803	2.12145
444.696	1.92762
447.588	1.60173
450.481	1.02053
453.374	1.17051
456.267	1.08932
459.159	0.397221
462.052	0.261398
464.945	0.021233
467.837	0.556461
470.73	0.219536
473.623	0.234585
476.515	0.239243
479.408	1.03764
482.301	1.83875
485.193	2.72361
488.086	2.95747
490.979	4.44056
493.872	5.78613
496.764	6.14539
499.657	7.78602
502.55	8.85337
505.442	9.28002
508.335	10.7343
511.228	11.5374
514.12	12.9275
517.013	14.3967
519.906	15.406
522.799	16.4333
525.691	17.2962
528.584	19.1266
531.477	18.9444
534.369	20.0883
537.262	21.1801
540.155	21.7095
543.048	21.2842
545.94	22.3654
548.833	22.5393
551.726	22.2497
554.618	21.0977
557.511	19.1306
560.404	17.2281
563.296	15.3886
566.189	13.5451
569.082	11.3878
571.975	9.0928
574.867	6.40868
577.76	5.21971
580.653	3.71748
583.545	2.18469
586.438	1.49096
589.331	0.37019
592.223	0.371593
595.116	0.105465
598.009	0.471378
600.901	0.936314
603.794	0.740635
606.687	0.06636
609.58	0.161564
612.472	0.347206
615.365	0.38813
618.258	0.923454
621.15	1.39431
624.043	1.4066
626.936	2.50494
629.828	3.31098
632.721	4.20022
635.614	6.11083
638.506	7.08793
641.399	9.0551
644.292	11.7991
647.185	13.8525
650.077	16.8107
652.97	20.0351
655.863	22.2384
658.755	25.1564
661.648	25.609
664.541	26.3434
667.433	25.3835
670.326	20.2537
673.219	15.1646
676.112	11.9204
679.004	8.7292
681.897	5.75402
684.79	4.74906
687.682	3.50617
690.575	3.62798
693.468	4.48716
696.361	4.12041
699.253	5.74336
702.146	6.33238
705.039	7.88773
707.931	9.17976
710.824	9.61297
713.717	10.5279
716.609	10.3077
719.502	9.59834
722.395	9.75612
725.288	8.55476
728.18	8.19048
731.073	7.27131
733.966	5.79214
736.858	4.89925
739.751	3.344
742.644	2.47977
745.536	0.807327
748.429	0.300003
751.322	0.149197
754.215	0.465668
757.107	0.196075
760	0.706516
762.893	0.308891
765.785	1.15007
768.678	2.32722
771.571	2.88375
774.463	3.62687
777.356	4.83437
780.249	5.03445
783.141	6.81033
786.034	5.71326
788.927	5.17887
791.82	4.45255
794.712	4.70655
797.605	4.05724
800.498	3.73913
803.39	4.36856
806.283	2.92752
809.176	3.67127
812.068	3.23848
814.961	3.1914
817.854	3.44795
820.747	2.51836
823.639	2.65332
826.532	1.63662
829.425	1.35476
832.317	1.64642
835.21	1.79375
838.103	1.06832
840.995	0.092876
843.888	0.048309
846.781	0.370617
849.674	0.191372
852.566	0.264225
855.459	0.651237
858.352	0.538548
861.244	0.407841
864.137	0.408237
867.03	0.78109
869.923	0.917393
872.815	0.826275
875.708	1.03634
878.601	2.65514
881.493	2.50825
884.386	3.28566
887.279	3.79521
890.171	4.08268
893.064	4.20371
895.957	3.51538
898.85	3.59129
901.742	3.77308
904.635	2.97942
907.528	3.32114
910.42	2.66806
913.313	2.1436
916.206	2.25291
919.098	1.79309
921.991	1.10947
924.884	0.903229
927.777	1.23588
930.669	1.06588
933.562	0.195843
936.455	0.896824
939.347	0.952984
942.24	1.00718
945.133	0.35622
948.025	0.836487
950.918	0.481564
953.811	0.504372
956.703	0.622963
959.596	0.760281
962.489	0.216427
965.382	0.205086
968.274	0.480171
971.167	0.280632
974.06	0.298786
976.952	0.566582
979.845	0.178337
982.738	0.18174
985.63	0.837299
988.523	0.243954
991.416	1.08082
994.308	1.49173
997.201	2.26263
1000.09	2.52122
1002.99	2.8415
1005.88	3.11555
1008.77	4.05009
1011.66	4.40218
1014.56	4.4197
1017.45	4.62745
1020.34	4.49386
1023.24	5.36232
1026.13	5.79857
1029.02	5.24578
1031.91	5.66093
1034.81	4.94224
1037.7	5.86989
1040.59	4.90688
1043.48	5.62005
1046.38	5.46939
1049.27	5.86836
1052.16	5.27981
1055.06	4.69289
1057.95	4.85994
1060.84	3.98172
1063.73	3.7092
1066.63	3.61378
1069.52	3.39311
1072.41	2.79292
1075.3	2.62668
1078.2	2.02624
1081.09	2.2314
1083.98	1.82105
1086.88	1.29747
1089.77	1.23779
1092.66	1.02147
1095.55	1.04308
1098.45	0.933949
1101.34	0.154194
1104.23	0.887424
1107.12	0.980843
1110.02	0.184315
1112.91	0.340565
1115.8	0.222095
1118.69	0.051151
1121.59	0.05076
1124.48	0.387951
1127.37	0.192694
1130.27	0.051928
1133.16	0.106951
1136.05	0.054853
1138.94	0.678156
1141.84	0.569801
1144.73	1.24942
1147.62	0.538113
1150.51	0.448738
1153.41	0.911917
1156.3	0.505081
1159.19	1.48991
1162.09	0.914576
1164.98	1.02262
1167.87	1.57895
1170.76	1.4733
1173.66	1.47897
1176.55	1.46399
1179.44	1.7165
1182.33	1.08468
1185.23	1.43635
1188.12	0.984577
1191.01	1.32174
1193.9	1.01619
1196.8	1.2106
1199.69	1.18713
1202.58	1.44015
1205.48	0.769087
1208.37	1.39008
1211.26	1.40928
1214.15	1.41709
1217.05	1.01511
1219.94	1.03318
1222.83	1.65284
1225.72	0.581717
1228.62	1.20428
1231.51	1.1606
1234.4	0.960039
1237.3	1.22946
1240.19	0.536381
1243.08	0.730532
1245.97	0.487787
1248.87	0.871204
1251.76	0.490898
1254.65	0.895733
1257.54	0.635082
1260.44	0.302008
1263.33	0.66395
1266.22	0.138107
1269.12	0.319731
1272.01	0.19385
1274.9	0.419512
1277.79	0.410025
1280.69	0.205818
1283.58	0.096478
1286.47	0.395071
1289.36	0.418871
