Measurement: Raman, 780 nm, unoriented, Raman Data Processed
Mineral: Ferrokesterite
Rruff sample: R110173
Ideal chemistry: Cu_2_(Fe,Zn)SnS_4_
Locality: San Jose mine, Oruro, Bolivia
Source: Brian Kosnar
Description: Black rough octahedron associated with zinkenite.
Measured chemistry: Cu_1.99_(Fe_0.54_Zn_0.45_Cd_0.01_)Sn_0.99_S_4_
Raman shift (cm-1)	intensity
92.5678	0
95.9426	59.5416
99.3174	23.7829
102.692	1.78046
106.067	0.334106
109.442	5.1806
112.817	12.3083
116.192	16.9184
119.566	23.8395
122.941	28.0991
126.316	30.896
129.691	36.6578
133.066	43.0422
136.44	48.7134
139.815	47.2268
143.19	39.0665
146.565	32.8677
149.94	25.1092
153.315	16.5
156.689	9.29773
160.064	6.63773
163.439	0.890411
166.814	3.37888
170.189	1.17398
173.563	1.00028
176.938	0.098694
180.313	1.60745
183.688	1.81677
187.063	1.11758
190.437	3.15585
193.812	5.69449
197.187	5.59613
200.562	1.16907
203.937	0.749634
207.311	1.16824
210.686	0.178345
214.061	0.703094
217.436	2.23444
220.811	0.039276
224.186	3.41205
227.56	3.66476
230.935	2.55682
234.31	1.70154
237.685	0.548523
241.06	3.12244
244.435	8.32929
247.809	16.5153
251.184	23.9045
254.559	32.6425
257.934	42.9974
261.309	55.0538
264.683	58.7335
268.058	64.2487
271.433	71.0048
274.808	88.5086
278.183	135.647
281.558	221.423
284.932	337.925
288.307	323.932
291.682	208.257
295.057	156.669
298.432	146.955
301.806	155.018
305.181	158.447
308.556	169.45
311.931	197.157
315.306	250.729
318.68	346.981
322.055	521.536
325.43	818.751
328.805	1101.5
332.18	1147.7
335.555	1018.24
338.929	513.148
342.304	242.133
345.679	166.156
349.054	130.724
352.429	120.074
355.803	121.423
359.178	139.726
362.553	168.278
365.928	162.734
369.303	131.653
372.678	75.3761
376.052	31.3346
379.427	7.46985
382.802	3.31863
386.177	4.6629
389.552	2.6333
392.926	4.61642
396.301	3.84213
399.676	0.547028
403.051	0.842468
406.426	1.05872
409.8	7.66415
413.175	5.00742
416.55	6.67065
419.925	7.34232
423.3	9.58435
426.675	11.6903
430.049	11.6731
433.424	13.461
436.799	14.6661
440.174	13.6063
443.549	15.5109
446.923	14.6703
450.298	14.0428
453.673	12.1935
457.048	9.3248
460.423	9.30304
463.798	7.12878
467.172	6.69369
470.547	7.91068
473.922	9.93552
477.297	6.85001
480.672	8.02548
484.046	6.74069
487.421	6.16907
490.796	6.50641
494.171	4.43164
497.546	3.27271
500.921	2.94095
504.295	4.0557
507.67	2.88702
511.045	1.50977
514.42	2.27924
517.795	2.65472
521.169	0.384918
524.544	0.464996
527.919	0.272308
531.294	0.495575
534.669	1.51361
538.044	0.775757
541.418	2.19824
544.793	0.934845
548.168	0.561157
551.543	1.11954
554.918	0.385559
558.293	1.24185
561.667	0.917816
565.042	2.64566
568.417	1.59634
571.792	1.15955
575.167	2.81598
578.541	2.19089
581.916	1.55905
585.291	2.35605
588.666	1.75772
592.041	2.71747
595.415	3.38602
598.79	3.77246
602.165	5.92737
605.54	6.35007
608.915	6.28742
612.29	9.62668
615.664	8.26627
619.039	9.06165
622.414	9.63916
625.789	10.3911
629.164	11.4559
632.538	11.2949
635.913	12.9896
639.288	15.1814
642.663	14.1663
646.038	15.5329
649.413	17.7548
652.787	18.3575
656.162	19.7906
659.537	22.7023
662.912	20.0998
666.287	18.6312
669.661	14.3301
673.036	11.148
676.411	7.48105
679.786	8.45682
683.161	6.41394
686.535	3.04425
689.91	2.42639
693.285	0.463287
696.66	0.578003
700.035	0.481232
703.41	0.12735
706.784	0.10376
710.159	0.100891
713.534	1.18735
716.909	2.62375
720.284	4.28079
723.659	4.59357
727.033	4.04288
730.408	6.21487
733.783	5.92279
737.158	4.14645
740.533	3.02976
743.907	3.92877
747.282	0.168518
750.657	2.14655
754.032	0.166718
757.407	0.212341
760.782	0.496918
764.156	0.624573
767.531	1.43362
770.906	0.516602
774.281	1.74155
777.656	0.871887
781.03	1.07077
784.405	1.90833
787.78	0.253754
791.155	2.66589
794.53	2.60284
797.904	3.28311
801.279	2.10834
804.654	1.48239
808.029	2.39664
811.404	2.87363
814.779	2.4393
818.153	2.85953
821.528	4.63919
824.903	1.27448
828.278	2.52469
831.653	3.13281
835.028	2.79663
838.402	3.62219
841.777	1.61032
845.152	0.176056
848.527	1.63556
851.902	1.62936
855.276	1.34994
858.651	0.384338
862.026	1.04538
865.401	2.0462
868.776	0.708099
872.15	1.95099
875.525	2.14264
878.9	0.757202
882.275	0.079926
885.65	0.921021
889.024	0.653717
892.399	1.7402
895.774	1.22324
899.149	0.882919
902.524	0.87027
905.899	1.37169
909.273	2.10428
912.648	0.554916
916.023	1.88957
919.398	1.04619
922.773	1.49609
926.148	1.92004
929.522	1.31534
932.897	2.23589
936.272	1.13747
939.647	1.01967
943.022	0.141296
946.396	2.26367
949.771	0.162155
953.146	1.30728
956.521	0.107269
959.896	1.36406
963.27	0.391235
966.645	0.018021
970.02	1.74269
973.395	0.04155
976.77	0.495895
980.145	1.79387
983.519	0.191956
986.894	0.114365
990.269	1.04808
993.644	1.51028
997.019	1.3089
1000.39	0.410736
1003.77	0.876755
1007.14	1.29211
1010.52	1.86778
1013.89	2.80484
1017.27	1.27647
1020.64	2.23212
1024.02	2.58524
1027.39	0.623688
1030.77	1.39282
1034.14	1.4707
1037.52	1.4929
1040.89	0.81868
1044.27	1.97652
1047.64	2.54759
1051.02	0.750198
1054.39	1.66473
1057.77	1.8264
1061.14	0.513077
1064.52	2.31656
1067.89	1.84512
1071.27	0.362106
1074.64	2.37468
1078.01	2.59268
1081.39	0.710861
1084.76	0.641632
1088.14	2.02705
1091.51	1.68449
1094.89	2.19379
1098.26	0.214172
1101.64	0.004379
1105.01	0.563141
1108.39	0.879578
1111.76	1.25063
1115.14	0.901611
1118.51	0.170578
1121.89	1.67436
1125.26	1.34944
1128.64	1.34747
1132.01	2.96963
1135.39	0.788605
1138.76	1.79341
1142.14	3.29225
1145.51	2.37885
1148.88	2.90015
1152.26	1.97009
1155.63	2.10362
1159.01	2.98731
1162.38	3.3553
1165.76	2.41559
1169.13	3.03093
1172.51	2.00854
1175.88	4.15651
1179.26	2.98599
1182.63	4.13249
1186.01	2.6898
1189.38	3.69362
1192.76	3.23737
1196.13	3.33139
1199.51	2.55507
1202.88	1.87698
1206.26	1.56401
1209.63	2.95091
1213.01	2.31708
1216.38	1.85733
1219.76	2.10872
1223.13	2.52522
1226.51	1.55197
1229.88	0.736801
1233.26	1.83089
1236.63	1.61354
1240.01	0.147858
1243.38	0.137939
1246.76	1.15462
1250.13	1.40631
1253.51	0.143143
1256.88	1.29413
1260.25	1.21198
1263.63	1.89581
1267	0.864227
1270.38	1.77084
1273.75	2.20392
1277.13	2.01651
1280.5	0.968765
1283.88	0.352585
