Measurement: Raman, 532 nm, unoriented, Raman Data Processed
Mineral: Ferrohogbomite-2N2S
Rruff sample: R061017
Ideal chemistry: (Fe,Mg,Zn,Al)_3_(Al,Ti,Fe)_8_O_15_(OH)
Locality: Claim Kastor, Vallatjvaratj, Lapland, Sweden
Source: Michael Scott
Description: Black vitreous massive
Raman shift (cm-1)	intensity
160.574	0
163.466	39.1939
166.359	0.507935
169.252	27.7326
172.144	27.969
175.037	15.4808
177.93	18.4604
180.822	24.413
183.715	39.4365
186.608	40.6132
189.5	64.1054
192.393	37.9429
195.286	61.2734
198.179	52.8385
201.071	38.5675
203.964	74.9629
206.857	18.6294
209.749	29.477
212.642	13.4024
215.535	4.41629
218.428	6.3808
221.32	1.70721
224.213	2.11182
227.106	4.71115
229.998	8.1246
232.891	10.0166
235.784	11.8425
238.676	15.8264
241.569	8.4393
244.462	10.2888
247.355	9.24109
250.247	9.42178
253.14	16.1828
256.033	18.1267
258.925	17.1529
261.818	31.3003
264.711	14.082
267.603	39.8528
270.496	38.1248
273.389	37.4656
276.281	54.706
279.174	72.2884
282.067	68.8066
284.96	75.4448
287.852	88.9622
290.745	95.8246
293.638	95.1422
296.53	122.868
299.423	107.621
302.316	144.236
305.209	140.944
308.101	133.858
310.994	120.698
313.887	120
316.779	89.5165
319.672	70.2151
322.565	68.0623
325.457	80.4752
328.35	51.637
331.243	48.3433
334.135	40.3845
337.028	11.4915
339.921	49.6452
342.814	12.3644
345.706	21.6858
348.599	15.0115
351.492	3.95599
354.384	3.67941
357.277	0.829926
360.17	0.841888
363.062	8.94797
365.955	3.18979
368.848	13.534
371.741	24.4797
374.633	4.87195
377.526	26.8494
380.419	33.875
383.311	13.7021
386.204	33.5004
389.097	73.3857
391.989	76.5761
394.882	106.672
397.775	123.672
400.668	169.286
403.56	179.546
406.453	127.646
409.346	84.4007
412.238	59.2084
415.131	44.8084
418.024	23.1843
420.916	28.2015
423.809	10.8523
426.702	22.2575
429.594	38.9653
432.487	23.9863
435.38	7.72299
438.273	3.1247
441.165	17.3085
444.058	6.608
446.951	10.0526
449.843	7.29568
452.736	0.93457
455.629	16.8126
458.522	8.54126
461.414	0.775757
464.307	3.65881
467.2	4.95093
470.092	24.8569
472.985	8.01129
475.878	0.470367
478.77	2.6394
481.663	11.8401
484.556	21.1644
487.449	6.4668
490.341	19.5539
493.234	27.2238
496.127	21.0015
499.019	17.3006
501.912	30.7424
504.805	31.2881
507.697	59.0633
510.59	58.9329
513.483	80.7605
516.375	125.384
519.268	132.962
522.161	153.946
525.054	201.137
527.946	228.872
530.839	259.705
533.732	303.435
536.624	294.861
539.517	315.151
542.41	310.746
545.303	317.04
548.195	279.065
551.088	257.64
553.981	225.187
556.873	177.344
559.766	161.957
562.659	119.944
565.551	95.4598
568.444	81.7498
571.337	62.5704
574.23	22.8766
577.122	31.5257
580.015	3.08167
582.908	4.30762
585.8	8.2904
588.693	4.70938
591.586	4.32379
594.478	8.30313
597.371	0.145386
600.264	2.31024
603.156	30.5209
606.049	24.3063
608.942	27.7234
611.835	42.1937
614.727	73.504
617.62	73.6161
620.513	84.8941
623.405	132.159
626.298	150.598
629.191	174.24
632.083	189.883
634.976	243.45
637.869	301.94
640.761	371.37
643.654	452.94
646.547	519.157
649.44	583.373
652.332	729.888
655.225	855.323
658.118	1030.81
661.01	1105.79
663.903	1198.91
666.796	1195.64
669.688	1209.48
672.581	1140.55
675.474	1047.63
678.367	933.331
681.259	839.144
684.152	705.544
687.045	634.705
689.937	501.225
692.83	428.217
695.723	357.845
698.615	297.766
701.508	226.807
704.401	170.445
707.294	141.085
710.186	101.023
713.079	75.5889
715.972	59.3259
718.864	40.3781
721.757	29.302
724.65	3.46823
727.543	2.48248
730.435	12.5877
733.328	14.9081
736.221	1.93829
739.113	21.3079
742.006	8.46317
744.899	9.47699
747.791	3.59689
750.684	33.4099
753.577	12.9284
756.47	22.3593
759.362	37.7525
762.255	22.5821
765.148	26.7257
768.04	29.2254
770.933	34.3325
773.826	36.496
776.718	10.1891
779.611	13.4008
782.504	12.2453
785.396	24.6795
788.289	13.5451
791.182	1.5269
794.075	12.8007
796.967	8.07857
799.86	21.0353
802.753	12.2353
805.645	41.6063
808.538	9.54414
811.431	28.4951
814.323	13.2965
817.216	25.6594
820.109	36.6354
823.001	28.7653
825.894	29.0729
828.787	5.49425
831.68	3.65979
834.572	14.9732
837.465	23.5119
840.358	30.2464
843.25	34.0865
846.143	38.9789
849.036	38.7715
851.928	22.7294
854.821	4.87891
857.714	25.6492
860.607	2.82112
863.499	31.2083
866.392	25.4349
869.285	14.2488
872.177	15.8982
875.07	32.7258
877.963	33.1381
880.856	37.762
883.748	14.2472
886.641	8.10278
889.534	10.3009
892.426	23.6918
895.319	20.6665
898.212	21.3864
901.104	24.3202
903.997	3.35016
906.89	9.52251
909.783	10.216
912.675	20.6051
915.568	17.5679
918.461	5.87271
921.353	1.18391
924.246	31.8943
927.139	19.0777
930.031	0.936371
932.924	15.4055
935.817	5.06656
938.71	10.8067
941.602	20.7147
944.495	5.26988
947.388	29.4371
950.28	16.1018
953.173	21.6749
956.066	16.7637
958.958	18.5802
961.851	8.90395
964.744	2.56679
967.636	18.8781
970.529	7.68115
973.422	0.464966
976.315	19.2771
979.207	19.8164
982.1	19.123
984.993	17.2868
987.885	22.7586
990.778	11.1092
993.671	23.5307
996.563	33.081
999.456	16.0864
1002.35	5.64049
1005.24	16.0023
1008.13	6.32376
1011.03	11.9873
1013.92	24.3906
1016.81	20.023
1019.71	19.0051
1022.6	18.216
1025.49	21.0449
1028.38	6.03586
1031.28	2.42416
1034.17	10.7639
1037.06	30.2797
1039.95	22.234
1042.85	27.5726
1045.74	25.8774
1048.63	3.85277
1051.53	6.90837
1054.42	25.2162
1057.31	14.0105
1060.2	22.0684
1063.1	18.4891
1065.99	27.5709
1068.88	10.4088
1071.77	1.89784
1074.67	8.78325
1077.56	27.0496
1080.45	24.2797
1083.34	10.0302
1086.24	15.422
1089.13	32.1404
1092.02	2.09232
1094.91	21.0055
1097.81	17.1325
1100.7	2.46779
1103.59	17.0968
1106.49	8.76904
1109.38	23.8719
1112.27	30.9027
1115.16	0.50856
1118.06	38.2588
1120.95	14.145
1123.84	1.15536
1126.73	28.04
1129.63	16.4942
1132.52	22.0522
1135.41	17.9692
1138.31	10.5917
1141.2	14.1507
1144.09	22.4193
1146.98	14.4099
1149.88	25.9263
1152.77	21.9131
1155.66	9.27074
1158.56	13.951
1161.45	10.135
1164.34	16.4394
1167.23	2.54314
1170.12	19.9743
1173.02	25.121
1175.91	15.2937
1178.8	25.3471
1181.7	16.7389
1184.59	12.3556
1187.48	10.2781
1190.37	41.4897
1193.27	11.1721
1196.16	35.8809
1199.05	10.5173
1201.94	19.9643
1204.84	13.5366
1207.73	21.9135
1210.62	17.3541
1213.52	42.0786
1216.41	15.2682
1219.3	22.0933
1222.19	16.4227
1225.09	11.1278
1227.98	31.6872
1230.87	18.7291
1233.77	33.1481
1236.66	21.7336
1239.55	11.6793
1242.44	41.7857
1245.34	28.0382
1248.23	18.4128
1251.12	44.3899
1254.01	32.1487
1256.91	7.35814
1259.8	40.8434
1262.69	22.852
1265.58	3.27605
1268.48	33.1109
1271.37	24.5563
1274.26	15.1324
1277.15	28.3858
1280.05	0
