Measurement: Raman, 785 nm, unoriented, Raman Data Processed
Mineral: Ferro-holmquistite
Rruff sample: R070005
Ideal chemistry: [box]Li_2_(Fe^2+^_3_Al_2_)Si_8_O_22_(OH)_2_
Locality: Mount Marrion, South Australia, Australia
Source: Michael Scott
Description: Dark blue fractured prismatic crystals
Measured chemistry: (Li_1.93_Na_0.03_Mn_0.02_[box]_0.02_)_Σ=2_((Fe^2+^_1.52_Mg_1.48_)_Σ=3_(Al_1.91_Fe^3+^_0.09_)_Σ=2_)_Σ=5_Si_8.00_O_22_(OH)_2_; Li estimated by difference Li=2-(Na+K+Ca+Mn) and charge balance; OH by charge balance
Raman shift (cm-1)	intensity
154.094	0
156.987	71.8008
159.879	37.6953
162.772	481.682
165.665	1169.58
168.557	1855.16
171.45	2535.97
174.343	3251.64
177.236	4007.56
180.128	4891.41
183.021	6293.48
185.914	7765.86
188.806	9256.81
191.699	9589.02
194.592	7627.61
197.484	5394.29
200.377	3998.21
203.27	3219.04
206.162	2649.23
209.055	2260.2
211.948	1965.9
214.841	1647.02
217.733	1451.01
220.626	1369.02
223.519	1320.18
226.411	1157.09
229.304	1016.23
232.197	1021.41
235.089	1003.61
237.982	1033.3
240.875	995.811
243.768	1078.11
246.66	944.768
249.553	813.9
252.446	788.918
255.338	624.371
258.231	592.834
261.124	562.092
264.017	433.322
266.909	334.9
269.802	327.258
272.695	119.184
275.587	38.3672
278.48	19.4062
281.373	55.7441
284.265	29.7852
287.158	38.1875
290.051	121.883
292.943	160.43
295.836	207.848
298.729	110.436
301.622	106.953
304.514	194.85
307.407	144.44
310.3	1.94141
313.192	57.002
316.085	175.262
318.978	106.275
321.87	119.543
324.763	19.6426
327.656	58.2051
330.549	158.647
333.441	317.373
336.334	373.522
339.227	415.33
342.119	543.18
345.012	517.518
347.905	555.312
350.798	520.025
353.69	407.131
356.583	414.943
359.476	301.088
362.368	219.775
365.261	115.978
368.154	275.213
371.046	344.295
373.939	570.666
376.832	629.385
379.724	952.365
382.617	1264.81
385.51	1486.97
388.403	1318.16
391.295	1100.05
394.188	767.232
397.081	607.394
399.973	559.453
402.866	401.824
405.759	451.707
408.651	405.748
411.544	461.75
414.437	512.219
417.329	637.662
420.222	817.244
423.115	670.32
426.008	413.107
428.9	109.856
431.793	39.918
434.686	27.123
437.578	70.6367
440.471	1.76758
443.364	19.3867
446.257	56.0938
449.149	154.191
452.042	241.448
454.935	203.566
457.827	113.504
460.72	138.109
463.613	157.236
466.505	119.484
469.398	131.433
472.291	92.0615
475.183	36.7568
478.076	25.4326
480.969	52.6865
483.862	55.2871
486.754	108.188
489.647	61.1904
492.54	173.884
495.432	228.591
498.325	185.788
501.218	99.3467
504.111	89.9629
507.003	93.9551
509.896	13.7275
512.789	34.5312
515.681	79.1309
518.574	27.7793
521.467	73.0186
524.359	181.72
527.252	202.292
530.145	354.412
533.038	298.604
535.93	382.317
538.823	309.238
541.716	290.854
544.608	404.933
547.501	346.91
550.394	493.151
553.286	493.474
556.179	376.208
559.072	377.802
561.965	250.332
564.857	148.19
567.75	120.531
570.643	22.0312
573.535	159.746
576.428	100.417
579.321	56.2012
582.213	98.7061
585.106	60.4512
587.999	42.0615
590.891	54.6738
593.784	30.1006
596.677	116.902
599.57	231.319
602.462	330.715
605.355	334.376
608.248	391.694
611.14	447.676
614.033	301.777
616.926	139.012
619.818	130.678
622.711	98.5791
625.604	85.5606
628.497	49.2422
631.389	67.0039
634.282	6.06543
637.175	19.4141
640.067	117.814
642.96	83.5576
645.853	151.534
648.745	241.943
651.638	299.961
654.531	500.679
657.424	796.566
660.316	1129.41
663.209	1952.01
666.102	2885.28
668.994	4304.57
671.887	5967.13
674.78	7267.73
677.673	6659.86
680.565	4648.72
683.458	2930.95
686.351	2029.29
689.243	1418.64
692.136	1074.02
695.029	987.312
697.921	957.661
700.814	864.354
703.707	780.996
706.6	672.282
709.492	493.969
712.385	437.265
715.278	304.96
718.17	219.964
721.063	248.209
723.956	111.678
726.848	148.694
729.741	142.627
732.634	101.431
735.527	226.383
738.419	182.055
741.312	197.305
744.205	296.358
747.097	309.804
749.99	344.56
752.883	107.162
755.775	102.761
758.668	171.64
761.561	18.3867
764.453	6.4082
767.346	1.73438
770.239	38.6309
773.131	10.5117
776.024	15.2266
778.917	93.5908
781.81	189.698
784.702	166.836
787.595	303.405
790.488	338.799
793.38	222.497
796.273	202.764
799.166	172.847
802.058	146.922
804.951	120.343
807.844	29.7402
810.737	31.5273
813.629	80.7217
816.522	53.083
819.415	122.494
822.307	50.4053
825.2	60.9775
828.093	48.9795
830.986	20.1963
833.878	56.2998
836.771	84.457
839.664	98.0508
842.556	65.499
845.449	78.1982
848.342	30.9258
851.234	94.2197
854.127	74.2373
857.02	100.891
859.913	88.543
862.805	137.007
865.698	100.056
868.591	192.59
871.483	157.128
874.376	249.625
877.269	288.958
880.161	267.677
883.054	355.72
885.947	280.72
888.84	333.202
891.732	240.621
894.625	154.366
897.518	196.456
900.41	171.281
903.303	118.733
906.196	170.717
909.088	169.795
911.981	106.978
914.874	132.781
917.766	78.9482
920.659	51.3672
923.552	26.7383
926.445	54.5908
929.337	30.5391
932.23	85.8037
935.123	71.5332
938.015	18.3604
940.908	14.0684
943.801	0.803711
946.693	15.6045
949.586	21.0645
952.479	44.9375
955.372	18.5439
958.264	13.0596
961.157	73.9424
964.05	11.9668
966.942	29.3115
969.835	8.39941
972.728	109.276
975.62	80.875
978.513	47.8213
981.406	126.355
984.299	313.137
987.191	410.795
990.084	427.597
992.977	578.51
995.869	634.062
998.762	526.908
1001.65	312.152
1004.55	273.661
1007.44	270.268
1010.33	232.267
1013.23	267.152
1016.12	387.655
1019.01	346.391
1021.9	365.188
1024.8	378.777
1027.69	434.938
1030.58	379.785
1033.47	479.969
1036.37	602.637
1039.26	638.541
1042.15	564.101
1045.05	624.602
1047.94	697.715
1050.83	695.758
1053.72	883.227
1056.62	1062.76
1059.51	1150.01
1062.4	1055.68
1065.29	799.922
1068.19	606.24
1071.08	400.131
1073.97	392.896
1076.87	189.784
1079.76	152.148
1082.65	125.358
1085.54	95.7627
1088.44	11.4502
1091.33	17.7969
1094.22	9.12109
1097.11	1.29688
1100.01	42.4023
1102.9	22.0957
1105.79	12.9541
1108.68	25.0557
1111.58	30.4902
1114.47	58.5234
1117.36	71.8535
1120.26	77.6973
1123.15	77.9394
1126.04	152.234
1128.93	120.041
1131.83	134.356
1134.72	40.7324
1137.61	60.0225
1140.5	69.5342
1143.4	134.156
1146.29	70.5918
1149.18	47.1475
1152.08	137.874
1154.97	35.2627
1157.86	108.892
1160.75	66.4346
1163.65	7.91602
1166.54	66.6709
1169.43	36.9531
1172.32	7.16699
1175.22	37.8301
1178.11	44.7871
1181	31.0547
1183.89	81.2559
1186.79	18.3457
1189.68	72.5674
1192.57	131.127
1195.47	95.9121
1198.36	79.9863
1201.25	96.7578
1204.14	124.156
1207.04	56.3574
1209.93	50.5029
1212.82	47.4404
1215.71	69.0156
1218.61	114.519
1221.5	104.361
1224.39	71.2471
1227.29	17.749
1230.18	67.9512
1233.07	108.823
1235.96	100.749
1238.86	21.5449
1241.75	19.833
1244.64	35.9443
