Measurement: Raman, 532 nm, unoriented, Raman Data Processed
Mineral: Ferrowodginite
Rruff sample: R120166
Ideal chemistry: Fe^2+^(Sn^4+^,Ti,Ta,Fe^3+^)(Ta,Nb)_2_O_8_
Locality: Nyanga #2 pegmatite, Ankloe, Uganda
Source: Rock Currier
Raman shift (cm-1)	intensity
194.945	0
197.838	0.189545
200.731	1.14983
203.623	0.876617
206.516	2.15768
209.409	5.08942
212.301	6.27649
215.194	8.92607
218.087	7.79127
220.98	6.78703
223.872	6.75917
226.765	7.40106
229.658	6.95157
232.55	9.19774
235.443	7.44019
238.336	7.99155
241.228	8.19281
244.121	9.07837
247.014	10.2446
249.906	8.41277
252.799	8.84369
255.692	9.61314
258.585	12.2406
261.477	15.8502
264.37	17.1265
267.263	23.743
270.155	32.1703
273.048	40.9944
275.941	52.3772
278.834	65.9719
281.726	78.8628
284.619	89.0714
287.512	90.0276
290.404	84.1947
293.297	73.6728
296.19	63.8094
299.082	52.5529
301.975	43.6808
304.868	37.6306
307.76	31.812
310.653	24.5926
313.546	21.6792
316.439	15.359
319.331	11.1074
322.224	6.40633
325.117	4.18788
328.009	1.34051
330.902	0.828262
333.795	0.278473
336.688	2.53838
339.58	0.126999
342.473	1.66277
345.366	1.78856
348.258	0.862442
351.151	0.567078
354.044	0.208893
356.936	2.55843
359.829	4.39922
362.722	5.5078
365.615	9.56502
368.507	15.5384
371.4	15.9692
374.293	22.5941
377.185	29.2189
380.078	34.3777
382.971	41.2721
385.863	46.9618
388.756	55.8915
391.649	62.9101
394.541	68.4946
397.434	72.1307
400.327	74.68
403.22	75.212
406.112	75.2012
409.005	71.0837
411.898	66.956
414.79	60.6719
417.683	53.2914
420.576	46.1436
423.469	38.1502
426.361	30.1206
429.254	24.9199
432.147	19.5152
435.039	16.661
437.932	15.7175
440.825	12.6972
443.717	11.2908
446.61	8.35843
449.503	8.25522
452.396	7.66638
455.288	8.56532
458.181	6.53212
461.074	7.92197
463.966	7.34923
466.859	7.88998
469.752	10.1109
472.644	10.9958
475.537	11.3257
478.43	12.9082
481.322	13.8035
484.215	13.6326
487.108	12.9952
490.001	14.8655
492.893	17.6644
495.786	15.5015
498.679	16.5944
501.571	14.3087
504.464	16.7106
507.357	13.8559
510.25	14.7749
513.142	12.8584
516.035	10.7828
518.928	10.2614
521.82	7.90279
524.713	5.37941
527.606	2.59312
530.498	0.617737
533.391	0.690948
536.284	0.562103
539.177	1.20819
542.069	0.356949
544.962	1.57175
547.855	0.349442
550.747	1.29083
553.64	0.295944
556.533	2.80014
559.425	4.25894
562.318	5.78851
565.211	6.47394
568.104	7.25191
570.996	9.77029
573.889	11.2799
576.782	10.4274
579.674	11.5067
582.567	12.9061
585.46	13.3963
588.352	12.1517
591.245	13.0422
594.138	13.4538
597.03	12.3039
599.923	11.293
602.816	11.8078
605.709	11.4093
608.601	10.9025
611.494	11.7365
614.387	11.353
617.279	12.2621
620.172	12.9812
623.065	13.5151
625.957	13.9519
628.85	14.8632
631.743	15.3785
634.636	13.9814
637.528	14.3012
640.421	13.6768
643.314	14.2033
646.206	14.346
649.099	14.5948
651.992	13.3491
654.885	15.0438
657.777	13.6661
660.67	13.1287
663.563	13.3218
666.455	12.5288
669.348	12.4162
672.241	11.0255
675.133	10.6765
678.026	8.19447
680.919	7.43472
683.812	7.41022
686.704	5.06178
689.597	3.98518
692.49	3.87677
695.382	0.718948
698.275	1.38126
701.168	1.07011
704.06	2.02942
706.953	0.309311
709.846	1.97761
712.739	1.85588
715.631	1.49106
718.524	1.65285
721.417	1.2072
724.309	1.42618
727.202	0.470276
730.095	2.18581
732.987	2.03449
735.88	3.22995
738.773	3.49632
741.665	6.3231
744.558	6.9751
747.451	6.677
750.344	8.87761
753.236	9.52229
756.129	9.44266
759.022	9.89252
761.914	9.90982
764.807	12.3316
767.7	11.8893
770.592	12.3457
773.485	13.7397
776.378	15.3801
779.271	14.0677
782.163	14.3147
785.056	15.7505
787.949	14.4178
790.841	17.5234
793.734	17.3224
796.627	18.8242
799.519	19.3622
802.412	19.2154
805.305	22.0476
808.198	23.4833
811.09	24.8096
813.983	31.3969
816.876	32.0545
819.768	36.9705
822.661	41.0102
825.554	44.2947
828.447	47.5856
831.339	52.9392
834.232	57.2302
837.125	63.566
840.017	66.9302
842.91	73.1077
845.803	78.4499
848.695	83.802
851.588	88.7456
854.481	94.9757
857.374	100.734
860.266	105.261
863.159	104.895
866.052	103.192
868.944	99.8325
871.837	89.9968
874.73	79.6955
877.622	64.8677
880.515	50.4549
883.408	37.0305
886.301	26.9933
889.193	16.6799
892.086	10.1909
894.979	5.52921
897.871	2.34318
900.764	0.018829
903.657	1.65436
906.549	2.67586
909.442	2.06757
912.335	1.26444
915.227	1.88565
918.12	1.09425
921.013	1.06483
923.906	0.094345
926.798	1.99632
929.691	1.91937
932.584	2.82363
935.476	4.6013
938.369	3.36247
941.262	3.9544
944.154	5.18494
947.047	5.9843
949.94	6.1925
952.833	6.6805
955.725	8.21896
958.618	7.98746
961.511	8.26732
964.403	9.03197
967.296	8.62637
970.189	7.72508
973.082	7.46403
975.974	6.74731
978.867	5.44821
981.76	4.85205
984.652	5.21945
987.545	4.51517
990.438	4.64075
993.33	4.28051
996.223	5.15608
999.116	4.15291
1002.01	2.77238
1004.9	4.26342
1007.79	3.92954
1010.69	3.38448
1013.58	2.85424
1016.47	2.21139
1019.37	3.12636
1022.26	2.48872
1025.15	1.97535
1028.04	1.99937
1030.94	1.51056
1033.83	1.94565
1036.72	1.47595
1039.61	2.12297
1042.51	0.784042
1045.4	1.19918
1048.29	1.61257
1051.18	0.752441
1054.08	0.099472
1056.97	1.00977
1059.86	0.58725
1062.76	0.418709
1065.65	0.390961
1068.54	0.321297
1071.43	1.17775
1074.33	1.0272
1077.22	1.02321
1080.11	1.10995
1083	1.14281
1085.9	0.744621
1088.79	0.279869
1091.68	0.302444
1094.58	1.00033
1097.47	0.941483
1100.36	0.704742
1103.25	0.515701
1106.15	0.977913
1109.04	0.381203
1111.93	0.232574
1114.82	0.178894
1117.72	0.607681
1120.61	0.561005
1123.5	0.179512
1126.39	0.245392
1129.29	0.973228
1132.18	1.24335
1135.07	0.449394
1137.96	0.661247
1140.86	0.596512
1143.75	0.966972
1146.64	0.49041
1149.54	0.427032
1152.43	1.19041
1155.32	0.634926
1158.21	0.053398
1161.11	0.433983
1164	0.804047
1166.89	0.322731
1169.79	0.629143
1172.68	1.32964
1175.57	0.897301
1178.46	0.51619
1181.36	0.515968
1184.25	1.88637
1187.14	1.23441
1190.03	0.620506
1192.93	0.890602
1195.82	0.743217
1198.71	0.28405
1201.61	1.6407
1204.5	0.611572
1207.39	1.22856
1210.28	1.19362
1213.18	2.67773
1216.07	1.78119
1218.96	0.867813
1221.85	0.92765
1224.75	2.1339
1227.64	2.41771
1230.53	1.85555
1233.42	0.873055
1236.32	2.03417
1239.21	1.58926
1242.1	1.55688
1244.99	1.11756
1247.89	0.479248
1250.78	1.48954
1253.67	0.176315
1256.57	0.838615
1259.46	0.178276
1262.35	0.791336
1265.24	1.14278
1268.14	1.60143
1271.03	0.872887
1273.92	1.40748
1276.82	2.10539
1279.71	1.99194
1282.6	1.36095
1285.49	0.675865
1288.39	0.209656
1291.28	0.986526
1294.17	0.955208
1297.06	1.67299
1299.96	0.198837
