Measurement: Raman, 785 nm, unoriented, Raman Data Processed
Mineral: Ferrohogbomite-2N2S
Rruff sample: R070156
Ideal chemistry: (Fe,Mg,Zn,Al)_3_(Al,Ti,Fe)_8_O_15_(OH)
Locality: Norway
Source: James Shigley
Description: Black vitreous fragments embedded in fine-grained magnetite
Raman shift (cm-1)	intensity
148.308	0
151.201	61.6935
154.093	47.5529
156.986	0.061523
159.879	27.4443
162.772	87.1475
165.664	90.9022
168.557	169.069
171.45	161.691
174.342	132.327
177.235	164.878
180.128	150.57
183.02	173.203
185.913	193
188.806	191.646
191.698	150.963
194.591	186.717
197.484	174.461
200.377	148.394
203.269	85.3306
206.162	116.903
209.055	60.1968
211.947	24.0514
214.84	38.7145
217.733	31.4913
220.625	17.981
223.518	12.0037
226.411	17.0115
229.304	21.1608
232.196	45.0769
235.089	11.0165
237.982	11.7991
240.874	32.9121
243.767	3.59949
246.66	4.41797
249.553	2.66016
252.445	14.8417
255.338	11.9363
258.231	15.6156
261.123	18.3806
264.016	36.1224
266.909	47.1909
269.801	42.6841
272.694	54.9451
275.587	79.4013
278.479	72.8953
281.372	109.772
284.265	116.529
287.158	162.061
290.05	202.055
292.943	193.986
295.836	196.258
298.728	216.305
301.621	221.393
304.514	223.597
307.406	225.587
310.299	232.174
313.192	245.994
316.085	191.129
318.977	190.531
321.87	178.743
324.763	155.29
327.655	140.18
330.548	117.255
333.441	105.152
336.334	77.3152
339.226	71.4983
342.119	35.8992
345.012	48.9379
347.904	60.5154
350.797	49.894
353.69	24.2466
356.582	49.3063
359.475	9.38946
362.368	19.6261
365.26	32.0772
368.153	33.7299
371.046	10.4982
373.939	8.56683
376.831	6.77521
379.724	60.6158
382.617	25.1598
385.509	30.0798
388.402	52.3152
391.295	64.963
394.188	109.15
397.08	122.744
399.973	140.443
402.866	112.443
405.758	138.909
408.651	61.0162
411.544	71.7293
414.436	50.1642
417.329	37.8153
420.222	41.3892
423.115	47.4481
426.007	40.99
428.9	37.456
431.793	1.99774
434.685	29.9681
437.578	20.7048
440.471	15.6253
443.363	32.3541
446.256	22.8065
449.149	16.1623
452.041	4.29724
454.934	30.2533
457.827	20.8246
460.72	12.2117
463.612	13.2565
466.505	18.1638
469.398	32.5358
472.29	14.4276
475.183	30.4746
478.076	36.4528
480.969	37.2891
483.861	14.2864
486.754	43.924
489.647	43.4256
492.539	5.57593
495.432	22.2796
498.325	28.6198
501.217	16.7415
504.11	50.5633
507.003	51.4825
509.896	74.7909
512.788	65.6863
515.681	83.1147
518.574	66.3405
521.466	100.029
524.359	124.686
527.252	124.028
530.144	111.596
533.037	125.079
535.93	112.518
538.822	110.974
541.715	129.44
544.608	115.428
547.501	103.629
550.393	67.0362
553.286	60.0612
556.179	48.2036
559.071	26.8281
561.964	36.2266
564.857	29.8021
567.75	11.7755
570.642	4.33478
573.535	13.5521
576.428	14.0327
579.32	11.6679
582.213	3.78485
585.106	0.908081
587.998	32.2418
590.891	6.30261
593.784	6.88684
596.677	5.33514
599.569	18.3651
602.462	21.7515
605.355	21.6071
608.247	31.0635
611.14	58.9879
614.033	89.1042
616.925	85.5367
619.818	136.027
622.711	162.266
625.604	165.978
628.496	191.383
631.389	235.297
634.282	270.589
637.174	339.843
640.067	417.188
642.96	549.752
645.852	625.445
648.745	835.391
651.638	1031.5
654.53	1267.94
657.423	1481.16
660.316	1753.48
663.209	1979.3
666.101	2089.55
668.994	2181.4
671.887	2134.11
674.779	1991.29
677.672	1824.3
680.565	1622.26
683.457	1410.64
686.35	1217.32
689.243	1062.37
692.136	935.815
695.028	777.701
697.921	649.473
700.814	542.914
703.706	460.067
706.599	348.298
709.492	290.952
712.385	226.092
715.277	141.73
718.17	139.887
721.063	86.7118
723.955	32.8657
726.848	28.8798
729.741	27.3267
732.633	3.94116
735.526	12.0558
738.419	14.592
741.312	12.2062
744.204	0.382202
747.097	4.14539
749.99	4.62506
752.882	2.38916
755.775	25.1871
758.668	5.23651
761.56	27.1758
764.453	2.54962
767.346	9.66174
770.239	3.88635
773.131	0.764282
776.024	30.5839
778.917	11.8239
781.809	19.3828
784.702	10.9932
787.595	18.9934
790.487	22.2499
793.38	22.0076
796.273	7.55096
799.165	23.5189
802.058	6.7356
804.951	11.5083
807.844	26.2474
810.736	20.6503
813.629	8.63385
816.522	17.2955
819.414	40.5014
822.307	54.652
825.2	43.6725
828.092	12.945
830.985	5.85053
833.878	51.8789
836.771	29.6985
839.663	52.9277
842.556	29.1257
845.449	41.932
848.341	42.5573
851.234	47.6839
854.127	43.4785
857.019	33.4893
859.912	59.2099
862.805	37.2602
865.698	44.2162
868.59	55.4494
871.483	28.9211
874.376	28.6955
877.268	31.9368
880.161	20.7858
883.054	31.567
885.947	22.3589
888.839	43.2315
891.732	38.7148
894.625	27.2408
897.517	38.4243
900.41	56.9724
903.303	33.4424
906.195	38.0635
909.088	42.9587
911.981	24.4466
914.874	0.381317
917.766	29.2564
920.659	3.23584
923.552	10.4253
926.444	7.48447
929.337	35.6087
932.23	33.6039
935.122	16.9627
938.015	24.9088
940.908	35.8616
943.801	54.8798
946.693	19.2676
949.586	44.8987
952.479	2.02661
955.371	2.23093
958.264	5.18887
961.157	27.1019
964.049	46.8966
966.942	19.3344
969.835	39.4771
972.727	23.6839
975.62	14.8267
978.513	5.96915
981.406	43.1991
984.298	23.8889
987.191	32.5092
990.084	32.2514
992.976	28.8705
995.869	30.8019
998.762	0.962555
1001.65	16.8469
1004.55	25.8811
1007.44	18.9606
1010.33	7.91974
1013.23	23.8338
1016.12	8.95377
1019.01	21.2109
1021.9	24.2537
1024.8	37.7092
1027.69	10.5346
1030.58	32.3203
1033.47	0.69278
1036.37	21.9514
1039.26	10.6157
1042.15	18.167
1045.05	35.4471
1047.94	2.47089
1050.83	17.9102
1053.72	30.9881
1056.62	53.8127
1059.51	12.8768
1062.4	22.6338
1065.29	17.8413
1068.19	16.5839
1071.08	18.8373
1073.97	13.9433
1076.87	16.324
1079.76	44.8231
1082.65	17.1188
1085.54	22.4075
1088.43	36.6942
1091.33	16.4966
1094.22	14.5607
1097.11	1.85736
1100.01	25.5912
1102.9	23.1172
1105.79	25.1668
1108.68	22.95
1111.58	17.1958
1114.47	25.3811
1117.36	26.293
1120.26	18.3179
1123.15	40.3487
1126.04	57.6638
1128.93	23.6919
1131.83	53.0573
1134.72	53.9578
1137.61	30.8157
1140.5	52.176
1143.4	10.7824
1146.29	23.3907
1149.18	22.4179
1152.08	42.5696
1154.97	23.3452
1157.86	29.4829
1160.75	21.3976
1163.65	21.0545
1166.54	11.1753
1169.43	15.1261
1172.32	31.6575
1175.22	43.8296
1178.11	45.2753
1181	52.0221
1183.89	19.2508
1186.79	31.6978
1189.68	45.982
1192.57	17.4974
1195.46	30.3259
1198.36	23.4947
1201.25	23.1942
1204.14	2.28433
1207.04	41.3678
1209.93	17.7162
1212.82	16.2297
1215.71	0.862976
1218.61	0.919861
1221.5	5.44782
1224.39	0
