Measurement: Raman, 785 nm, unoriented, Raman Data Processed
Mineral: Ferrierite-Mg
Rruff sample: R070091
Ideal chemistry: [Mg_2_(K,Na)_2_Ca_0.5_](Si_29_Al_7_)O_72_18H_2_O
Locality: Kamloops Lake, British Columbia, Canada
Source: Michael Scott
Description: White acicular crystal in radial hemispheres and lining a cavity associated with quartz
Measured chemistry: (Mg_1.66_Na_1.65_K_0.35_Ca_0.12_Ba_0.05_Sr_0.04_)_Σ=3.87_(Si_30.26_Al_5.74_)O_72_·21.5H_2_O; H_2_O estimated by difference
Raman shift (cm-1)	intensity
170.004	0
172.897	122.047
175.789	159.188
178.682	39.3047
181.575	34.3281
184.467	179.256
187.36	298.305
190.253	390.637
193.145	504.748
196.038	682.176
198.931	874.106
201.823	957.316
204.716	945.064
207.609	933.422
210.502	856.455
213.394	685.986
216.287	681.018
219.18	741.396
222.072	766.82
224.965	814.951
227.858	724.717
230.75	591.127
233.643	530.539
236.536	402.408
239.429	430.736
242.321	399.777
245.214	464.414
248.107	442.74
250.999	438.094
253.892	307.006
256.785	249.574
259.678	232.42
262.57	276.492
265.463	157.666
268.356	231.463
271.248	137.098
274.141	35.8809
277.034	52.4121
279.926	33.7441
282.819	36.0352
285.712	88.5039
288.605	82.4199
291.497	28.2988
294.39	4.5625
297.283	39.0273
300.175	44.0195
303.068	230.815
305.961	250.549
308.853	328.471
311.746	431.894
314.639	519.801
317.531	586.701
320.424	705.049
323.317	778.26
326.21	881.75
329.102	1033.72
331.995	1137.55
334.888	1136.69
337.78	949.311
340.673	837.85
343.566	722.854
346.459	633.061
349.351	668.082
352.244	558.144
355.137	472.24
358.029	349.881
360.922	285.039
363.815	121.035
366.707	36.6074
369.6	20.6055
372.493	47.7891
375.385	19.9453
378.278	36.0547
381.171	63.2578
384.064	47.9961
386.956	109.504
389.849	85.4141
392.742	418.478
395.634	587.006
398.527	895.856
401.42	1072.8
404.312	1363.37
407.205	1729.09
410.098	2012.92
412.991	2364.86
415.883	2872.86
418.776	3114.91
421.669	3464.24
424.561	3566.24
427.454	3719.19
430.347	3774.79
433.24	3791.47
436.132	3745.85
439.025	3693.41
441.918	3635
444.81	3547.6
447.703	3476.25
450.596	3245.02
453.488	2875.2
456.381	2445.22
459.274	1991.65
462.166	1661.34
465.059	1369.97
467.952	1094.43
470.845	791.269
473.737	636.127
476.63	404.49
479.523	233.41
482.415	169.842
485.308	112.927
488.201	90.7334
491.094	99.375
493.986	24.7061
496.879	89.8867
499.772	47.5869
502.664	104.157
505.557	61.5762
508.45	57.8818
511.342	50.7334
514.235	47.0478
517.128	52.2031
520.021	162.512
522.913	24.1045
525.806	150.368
528.699	160.276
531.591	225.436
534.484	314.979
537.377	369.949
540.269	457.114
543.162	474.656
546.055	629.727
548.948	612.112
551.84	725.963
554.733	719.929
557.626	763.889
560.518	818.034
563.411	701.205
566.304	548.557
569.196	514.357
572.089	458.443
574.982	304.945
577.875	297.865
580.767	236.029
583.66	211.425
586.553	259.958
589.445	203.664
592.338	80.7012
595.231	150.307
598.123	110.895
601.016	145.084
603.909	106.819
606.802	66.4141
609.694	54.4658
612.587	48.6562
615.48	43.6611
618.372	65.0625
621.265	0.173828
624.158	74.3144
627.05	5.39551
629.943	10.249
632.836	70.6777
635.729	60.6523
638.621	108.64
641.514	69.9863
644.407	54.1133
647.299	33.3955
650.192	35.3867
653.085	122.724
655.977	109.769
658.87	61.1865
661.763	106.894
664.655	72.9434
667.548	147.32
670.441	60.083
673.334	98.4141
676.226	87.7939
679.119	149.406
682.012	97.0088
684.904	45.3535
687.797	19.0254
690.69	38.7207
693.582	54.7129
696.475	71.3877
699.368	86.082
702.261	2.39062
705.153	84.999
708.046	18.876
710.939	45.123
713.831	68.8867
716.724	38.1699
719.617	56.3105
722.51	2.05273
725.402	100.397
728.295	35.7402
731.188	47.3945
734.08	17.791
736.973	17.9746
739.866	11.3535
742.758	105.32
745.651	83.5244
748.544	146.969
751.437	84.8193
754.329	166.165
757.222	182.23
760.115	148.994
763.007	129.253
765.9	316.666
768.793	329.849
771.685	508.556
774.578	579.54
777.471	769.276
780.364	924.6
783.256	1075.48
786.149	1183.13
789.042	1245.99
791.934	1109.15
794.827	964.345
797.72	823.41
800.612	608.096
803.505	485.24
806.398	319.292
809.29	249.888
812.183	162.064
815.076	124.568
817.969	170.638
820.861	72.8721
823.754	82.5566
826.647	80.4951
829.539	49.6797
832.432	52.8613
835.325	10.3867
838.217	29.4727
841.11	31.2744
844.003	42.0068
846.896	125.043
849.788	76.1826
852.681	11.8213
855.574	55.8477
858.466	47.4922
861.359	19.832
864.252	39.4023
867.144	45.7383
870.037	125.394
872.93	40.373
875.823	18.9863
878.715	49.5478
881.608	109.355
884.501	48.373
887.393	84.3311
890.286	27.0293
893.179	105.515
896.072	145.636
898.964	47.0537
901.857	80.96
904.75	94.085
907.642	64.3496
910.535	22.6416
913.428	138.162
916.32	62.7695
919.213	113.883
922.106	82.0664
924.999	52.5879
927.891	103.628
930.784	91.3916
933.677	115.74
936.569	148.85
939.462	92.709
942.355	13.9541
945.247	73.5996
948.14	28.2988
951.033	61.5947
953.926	33.6885
956.818	0.94043
959.711	126.115
962.604	52.7881
965.496	2.3418
968.389	60.3164
971.282	103.573
974.174	2.49805
977.067	31.1484
979.96	13.4639
982.852	32.3701
985.745	51.8506
988.638	99.8418
991.531	119.417
994.423	25.1162
997.316	0.459961
1000.21	110.311
1003.1	85.1885
1005.99	99.8027
1008.89	30.708
1011.78	94.9482
1014.67	71.4834
1017.57	118.475
1020.46	89.3311
1023.35	45.8105
1026.24	73.4307
1029.14	98.21
1032.03	80.2978
1034.92	94.6426
1037.81	141.859
1040.71	37.9463
1043.6	80.4375
1046.49	67.54
1049.38	73.9346
1052.28	73.2764
1055.17	100.246
1058.06	74.4014
1060.95	102.564
1063.85	55.7383
1066.74	74.9287
1069.63	2.52734
1072.53	7.15918
1075.42	12.8672
1078.31	2.19531
1081.2	28.4219
1084.1	15.7793
1086.99	0.09668
1089.88	13.5996
1092.78	23.8857
1095.67	34.5879
1098.56	3.11328
1101.45	3.91504
1104.35	89.2285
1107.24	18.2207
1110.13	26.833
1113.02	86.2373
1115.92	60.0312
1118.81	143.763
1121.7	113.952
1124.6	138.789
1127.49	174.369
1130.38	232.151
1133.27	214.098
1136.17	251.69
1139.06	286.558
1141.95	319.286
1144.84	247.9
1147.74	285.731
1150.63	290.49
1153.52	364.149
1156.41	288.205
1159.31	220.872
1162.2	292.264
1165.09	285.283
1167.98	273.671
1170.88	242.926
1173.77	249.694
1176.66	229.981
1179.56	238.5
1182.45	213.039
1185.34	189.871
1188.23	209.951
1191.13	181.642
1194.02	242.439
1196.91	159.72
1199.81	177.162
1202.7	169.148
1205.59	100.372
1208.48	105.393
1211.38	101.144
1214.27	123.709
1217.16	87.9522
1220.05	127.947
1222.95	98.3496
1225.84	15.8271
1228.73	21.6152
1231.62	73.5869
1234.52	9.95508
1237.41	42.1172
