Measurement: Raman, 532 nm, unoriented, Raman Data Processed
Mineral: Ferrimolybdite
Rruff sample: R050566
Ideal chemistry: Fe^3+^_2_(Mo^6+^O_4_)_3_7H_2_O
Locality: Kingman, Arizona, USA
Source: University of Arizona Mineral Museum
Description: Yellow fibrous aggregate
Measured chemistry: Wavelength dispersive spectroscopy (WDS) scanning shows Mo and Fe only.
Raman shift (cm-1)	intensity
150.898	0
153.791	32.373
156.683	17.5088
159.576	0.406006
162.469	1.22852
165.361	48.967
168.254	65.5529
171.147	120.539
174.039	121.811
176.932	114.52
179.825	109.116
182.718	97.8769
185.61	87.9181
188.503	85.7874
191.396	114.848
194.288	158.957
197.181	211.275
200.074	277.791
202.966	318.19
205.859	408.123
208.752	502.456
211.645	619.216
214.537	732.702
217.43	873.281
220.323	1033.09
223.215	1193.83
226.108	1350.16
229.001	1480.42
231.893	1539.74
234.786	1532.66
237.679	1328.34
240.572	1169.09
243.464	960.214
246.357	784.055
249.25	602.782
252.142	434.38
255.035	312.155
257.928	270.672
260.82	174.296
263.713	127.55
266.606	76.1552
269.499	85.7463
272.391	84.6592
275.284	52.787
278.177	32.7449
281.07	27.994
283.962	4.87439
286.855	7.91846
289.748	14.9552
292.64	20.2189
295.533	10.9652
298.426	6.75598
301.318	19.058
304.211	25.5247
307.104	46.4244
309.997	71.9633
312.889	113.613
315.782	144.304
318.675	207.6
321.567	232.089
324.46	298.766
327.353	363.747
330.245	410.158
333.138	453.323
336.031	476.424
338.923	455.842
341.816	432.264
344.709	425.274
347.602	385.788
350.494	357.122
353.387	330.13
356.28	304.571
359.173	287.789
362.065	272.758
364.958	245.838
367.851	227.153
370.743	168.596
373.636	144.746
376.529	145.49
379.421	95.1918
382.314	87.736
385.207	80.1864
388.099	49.2112
390.992	41.2754
393.885	24.3551
396.778	2.64319
399.67	0.480957
402.563	15.5244
405.456	35.5319
408.348	88.8601
411.241	111.479
414.134	209.549
417.026	305.597
419.919	400.494
422.812	509.11
425.705	602.354
428.597	642.086
431.49	646.076
434.383	601.946
437.276	537.41
440.168	484.22
443.061	431.449
445.954	379.007
448.846	348.074
451.739	302.995
454.632	268.972
457.524	243.381
460.417	212.551
463.31	177.872
466.202	174.989
469.095	135.721
471.988	96.7158
474.881	85.2056
477.773	39.2043
480.666	44.8976
483.559	32.3541
486.451	23.1013
489.344	2.63123
492.237	1.99573
495.13	21.4745
498.022	14.9893
500.915	3.36597
503.808	5.25085
506.7	13.1035
509.593	11.4434
512.486	25.8374
515.379	23.0253
518.271	25.0366
521.164	42.1975
524.057	65.5007
526.949	91.0687
529.842	96.4073
532.735	142.479
535.627	136.552
538.52	162.99
541.413	183.659
544.306	217.906
547.198	256.63
550.091	271.385
552.984	277.87
555.876	282.193
558.769	269.728
561.662	256.119
564.554	235.316
567.447	230.411
570.34	231.033
573.232	214.13
576.125	220.267
579.018	228.423
581.911	238.1
584.803	237.014
587.696	234.697
590.589	215.85
593.481	207.218
596.374	183.135
599.267	160.526
602.159	132.641
605.052	122.295
607.945	113.575
610.838	74.8763
613.73	70.316
616.623	41.0441
619.516	46.9885
622.409	25.3202
625.301	31.7777
628.194	24.9571
631.087	6.64087
633.979	12.2328
636.872	4.92151
639.765	0.407471
642.657	4.93506
645.55	8.43005
648.443	6.76794
651.336	9.97571
654.228	7.5376
657.121	6.08264
660.014	19.7865
662.906	10.6075
665.799	9.33105
668.692	4.60229
671.585	12.5056
674.477	29.3498
677.37	47.1815
680.263	38.037
683.155	54.6608
686.048	64.8191
688.941	82.2625
691.833	83.745
694.726	107.237
697.619	119.455
700.511	140.742
703.404	139.244
706.297	153.43
709.19	162.481
712.082	168.17
714.975	178.999
717.868	179.497
720.76	194.69
723.653	215.481
726.546	224.591
729.438	244.968
732.331	240.85
735.224	227.637
738.117	237.318
741.009	245.134
743.902	231.849
746.795	255.788
749.687	256.185
752.58	266.741
755.473	258.15
758.366	248.598
761.258	237.288
764.151	216.423
767.044	212.356
769.936	174.258
772.829	180.077
775.722	137.602
778.615	116.014
781.507	93.6531
784.4	91.2683
787.293	57.113
790.185	45.7803
793.078	38.4121
795.971	18.0974
798.863	17.4685
801.756	6.46265
804.649	3.40991
807.542	6.18457
810.434	28.3237
813.327	46.1466
816.22	70.0535
819.112	90.7892
822.005	121.064
824.898	183.879
827.79	210.345
830.683	252.254
833.576	277.481
836.469	298.11
839.361	303.841
842.254	259.62
845.147	216.913
848.039	166.689
850.932	119.215
853.825	78.257
856.717	41.2111
859.61	14.7637
862.503	2.19873
865.396	13.8319
868.288	27.2993
871.181	11.8868
874.074	12.7726
876.966	18.313
879.859	3.01269
882.752	17.3203
885.644	66.868
888.537	92.5419
891.43	149.962
894.323	153.483
897.215	210.463
900.108	189.926
903.001	195.105
905.894	220.691
908.786	271.177
911.679	280.876
914.572	343.377
917.464	411.241
920.357	491.961
923.25	573.64
926.142	636.753
929.035	699.308
931.928	719.339
934.821	800.997
937.713	935.418
940.606	1088.71
943.499	1254.27
946.391	1533.93
949.284	1801.39
952.177	1895.32
955.069	1699.01
957.962	1387.29
960.855	1082.72
963.748	833.732
966.64	655.728
969.533	498.638
972.426	396.941
975.318	333.137
978.211	239.352
981.104	193.887
983.996	125.37
986.889	86.353
989.782	40.6258
992.675	34.6223
995.567	28.001
998.46	8.00183
1001.35	6.93189
1004.25	2.56055
1007.14	0.236084
1010.03	1.0592
1012.92	5.37061
1015.82	2.70532
1018.71	2.14356
1021.6	12.7412
1024.49	15.3817
1027.39	16.5017
1030.28	29.5811
1033.17	24.6721
1036.07	20.6385
1038.96	31.765
1041.85	27.9731
1044.74	27.6289
1047.64	36.5776
1050.53	32.8047
1053.42	35.5625
1056.31	41.2839
1059.21	43.2194
1062.1	36.0754
1064.99	38.3425
1067.88	43.8008
1070.78	42.4218
1073.67	21.683
1076.56	21.5492
1079.46	12.3655
1082.35	19.5574
1085.24	26.1381
1088.13	17.6432
1091.03	11.3451
1093.92	17.4363
1096.81	25.774
1099.7	28.6017
1102.6	27.262
1105.49	13.3206
1108.38	14.9414
1111.28	17.2045
1114.17	8.20215
1117.06	14.583
1119.95	6.40808
1122.85	2.36279
1125.74	4.80945
1128.63	10.687
1131.52	7.66357
1134.42	2.49658
1137.31	5.1875
1140.2	10.5696
1143.1	4.06909
1145.99	10.3096
1148.88	15.0579
1151.77	6.61438
1154.67	12.9864
1157.56	0.546997
1160.45	2.71924
1163.34	9.48315
1166.24	18.6366
1169.13	28.4324
1172.02	20.2041
1174.91	11.5978
1177.81	22.9268
1180.7	14.3998
1183.59	8.66785
1186.49	17.5167
1189.38	26.9784
1192.27	5.37024
1195.16	14.3258
1198.06	12.3543
1200.95	23.1857
1203.84	8.68469
1206.73	8.66272
1209.63	5.59216
1212.52	1.56409
1215.41	3.95386
1218.31	12.2367
1221.2	9.87293
1224.09	13.7103
1226.98	14.1785
1229.88	7.40344
1232.77	16.3555
1235.66	21.34
1238.55	14.1599
1241.45	37.3132
1244.34	10.3857
1247.23	12.9465
1250.12	23.3197
1253.02	7.04321
1255.91	11.2311
1258.8	26.4419
1261.7	15.1909
1264.59	5.30481
1267.48	2.59839
1270.37	11.2741
1273.27	13.6985
1276.16	2.73987
1279.05	8.09143
1281.94	14.5498
1284.84	15.1746
1287.73	7.93213
1290.62	0.121338
1293.52	11.0127
1296.41	14.4551
1299.3	16.5449
1302.19	0.066895
