Measurement: Raman, 532 nm, unoriented, Raman Data Processed
Mineral: Ferrilotharmeyerite
Rruff sample: R060209
Ideal chemistry: CaZn^2+^Fe^3+^(As^5+^O_4_)_2_(OH)H_2_O
Locality: Tsumeb mine, Tsumeb, Otavi District, Oshikoto, Namibia
Source: William W. Pinch
Description: Yellowish-green rectangular prisms
Raman shift (cm-1)	intensity
145.111	0
148.486	29.8139
151.861	102.552
155.235	175.345
158.61	207.634
161.985	287.009
165.36	370.935
168.735	391.483
172.109	293.754
175.484	159.328
178.859	75.6196
182.234	29.1618
185.609	9.63419
188.984	0.677139
192.358	7.01628
195.733	7.37648
199.108	1.54001
202.483	4.94836
205.858	18.1516
209.232	36.9282
212.607	57.5109
215.982	83.8194
219.357	106.805
222.732	125.149
226.107	139.271
229.481	145.755
232.856	139.096
236.231	126.006
239.606	112.622
242.981	105.843
246.355	100.068
249.73	92.4309
253.105	80.1576
256.48	63.097
259.855	46.436
263.229	31.4272
266.604	21.3329
269.979	15.1329
273.354	10.6946
276.729	6.65475
280.104	2.51923
283.478	0.216507
286.853	2.38647
290.228	2.40529
293.603	1.02917
296.978	1.48811
300.353	7.04796
303.727	13.4859
307.102	22.3935
310.477	30.577
313.852	43.3336
317.227	55.7713
320.601	67.6558
323.976	81.9596
327.351	99.3041
330.726	116.009
334.101	138.577
337.476	165.308
340.85	193.757
344.225	220.723
347.6	248.293
350.975	271.092
354.349	284.155
357.724	280.143
361.099	266.194
364.474	247.213
367.849	226.154
371.224	198.801
374.598	163.471
377.973	125.952
381.348	93.8883
384.723	60.7985
388.098	35.4556
391.473	20.7673
394.847	6.18872
398.222	1.57562
401.597	2.63892
404.972	2.43668
408.347	0.375092
411.721	5.232
415.096	11.1994
418.471	16.3995
421.846	15.7516
425.221	13.6958
428.596	5.84534
431.97	1.04034
435.345	2.52402
438.72	0.443085
442.095	3.57117
445.469	7.17212
448.844	14.1257
452.219	22.5919
455.594	31.2613
458.969	41.9778
462.344	54.8826
465.718	72.0385
469.093	88.9721
472.468	109.612
475.843	133.596
479.218	157.028
482.592	178.444
485.967	193.703
489.342	213.369
492.717	234.27
496.092	260.737
499.467	290.119
502.841	313.863
506.216	328.474
509.591	310.969
512.966	275.842
516.341	221.093
519.716	166.36
523.09	121.633
526.465	86.8052
529.84	63.6461
533.215	42.9614
536.59	30.5843
539.964	19.3185
543.339	15.7731
546.714	6.56231
550.089	4.76031
553.464	1.27912
556.838	1.16043
560.213	1.18705
563.588	1.15099
566.963	1.33854
570.338	0.146095
573.713	1.37169
577.087	2.58236
580.462	4.12169
583.837	5.6724
587.212	8.577
590.587	9.22363
593.961	11.8137
597.336	12.9202
600.711	16.5837
604.086	18.2181
607.461	20.5203
610.836	22.149
614.21	23.2854
617.585	23.7892
620.96	24.8492
624.335	24.3614
627.71	25.0777
631.084	25.0045
634.459	25.6444
637.834	26.6232
641.209	28.1596
644.584	29.7304
647.958	30.7307
651.333	32.964
654.708	33.4665
658.083	34.245
661.458	33.6381
664.833	32.9367
668.207	30.9053
671.582	28.5
674.957	24.5964
678.332	22.1472
681.707	18.9297
685.082	14.9362
688.456	12.0477
691.831	9.27964
695.206	5.00098
698.581	3.49285
701.956	1.26475
705.33	2.2413
708.705	2.56968
712.08	3.91157
715.455	3.56609
718.83	2.23794
722.205	0.799103
725.579	2.68375
728.954	5.35677
732.329	11.9906
735.704	19.8907
739.079	30.2086
742.453	47.8922
745.828	71.947
749.203	99.6088
752.578	128.257
755.953	155.446
759.327	173.954
762.702	177.43
766.077	160.451
769.452	123.466
772.827	76.7624
776.202	36.3493
779.576	9.48721
782.951	2.25388
786.326	2.14478
789.701	20.7868
793.076	57.7548
796.45	108.218
799.825	169.249
803.2	229.332
806.575	263.698
809.95	248.792
813.324	200.41
816.699	162.103
820.074	138.585
823.449	135.881
826.824	129.362
830.198	116.538
833.573	97.6883
836.948	75.4078
840.323	52.6114
843.698	37.4269
847.073	32.8289
850.447	33.2257
853.822	45.5234
857.197	73.4306
860.572	117.86
863.947	185.803
867.322	280.841
870.696	396.652
874.071	521.16
877.446	624.53
880.821	644.317
884.196	548.987
887.57	394.076
890.945	251.752
894.32	150.149
897.695	80.3307
901.07	41.1942
904.444	18.1931
907.819	8.31091
911.194	0.499725
914.569	5.48801
917.944	2.48169
921.319	4.08562
924.693	2.14069
928.068	1.79193
931.443	6.81197
934.818	11.799
938.193	18.44
941.567	22.4329
944.942	23.1311
948.317	20.8488
951.692	15.9269
955.067	8.93999
958.442	2.97417
961.816	1.03362
965.191	2.06802
968.566	0.281116
971.941	1.57325
975.316	3.29142
978.691	5.87193
982.065	7.63267
985.44	10.3996
988.815	13.6995
992.19	17.0807
995.564	19.0986
998.939	21.3628
1002.31	23.6395
1005.69	25.7379
1009.06	27.3321
1012.44	28.5194
1015.81	29.5465
1019.19	28.0371
1022.56	26.6054
1025.94	23.1888
1029.31	20.9415
1032.69	21.6591
1036.06	18.5607
1039.44	16.2695
1042.81	15.6161
1046.19	13.8592
1049.56	13.9717
1052.94	12.6264
1056.31	12.4821
1059.69	11.2013
1063.06	10.0923
1066.44	8.63102
1069.81	8.55014
1073.18	6.42488
1076.56	5.57834
1079.93	5.08293
1083.31	4.49736
1086.68	4.02121
1090.06	3.39646
1093.43	2.85458
1096.81	2.40305
1100.18	1.36899
1103.56	1.95972
1106.93	0.936077
1110.31	0.507448
1113.68	0.336508
1117.06	0.814177
1120.43	0.694321
1123.81	0.097483
1127.18	0.053139
1130.56	0.08386
1133.93	0.317945
1137.31	0.575629
1140.68	0.908329
1144.06	0.296957
1147.43	0.370615
1150.81	0.515385
1154.18	0.223835
1157.56	0.570889
1160.93	0.206575
1164.31	0.339108
1167.68	0.101515
1171.06	0.218554
1174.43	0.540842
1177.81	0.0333
1181.18	0.122152
1184.55	0.217941
1187.93	0.356478
1191.3	0.359047
1194.68	0.218006
1198.05	0.053587
1201.43	0.737062
1204.8	0.152912
1208.18	1.23151
1211.55	0.390741
1214.93	0.49386
1218.3	1.53142
1221.68	0.755968
1225.05	0.892733
1228.43	0.761944
1231.8	0.855762
1235.18	0.846046
1238.55	0.027117
1241.93	0.840981
1245.3	1.17331
1248.68	0.249987
1252.05	0.590303
1255.42	1.05909
1258.8	1.0616
1262.17	1.12566
1265.55	1.47096
1268.92	3.01231
1272.3	1.20927
1275.67	1.67138
1279.05	0.340517
1282.42	0.713728
1285.8	1.19406
1289.17	0.719482
1292.55	0.596807
1295.92	0.735298
1299.3	0.661514
1302.67	2.97562
