Measurement: Raman, 532 nm, unoriented, Raman Data Processed
Mineral: Ferroericssonite
Rruff sample: R070406
Ideal chemistry: BaFe^2+^_2_Fe^3+^(Si_2_O_7_)O(OH)
Locality: Big Creek, Fresno County, California, USA
Source: Michael Scott
Description: Dark reddish brown platy crystals, associated with dark brown titantaramellite, prismatic pale-green ferro-actinolite, quartz, and devitoite, R120091.
Raman shift (cm-1)	intensity
148.698	0
151.59	12.2631
154.483	47.8871
157.376	19.8469
160.268	19.2616
163.161	43.1025
166.054	13.5891
168.946	66.3472
171.839	107.877
174.732	151.298
177.625	197.956
180.517	255.234
183.41	342.851
186.303	411.44
189.195	482.808
192.088	512.467
194.981	557.921
197.874	575.616
200.766	602.776
203.659	577.212
206.552	547.893
209.444	494.854
212.337	422.138
215.23	304.624
218.122	296.566
221.015	223.135
223.908	187.059
226.8	199.702
229.693	175.123
232.586	161.807
235.479	146.431
238.371	141.908
241.264	122.591
244.157	81.718
247.049	68.1193
249.942	83.0747
252.835	44.9957
255.727	57.1409
258.62	62.0056
261.513	60.157
264.406	84.8683
267.298	53.9852
270.191	20.6129
273.084	17.9703
275.976	9.14319
278.869	23.9548
281.762	16.5053
284.655	56.608
287.547	72.1612
290.44	79.4532
293.333	88.5496
296.225	104.41
299.118	84.8055
302.011	80.1775
304.904	75.4218
307.796	53.206
310.689	46.906
313.582	39.9429
316.474	20.7103
319.367	32.8898
322.26	3.97009
325.152	6.43848
328.045	6.21069
330.938	17.9266
333.83	3.95654
336.723	26.0201
339.616	36.6398
342.509	61.8029
345.401	49.3413
348.294	76.0609
351.187	136.874
354.079	174.769
356.972	99.2673
359.865	66.4925
362.757	101.07
365.65	125.157
368.543	139.197
371.436	199.783
374.328	236.688
377.221	289.069
380.114	409.49
383.006	459.311
385.899	551.144
388.792	580.884
391.685	566.34
394.577	404.779
397.47	315.641
400.363	182.176
403.255	137.013
406.148	57.1107
409.041	23.9161
411.933	1.19177
414.826	12.7405
417.719	1.32922
420.611	0.570557
423.504	1.06592
426.397	7.55481
429.29	9.90332
432.182	17.7717
435.075	11.2034
437.968	16.4204
440.86	69.7728
443.753	132.38
446.646	213.324
449.538	409.555
452.431	674.589
455.324	1083.39
458.217	1612.08
461.109	2074.32
464.002	2273.81
466.895	1680.15
469.787	998.594
472.68	663.763
475.573	454.929
478.466	372.663
481.358	232.214
484.251	196.658
487.144	180.346
490.036	121.096
492.929	117.449
495.822	72.9752
498.714	64.9337
501.607	77.5128
504.5	53.6127
507.393	73.819
510.285	80.9877
513.178	121.591
516.071	46.2981
518.963	56.1777
521.856	32.8751
524.749	14.8931
527.641	0.680298
530.534	6.27991
533.427	29.3105
536.32	2.21313
539.212	13.5227
542.105	22.1908
544.998	22.9873
547.89	99.3292
550.783	57.0808
553.676	117.931
556.568	134.422
559.461	195.714
562.354	277.117
565.247	322.443
568.139	350.986
571.032	308.576
573.925	231.097
576.817	159.581
579.71	106.046
582.603	99.347
585.495	72.537
588.388	40.5017
591.281	36.2557
594.174	21.9286
597.066	14.2838
599.959	16.5011
602.852	14.7116
605.744	5.95435
608.637	4.72009
611.53	28.1503
614.423	5.07983
617.315	5.37805
620.208	62.5565
623.101	23.6061
625.993	46.7191
628.886	57.3282
631.779	71.5504
634.671	161.433
637.564	196.148
640.457	269.587
643.35	387.781
646.242	464.493
649.135	633.333
652.028	776.228
654.92	996.016
657.813	1089.08
660.706	1124.25
663.598	966.546
666.491	802.832
669.384	608.072
672.277	445.962
675.169	366.251
678.062	270.017
680.955	188.145
683.847	138.715
686.74	110.798
689.633	58.7262
692.525	76.4006
695.418	32.869
698.311	61.8666
701.204	34.4216
704.096	0.607422
706.989	6.96057
709.882	22.6543
712.774	1.74683
715.667	4.63501
718.56	11.0854
721.452	31.502
724.345	26.3486
727.238	4.05823
730.131	50.3541
733.023	38.1354
735.916	23.7102
738.809	14.4255
741.701	72.4291
744.594	32.54
747.487	36.2492
750.38	89.5482
753.272	55.2884
756.165	72.8883
759.058	95.0604
761.95	103.687
764.843	129.344
767.736	83.4423
770.628	61.542
773.521	79.5666
776.414	82.64
779.307	70.5823
782.199	37.5842
785.092	57.5376
787.985	51.2338
790.877	67.0911
793.77	86.7228
796.663	80.8186
799.555	56.2
802.448	93.2078
805.341	64.2971
808.234	80.1844
811.126	24.0557
814.019	37.5098
816.912	0.906616
819.804	35.9502
822.697	4.59229
825.59	16.725
828.482	27.0721
831.375	15.2972
834.268	18.6173
837.16	26.9496
840.053	72.1254
842.946	42.5663
845.839	22.3623
848.731	40.6211
851.624	60.5625
854.517	54.739
857.409	48.807
860.302	53.4551
863.195	33.3758
866.087	78.2858
868.98	95.5607
871.873	151.425
874.766	255.134
877.658	361.902
880.551	544.667
883.444	901.377
886.337	1340.9
889.229	1739.52
892.122	2039.37
895.015	1955.02
897.907	1427.12
900.8	915.319
903.693	554.43
906.585	314.68
909.478	232.045
912.371	177.716
915.264	159.025
918.156	166.084
921.049	115.095
923.942	108.323
926.834	188.858
929.727	187.024
932.62	178.012
935.512	72.995
938.405	61.485
941.298	27.2631
944.191	32.3702
947.083	2.15576
949.976	28.5453
952.869	17.2843
955.761	18.0403
958.654	7.46765
961.547	14.3723
964.439	46.7712
967.332	51.3624
970.225	43.0375
973.117	73.6162
976.01	103.662
978.903	77.298
981.796	109.276
984.688	142.469
987.581	202.08
990.474	207.307
993.366	253.743
996.259	190.789
999.152	259.74
1002.04	242.624
1004.94	215.17
1007.83	196.427
1010.72	191.297
1013.62	89.8601
1016.51	91.1741
1019.4	75.6121
1022.29	88.7617
1025.19	74.943
1028.08	8.16711
1030.97	42.7051
1033.86	4.20129
1036.76	27.3831
1039.65	34.7894
1042.54	35.8258
1045.43	23.202
1048.33	30.6919
1051.22	23.2428
1054.11	15.1658
1057.01	68.0821
1059.9	30.0142
1062.79	53.8533
1065.68	27.5984
1068.58	49.8214
1071.47	29.3397
1074.36	112.949
1077.26	96.3544
1080.15	112.327
1083.04	81.0918
1085.93	71.1561
1088.83	93.9518
1091.72	44.2445
1094.61	79.3234
1097.5	19.8837
1100.4	6.26453
1103.29	39.1953
1106.18	5.74927
1109.07	21.4283
1111.97	49.6777
1114.86	51.589
1117.75	24.1852
1120.64	46.0743
1123.54	16.6222
1126.43	49.1484
1129.32	47.5383
1132.22	30.1575
1135.11	41.0284
1138	28.4119
1140.89	48.0279
1143.79	70.9529
1146.68	59.8438
1149.57	52.5435
1152.46	55.4369
1155.36	55.813
1158.25	116.572
1161.14	102.999
1164.04	63.6078
1166.93	59.1577
1169.82	19.97
1172.71	25.0773
1175.61	23.3884
1178.5	15.5043
1181.39	3.71936
1184.29	2.40149
1187.18	43.4836
1190.07	46.2675
1192.96	7.81177
1195.86	47.5194
1198.75	40.2566
1201.64	41.7001
1204.53	10.5367
1207.43	45.6149
1210.32	49.5951
1213.21	15.8192
1216.1	22.5449
1219	7.84656
1221.89	1.30322
1224.78	32.2849
1227.67	37.5912
1230.57	26.6096
1233.46	83.4562
1236.35	47.7134
1239.25	47.1461
1242.14	23.7351
1245.03	12.0158
1247.92	17.0182
1250.82	12.8151
1253.71	13.4985
1256.6	84.3871
1259.49	14.4502
1262.39	15.2021
1265.28	47.2944
1268.17	25.3592
1271.07	47.8085
1273.96	63.739
1276.85	32.0638
1279.74	27.984
1282.64	25.7507
1285.53	52.9988
1288.42	22.5064
1291.32	9.09766
1294.21	5.61353
1297.1	68.0241
1299.99	20.5319
1302.88	0.000977
