Measurement: Raman, 532 nm, unoriented, Raman Data Processed
Mineral: Ferrokesterite
Rruff sample: R110173
Ideal chemistry: Cu_2_(Fe,Zn)SnS_4_
Locality: San Jose mine, Oruro, Bolivia
Source: Brian Kosnar
Description: Black rough octahedron associated with zinkenite.
Measured chemistry: Cu_1.99_(Fe_0.54_Zn_0.45_Cd_0.01_)Sn_0.99_S_4_
Raman shift (cm-1)	intensity
179.684	0
182.577	3.23099
185.469	0.679939
188.362	3.0825
191.255	2.94756
194.147	5.48686
197.04	5.57133
199.933	5.90194
202.825	8.89961
205.718	6.5359
208.611	4.55628
211.504	1.80293
214.396	1.80251
217.289	0.048149
220.182	0.843666
223.074	2.19959
225.967	2.69128
228.86	1.94569
231.752	0.70266
234.645	0.373192
237.538	4.17931
240.43	7.63047
243.323	13.2155
246.216	17.7091
249.109	21.2689
252.001	24.2772
254.894	28.6473
257.787	30.0914
260.679	29.9692
263.572	32.2517
266.465	35.5054
269.358	39.8165
272.25	46.4406
275.143	58.1705
278.036	67.4102
280.928	81.4879
283.821	93.5384
286.714	104.034
289.606	104.797
292.499	93.597
295.392	80.2716
298.284	74.27
301.177	75.75
304.07	81.2235
306.963	92.8773
309.855	108.024
312.748	135.589
315.641	176.569
318.533	234.335
321.426	308.841
324.319	391.489
327.212	484.483
330.104	555.416
332.997	570.331
335.89	529.578
338.782	423.709
341.675	289.589
344.568	214.585
347.46	185.856
350.353	164.234
353.246	146.856
356.139	132.934
359.031	113.131
361.924	94.7631
364.817	76.1122
367.709	53.5017
370.602	33.6269
373.495	21.9384
376.387	10.5028
379.28	4.93295
382.173	0.8293
385.065	2.13983
387.958	2.87663
390.851	3.79385
393.744	2.716
396.636	2.22521
399.529	0.1362
402.422	0.020546
405.314	0.955299
408.207	2.5196
411.1	1.81118
413.993	3.26003
416.885	5.18543
419.778	3.4697
422.671	4.38874
425.563	4.30977
428.456	4.92644
431.349	5.31186
434.241	4.15767
437.134	4.94168
440.027	4.56935
442.92	5.13523
445.812	5.21806
448.705	5.27164
451.598	4.39212
454.49	3.31494
457.383	4.27063
460.276	4.19045
463.168	4.60914
466.061	4.09611
468.954	5.56634
471.846	6.44083
474.739	6.26688
477.632	5.49421
480.525	6.27207
483.417	6.08546
486.31	5.40536
489.203	5.74948
492.095	5.4198
494.988	4.56424
497.881	3.0425
500.774	2.76158
503.666	2.38771
506.559	1.88236
509.452	1.82114
512.344	2.20853
515.237	0.926701
518.13	1.84523
521.022	0.420856
523.915	0.394878
526.808	0.325424
529.701	0.15057
532.593	0.049625
535.486	0.434025
538.379	0.055321
541.271	1.67203
544.164	0.843349
547.057	0.110973
549.949	1.73835
552.842	0.058025
555.735	0.844097
558.628	0.516552
561.52	0.548431
564.413	0.747242
567.306	0.995728
570.198	0.310429
573.091	0.18211
575.984	0.761044
578.876	2.64786
581.769	1.60338
584.662	1.51697
587.554	1.41497
590.447	2.93086
593.34	3.06236
596.232	3.47958
599.125	3.77727
602.018	3.57331
604.911	4.22324
607.803	4.19699
610.696	5.80938
613.589	5.4641
616.481	5.48025
619.374	6.15486
622.267	5.26961
625.159	6.5568
628.052	6.22172
630.945	7.16328
633.838	8.52261
636.73	8.66149
639.623	9.54653
642.516	10.9329
645.408	10.4776
648.301	12.6465
651.194	12.71
654.087	15.0168
656.979	15.1007
659.872	16.5746
662.765	16.8199
665.657	17.2753
668.55	17.6475
671.443	15.0353
674.335	13.3063
677.228	13.0116
680.121	11.0162
683.014	10.5043
685.906	8.2624
688.799	8.93087
691.692	7.59136
694.584	5.545
697.477	5.91307
700.37	4.64
703.263	3.35817
706.155	2.96418
709.048	1.5577
711.941	0.881699
714.833	0.63982
717.726	0.234119
720.619	0.150654
723.511	0.576759
726.404	0.256565
729.297	0.278378
732.189	0.957363
735.082	0.374065
737.975	1.00615
740.868	0.327847
743.76	0.27906
746.653	0.521881
749.546	0.149307
752.438	0.449192
755.331	0.584766
758.224	0.425804
761.116	0.034149
764.009	0.645557
766.902	0.801601
769.795	0.500793
772.687	1.41975
775.58	1.13257
778.473	1.18985
781.365	0.091938
784.258	1.66718
787.151	0.887619
790.043	1.07822
792.936	0.424953
795.829	2.16455
798.722	0.619175
801.614	1.34298
804.507	0.875774
807.4	0.093445
810.292	1.30612
813.185	1.94183
816.078	1.30193
818.971	1.57139
821.863	0.896542
824.756	1.36243
827.649	2.27358
830.541	0.029354
833.434	1.05504
836.327	1.20021
839.219	0.48106
842.112	1.23017
845.005	1.17047
847.898	0.091579
850.79	0.080608
853.683	0.502819
856.576	0.584679
859.468	0.35458
862.361	0.969337
865.254	0.847691
868.146	0.528385
871.039	1.22511
873.932	0.246876
876.824	1.24717
879.717	0.662716
882.61	0.732742
885.503	0.198452
888.395	0.179569
891.288	0.278645
894.181	0.775204
897.073	0.058083
899.966	0.213017
902.859	0.936947
905.751	0.413448
908.644	0.717968
911.537	1.39431
914.43	0.041958
917.322	2.55924
920.215	1.2877
923.108	1.12139
926	1.69243
928.893	1.07094
931.786	1.08658
934.678	2.00761
937.571	1.59984
940.464	1.74892
943.357	0.416508
946.249	1.51109
949.142	1.71107
952.035	2.11848
954.927	2.10772
957.82	1.85814
960.713	1.54858
963.606	2.10114
966.498	1.25151
969.391	2.68292
972.284	1.55552
975.176	1.65814
978.069	2.00304
980.962	1.77934
983.854	3.24826
986.747	2.73047
989.64	2.91816
992.533	2.59547
995.425	3.46425
998.318	3.22612
1001.21	2.89579
1004.1	2.83862
1007	2.9311
1009.89	2.61978
1012.78	3.39166
1015.67	2.83184
1018.57	2.20447
1021.46	2.4331
1024.35	2.1046
1027.24	1.95423
1030.14	1.59539
1033.03	1.07935
1035.92	1.14336
1038.82	1.79322
1041.71	0.278683
1044.6	0.071766
1047.49	0.258625
1050.39	0.257179
1053.28	0.973736
1056.17	0.023544
1059.07	0.583504
1061.96	0.46389
1064.85	0.805065
1067.74	0.096436
1070.63	1.54518
1073.53	1.11101
1076.42	1.46022
1079.31	0.50354
1082.21	0.283268
1085.1	1.3536
1087.99	0.222702
1090.88	1.22088
1093.78	0.88916
1096.67	0.968975
1099.56	0.821262
1102.45	0.261585
1105.35	0.582104
1108.24	0.295853
1111.13	0.038265
1114.03	0.448246
1116.92	0.10054
1119.81	1.06976
1122.7	0.458332
1125.6	1.31813
1128.49	1.06217
1131.38	0.949024
1134.28	0.793842
1137.17	1.78531
1140.06	0.028629
1142.95	1.27123
1145.85	1.52257
1148.74	0.253925
1151.63	0.515457
1154.52	1.2004
1157.42	0.023968
1160.31	1.2416
1163.2	1.02723
1166.09	0.815804
1168.99	0.859131
1171.88	0.651806
1174.77	0.947426
1177.66	1.11905
1180.56	0.85582
1183.45	1.11813
1186.34	0.731998
1189.24	2.42158
1192.13	1.24381
1195.02	0.296314
1197.91	1.79856
1200.81	0.925144
1203.7	1.36849
1206.59	1.77923
1209.48	1.00588
1212.38	1.02835
1215.27	1.23755
1218.16	0.985867
1221.06	0.809036
1223.95	1.7518
1226.84	1.75024
1229.73	0.853073
1232.63	1.67771
1235.52	1.07423
1238.41	1.2617
1241.31	0.680225
1244.2	0.750496
1247.09	1.2648
1249.98	1.63791
1252.88	1.36515
1255.77	0.979431
1258.66	1.25232
1261.55	1.73176
1264.45	1.69876
1267.34	1.00599
1270.23	1.91904
1273.12	1.77109
1276.02	0.973557
1278.91	0.260365
1281.8	0.86422
1284.69	1.12125
1287.59	1.96777
1290.48	0.283321
1293.37	0.217918
1296.27	0.334999
1299.16	0.223404
1302.05	0.233063
