Measurement: Raman, 532 nm, unoriented, Raman Data Processed
Mineral: Ferrosilite
Rruff sample: R070386
Ideal chemistry: Fe^2+^SiO_3_
Locality: Greenland
Source: Subrata Ghose, collected by Ramberg
Description: Unconsolidated brown transparent cleavage fragments
Measured chemistry: (Fe^2+^_1.64_Mg_0.32_Al_0.02_Ca_0.02_)_Σ=2_((Si_1.98_Al_0.02_)_Σ=1_O_3_)_2_
Raman shift (cm-1)	intensity
177.154	0
180.047	1.41699
182.939	43.9088
185.832	117.363
188.725	41.3965
191.617	38.0807
194.51	58.3513
197.403	49.5907
200.296	11.4357
203.188	76.8123
206.081	5.9458
208.974	60.0278
211.866	69.0956
214.759	44.0045
217.652	61.7755
220.544	53.9307
223.437	140.009
226.33	91.3396
229.222	168
232.115	180.156
235.008	198.702
237.901	279.921
240.793	336.099
243.686	385.372
246.579	449.914
249.471	366.214
252.364	276.541
255.257	195.33
258.149	198.589
261.042	130.958
263.935	38.0869
266.828	45.0925
269.72	48.8691
272.613	10.8811
275.506	41.7262
278.398	10.5612
281.291	7.12549
284.184	28.4155
287.077	92.1987
289.969	186.109
292.862	322.46
295.755	447.903
298.647	676.724
301.54	979.029
304.433	1366.24
307.325	1633.49
310.218	1778.8
313.111	1835.52
316.003	1761.72
318.896	1735
321.789	1676.54
324.682	1648.75
327.574	1579.28
330.467	1444.9
333.36	1128.79
336.252	905.974
339.145	912.888
342.038	803.771
344.93	922.743
347.823	968.484
350.716	1089.84
353.609	1142.69
356.501	1038.76
359.394	1037.07
362.287	828.534
365.179	651.26
368.072	609.764
370.965	486.21
373.858	382.412
376.75	378.372
379.643	371.937
382.536	352.971
385.428	359.768
388.321	310.777
391.214	361.998
394.106	321.333
396.999	315.956
399.892	187.216
402.784	196.625
405.677	122.138
408.57	14.0542
411.463	12.2606
414.355	15.636
417.248	68.222
420.141	10.9111
423.033	14.589
425.926	67.2457
428.819	14.4842
431.712	49.0309
434.604	54.0448
437.497	51.7229
440.39	5.46143
443.282	72.3298
446.175	79.5851
449.068	67.6212
451.96	22.4769
454.853	6.51831
457.746	48.1918
460.639	117.675
463.531	102.534
466.424	124.07
469.317	128.109
472.209	82.955
475.102	72.3326
477.995	52.5875
480.887	52.5682
483.78	42.4043
486.673	92.0001
489.565	51.8362
492.458	105.084
495.351	168.886
498.244	235.687
501.136	326.349
504.029	318.994
506.922	345.889
509.814	385.075
512.707	513.614
515.6	522.09
518.492	704.556
521.385	739.408
524.278	801.515
527.171	646.197
530.063	552.109
532.956	509.43
535.849	461.235
538.741	411.327
541.634	461.875
544.527	385.686
547.419	467.039
550.312	316.016
553.205	313.895
556.098	240.442
558.99	126.527
561.883	212.964
564.776	99.0181
567.668	160.491
570.561	89.8018
573.454	84.8677
576.346	22.2482
579.239	50.2222
582.132	47.667
585.025	45.978
587.917	1.82044
590.81	75.7347
593.703	19.6156
596.596	25.1547
599.488	26.2327
602.381	68.0569
605.274	98.2783
608.166	147.744
611.059	175.023
613.952	189.505
616.844	214.575
619.737	165.816
622.63	311.114
625.523	468.762
628.415	677.371
631.308	963.739
634.201	1061.56
637.093	1283.06
639.986	1473.65
642.879	1580.04
645.771	1733.93
648.664	2074.53
651.557	2827.99
654.449	3648.27
657.342	4365.13
660.235	4751.44
663.128	4311.63
666.02	3267.05
668.913	2232.08
671.806	1475.18
674.698	924.043
677.591	624.036
680.484	428.326
683.376	254.005
686.269	161.585
689.162	168.577
692.055	50.4799
694.947	75.7621
697.84	8.52502
700.733	54.007
703.625	29.6758
706.518	11.3539
709.411	4.91553
712.303	32.0015
715.196	23.9747
718.089	30.8284
720.982	31.4163
723.874	79.2588
726.767	76.355
729.66	122.539
732.552	135.271
735.445	127.343
738.338	141.138
741.231	113.28
744.123	102.388
747.016	68.279
749.909	61.6489
752.801	41.5617
755.694	55.4388
758.587	27.8777
761.479	72.2264
764.372	37.9407
767.265	47.2235
770.158	4.94531
773.05	8.6261
775.943	9.55872
778.836	45.9597
781.728	54.42
784.621	16.343
787.514	105.269
790.406	131.531
793.299	100.468
796.192	126.632
799.085	131.918
801.977	157.514
804.87	173.75
807.763	148.052
810.655	151.916
813.548	156.25
816.441	134.751
819.333	139.998
822.226	157.52
825.119	90.135
828.011	86.0603
830.904	100.04
833.797	67.1052
836.69	67.0339
839.582	90.3818
842.475	67.2729
845.368	35.6083
848.26	9.98596
851.153	8.36585
854.046	42.5975
856.938	11.9475
859.831	9.51965
862.724	75.7004
865.617	46.9744
868.509	28.3429
871.402	31.4296
874.295	8.18518
877.187	54.5162
880.08	88.8363
882.973	107.51
885.865	113.457
888.758	148.991
891.651	102.803
894.544	133.462
897.436	65.759
900.329	90.2996
903.222	106.578
906.114	98.179
909.007	101.039
911.9	146.129
914.793	143.21
917.685	142.956
920.578	135.965
923.471	6.17273
926.363	64.9868
929.256	45.1977
932.149	34.1188
935.041	132.881
937.934	213.755
940.827	338.18
943.72	494.623
946.612	557.345
949.505	664.578
952.398	595.652
955.29	579.001
958.183	441.209
961.076	370.298
963.968	330.679
966.861	493.338
969.754	655.711
972.646	966.036
975.539	1485.87
978.432	2192.64
981.325	3322.57
984.217	4597.61
987.11	6055.94
990.003	6897.47
992.895	6643.49
995.788	5350.22
998.681	3661.58
1001.57	2433.79
1004.47	1706.75
1007.36	1146.29
1010.25	784.005
1013.14	511.313
1016.04	409.899
1018.93	226.918
1021.82	162.898
1024.71	119.504
1027.61	57.5815
1030.5	10.177
1033.39	13.0564
1036.29	2.35901
1039.18	44.9534
1042.07	23.1565
1044.96	19.0367
1047.86	10.0776
1050.75	11.2244
1053.64	14.6182
1056.54	0.607788
1059.43	55.3256
1062.32	69.7797
1065.21	47.7533
1068.11	36.3413
1071	18.7237
1073.89	71.1552
1076.78	45.6031
1079.68	57.2839
1082.57	54.3549
1085.46	83.2825
1088.35	62.4147
1091.25	110.263
1094.14	97.7459
1097.03	109.946
1099.92	13.4187
1102.82	81.9401
1105.71	71.2583
1108.6	76.9268
1111.5	26.312
1114.39	100.21
1117.28	72.7042
1120.17	29.3213
1123.07	40.3766
1125.96	53.9397
1128.85	16.1305
1131.74	69.9105
1134.64	38.8873
1137.53	49.7837
1140.42	75.1705
1143.32	38.7078
1146.21	11.8271
1149.1	59.9723
1151.99	79.0644
1154.89	40.0144
1157.78	80.8295
1160.67	71.6796
1163.57	37.5829
1166.46	18.2207
1169.35	62.5404
1172.24	52.9752
1175.13	74.9742
1178.03	20.8882
1180.92	101.591
1183.81	58.9962
1186.71	57.0839
1189.6	77.845
1192.49	55.1529
1195.38	75.6309
1198.28	38.468
1201.17	56.0525
1204.06	24.5431
1206.95	18.4237
1209.85	34.8175
1212.74	15.8939
1215.63	68.2136
1218.53	81.7396
1221.42	42.1149
1224.31	67.3817
1227.2	17.8694
1230.1	18.3091
1232.99	38.6232
1235.88	48.4622
1238.78	29.1815
1241.67	32.8093
1244.56	2.70215
1247.45	20.7296
1250.35	47.1065
1253.24	55.2528
1256.13	88.9535
1259.02	39.6859
1261.92	20.8108
1264.81	23.5985
1267.7	74.6552
1270.6	69.4644
1273.49	57.1593
1276.38	57.2803
1279.27	54.3702
1282.16	113.659
1285.06	89.6692
1287.95	48.4596
