Measurement: Raman, 785 nm, unoriented, Raman Data Processed
Mineral: Ferrosilite
Rruff sample: R070387
Ideal chemistry: Fe^2+^SiO_3_
Locality: Central Gneissic Complex (Khtada Lake), British Columbia, Canada
Source: Jibamitra Ganguly
Description: Translucent greenish-yellow grains with vitreous luster, known as Hollister enstatite
Measured chemistry: (Fe_0.48_Mg_0.47_Al_0.02_Ca_0.02_[box]_0.01_)_Î£=1_Si_1.00_O_3_ ; = light phase. There are trace amounts of Mn and Ti. The dark phase = quartz
Raman shift (cm-1)	intensity
198.538	0
201.431	7.54834
204.324	4.68164
207.216	107.327
210.109	237.283
213.002	301.466
215.894	416.906
218.787	465.669
221.68	538.336
224.573	442.957
227.465	411.319
230.358	241.075
233.251	190.71
236.143	199.624
239.036	178.607
241.929	104.638
244.821	92.0767
247.714	159.399
250.607	196.251
253.5	211.118
256.392	154.914
259.285	125.329
262.178	0.965332
265.07	10.4893
267.963	109.974
270.856	57.5842
273.748	28.5222
276.641	63.845
279.534	94.2773
282.427	142.079
285.319	102.362
288.212	108.079
291.105	79.603
293.997	104.782
296.89	146.625
299.783	199.075
302.675	353.256
305.568	569.647
308.461	787.861
311.354	1176.47
314.246	1565.48
317.139	2109.58
320.032	2543.56
322.924	3089.8
325.817	3612.01
328.71	3803.45
331.603	3558.32
334.495	2956.97
337.388	2155.43
340.281	1588.26
343.173	1127.5
346.066	849.895
348.959	623.84
351.851	488.867
354.744	333.602
357.637	268.474
360.529	303.718
363.422	308.17
366.315	347.402
369.208	421.549
372.1	437.961
374.993	529.375
377.886	580.72
380.778	557.038
383.671	537.261
386.564	429.598
389.457	231.831
392.349	90.4841
395.242	63.0571
398.135	3.31958
401.027	15.2512
403.92	3.83447
406.813	66.8362
409.705	104.475
412.598	276.077
415.491	330.268
418.384	339.537
421.276	334.916
424.169	171.861
427.062	55.1624
429.954	1.62402
432.847	21.6221
435.74	4.37451
438.632	19.2822
441.525	20.0662
444.418	30.8157
447.31	60.3403
450.203	151.189
453.096	44.5747
455.989	47.8391
458.881	28.1482
461.774	15.9412
464.667	30.7219
467.559	8.56323
470.452	23.9412
473.345	25.0254
476.238	42.3601
479.13	63.1352
482.023	2.67798
484.916	17.4631
487.808	14.2258
490.701	60.6995
493.594	49.75
496.486	106.823
499.379	187.211
502.272	185.036
505.164	295.043
508.057	366.179
510.95	438.61
513.843	481.7
516.735	548.126
519.628	551.11
522.521	640.29
525.413	627.445
528.306	744.847
531.199	745.782
534.092	621.675
536.984	578.633
539.877	534.928
542.77	389.789
545.662	379.678
548.555	282.313
551.448	260.86
554.341	276.325
557.233	290.42
560.126	279.58
563.019	289.954
565.911	225.57
568.804	227.215
571.697	233.444
574.589	228.762
577.482	200.579
580.375	100.315
583.268	122.445
586.16	74.4001
589.053	50.8213
591.946	46.5261
594.838	45.7202
597.731	5.40771
600.624	0.768311
603.516	5.66748
606.409	6.13965
609.302	37.3525
612.194	8.6206
615.087	22.5698
617.98	45.6125
620.872	86.5579
623.765	86.0662
626.658	144.362
629.551	158.761
632.443	262.957
635.336	429.933
638.229	616.543
641.121	867.518
644.014	1194.13
646.907	1682.26
649.799	2088.23
652.692	2401.18
655.585	2412.85
658.478	2321.77
661.37	2511.07
664.263	2913.43
667.156	3409.82
670.048	3736.87
672.941	3241.41
675.834	2330.8
678.726	1540.33
681.619	990.431
684.512	624.863
687.405	442.127
690.297	305.792
693.19	223.287
696.083	167.025
698.975	75.6218
701.868	37.2585
704.761	20.677
707.654	31.0642
710.546	23.9189
713.439	13.3149
716.332	37.2236
719.224	11.3018
722.117	59.512
725.01	64.0261
727.902	5.24561
730.795	26.3699
733.688	44.9465
736.581	63.8496
739.473	78.5317
742.366	74.8374
745.259	25.1419
748.151	56.4746
751.044	55.4956
753.937	4.2561
756.829	7.06372
759.722	1.18115
762.615	6.6167
765.508	38.4238
768.4	15.0178
771.293	47.3147
774.186	5.56104
777.078	23.4334
779.971	4.2229
782.864	57.8953
785.756	22.5701
788.649	44.188
791.542	23.1509
794.434	50.863
797.327	26.5254
800.22	49.1548
803.113	88.4585
806.005	68.8533
808.898	57.4011
811.791	82.8069
814.683	54.6287
817.576	90.2673
820.469	100.979
823.361	133.597
826.254	80.6094
829.147	44.3069
832.04	6.71387
834.932	44.3257
837.825	23.5051
840.718	9.59766
843.61	61.7036
846.503	54.9231
849.396	5.52246
852.288	0.561035
855.181	13.2788
858.074	50.3318
860.967	2.98267
863.859	10.7175
866.752	55.9355
869.645	51.3616
872.537	78.2151
875.43	141.653
878.323	118.578
881.216	197.681
884.108	130.379
887.001	163.043
889.894	129.911
892.786	128.871
895.679	77.5896
898.572	63.4121
901.464	60.189
904.357	54.9553
907.25	75.6472
910.143	37.4333
913.035	39.656
915.928	24.0149
918.821	13.5176
921.713	17.1323
924.606	20.0535
927.499	6.6167
930.391	50.1516
933.284	82.9602
936.177	67.8855
939.069	102.923
941.962	154.567
944.855	131.714
947.748	240.923
950.64	250.679
953.533	181.891
956.426	123.481
959.318	94.7627
962.211	67.5918
965.104	20.8826
967.996	1.24023
970.889	92.7886
973.782	91.3091
976.675	217.08
979.567	304.706
982.46	502.503
985.353	891.513
988.245	1241.89
991.138	1746.21
994.031	2202.89
996.923	2125.15
999.816	1804.45
1002.71	1276.26
1005.6	896.92
1008.49	671.342
1011.39	486.441
1014.28	375.351
1017.17	235.51
1020.07	147.294
1022.96	99.7764
1025.85	115.291
1028.74	59.8359
1031.64	79.1113
1034.53	41.9675
1037.42	27.3406
1040.31	72.1184
1043.21	46.1033
1046.1	0.892334
1048.99	21.0906
1051.88	12.8054
1054.78	25.3889
1057.67	19.4631
1060.56	46.2368
1063.46	8.08935
1066.35	21.0796
1069.24	21.4666
1072.13	3.10059
1075.03	18.0244
1077.92	32.2588
1080.81	50.0535
1083.7	41.4463
1086.6	8.51099
1089.49	40.7788
1092.38	39.2024
1095.28	30.5745
1098.17	39.0608
1101.06	44.9207
1103.95	48.2188
1106.85	0.258545
1109.74	34.3391
1112.63	27.0605
1115.52	57.0884
1118.42	49.9888
1121.31	39.8948
1124.2	31.6799
1127.1	58.7998
1129.99	84.9917
1132.88	73.1836
1135.77	90.9841
1138.67	14.7974
1141.56	12.8538
1144.45	36.2319
1147.34	6.02173
1150.24	34.4746
1153.13	69.4058
1156.02	83.0335
1158.91	25.3213
1161.81	31.5088
1164.7	39.334
1167.59	17.5425
1170.48	29.2493
1173.38	13.8474
1176.27	30.7419
1179.16	41.0405
1182.06	28.5115
1184.95	27.6821
1187.84	26.3464
1190.73	78.8362
1193.63	5.05811
1196.52	20.7742
1199.41	32.8752
1202.31	46.0881
1205.2	33.05
1208.09	65.2571
1210.98	41.0855
1213.88	135.585
1216.77	62.2212
1219.66	22.6724
1222.55	62.4568
1225.45	79.1731
1228.34	49.4844
1231.23	73.0159
1234.12	29.0305
1237.02	19.6272
1239.91	83.3884
1242.8	58.2981
1245.7	60.8147
1248.59	38.1926
1251.48	19.4612
1254.37	59.502
1257.27	72.832
