Measurement: Raman, 532 nm, unoriented, Raman Data Processed
Mineral: Ferrokentbrooksite
Rruff sample: R110183
Ideal chemistry: Na_15_Ca_6_Fe^2+^_3_Zr_3_Nb(Si_25_O_73_)(O,OH,H_2_O)_3_(F,Cl)_2_
Locality: Poudrette quarry, Mont St-Hilaire, Quebec, Canada
Source: Donald Doell
Description: Massive yellowish-gray
Raman shift (cm-1)	intensity
194.147	0
197.04	12.6121
199.933	31.9188
202.825	56.5383
205.718	62.8913
208.611	72.7865
211.504	76.8063
214.396	75.4657
217.289	65.8193
220.182	58.7492
223.074	55.054
225.967	41.7075
228.86	26.21
231.752	18.3429
234.645	14.2835
237.538	7.6828
240.43	5.13306
243.323	2.27692
246.216	3.77283
249.109	3.85211
252.001	1.84692
254.894	0.81311
257.787	1.24384
260.679	4.15875
263.572	6.50385
266.465	12.2305
269.358	18.7761
272.25	27.5159
275.143	34.2076
278.036	35.6629
280.928	39.2303
283.821	35.8928
286.714	40.1025
289.606	42.0693
292.499	48.0922
295.392	51.7858
298.284	53.2152
301.177	58.0402
304.07	47.9201
306.963	46.2821
309.855	40.4637
312.748	32.1287
315.641	26.9206
318.533	27.8436
321.426	24.5006
324.319	20.742
327.212	30.8309
330.104	34.0298
332.997	35.582
335.89	38.9132
338.782	39.9265
341.675	38.2167
344.568	29.4073
347.46	21.2476
350.353	22.4381
353.246	18.5026
356.139	14.8685
359.031	13.6811
361.924	7.28748
364.817	6.30328
367.709	6.97858
370.602	1.98407
373.495	5.87994
376.387	4.46271
379.28	16.3993
382.173	18.5392
385.065	26.0266
387.958	38.4624
390.851	42.2531
393.744	41.9004
396.636	40.8858
399.529	32.746
402.422	27.266
405.314	26.6371
408.207	27.0616
411.1	23.4465
413.993	16.786
416.885	16.2996
419.778	9.83478
422.671	5.71405
425.563	1.84271
428.456	2.46619
431.349	3.84405
434.241	2.00043
437.134	2.08643
440.027	1.74737
442.92	2.00885
445.812	6.99017
448.705	5.94208
451.598	7.40906
454.49	4.08728
457.383	5.70618
460.276	13.0588
463.168	8.55389
466.061	5.31335
468.954	1.80444
471.846	1.63892
474.739	0.993835
477.632	2.75171
480.525	4.17017
483.417	1.19055
486.31	0.891907
489.203	2.98108
492.095	4.61237
494.988	3.64954
497.881	6.27747
500.774	5.42157
503.666	8.61475
506.559	7.57184
509.452	13.0172
512.344	14.3006
515.237	22.9612
518.13	27.0603
521.022	33.8925
523.915	47.1341
526.808	58.2903
529.701	61.9908
532.593	57.6922
535.486	52.5071
538.379	54.8411
541.271	59.058
544.164	70.7776
547.057	83.9686
549.949	107.397
552.842	124.99
555.735	150.784
558.628	180.908
561.52	201.011
564.413	213.235
567.306	218.98
570.198	217.456
573.091	180.203
575.984	122.346
578.876	71.063
581.769	42.0277
584.662	20.1382
587.554	7.84845
590.447	9.71576
593.34	16.017
596.232	25.8207
599.125	33.176
602.018	40.6146
604.911	51.1271
607.803	53.1429
610.696	58.0488
613.589	55.6486
616.481	47.0285
619.374	38.3982
622.267	36.0608
625.159	33.712
628.052	29.7759
630.945	26.4771
633.838	20.2588
636.73	13.4125
639.623	8.28418
642.516	0.505676
645.408	0.382568
648.301	5.85266
651.194	5.20337
654.087	1.52631
656.979	3.01245
659.872	2.34998
662.765	0.965393
665.657	8.36182
668.55	10.7506
671.443	19.168
674.335	32.5275
677.228	38.2907
680.121	47.459
683.014	60.9266
685.906	72.6511
688.799	81.9977
691.692	92.4214
694.584	106.663
697.477	121.512
700.37	122.617
703.263	124.621
706.155	112.928
709.048	97.6598
711.941	69.4474
714.833	41.0254
717.726	21.2408
720.619	8.87402
723.511	9.47107
726.404	19.6916
729.297	30.275
732.189	42.9654
735.082	56.3307
737.975	69.8861
740.868	81.5686
743.76	77.754
746.653	77.6979
749.546	67.6637
752.438	66.859
755.331	60.3133
758.224	57.1099
761.116	45.3572
764.009	48.6506
766.902	46.3378
769.795	43.4313
772.687	38.3856
775.58	32.0872
778.473	31.9486
781.365	31.2926
784.258	35.15
787.151	37.3868
790.043	41.5642
792.936	51.8932
795.829	58.7435
798.722	63.8502
801.614	72.4415
804.507	80.5901
807.4	89.7769
810.292	90.0429
813.185	79.2626
816.078	68.0781
818.971	54.3226
821.863	42.3037
824.756	25.4042
827.649	12.2852
830.541	5.31464
833.434	3.79419
836.327	0.695618
839.219	0.784912
842.112	5.32123
845.005	2.63989
847.898	3.4798
850.79	3.97967
853.683	3.98187
856.576	3.37592
859.468	5.65784
862.361	3.84204
865.254	0.297729
868.146	3.35034
871.039	2.27405
873.932	6.13904
876.824	7.1355
879.717	5.24744
882.61	8.36255
885.503	13.9581
888.395	14.3752
891.288	18.0131
894.181	22.1123
897.073	24.7753
899.966	28.9128
902.859	34.7781
905.751	37.1139
908.644	36.54
911.537	38.3945
914.43	40.2518
917.322	45.8356
920.215	51.3632
923.108	54.2554
926	57.9868
928.893	61.4037
931.786	59.3658
934.678	58.9918
937.571	58.8387
940.464	61.4142
943.357	59.8606
946.249	56.8174
949.142	50.3408
952.035	50.0504
954.927	35.6266
957.82	28.9899
960.713	18.6251
963.606	9.87231
966.498	4.53027
969.391	5.755
972.284	2.66638
975.176	2.46741
978.069	7.15356
980.962	7.81177
983.854	11.6658
986.747	16.1383
989.64	19.61
992.533	23.1932
995.425	23.7517
998.318	25.3131
1001.21	26.4013
1004.1	24.7744
1007	28.1616
1009.89	25.09
1012.78	22.0158
1015.67	21.455
1018.57	19.0724
1021.46	17.2827
1024.35	18.3364
1027.24	10.2974
1030.14	11.8335
1033.03	4.87439
1035.92	9.94751
1038.82	0.211914
1041.71	0.559692
1044.6	5.04834
1047.49	3.91065
1050.39	1.59192
1053.28	7.5404
1056.17	21.3912
1059.07	30.9344
1061.96	49.1565
1064.85	68.3799
1067.74	82.3649
1070.63	89.075
1073.53	80.8478
1076.42	71.9139
1079.31	68.0597
1082.21	59.9862
1085.1	56.8539
1087.99	51.0969
1090.88	54.371
1093.78	48.9919
1096.67	46.1869
1099.56	34.9149
1102.45	25.0291
1105.35	12.3957
1108.24	5.73645
1111.13	6.05811
1114.03	6.95325
1116.92	5.16284
1119.81	0.253296
1122.7	1.80701
1125.6	0.140137
1128.49	1.12012
1131.38	0.955322
1134.28	0.335449
1137.17	3.95105
1140.06	3.90564
1142.95	3.97034
1145.85	1.5321
1148.74	0.64978
1151.63	1.2113
1154.52	4.49597
1157.42	3.73853
1160.31	0.74585
1163.2	3.97937
1166.09	4.38916
1168.99	0.134888
1171.88	7.39356
1174.77	4.46899
1177.66	6.56055
1180.56	7.11987
1183.45	7.84363
1186.34	12.4937
1189.24	8.30029
1192.13	8.9646
1195.02	4.31799
1197.91	13.7898
1200.81	8.61096
1203.7	6.48303
1206.59	12.8556
1209.48	12.6238
1212.38	13.0514
1215.27	11.9858
1218.16	8.40247
1221.06	10.9106
1223.95	8.39563
1226.84	10.7964
1229.73	7.23987
1232.63	6.92737
1235.52	2.34766
1238.41	4.27344
1241.31	5.97583
1244.2	4.88074
1247.09	7.40723
1249.98	2.02759
1252.88	3.46716
1255.77	4.59766
1258.66	7.29871
1261.55	5.07752
1264.45	5.0166
1267.34	2.35352
1270.23	7.30127
1273.12	2.70593
1276.02	8.01623
1278.91	1.35071
1281.8	0.133545
1284.69	2.90295
1287.59	6.62695
1290.48	5.97461
1293.37	1.745
1296.27	1.02368
1299.16	5.49341
1302.05	3.54138
