Measurement: Raman, 532 nm, unoriented, Raman Data Processed
Mineral: Ferro-actinolite
Rruff sample: R060189
Ideal chemistry: [box]Ca_2_Fe^2+^_5_Si_8_O_22_(OH)_2_
Locality: Merry Widow mine, Vancouver Island, British Columbia, Canada
Source: Lloyd Twaites
Description: Parallel aggregate of green fibers
Measured chemistry: [box](Ca_1.94_Na_0.06_)_Σ=2_(Fe^2+^_2.55_Mg_2.15_Fe^3+^_0.20_Al_0.05_Mn_0.05_)_Σ=5_(Si_0.98_Al_0.02_)_8_O_22_(OH)_2_
Raman shift (cm-1)	intensity
145.452	0
148.827	195.062
152.202	67.7798
155.577	5.21722
158.952	2.26227
162.327	35.0518
165.701	147.02
169.076	291.43
172.451	457.505
175.826	345.126
179.201	100.325
182.575	11.3479
185.95	9.81326
189.325	9.39102
192.7	44.0669
196.075	84.3375
199.45	160.673
202.824	243.504
206.199	351.176
209.574	464.025
212.949	562.667
216.324	633.413
219.698	635.391
223.073	539.165
226.448	401.089
229.823	284.985
233.198	201.06
236.572	142.564
239.947	113.293
243.322	74.2439
246.697	36.6571
250.072	22.6555
253.446	14.1665
256.821	8.76938
260.196	2.19971
263.571	0.583008
266.946	1.79144
270.321	2.61456
273.695	3.04569
277.07	6.27469
280.445	10.6113
283.82	13.5997
287.195	14.041
290.57	14.0812
293.944	12.8354
297.319	4.68915
300.694	4.78738
304.069	1.73898
307.444	1.36957
310.818	5.49484
314.193	10.0138
317.568	20.0882
320.943	42.2382
324.318	62.2386
327.692	86.1077
331.067	102.097
334.442	104.278
337.817	107.826
341.192	118.037
344.567	136.896
347.941	157.365
351.316	177.634
354.691	187.063
358.066	181.987
361.441	181.369
364.815	147.081
368.19	132.936
371.565	127.732
374.94	154.102
378.315	174.213
381.69	182.811
385.064	172.137
388.439	153.117
391.814	133.348
395.189	111.466
398.564	91.2711
401.938	77.4115
405.313	62.9045
408.688	46.4543
412.063	33.0861
415.438	22.5302
418.812	19.4286
422.187	20.1762
425.562	32.3966
428.937	47.9701
432.312	62.4401
435.687	45.8011
439.061	19.2894
442.436	1.57046
445.811	6.40698
449.186	4.37924
452.561	4.43268
455.935	0.420135
459.31	0.735397
462.685	5.65134
466.06	12.9778
469.435	9.08957
472.81	13.623
476.184	19.127
479.559	20.7784
482.934	27.7158
486.309	34.1958
489.684	40.9813
493.058	48.5911
496.433	60.4517
499.808	78.298
503.183	86.6686
506.558	88.8651
509.933	98.405
513.307	111.195
516.682	117.496
520.057	128.372
523.432	140.202
526.807	124.476
530.182	100.327
533.556	86.5264
536.931	69.4982
540.306	67.2062
543.681	62.5546
547.056	54.0383
550.43	46.8623
553.805	39.9554
557.18	42.6967
560.555	33.3788
563.93	34.793
567.304	31.3641
570.679	23.3443
574.054	17.3828
577.429	9.14212
580.804	3.24777
584.178	2.31483
587.553	3.85266
590.928	5.30479
594.303	4.65405
597.678	0.164536
601.053	0.372421
604.427	2.13319
607.802	12.8432
611.177	10.8045
614.552	21.3275
617.927	36.3998
621.302	55.3312
624.676	73.5197
628.051	102.681
631.426	130.859
634.801	174.061
638.176	213.881
641.55	261.664
644.925	328.756
648.3	424.772
651.675	608.261
655.05	883.566
658.424	1242.22
661.799	1660.07
665.174	1963.42
668.549	1778.84
671.924	1153.21
675.298	652.273
678.673	384.113
682.048	264.811
685.423	181.245
688.798	122.976
692.173	80.678
695.547	49.6841
698.922	29.7004
702.297	9.11002
705.672	3.00214
709.047	3.96594
712.422	3.63272
715.796	0.554657
719.171	3.61322
722.546	6.23581
725.921	9.91684
729.296	25.9425
732.67	34.958
736.045	41.5648
739.42	40.9445
742.795	43.4428
746.17	32.6691
749.544	21.0004
752.919	15.0401
756.294	7.92033
759.669	8.565
763.044	5.69864
766.419	1.50464
769.793	6.04065
773.168	3.19945
776.543	4.7721
779.918	6.04526
783.293	0.415848
786.667	0.774109
790.042	3.85988
793.417	1.45534
796.792	3.30937
800.167	0.529892
803.542	3.57163
806.916	3.98218
810.291	2.36864
813.666	4.34131
817.041	6.53197
820.416	9.15404
823.79	6.69008
827.165	3.15729
830.54	9.16402
833.915	11.4081
837.29	12.0602
840.664	8.08374
844.039	7.02602
847.414	4.98697
850.789	5.1348
854.164	1.18895
857.539	0.237259
860.913	0.902191
864.288	1.74455
867.663	0.864822
871.038	3.01013
874.413	0.433197
877.788	2.81647
881.162	4.76532
884.537	4.09552
887.912	10.8777
891.287	17.048
894.662	19.8063
898.036	26.9844
901.411	29.2433
904.786	34.8513
908.161	37.6128
911.536	51.8799
914.91	78.8461
918.285	105.825
921.66	138.005
925.035	158.691
928.41	147.057
931.784	113.73
935.159	85.5594
938.534	71.1779
941.909	62.5275
945.284	46.483
948.659	31.0793
952.033	24.1028
955.408	19.9253
958.783	11.0337
962.158	12.8046
965.533	5.16791
968.908	6.35718
972.282	5.43402
975.657	5.55496
979.032	2.49243
982.407	0.996704
985.782	0.101227
989.156	8.11282
992.531	17.5
995.906	29.0413
999.281	44.188
1002.66	65.0865
1006.03	94.8893
1009.4	123.776
1012.78	156.968
1016.15	183.042
1019.53	206.215
1022.9	231.988
1026.28	241.269
1029.65	231.89
1033.03	236.791
1036.4	289.261
1039.78	358.221
1043.15	443.451
1046.53	492.345
1049.9	488.838
1053.28	430.81
1056.65	370.94
1060.03	364.929
1063.4	329.279
1066.78	216.754
1070.15	124.746
1073.53	71.9501
1076.9	41.8175
1080.28	25.4655
1083.65	14.4366
1087.03	11.0108
1090.4	6.06348
1093.78	3.54411
1097.15	2.09908
1100.53	1.31181
1103.9	6.87465
1107.28	3.91463
1110.65	7.48781
1114.03	7.15994
1117.4	0.558609
1120.77	1.98764
1124.15	7.36391
1127.52	3.16605
1130.9	1.36705
1134.27	1.40338
1137.65	1.58933
1141.02	3.42012
1144.4	5.16139
1147.77	8.46005
1151.15	3.93327
1154.52	5.26341
1157.9	0.213287
1161.27	4.00423
1164.65	3.38864
1168.02	4.0789
1171.4	7.85184
1174.77	5.63415
1178.15	5.15556
1181.52	10.8902
1184.9	10.089
1188.27	7.83
1191.64	8.94795
1195.02	8.11764
1198.39	8.71495
1201.77	11.0481
1205.14	12.3363
1208.52	9.44717
1211.89	2.16304
1215.27	9.76338
1218.64	5.5755
1222.02	4.05098
1225.39	6.31111
1228.77	2.37494
1232.14	2.01248
1235.52	5.65161
1238.89	10.4076
1242.27	6.90157
1245.64	2.42284
1249.02	8.20152
1252.39	7.97667
1255.77	2.38879
1259.14	3.08099
1262.52	4.62614
1265.89	6.80899
1269.27	3.41325
1272.64	7.07814
1276.02	6.44637
1279.39	5.91115
1282.77	4.13464
1286.14	3.61842
1289.52	4.07352
1292.89	5.50189
1296.27	6.23085
1299.64	4.36707
1303.01	2.97315
