Measurement: Raman, 780 nm, unoriented, Raman Data Processed
Mineral: Ferrimolybdite
Rruff sample: R050542
Ideal chemistry: Fe^3+^_2_(Mo^6+^O_4_)_3_7H_2_O
Locality: Alicante mine, Colorado, USA
Source: University of Arizona Mineral Museum
Description: Mat of parallel fibrous yellow-green crystals
Measured chemistry: Fe^3+^_2.00_(Mo_1.00_O_4_)_3_Â·11H_2_O ; H2O estimated by difference
Raman shift (cm-1)	intensity
127.572	0
130.946	3.67552
134.321	1.1073
137.696	3.29868
141.071	1.64516
144.446	2.18675
147.82	3.5081
151.195	3.57198
154.57	6.97934
157.945	10.9076
161.32	10.55
164.694	8.05328
168.069	9.96498
171.444	10.9601
174.819	12.0411
178.194	12.0492
181.569	12.9083
184.943	13.7222
188.318	14.1931
191.693	17.5473
195.068	15.9154
198.443	17.7885
201.817	25.1208
205.192	30.868
208.567	33.5955
211.942	40.8121
215.317	48.1362
218.691	54.0157
222.066	66.666
225.441	66.8347
228.816	68.9832
232.191	62.4838
235.566	63.2487
238.94	54.8708
242.315	47.0559
245.69	34.9196
249.065	29.7022
252.44	21.8222
255.815	15.8514
259.189	12.1422
262.564	10.938
265.939	8.39555
269.314	7.17831
272.689	4.64111
276.063	3.92519
279.438	1.81783
282.813	0.024765
286.188	2.28513
289.563	2.01865
292.938	0.284943
296.312	1.39555
299.687	0.126976
303.062	2.0024
306.437	5.05486
309.812	8.18567
313.186	14.8417
316.561	18.4241
319.936	23.8729
323.311	30.6279
326.686	36.6533
330.06	40.4534
333.435	45.1326
336.81	52.5882
340.185	50.716
343.56	50.8467
346.935	42.4883
350.309	42.8434
353.684	37.4273
357.059	28.7777
360.434	23.9192
363.809	23.0493
367.183	18.4787
370.558	18.1398
373.933	10.637
377.308	8.67052
380.683	6.81473
384.058	7.38546
387.432	3.67173
390.807	2.73023
394.182	0.954765
397.557	0.830559
400.932	1.62387
404.306	1.58512
407.681	2.1107
411.056	5.65164
414.431	10.7796
417.806	17.8426
421.18	18.111
424.555	19.7842
427.93	21.112
431.305	22.6749
434.68	21.8438
438.055	17.4591
441.429	18.4755
444.804	16.1578
448.179	16.9478
451.554	10.8027
454.929	14.2515
458.303	11.8007
461.678	9.61245
465.053	7.31064
468.428	2.69107
471.803	0.184235
475.178	1.628
478.552	4.59373
481.927	1.09912
485.302	0.173103
488.677	1.40368
492.052	1.37466
495.426	1.77798
498.801	0.768599
502.176	0.365677
505.551	2.07569
508.926	0.634605
512.301	3.84882
515.675	3.65185
519.05	4.43083
522.425	4.0279
525.8	4.63392
529.175	6.09696
532.549	7.2906
535.924	9.16495
539.299	9.41505
542.674	9.92104
546.049	12.3773
549.423	12.5444
552.798	15.0154
556.173	11.963
559.548	12.185
562.923	12.1178
566.298	12.1534
569.672	12.0847
573.047	10.1071
576.422	11.741
579.797	13.8055
583.172	8.7989
586.546	12.0411
589.921	12.2474
593.296	8.39461
596.671	8.56996
600.046	7.91906
603.42	7.05058
606.795	5.49606
610.17	6.20612
613.545	4.95446
616.92	3.4436
620.295	3.12046
623.669	3.34195
627.044	0.319695
630.419	1.08211
633.794	1.3097
637.169	0.745426
640.543	0.088963
643.918	4.15442
647.293	2.38341
650.668	1.8579
654.043	0.447887
657.418	0.253498
660.792	1.60047
664.167	0.942848
667.542	2.26288
670.917	1.04221
674.292	1.38569
677.667	1.72331
681.041	2.34869
684.416	0.573151
687.791	3.60777
691.166	3.55297
694.541	1.02502
697.915	3.35909
701.29	2.62759
704.665	4.7709
708.04	7.31452
711.415	8.49098
714.789	7.56082
718.164	9.42168
721.539	11.267
724.914	10.605
728.289	11.9714
731.664	14.615
735.038	13.5788
738.413	13.8409
741.788	14.5365
745.163	13.827
748.538	14.2474
751.913	13.7691
755.287	13.4537
758.662	15.9016
762.037	14.337
765.412	12.1935
768.787	12.4498
772.161	8.98162
775.536	8.01671
778.911	8.33139
782.286	9.45972
785.661	6.21677
789.035	7.42268
792.41	6.20608
795.785	4.76894
799.16	3.27683
802.535	3.06098
805.909	1.82339
809.284	0.426506
812.659	0.60379
816.034	2.19569
819.409	2.6801
822.784	1.39863
826.158	2.79114
829.533	4.96152
832.908	6.19061
836.283	5.64387
839.658	5.94046
843.033	8.91802
846.407	5.01425
849.782	4.58488
853.157	2.82268
856.532	2.25513
859.907	0.297928
863.281	0.79229
866.656	0.420807
870.031	0.680603
873.406	0.845535
876.781	1.07848
880.155	5.36544
883.53	7.23061
886.905	10.3108
890.28	14.2369
893.655	18.8872
897.03	17.296
900.404	23.6075
903.779	23.7877
907.154	25.7466
910.529	29.3694
913.904	35.3364
917.278	35.6969
920.653	42.7136
924.028	48.1329
927.403	55.9441
930.778	59.1486
934.153	70.7907
937.527	78.6886
940.902	88.5108
944.277	99.1348
947.652	109.352
951.027	114.503
954.401	110.085
957.776	94.7008
961.151	74.8942
964.526	59.0748
967.901	39.9793
971.275	27.6737
974.65	17.2766
978.025	8.07145
981.4	7.97252
984.775	1.65253
988.15	0.164024
991.524	2.5729
994.899	0.368721
998.274	0.279854
1001.65	0.310804
1005.02	3.77902
1008.4	1.38375
1011.77	1.64308
1015.15	2.31403
1018.52	3.31627
1021.9	0.5287
1025.27	3.07124
1028.65	3.61349
1032.02	3.01517
1035.4	7.05007
1038.77	6.97342
1042.15	4.69748
1045.52	5.39158
1048.9	5.22628
1052.27	3.02197
1055.65	4.94831
1059.02	5.54748
1062.4	3.84025
1065.77	4.3353
1069.14	4.25779
1072.52	3.68127
1075.89	7.11031
1079.27	2.99389
1082.64	2.01046
1086.02	4.29285
1089.39	1.03299
1092.77	2.11956
1096.14	2.50053
1099.52	1.26463
1102.89	2.63125
1106.27	1.19756
1109.64	3.88215
1113.02	3.23133
1116.39	2.05722
1119.77	4.04863
1123.14	2.65957
1126.52	1.60525
1129.89	2.26422
1133.27	4.86494
1136.64	2.92243
1140.02	1.52473
1143.39	4.32234
1146.77	2.34442
1150.14	1.02388
1153.52	1.92825
1156.89	2.95603
1160.27	2.84665
1163.64	2.326
1167.02	4.18565
1170.39	3.20101
1173.77	0.353121
1177.14	1.43828
1180.51	4.37444
1183.89	2.09111
1187.26	4.34042
1190.64	2.71708
1194.01	2.31902
1197.39	1.74513
1200.76	2.71621
1204.14	4.06206
1207.51	0.115908
1210.89	2.18848
1214.26	2.55338
1217.64	2.06549
1221.01	2.02358
1224.39	3.81637
1227.76	1.17101
1231.14	1.49468
1234.51	1.90592
1237.89	1.31668
1241.26	1.12544
1244.64	1.73849
1248.01	3.27836
1251.38	0.897205
1254.76	0.418453
1258.13	2.90347
1261.51	1.26892
1264.88	0.502895
1268.26	3.1801
1271.63	4.54741
1275.01	1.28313
1278.38	1.89071
1281.76	2.56765
1285.13	0.001488
