Measurement: Raman, 780 nm, unoriented, Raman Data Processed
Mineral: Ferro-edenite
Rruff sample: R060044
Ideal chemistry: NaCa_2_Fe^2+^_5_(Si_7_Al)O_22_(OH)_2_
Locality: Barkevik, Norway
Source: University of Arizona Mineral Museum
Description: Black cleavage fragment
Measured chemistry: (Na_0.68_K_0.32_)(Ca_1.50_Na_0.50_)_Σ=2_(Fe^2+^_3.50_Mg_0.75_Fe^3+^_0.25_Ti_0.25_Mn_0.20_Al_0.05_)_Σ=5_(Si_6.64_Al_1.36_)_Σ=8_O_22_(OH)_2_
Raman shift (cm-1)	intensity
181.715	0
184.608	0.011665
187.501	0.258831
190.393	0.352695
193.286	0.57803
196.179	2.27471
199.071	1.64702
201.964	2.75677
204.857	4.7901
207.75	4.92577
210.642	6.36957
213.535	6.75441
216.428	7.05449
219.32	7.35958
222.213	7.87136
225.106	7.2327
227.998	6.56499
230.891	6.05301
233.784	5.11093
236.677	4.4114
239.569	3.746
242.462	2.83469
245.355	2.13459
248.247	1.80029
251.14	0.353226
254.033	0.841339
256.925	0.017982
259.818	0.077282
262.711	0.25325
265.603	0.5331
268.496	0.855572
271.389	1.2058
274.282	1.3592
277.174	1.50634
280.067	1.01678
282.96	1.86813
285.852	1.12619
288.745	1.47754
291.638	1.248
294.531	1.61169
297.423	1.79042
300.316	1.03799
303.209	0.816013
306.101	1.27881
308.994	0.808727
311.887	0.499924
314.779	0.031273
317.672	0.444958
320.565	0.01572
323.457	0.009171
326.35	0.252296
329.243	0.238308
332.136	0.076954
335.028	0.252914
337.921	0.585491
340.814	0.970974
343.706	0.826256
346.599	1.31828
349.492	1.4762
352.385	0.949875
355.277	1.67257
358.17	1.46225
361.063	1.29201
363.955	1.45491
366.848	1.61241
369.741	2.16098
372.633	1.53097
375.526	1.75587
378.419	0.682167
381.312	1.04864
384.204	1.12936
387.097	0.738914
389.99	0.700951
392.882	0.159351
395.775	0.096432
398.668	0.293663
401.56	0.422871
404.453	0.178028
407.346	0.123932
410.238	0.313738
413.131	0.979265
416.024	0.695187
418.916	1.43743
421.809	1.53307
424.702	1.78798
427.595	1.67406
430.487	1.90583
433.38	1.21338
436.273	0.919466
439.165	0.453459
442.058	0.668449
444.951	0.433905
447.844	0.015139
450.736	0.144192
453.629	0.289907
456.522	0.433851
459.414	0.067137
462.307	0.204479
465.2	0.319403
468.092	0.347004
470.985	0.552143
473.878	0.315466
476.771	0.564819
479.663	0.703932
482.556	1.31329
485.449	1.24676
488.341	2.45445
491.234	2.7662
494.127	2.44768
497.019	3.03744
499.912	3.76275
502.805	4.26634
505.697	4.07489
508.59	4.49115
511.483	5.14684
514.376	5.72106
517.268	6.37975
520.161	6.73137
523.054	6.7473
525.946	6.98606
528.839	7.13612
531.732	7.17441
534.625	7.24447
537.517	6.38894
540.41	6.28873
543.303	6.25029
546.195	5.29082
549.088	4.91587
551.981	4.60797
554.873	4.0258
557.766	4.13472
560.659	3.05689
563.552	3.40162
566.444	2.07487
569.337	2.03911
572.23	2.62014
575.122	0.849613
578.015	0.63168
580.908	0.007145
583.8	0.288542
586.693	0.119961
589.586	0.217018
592.479	0.194607
595.371	0.021364
598.264	0.392467
601.157	1.10639
604.049	0.876534
606.942	0.784853
609.835	1.05588
612.727	1.21344
615.62	1.50758
618.513	2.07326
621.405	2.51241
624.298	3.24461
627.191	4.05982
630.084	4.56642
632.976	5.62221
635.869	6.357
638.762	7.34746
641.654	8.88975
644.547	10.9582
647.44	12.4413
650.332	13.8815
653.225	15.5032
656.118	15.932
659.011	14.9115
661.903	14.5555
664.796	13.735
667.689	10.9467
670.581	9.03046
673.474	7.36839
676.367	5.42516
679.26	4.13274
682.152	2.86567
685.045	2.38359
687.938	2.06447
690.83	1.62207
693.723	1.63872
696.616	1.87807
699.508	1.57645
702.401	1.34363
705.294	2.36264
708.187	1.65385
711.079	2.11756
713.972	1.39383
716.865	1.60258
719.757	0.704744
722.65	0.862671
725.543	0.911558
728.435	0.966108
731.328	0.821896
734.221	0.823788
737.113	0.067863
740.006	0.22298
742.899	0.491278
745.792	0.141653
748.684	0.255531
751.577	0.166737
754.47	0.125954
757.362	0.348633
760.255	0.198193
763.148	0.57654
766.04	1.08945
768.933	1.14197
771.826	1.3798
774.718	1.35426
777.611	1.31078
780.504	1.71434
783.397	1.6844
786.289	2.07913
789.182	1.79522
792.075	2.43415
794.967	2.69187
797.86	2.82916
800.753	2.93868
803.645	3.27694
806.538	3.15068
809.431	3.48649
812.324	3.56136
815.216	3.7212
818.109	3.43693
821.002	3.0657
823.894	2.50069
826.787	2.56964
829.68	2.45952
832.572	2.50961
835.465	2.01898
838.358	1.87359
841.251	1.00771
844.143	1.8252
847.036	1.12969
849.929	0.601303
852.821	0.504915
855.714	0.726933
858.607	0.716694
861.5	0.742327
864.392	0.100092
867.285	0.535233
870.178	0.367821
873.07	0.901434
875.963	0.198696
878.856	0.05324
881.748	0.125149
884.641	0.213497
887.534	0.750696
890.427	0.452574
893.319	0.556227
896.212	0.527651
899.105	0.30331
901.997	0.133427
904.89	0.281607
907.783	0.157297
910.675	0.751181
913.568	0.007423
916.461	0.450031
919.354	0.022943
922.246	0.041737
925.139	0.049034
928.032	0.163099
930.924	0.071301
933.817	0.082682
936.71	0.008266
939.602	0.047432
942.495	0.30834
945.388	0.479181
948.28	0.781141
951.173	0.5242
954.066	0.681906
956.959	0.445406
959.851	0.283831
962.744	0.61508
965.637	0.300205
968.529	0.291149
971.422	0.25367
974.315	0.118002
977.207	0.585987
980.1	0.452837
982.993	0.629143
985.886	0.502314
988.778	1.62585
991.671	1.49183
994.564	1.23997
997.456	1.43191
1000.35	1.47736
1003.24	1.24935
1006.13	2.0346
1009.03	1.95649
1011.92	2.09434
1014.81	2.09352
1017.71	1.79578
1020.6	2.68931
1023.49	2.07889
1026.38	2.60583
1029.28	2.20505
1032.17	2.46799
1035.06	2.72062
1037.95	1.96902
1040.85	2.84124
1043.74	2.00866
1046.63	2.35003
1049.53	1.98236
1052.42	1.38726
1055.31	1.66626
1058.2	1.62387
1061.1	1.54685
1063.99	1.3502
1066.88	0.74613
1069.77	0.809132
1072.67	0.725704
1075.56	0.444843
1078.45	0.849556
1081.35	0.422388
1084.24	0.57704
1087.13	0.258606
1090.02	0.245279
1092.91	0.151503
1095.81	0.709188
1098.7	0.288874
1101.59	0.316563
1104.49	0.113036
1107.38	8.8e-05
1110.27	0.481299
1113.16	0.000372
1116.06	0.205444
1118.95	0.358088
1121.84	0.020805
1124.73	0.142767
1127.63	0.194438
1130.52	0.372115
1133.41	0.002084
1136.31	0.030145
1139.2	0.215979
1142.09	0.226497
1144.98	0.190755
1147.88	0.370268
1150.77	0.108509
1153.66	0.850958
1156.56	0.76196
1159.45	0.560933
1162.34	0.796928
1165.23	0.573407
1168.13	0.398155
1171.02	0.566871
1173.91	0.724216
1176.8	0.653624
1179.7	0.493635
1182.59	0.711566
1185.48	0.55893
1188.38	0.531863
1191.27	0.612332
1194.16	0.705011
1197.05	0.705558
1199.94	0.73666
1202.84	0.489341
1205.73	0.872718
1208.62	0.14131
1211.52	0.274243
1214.41	0.83571
1217.3	0.371511
1220.19	0.341681
1223.09	0.584432
1225.98	0.317263
1228.87	0.991935
1231.77	0.449976
1234.66	0.610249
1237.55	0.351624
1240.44	0.506955
1243.34	0.593386
1246.23	0.344604
1249.12	0.475481
1252.01	0.213634
1254.91	0.079259
1257.8	0.561543
1260.69	0.074181
1263.59	0.45878
1266.48	0.287113
1269.37	0.449094
1272.26	0.307925
1275.15	0.36763
1278.05	0
