Measurement: Raman, 532 nm, unoriented, Raman Data Processed
Mineral: Ferro-pargasite
Rruff sample: R090015
Ideal chemistry: NaCa_2_(Fe^2+^_4_Al)(Si_6_Al_2_)O_22_(OH)_2_
Locality: Basha Valley, Skardu District, Baltistan, Northern Areas, Pakistan
Source: Herb Obodda
Description: Black bladed single crystal with striations
Raman shift (cm-1)	intensity
167.583	0
170.475	6.0701
173.368	3.38856
176.261	8.94188
179.153	8.16876
182.046	10.2063
184.939	10.8874
187.832	9.39343
190.724	4.26187
193.617	2.19151
196.51	0.08551
199.402	3.53757
202.295	1.22151
205.188	5.41565
208.08	8.50342
210.973	14.1825
213.866	24.966
216.758	31.9551
219.651	40.8571
222.544	45.9653
225.437	49.3832
228.329	47.7553
231.222	45.8946
234.115	42.0156
237.007	33.9545
239.9	30.7045
242.793	20.2295
245.685	16.7509
248.578	12.3585
251.471	7.07983
254.364	6.35852
257.256	3.49002
260.149	1.98242
263.042	6.34601
265.934	2.11935
268.827	4.5343
271.72	7.21051
274.613	13.0402
277.505	16.4316
280.398	21.7015
283.291	24.1005
286.183	27.6426
289.076	29.1863
291.969	29.1431
294.861	28.4091
297.754	21.448
300.647	22.8648
303.539	20.7087
306.432	11.9743
309.325	11.5877
312.218	8.93359
315.11	9.73564
318.003	4.75903
320.896	1.15662
323.788	3.58621
326.681	0.499451
329.574	2.37852
332.466	3.56057
335.359	1.39853
338.252	4.63696
341.145	0.588959
344.037	0.096268
346.93	2.55514
349.823	3.30559
352.715	2.98233
355.608	6.92664
358.501	10.7317
361.394	9.97909
364.286	10.0723
367.179	13.5605
370.072	15.3275
372.964	16.9493
375.857	15.7745
378.75	17.9747
381.642	19.7776
384.535	19.1743
387.428	17.3167
390.32	17.1593
393.213	15.7032
396.106	13.7221
398.999	11.3733
401.891	12.7018
404.784	14.6494
407.677	15.0163
410.569	16.4846
413.462	18.986
416.355	23.399
419.248	23.4704
422.14	28.0853
425.033	29.1021
427.926	31.9946
430.818	35.2292
433.711	33.8043
436.604	29.2388
439.496	31.0507
442.389	22.4974
445.282	17.0249
448.174	12.164
451.067	11.1003
453.96	9.3132
456.853	6.20104
459.745	4.23517
462.638	1.72659
465.531	2.03536
468.423	0.723328
471.316	4.00836
474.209	0.341782
477.101	1.56706
479.994	2.81259
482.887	9.29617
485.779	13.6228
488.672	17.947
491.565	28.2823
494.458	39.4153
497.35	41.981
500.243	51.1489
503.136	58.6992
506.028	65.8618
508.921	69.9351
511.814	75.4072
514.707	79.558
517.599	87.6246
520.492	89.7306
523.385	102.325
526.277	109.104
529.17	113.124
532.063	112.603
534.955	111.773
537.848	102.71
540.741	94.6127
543.634	87.2858
546.526	82.3265
549.419	74.5142
552.312	69.2281
555.204	62.1228
558.097	60.9844
560.99	53.8547
563.882	48.5617
566.775	40.1058
569.668	36.9372
572.561	29.2339
575.453	24.514
578.346	20.4611
581.239	16.3466
584.131	12.3569
587.024	7.69775
589.917	4.94803
592.809	1.53764
595.702	0.932953
598.595	1.69034
601.487	1.61285
604.38	1.55626
607.273	0.474686
610.166	0.139328
613.058	0.218521
615.951	1.82561
618.844	3.88924
621.736	6.48967
624.629	11.391
627.522	14.3261
630.414	20.6097
633.307	24.3068
636.2	30.9429
639.093	37.8741
641.985	41.8307
644.878	51.2283
647.771	56.8893
650.663	64.2219
653.556	71.206
656.449	75.8655
659.341	81.3081
662.234	74.9021
665.127	72.5186
668.02	58.8395
670.912	50.7742
673.805	40.6145
676.698	35.441
679.59	27.7284
682.483	25.7117
685.376	18.8327
688.269	8.64116
691.161	4.43843
694.054	0.671738
696.947	0.753983
699.839	0.46788
702.732	0.050232
705.625	2.05722
708.517	6.36046
711.41	12.3332
714.303	12.8866
717.196	19.5093
720.088	20.3047
722.981	21.1652
725.874	24.5837
728.766	25.4368
731.659	30.7948
734.552	32.0559
737.444	31.6949
740.337	27.7403
743.23	23.912
746.122	22.9831
749.015	20.3106
751.908	15.3156
754.801	12.0694
757.693	9.03702
760.586	8.83769
763.479	7.80571
766.371	10.2855
769.264	12.0657
772.157	13.6874
775.049	13.9395
777.942	14.9763
780.835	18.0453
783.727	15.4483
786.62	14.436
789.513	12.7892
792.406	14.2426
795.298	11.3469
798.191	9.65239
801.084	7.97247
803.976	7.27333
806.869	4.49037
809.762	4.54691
812.654	7.18372
815.547	3.22916
818.44	1.9915
821.333	3.12308
824.225	1.21912
827.118	0.876053
830.011	1.21463
832.903	0.269516
835.796	0.868469
838.689	2.19766
841.582	0.298492
844.474	1.45622
847.367	2.46925
850.26	0.075134
853.152	1.75632
856.045	1.91994
858.938	5.27402
861.83	1.70009
864.723	7.14789
867.616	5.29601
870.509	7.03538
873.401	5.9288
876.294	6.7914
879.187	6.33751
882.079	9.92571
884.972	5.55045
887.865	3.72859
890.757	4.03108
893.65	3.8806
896.543	1.11912
899.436	2.48793
902.328	0.797089
905.221	1.00745
908.114	2.00235
911.006	1.28043
913.899	1.76097
916.792	3.40794
919.684	0.775452
922.577	1.79338
925.47	1.63261
928.362	0.584915
931.255	1.77303
934.148	2.66986
937.041	3.66344
939.933	2.33154
942.826	3.21419
945.719	6.14833
948.611	4.31543
951.504	5.96367
954.397	2.41599
957.29	2.22519
960.182	4.75282
963.075	3.04353
965.968	0.060669
968.86	0.34761
971.753	1.10699
974.646	3.49826
977.538	1.72414
980.431	3.53697
983.324	7.33838
986.216	9.05589
989.109	11.0268
992.002	14.4921
994.895	18.8581
997.787	22.018
1000.68	23.4327
1003.57	27.7691
1006.47	30.9698
1009.36	36.9453
1012.25	35.8739
1015.14	34.4056
1018.04	33.795
1020.93	36.275
1023.82	30.7293
1026.71	28.8635
1029.61	25.5509
1032.5	26.51
1035.39	25.4037
1038.29	19.449
1041.18	19.652
1044.07	14.4764
1046.96	15.0902
1049.86	12.9633
1052.75	12.9023
1055.64	10.9488
1058.53	9.34203
1061.43	12.1992
1064.32	9.16908
1067.21	4.1403
1070.11	8.67049
1073	9.366
1075.89	10.3226
1078.78	11.9197
1081.68	18.269
1084.57	22.5184
1087.46	22.8372
1090.35	10.097
1093.25	6.31067
1096.14	7.28926
1099.03	6.11279
1101.92	3.10663
1104.82	3.27519
1107.71	0.888367
1110.6	6.01321
1113.49	0.81633
1116.39	3.62299
1119.28	0.440872
1122.17	2.03555
1125.07	0.912415
1127.96	0.102539
1130.85	1.8792
1133.74	0.060509
1136.64	0.460327
1139.53	0.416222
1142.42	0.896873
1145.32	0.480804
1148.21	1.00788
1151.1	1.71491
1153.99	3.85235
1156.89	5.95055
1159.78	3.7
1162.67	2.80682
1165.56	6.27057
1168.46	4.38302
1171.35	6.59123
1174.24	3.58997
1177.13	5.1384
1180.03	6.35827
1182.92	5.81388
1185.81	2.68329
1188.7	4.67178
1191.6	4.45014
1194.49	3.20968
1197.38	4.44325
1200.28	5.66596
1203.17	4.89858
1206.06	5.91001
1208.95	6.26163
1211.85	4.00427
1214.74	3.22426
1217.63	5.39968
1220.53	2.89729
1223.42	4.26173
1226.31	3.63522
1229.2	2.71979
1232.1	3.98537
1234.99	2.09499
1237.88	2.23739
1240.77	5.97675
1243.67	4.9496
1246.56	2.49573
1249.45	4.58751
1252.35	5.83033
1255.24	1.23097
1258.13	1.73394
1261.02	4.1786
1263.92	3.15818
1266.81	1.88053
1269.7	0.945892
1272.59	0.265419
1275.49	5.52439
1278.38	5.8701
1281.27	3.37546
1284.16	3.8205
1287.06	0.636002
1289.95	0.073662
1292.84	0.981964
1295.73	1.60455
1298.63	3.34568
1301.52	0.043037
