Measurement: Raman, 780 nm, unoriented, Raman Data Processed
Mineral: Ferri-winchite
Rruff sample: R060038
Ideal chemistry: [box]NaCa(Mg_4_Fe^3+^)Si_8_O_22_(OH)_2_
Locality: Imerina, Madagascar
Source: University of Arizona Mineral Museum
Description: Deep black-blue bladed single crystals embedded in dolomite
Measured chemistry: ([box]_0.70_Na_0.21_K_0.09_)_Σ=1_(Na_1.40_Ca_0.60_)_Σ=2_(Mg_3.56_Fe^3+^_1.06_Fe^2+^_0.28_Al_0.08_Ti_0.01_)_Σ=5_(Si_7.96_Al_0.04_)_Σ=8.00_O_22_((OH)_1.85_F_0.15_)_Σ=2_
Raman shift (cm-1)	intensity
143.628	0
146.521	0.739807
149.413	7.71312
152.306	20.1279
155.199	24.0199
158.091	22.985
160.984	29.2736
163.877	36.8889
166.77	45.6109
169.662	50.1408
172.555	38.2638
175.448	19.6787
178.34	7.04112
181.233	4.07669
184.126	3.13266
187.018	3.22073
189.911	4.85634
192.804	7.67851
195.697	15.8424
198.589	19.8751
201.482	26.5842
204.375	33.245
207.267	38.6236
210.16	41.5489
213.053	42.0822
215.946	42.5763
218.838	43.1249
221.731	39.9528
224.624	32.5533
227.516	22.8926
230.409	14.5752
233.302	8.21167
236.194	4.24849
239.087	2.00522
241.98	1.48422
244.873	0.391861
247.765	1.23268
250.658	2.35361
253.551	2.68179
256.443	1.8909
259.336	0.349548
262.229	0.921204
265.121	1.37105
268.014	1.6366
270.907	1.1402
273.8	0.236649
276.692	0.720703
279.585	2.19446
282.478	3.64279
285.37	4.38698
288.263	5.60936
291.156	7.55266
294.048	8.99028
296.941	10.9605
299.834	10.7953
302.726	10.4888
305.619	8.22455
308.512	8.54334
311.405	9.27037
314.297	9.49362
317.19	9.74245
320.083	10.4985
322.975	9.35928
325.868	8.92189
328.761	8.00971
331.654	7.80699
334.546	7.9987
337.439	5.86909
340.332	5.32713
343.224	3.92235
346.117	3.96158
349.01	4.54393
351.902	6.61502
354.795	8.37683
357.688	9.94363
360.58	12.9367
363.473	17.0161
366.366	21.2611
369.259	25.4629
372.151	26.0463
375.044	20.7208
377.937	15.2945
380.829	12.9135
383.722	12.176
386.615	13.5131
389.507	15.522
392.4	13.7095
395.293	11.7499
398.185	9.66202
401.078	9.92833
403.971	9.22275
406.864	9.25969
409.756	10.5809
412.649	9.88911
415.542	8.95781
418.434	6.92378
421.327	4.18494
424.22	2.23787
427.113	1.09303
430.005	0.941849
432.898	1.10687
435.791	1.64387
438.683	0.716827
441.576	0.415436
444.469	0.356812
447.361	0.719727
450.254	0.334961
453.147	0.805344
456.039	0.379135
458.932	0.272995
461.825	0.614304
464.718	1.24103
467.61	2.15961
470.503	2.31166
473.396	1.95302
476.288	1.80237
479.181	0.813126
482.074	0.279243
484.966	0.095848
487.859	0.236641
490.752	0.687225
493.645	1.69954
496.537	2.59663
499.43	4.27143
502.323	5.35118
505.215	6.88985
508.108	9.01553
511.001	10.2269
513.894	12.513
516.786	13.3122
519.679	14.6214
522.572	14.8581
525.464	16.2165
528.357	18.0231
531.25	21.5474
534.142	24.3837
537.035	26.9182
539.928	26.796
542.821	23.8519
545.713	20.1529
548.606	16.2451
551.499	14.7867
554.391	13.0977
557.284	11.737
560.177	11.3387
563.069	10.6974
565.962	10.2762
568.855	9.42513
571.747	10.0483
574.64	9.28903
577.533	8.91835
580.426	7.86797
583.318	7.73705
586.211	6.46652
589.104	5.62911
591.996	3.23652
594.889	1.62743
597.782	0.594208
600.674	0.730347
603.567	0.017494
606.46	0.114716
609.352	0.481316
612.245	0.321548
615.138	0.309074
618.031	0.235992
620.923	0.454575
623.816	0.252106
626.709	0.317108
629.601	1.24519
632.494	1.91789
635.387	2.00923
638.279	3.38115
641.172	4.15463
644.065	5.9369
646.958	7.4448
649.85	10.0483
652.743	13.7223
655.636	19.1928
658.528	25.6838
661.421	34.2231
664.314	42.0867
667.207	50.9639
670.099	58.9733
672.992	62.9941
675.885	57.0114
678.777	40.7881
681.67	27.2775
684.563	17.3375
687.455	11.9059
690.348	7.91629
693.241	5.53837
696.134	3.52164
699.026	1.71358
701.919	1.88328
704.812	0.460236
707.704	0.139267
710.597	0.123253
713.49	0.137939
716.382	0.125069
719.275	0.295616
722.168	0.680382
725.061	0.586502
727.953	0.977379
730.846	1.38121
733.739	2.67535
736.631	2.67772
739.524	2.73899
742.417	3.50712
745.309	4.55299
748.202	3.99447
751.095	3.87811
753.987	3.66494
756.88	2.84493
759.773	2.55393
762.666	1.73338
765.558	1.86889
768.451	1.64965
771.344	1.52757
774.236	1.04837
777.129	0.790314
780.022	1.49965
782.914	0.968315
785.807	0.550713
788.7	0.420387
791.593	0.351822
794.485	1.283
797.378	0.789337
800.271	0.001984
803.163	0.716873
806.056	0.237213
808.949	0.079575
811.841	0.669495
814.734	1.29308
817.627	0.164032
820.52	0.530045
823.412	1.04678
826.305	0.479813
829.198	0.227707
832.09	0.760315
834.983	1.03708
837.876	0.189041
840.769	1.26506
843.661	1.29218
846.554	1.54153
849.447	0.984192
852.339	0.828293
855.232	1.31155
858.125	1.44963
861.017	1.05362
863.91	0.809464
866.803	2.16759
869.696	1.97586
872.588	2.64981
875.481	3.08794
878.374	3.7747
881.266	4.62381
884.159	5.96135
887.052	6.49464
889.944	7.55832
892.837	6.51384
895.73	6.15335
898.622	5.19217
901.515	4.39435
904.408	3.95692
907.301	2.26456
910.193	2.49089
913.086	1.82527
915.979	1.2473
918.871	1.44295
921.764	2.16243
924.657	0.810837
927.549	0.236145
930.442	0.100342
933.335	0.345871
936.227	0.114136
939.12	0.165573
942.013	1.08498
944.906	1.95404
947.798	2.94676
950.691	4.32686
953.584	6.45955
956.476	9.21463
959.369	11.6534
962.262	14.8249
965.154	17.0553
968.047	17.5475
970.94	17.5375
973.833	14.592
976.725	10.7708
979.618	7.67238
982.511	4.82762
985.403	5.25296
988.296	2.07376
991.189	1.91762
994.082	0.133698
996.974	0.0522
999.867	0.048782
1002.76	0.195435
1005.65	0.101852
1008.54	0.705063
1011.44	0.890747
1014.33	0.773392
1017.22	2.31796
1020.12	2.56921
1023.01	2.28006
1025.9	2.1156
1028.79	2.80101
1031.69	2.47612
1034.58	2.97057
1037.47	2.625
1040.37	3.15839
1043.26	3.09721
1046.15	3.93088
1049.04	2.61633
1051.94	2.98177
1054.83	2.47926
1057.72	4.05131
1060.61	2.87852
1063.51	3.20421
1066.4	1.64107
1069.29	1.24841
1072.18	1.41663
1075.08	1.72058
1077.97	1.41421
1080.86	1.04997
1083.76	1.56636
1086.65	1.84476
1089.54	1.7973
1092.43	2.78923
1095.33	2.87647
1098.22	3.37166
1101.11	0.545197
1104	1.03384
1106.9	0.490433
1109.79	0.01149
1112.68	1.85085
1115.58	0.142639
1118.47	0.180191
1121.36	0.370499
1124.25	1.65872
1127.15	0.442841
1130.04	1.30801
1132.93	1.65282
1135.82	0.670135
1138.72	0.597366
1141.61	0.695053
1144.5	0.735489
1147.39	0.452744
1150.29	0.399185
1153.18	0.924469
1156.07	0.748169
1158.96	0.025177
1161.86	0.092377
1164.75	0.627029
1167.64	0.234802
1170.54	0.509338
1173.43	0.663666
1176.32	1.13023
1179.21	0.752289
1182.11	1.98151
1185	0.909363
1187.89	1.20094
1190.79	0.999008
1193.68	1.02554
1196.57	1.31125
1199.46	1.30782
1202.36	1.61757
1205.25	1.58139
1208.14	1.96368
1211.03	2.01267
1213.93	0.580505
1216.82	1.42096
1219.71	0.389221
1222.61	0.408081
1225.5	0.149506
1228.39	1.45036
1231.28	1.86261
1234.18	0.306
1237.07	0.422089
1239.96	1.6488
1242.85	0.176544
1245.75	0.486343
1248.64	0.663055
1251.53	1.47228
1254.42	0.876678
1257.32	0.526443
1260.21	0.14682
1263.1	0.281845
1265.99	0.481308
1268.89	1.58414
1271.78	1.32056
1274.67	0.95929
1277.57	0.303436
1280.46	2.30681
1283.35	0.252884
1286.24	0.023895
