Measurement: Raman, 785 nm, unoriented, Raman Data Processed
Mineral: Ferrokesterite
Rruff sample: R060870
Ideal chemistry: Cu_2_(Fe,Zn)SnS_4_
Locality: Cligga mine, Perranzabuloe, Cornwall, England
Source: Michael Scott
Description: Dark greenish black semimetallic massive. The X-ray diffraction results indicate a exsolution texture of ferrokesterite and stannite. According to Kissin & Owens (1989), based on our cell edges, this sample is at the stannite/ferrokesterite boundary.
Measured chemistry: Cu_2.00_(Fe_0.63_Zn_0.37_)_Î£=1_Sn_1.00_S_4.00_
Raman shift (cm-1)	intensity
152.383	0
155.276	1.66186
158.168	66.9994
161.061	118.118
163.954	151.873
166.846	156.565
169.739	142.336
172.632	100.091
175.524	84.2211
178.417	48.9337
181.31	68.0181
184.203	84.1632
187.095	82.1514
189.988	65.835
192.881	43.8092
195.773	56.687
198.666	35.3046
201.559	45.6658
204.452	24.4824
207.344	2.31519
210.237	31.5419
213.13	28.9416
216.022	11.9299
218.915	23.3615
221.808	2.13464
224.7	27.4026
227.593	29.8467
230.486	16.6683
233.379	24.2176
236.271	41.912
239.164	48.9264
242.057	84.0348
244.949	138.05
247.842	189.546
250.735	195.03
253.627	232.777
256.52	240.804
259.413	257.942
262.305	325.159
265.198	329.014
268.091	443.971
270.984	642.5
273.876	915.532
276.769	1327.47
279.662	1728.93
282.554	1895.71
285.447	1777.43
288.34	1497.11
291.233	1299.33
294.125	1253.76
297.018	1282.79
299.911	1495.5
302.803	1914.39
305.696	2773.23
308.589	4372.76
311.481	6965.39
314.374	10328.4
317.267	13388
320.159	14713.8
323.052	13407
325.945	10722.2
328.838	7083.76
331.73	4011.76
334.623	2408.81
337.516	1634.02
340.408	1295.41
343.301	1062.35
346.194	865.013
349.087	834.019
351.979	911.248
354.872	970.738
357.765	893.51
360.657	665.352
363.55	418.597
366.443	260.522
369.335	115
372.228	79.1682
375.121	40.6504
378.014	24.2418
380.906	23.9139
383.799	71.8982
386.692	27.1489
389.584	17.3494
392.477	43.5067
395.37	1.9187
398.262	40.2333
401.155	5.78772
404.048	33.3962
406.941	0.445313
409.833	24.2602
412.726	19.3039
415.619	25.5765
418.511	27.5784
421.404	38.4679
424.297	57.108
427.19	47.164
430.082	53.9003
432.975	66.5967
435.868	57.7618
438.76	83.4403
441.653	60.7193
444.546	62.3928
447.438	98.1844
450.331	65.3913
453.224	46.7817
456.116	55.8528
459.009	57.2638
461.902	72.9915
464.795	53.0677
467.687	63.3905
470.58	50.3808
473.473	49.2882
476.365	51.6226
479.258	56.7071
482.151	40.0275
485.043	39.0592
487.936	54.4385
490.829	49.8146
493.722	18.2133
496.614	10.9692
499.507	38.4263
502.4	20.4448
505.292	24.9238
508.185	4.33929
511.078	7.9566
513.971	27.2894
516.863	4.94598
519.756	16.4924
522.649	11.7438
525.541	25.1694
528.434	4.14484
531.327	7.24268
534.219	1.21057
537.112	6.69971
540.005	22.9962
542.898	16.5881
545.79	26.5192
548.683	17.4793
551.576	17.197
554.468	23.0078
557.361	20.8735
560.254	19.3805
563.146	29.4494
566.039	21.5099
568.932	16.7241
571.824	12.3701
574.717	33.9209
577.61	22.5225
580.503	32.2897
583.395	52.6208
586.288	47.3603
589.181	39.4995
592.073	54.6347
594.966	83.9292
597.859	94.6562
600.751	117.624
603.644	117.881
606.537	144.133
609.43	164.676
612.322	186.797
615.215	204.212
618.108	273.243
621	271.313
623.893	290.817
626.786	337.269
629.678	387.614
632.571	384.841
635.464	411.11
638.357	444.291
641.249	395.736
644.142	389.731
647.035	358.002
649.927	326.074
652.82	255.175
655.713	247.623
658.606	169.654
661.498	134.905
664.391	141.55
667.284	111.534
670.176	84.9293
673.069	93.9047
675.962	100.344
678.854	50.953
681.747	54.862
684.64	39.9942
687.533	27.5294
690.425	9.10889
693.318	9.6178
696.211	3.88074
699.103	23.5563
701.996	20.8204
704.889	1.60205
707.781	29.469
710.674	37.5085
713.567	61.5469
716.46	61.7296
719.352	46.0523
722.245	28.2648
725.138	41.2732
728.03	30.1366
730.923	10.6595
733.816	7.21887
736.708	5.24915
739.601	17.3893
742.494	1.94519
745.386	29.0676
748.279	20.0149
751.172	45.314
754.065	41.2018
756.957	3.21069
759.85	31.2977
762.743	27.8227
765.635	12.0666
768.528	4.54254
771.421	40.6606
774.313	35.4108
777.206	5.09998
780.099	28.3243
782.992	34.1251
785.884	44.6189
788.777	29.8137
791.67	51.488
794.562	30.5903
797.455	30.488
800.348	6.95337
803.24	3.6745
806.133	4.99365
809.026	19.6924
811.919	35.8112
814.811	26.0952
817.704	45.9234
820.597	31.499
823.489	23.7618
826.382	2.75427
829.275	31.5657
832.168	35.2205
835.06	18.8605
837.953	18.6138
840.846	22.3277
843.738	11.253
846.631	29.9507
849.524	24.3407
852.416	8.76483
855.309	28.7894
858.202	25.5827
861.095	24.9553
863.987	7.5448
866.88	17.534
869.773	13.7347
872.665	21.3398
875.558	29.3256
878.451	19.2313
881.343	17.7405
884.236	6.59283
887.129	8.461
890.021	19.9642
892.914	4.93994
895.807	0.167786
898.7	9.74609
901.592	17.452
904.485	6.35657
907.378	13.9866
910.27	33.0978
913.163	46.6796
916.056	10.2034
918.949	9.17053
921.841	39.7006
924.734	10.9337
927.627	42.4268
930.519	31.6428
933.412	43.3963
936.305	25.0805
939.197	55.3393
942.09	61.2151
944.983	50.366
947.876	41.8138
950.768	45.3227
953.661	54.7998
956.554	17.6985
959.446	59.8528
962.339	44.9136
965.232	32.0059
968.125	43.9814
971.017	42.9611
973.91	69.0179
976.803	63.0371
979.695	38.9364
982.588	56.0228
985.481	46.7711
988.373	12.2255
991.266	0.903015
994.159	5.2948
997.052	23.4142
999.944	10.28
1002.84	31.1962
1005.73	40.7617
1008.62	52.0378
1011.51	35.443
1014.41	41.2111
1017.3	21.0861
1020.19	19.7208
1023.09	7.49298
1025.98	10.0744
1028.87	1.55017
1031.76	38.3785
1034.66	57.2773
1037.55	32.739
1040.44	17.756
1043.34	21.4923
1046.23	52.8855
1049.12	27.431
1052.01	11.9016
1054.91	2.69739
1057.8	32.0769
1060.69	6.11731
1063.58	15.0169
1066.48	10.8764
1069.37	22.347
1072.26	23.5584
1075.15	6.67017
1078.05	20.2493
1080.94	29.9703
1083.83	18.1315
1086.72	16.8536
1089.62	7.61053
1092.51	13.8027
1095.4	21.4291
1098.3	25.6249
1101.19	4.36865
1104.08	16.4958
1106.97	13.8358
1109.87	20.9316
1112.76	35.8928
1115.65	1.80823
1118.55	28.6954
1121.44	6.66003
1124.33	13.5988
1127.22	17.4987
1130.12	30.8586
1133.01	4.95648
1135.9	33.8384
1138.79	29.231
1141.69	23.1865
1144.58	7.03314
1147.47	17.6766
1150.37	31.8866
1153.26	44.019
1156.15	26.0346
1159.04	31.3253
1161.93	24.4373
1164.83	24.1842
1167.72	36.0821
1170.61	16.4784
1173.51	24.5226
1176.4	28.7265
1179.29	36.9898
1182.18	47.9813
1185.08	12.2964
1187.97	27.8593
1190.86	68.7152
1193.76	60.2783
1196.65	29.6283
1199.54	27.5169
1202.43	22.4398
1205.33	19.9368
1208.22	15.0342
1211.11	29.6565
1214	26.4466
1216.9	38.7225
1219.79	37.228
1222.68	64.9258
1225.58	36.609
1228.47	47.4642
1231.36	68.6397
1234.25	51.5838
1237.15	24.561
1240.04	37.0503
1242.93	54.3516
1245.82	44.3257
1248.72	35.7308
1251.61	46.6544
1254.5	40.1999
1257.39	4.30182
1260.29	22.4105
1263.18	17.8172
1266.07	25.3469
1268.96	5.2829
1271.86	0.751526
