Measurement: Raman, 532 nm, unoriented, Raman Data Processed
Mineral: Ferrokesterite
Rruff sample: R060870
Ideal chemistry: Cu_2_(Fe,Zn)SnS_4_
Locality: Cligga mine, Perranzabuloe, Cornwall, England
Source: Michael Scott
Description: Dark greenish black semimetallic massive. The X-ray diffraction results indicate a exsolution texture of ferrokesterite and stannite. According to Kissin & Owens (1989), based on our cell edges, this sample is at the stannite/ferrokesterite boundary.
Measured chemistry: Cu_2.00_(Fe_0.63_Zn_0.37_)_Î£=1_Sn_1.00_S_4.00_
Raman shift (cm-1)	intensity
139.361	0
142.254	5.72458
145.147	28.8963
148.039	45.6337
150.932	14.3579
153.825	32.7349
156.718	42.9091
159.61	1.83637
162.503	19.5638
165.396	30.5838
168.288	19.6969
171.181	33.361
174.074	24.0298
176.966	14.5068
179.859	15.0968
182.752	17.6517
185.644	13.8477
188.537	6.22334
191.43	0.810364
194.323	3.04288
197.215	5.37645
200.108	20.4803
203.001	14.4525
205.893	5.929
208.786	12.7031
211.679	12.3863
214.571	1.08316
217.464	17.6036
220.357	18.6594
223.25	12.4781
226.142	4.68094
229.035	0.599258
231.928	14.5073
234.82	11.5995
237.713	14.791
240.606	19.5714
243.498	40.6254
246.391	49.3812
249.284	68.9095
252.177	52.8716
255.069	30.67
257.962	20.139
260.855	15.116
263.747	19.1861
266.64	26.8791
269.533	38.1516
272.425	51.903
275.318	58.8334
278.211	87.5536
281.103	113.953
283.996	150.674
286.889	141.049
289.782	99.7392
292.674	96.0438
295.567	115.719
298.46	110.523
301.352	128.702
304.245	163.225
307.138	248.181
310.031	381.922
312.923	571.712
315.816	788.484
318.709	972.863
321.601	999.928
324.494	857.583
327.387	654.876
330.279	445.036
333.172	324.058
336.065	252.835
338.957	241.476
341.85	200.67
344.743	129.277
347.635	123.56
350.528	110.959
353.421	101.092
356.314	97.2144
359.206	69.9198
362.099	83.4195
364.992	44.2731
367.884	23.4082
370.777	30.3364
373.67	7.88789
376.562	11.0882
379.455	7.35548
382.348	13.0206
385.241	9.01233
388.133	3.68838
391.026	0.950668
393.919	10.2944
396.811	5.62723
399.704	4.88593
402.597	4.48021
405.49	1.62445
408.382	17.003
411.275	13.1315
414.168	19.7916
417.06	8.8271
419.953	9.74568
422.846	0.082993
425.738	27.5821
428.631	16.504
431.524	6.64253
434.416	25.9387
437.309	7.72241
440.202	28.6536
443.094	20.0988
445.987	25.6128
448.88	11.7128
451.773	22.8957
454.665	35.7799
457.558	16.9837
460.451	36.4715
463.343	25.2287
466.236	40.316
469.129	26.3079
472.022	26.9276
474.914	47.0241
477.807	34.1755
480.7	26.0649
483.592	9.14194
486.485	7.89465
489.378	37.5473
492.27	18.6871
495.163	5.6265
498.056	3.36227
500.949	6.91392
503.841	3.17949
506.734	21.9857
509.627	2.67259
512.519	3.93303
515.412	21.2144
518.305	13.9339
521.197	2.72275
524.09	14.3194
526.983	22.1101
529.875	9.53543
532.768	2.67857
535.661	5.47371
538.554	11.4845
541.446	13.1173
544.339	9.30322
547.232	11.4039
550.124	23.3951
553.017	6.55844
555.91	16.8149
558.802	1.81645
561.695	13.6782
564.588	20.4226
567.481	4.34941
570.373	14.1927
573.266	14.6597
576.159	2.98041
579.051	6.04091
581.944	32.1816
584.837	7.0209
587.729	12.3142
590.622	19.332
593.515	13.0083
596.408	9.37062
599.3	30.919
602.193	24.1074
605.086	17.6131
607.978	18.2952
610.871	28.849
613.764	14.0019
616.656	16.7686
619.549	4.43419
622.442	52.8064
625.335	15.3384
628.227	27.3842
631.12	43.9852
634.013	37.2422
636.905	39.2429
639.798	40.5397
642.691	48.8802
645.583	29.2981
648.476	43.4542
651.369	24.8289
654.261	41.0412
657.154	27.7874
660.047	25.7028
662.94	24.3099
665.832	16.5679
668.725	13.2839
671.618	15.4985
674.51	28.26
677.403	43.9257
680.296	9.71474
683.188	23.5253
686.081	20.2275
688.974	2.97159
691.866	8.13351
694.759	13.2926
697.652	2.93593
700.545	3.19603
703.437	22.6762
706.33	24.111
709.223	23.4871
712.115	3.41614
715.008	18.1812
717.901	17.794
720.793	20.9096
723.686	10.7644
726.579	24.9668
729.472	14.8651
732.364	19.9756
735.257	14.236
738.15	15.6467
741.042	8.50829
743.935	16.4909
746.828	17.4073
749.721	1.30588
752.613	7.85802
755.506	26.777
758.399	22.591
761.291	29.3658
764.184	26.8775
767.077	12.3346
769.969	27.4457
772.862	24.4947
775.755	5.41443
778.648	38.1525
781.54	3.62851
784.433	17.9344
787.326	5.4538
790.218	19.6296
793.111	19.8208
796.004	28.2514
798.896	18.9069
801.789	27.5128
804.682	1.23715
807.574	28.6243
810.467	7.42448
813.36	5.33031
816.253	22.444
819.145	9.26444
822.038	22.4121
824.931	4.17876
827.823	30.8693
830.716	21.5694
833.609	16.9941
836.501	30.6369
839.394	35.0519
842.287	27.4729
845.179	16.9291
848.072	20.4069
850.965	13.9242
853.857	2.00815
856.75	11.9745
859.643	8.93018
862.536	8.65929
865.428	5.73985
868.321	16.9364
871.214	2.83066
874.106	9.03506
876.999	10.2601
879.892	1.53166
882.784	10.2637
885.677	7.7543
888.57	32.1397
891.463	21.2215
894.355	14.3134
897.248	10.2939
900.141	14.1777
903.033	12.3289
905.926	23.6215
908.819	12.5108
911.712	15.7769
914.604	12.2159
917.497	4.17273
920.39	27.8872
923.282	16.5579
926.175	12.0115
929.068	3.14732
931.96	4.69705
934.853	9.39857
937.746	1.31586
940.639	22.9861
943.531	22.0106
946.424	15.5306
949.317	15.7401
952.209	20.1043
955.102	53.8186
957.995	12.7498
960.887	0.267715
963.78	31.8819
966.673	18.3882
969.566	30.1154
972.458	8.91949
975.351	23.4567
978.244	13.8684
981.136	21.7544
984.029	9.93042
986.922	16.5545
989.814	20.9928
992.707	21.5714
995.6	16.4318
998.492	11.1637
1001.38	10.9721
1004.28	2.00528
1007.17	0.151245
1010.06	16.8637
1012.96	3.52419
1015.85	6.3391
1018.74	10.532
1021.63	6.95193
1024.53	17.8008
1027.42	28.3883
1030.31	36.1637
1033.2	13.0229
1036.1	23.473
1038.99	9.56014
1041.88	19.6925
1044.78	26.8511
1047.67	18.5299
1050.56	16.5123
1053.45	33.4763
1056.35	22.5698
1059.24	24.6227
1062.13	15.1982
1065.03	23.5593
1067.92	21.5289
1070.81	8.32011
1073.7	5.11952
1076.6	7.94972
1079.49	16.3651
1082.38	12.4996
1085.27	8.0435
1088.17	20.5354
1091.06	13.0084
1093.95	29.2166
1096.84	13.2882
1099.74	35.64
1102.63	22.1619
1105.52	27.6164
1108.41	26.5973
1111.31	1.89853
1114.2	30.5584
1117.09	14.2326
1119.99	12.4518
1122.88	19.0559
1125.77	21.2796
1128.66	32.4309
1131.56	15.8507
1134.45	16.5736
1137.34	24.4015
1140.23	24.3656
1143.13	9.00046
1146.02	0.914581
1148.91	21.5854
1151.81	15.4671
1154.7	4.90263
1157.59	16.3256
1160.48	7.91699
1163.38	27.4318
1166.27	11.9933
1169.16	28.1941
1172.05	14.3131
1174.95	17.2397
1177.84	14.113
1180.73	20.9423
1183.62	6.62964
1186.52	18.184
1189.41	27.6656
1192.3	17.9092
1195.2	20.3428
1198.09	17.618
1200.98	13.5122
1203.87	1.66048
1206.77	15.2237
1209.66	13.5757
1212.55	7.82491
1215.44	29.0918
1218.34	13.0819
1221.23	6.33315
1224.12	3.94901
1227.02	15.1359
1229.91	0.596649
1232.8	8.64731
1235.69	14.5656
1238.59	31.4203
1241.48	19.1346
1244.37	23.9335
1247.26	30.0616
1250.16	28.9735
1253.05	16.139
1255.94	22.037
1258.84	1.37585
1261.73	11.4638
