Measurement: Raman, 780 nm, unoriented, Raman Data Processed
Mineral: Ferrilotharmeyerite
Rruff sample: R060209
Ideal chemistry: CaZn^2+^Fe^3+^(As^5+^O_4_)_2_(OH)H_2_O
Locality: Tsumeb mine, Tsumeb, Otavi District, Oshikoto, Namibia
Source: William W. Pinch
Description: Yellowish-green rectangular prisms
Raman shift (cm-1)	intensity
144.378	0
147.271	1.18075
150.163	4.76684
153.056	11.4459
155.949	21.3368
158.841	30.9291
161.734	38.9446
164.627	44.9004
167.519	39.5202
170.412	24.1604
173.305	13.4603
176.198	4.08773
179.09	0.079009
181.983	0.277727
184.876	0.009139
187.768	0.135578
190.661	1.23219
193.554	3.93505
196.446	6.47764
199.339	11.3219
202.232	15.2591
205.125	19.4293
208.017	27.2892
210.91	32.9484
213.803	37.7909
216.695	40.4484
219.588	40.8518
222.481	39.9085
225.373	37.3023
228.266	32.7207
231.159	29.8999
234.052	27.2988
236.944	22.3916
239.837	18.6049
242.73	14.199
245.622	12.2
248.515	7.40574
251.408	4.21353
254.3	2.57773
257.193	1.55674
260.086	0.329297
262.978	0.147164
265.871	0.012407
268.764	0.165322
271.657	0.227087
274.549	0.072952
277.442	0.081239
280.335	0.020942
283.227	0.003205
286.12	0.071543
289.013	0.797126
291.906	3.07904
294.798	4.28872
297.691	5.31971
300.584	6.91406
303.476	10.1425
306.369	12.1013
309.262	12.6556
312.154	16.1414
315.047	18.8266
317.94	22.1496
320.833	23.6969
323.725	24.8419
326.618	28.3393
329.511	31.4984
332.403	35.0468
335.296	38.8048
338.189	40.3208
341.081	44.6739
343.974	44.5661
346.867	45.1366
349.76	45.478
352.652	44.5603
355.545	40.2701
358.438	34.5978
361.33	29.926
364.223	25.3112
367.116	20.7822
370.008	15.6525
372.901	12.0275
375.794	7.73292
378.687	3.76064
381.579	1.82833
384.472	0.460818
387.365	0.302497
390.257	0.065365
393.15	0.033222
396.043	0.310945
398.935	1.58324
401.828	3.57988
404.721	5.351
407.613	6.10224
410.506	7.65578
413.399	8.53883
416.292	8.58698
419.184	7.32716
422.077	5.33883
424.97	4.28745
427.862	3.14221
430.755	0.006101
433.648	0.109688
436.541	0.199901
439.433	0.111346
442.326	0.016209
445.219	0.284235
448.111	0.054568
451.004	0.220191
453.897	0.187068
456.789	2.21328
459.682	3.44648
462.575	4.48631
465.467	7.70715
468.36	9.10746
471.253	11.7476
474.146	14.0704
477.038	16.1082
479.931	20.2224
482.824	23.4586
485.716	25.0915
488.609	29.2489
491.502	33.5865
494.394	35.8826
497.287	38.4171
500.18	38.2707
503.073	36.6997
505.965	32.8447
508.858	30.1637
511.751	25.6223
514.643	20.3375
517.536	15.8754
520.429	12.1273
523.322	9.38304
526.214	7.44012
529.107	4.23421
532	4.15506
534.892	1.22303
537.785	0.798419
540.678	0.078645
543.57	0.019826
546.463	0.118263
549.356	0.373165
552.249	0.193156
555.141	0.111094
558.034	0.114139
560.927	0.244258
563.819	0.218305
566.712	0.071845
569.605	0.212739
572.497	0.133597
575.39	0.992214
578.283	1.68372
581.176	1.94962
584.068	1.35365
586.961	1.07686
589.854	1.85148
592.746	2.09398
595.639	2.63003
598.532	3.82971
601.424	3.70322
604.317	3.9946
607.21	3.92055
610.102	4.05558
612.995	4.1742
615.888	3.29881
618.781	4.21871
621.673	3.81767
624.566	3.40414
627.459	3.24462
630.351	2.7509
633.244	3.8692
636.137	4.85089
639.029	4.93351
641.922	5.30917
644.815	4.97074
647.708	4.98722
650.6	5.95581
653.493	5.27282
656.386	5.30066
659.278	4.8336
662.171	5.6285
665.064	4.85866
667.957	4.74356
670.849	4.11895
673.742	3.39653
676.635	2.29889
679.527	2.24641
682.42	1.80181
685.313	1.35147
688.205	1.06098
691.098	0.069431
693.991	0.113407
696.884	0.031752
699.776	0.050409
702.669	0.107201
705.562	0.086525
708.454	0.061916
711.347	0.537472
714.24	0.14935
717.132	0.198562
720.025	0.021642
722.918	0.882925
725.811	1.82749
728.703	2.17226
731.596	3.02221
734.489	5.63535
737.381	7.78471
740.274	10.0935
743.167	12.2281
746.059	14.7711
748.952	17.0445
751.845	18.8919
754.737	19.8312
757.63	16.7242
760.523	14.5873
763.416	12.6816
766.308	7.45297
769.201	4.51343
772.094	1.10353
774.986	0.029126
777.879	0.546796
780.772	0.945485
783.664	0.235882
786.557	3.06481
789.45	7.79523
792.343	11.7477
795.235	16.0531
798.128	20.5832
801.021	22.8287
803.913	25.4109
806.806	26.9167
809.699	26.64
812.591	26.4381
815.484	26.3714
818.377	26.4193
821.27	25.8392
824.162	24.1227
827.055	22.7682
829.948	19.7425
832.84	15.1258
835.733	12.1784
838.626	8.70256
841.519	6.19177
844.411	4.84198
847.304	7.47371
850.197	7.62153
853.089	11.9957
855.982	16.7866
858.875	22.5481
861.767	30.3171
864.66	39.1237
867.553	46.5852
870.446	52.8583
873.338	58.4919
876.231	58.6091
879.124	53.5601
882.016	45.6825
884.909	33.0073
887.802	24.8468
890.694	15.2519
893.587	9.30994
896.48	5.08561
899.372	0.571743
902.265	0.383182
905.158	0.347417
908.051	0.559949
910.943	0.12463
913.836	0.372694
916.729	0.312757
919.621	0.483468
922.514	0.276807
925.407	0.109826
928.299	0.146645
931.192	1.82748
934.085	1.36174
936.977	2.16251
939.87	3.13633
942.763	3.61513
945.656	2.91698
948.548	2.97286
951.441	1.79903
954.334	1.82232
957.226	1.52238
960.119	1.51211
963.012	1.34013
965.904	0.387466
968.797	2.08493
971.69	0.539155
974.583	1.17297
977.475	0.148344
980.368	0.307215
983.261	0.503579
986.153	0.088656
989.046	0.40746
991.939	1.03278
994.832	2.31198
997.724	1.27366
1000.62	1.48593
1003.51	1.66468
1006.4	1.91837
1009.29	1.83106
1012.19	1.93984
1015.08	1.58976
1017.97	1.75107
1020.87	2.05152
1023.76	1.87551
1026.65	0.911288
1029.54	1.02728
1032.44	0.393772
1035.33	0.271405
1038.22	0.373929
1041.12	1.05953
1044.01	0.277879
1046.9	0.137685
1049.79	0.12792
1052.69	0.284907
1055.58	0.523286
1058.47	0.842788
1061.36	0.11104
1064.26	0.173421
1067.15	0.346689
1070.04	0.045468
1072.93	0.442812
1075.83	0.499952
1078.72	0.691934
1081.61	0.203926
1084.51	0.202501
1087.4	0.033336
1090.29	0.229508
1093.18	0.267264
1096.08	0.034261
1098.97	0.003425
1101.86	0.020158
1104.75	0.736807
1107.65	0.144991
1110.54	0.849271
1113.43	0.703631
1116.33	0.265218
1119.22	0.909747
1122.11	0.276641
1125	0.516025
1127.9	0.627212
1130.79	0.705483
1133.68	1.17404
1136.57	0.949447
1139.47	1.10797
1142.36	0.155335
1145.25	1.00866
1148.14	0.937052
1151.04	0.769806
1153.93	0.459093
1156.82	0.823553
1159.71	0.281097
1162.61	0.75579
1165.5	1.00352
1168.39	1.1934
1171.29	0.590121
1174.18	0.645403
1177.07	0.816349
1179.96	0.316843
1182.86	0.477972
1185.75	0.672242
1188.64	0.345997
1191.54	1.49297
1194.43	1.21085
1197.32	0.441832
1200.21	0.146099
1203.11	0.035122
1206	0.447527
1208.89	0.319922
1211.78	0.974525
1214.68	0.564206
1217.57	0.912881
1220.46	1.04364
1223.36	0.042626
1226.25	0.299779
1229.14	0.576093
1232.03	0.394057
1234.93	0.655907
1237.82	0.585741
1240.71	0.70423
1243.6	0.739727
1246.5	0.289421
1249.39	0.41249
1252.28	0.899782
1255.17	0.382746
1258.07	1.12436
1260.96	0.011406
1263.85	1.07886
1266.74	0.863787
1269.64	0.756736
1272.53	0.947226
1275.42	1.16359
1278.32	1.27645
1281.21	0.021595
1284.1	0.000717
