Measurement: Raman, 785 nm, unoriented, Raman Data Processed
Mineral: Ferrohogbomite-2N2S
Rruff sample: R061017
Ideal chemistry: (Fe,Mg,Zn,Al)_3_(Al,Ti,Fe)_8_O_15_(OH)
Locality: Claim Kastor, Vallatjvaratj, Lapland, Sweden
Source: Michael Scott
Description: Black vitreous massive
Raman shift (cm-1)	intensity
175.043	0
177.936	38.6645
180.828	7.66626
183.721	35.9168
186.614	89.7073
189.507	93.3651
192.399	134.684
195.292	165.476
198.185	129.083
201.077	106.898
203.97	104.581
206.863	7.54175
209.756	29.6671
212.648	15.4627
215.541	14.7963
218.434	9.18616
221.326	11.3844
224.219	5.36816
227.112	22.7134
230.004	17.5465
232.897	3.76294
235.79	30.0995
238.683	61.4225
241.575	59.7349
244.468	47.7971
247.361	7.96619
250.253	47.5956
253.146	73.7402
256.039	138.202
258.931	113.876
261.824	136.057
264.717	109.051
267.61	103.842
270.502	163.664
273.395	137.528
276.288	133.706
279.18	189.268
282.073	143.114
284.966	232.895
287.858	191.226
290.751	244.195
293.644	307.779
296.536	352.559
299.429	345.805
302.322	392.901
305.215	406.606
308.107	396.414
311	372.578
313.893	358.932
316.785	278.225
319.678	257.26
322.571	184.959
325.464	197.035
328.356	175.353
331.249	163.748
334.142	132.625
337.034	81.3311
339.927	91.0802
342.82	59.6477
345.712	36.1838
348.605	38.6148
351.498	65.6643
354.39	20.5983
357.283	20.7288
360.176	25.5911
363.068	11.4414
365.961	14.8396
368.854	4.87732
371.747	5.09546
374.639	3.10596
377.532	18.2553
380.425	21.0239
383.317	14.0491
386.21	41.6521
389.103	10.8912
391.995	45.7192
394.888	54.093
397.781	138.989
400.674	192.168
403.566	196.687
406.459	115.307
409.352	76.4127
412.244	34.7324
415.137	27.5779
418.03	41.2665
420.923	65.8575
423.815	14.794
426.708	8.45996
429.601	23.5775
432.493	28.045
435.386	15.5017
438.279	39.4742
441.171	30.0431
444.064	23.0875
446.957	2.51502
449.849	6.62293
452.742	40.9886
455.635	40.8635
458.528	29.2063
461.42	38.5604
464.313	29.7728
467.206	34.8385
470.098	68.5201
472.991	8.94312
475.884	36.9946
478.777	23.2649
481.669	71.3709
484.562	50.2607
487.455	93.7087
490.347	57.0609
493.24	49.2887
496.133	108.428
499.025	69.1099
501.918	44.0845
504.811	79.9385
507.704	67.2169
510.596	68.8583
513.489	139.995
516.382	89.02
519.274	102.457
522.167	143.128
525.06	151.596
527.952	205.568
530.845	187.109
533.738	147.654
536.631	184.216
539.523	174.904
542.416	157.388
545.309	149.434
548.201	136.895
551.094	105.42
553.987	72.8325
556.88	89.579
559.772	86.7753
562.665	54.3708
565.558	19.8065
568.45	46.5429
571.343	3.23377
574.236	1.7168
577.128	13.6374
580.021	29.2754
582.914	31.9233
585.806	7.72229
588.699	13.0933
591.592	15.2258
594.485	10.3672
597.377	5.51184
600.27	6.87891
603.163	11.4452
606.055	17.5066
608.948	46.8218
611.841	127.442
614.733	113.502
617.626	135.515
620.519	161.673
623.412	179.492
626.304	200.354
629.197	259.427
632.09	331.447
634.982	391.976
637.875	478.547
640.768	587.257
643.66	664.508
646.553	872.598
649.446	1089.56
652.338	1367.03
655.231	1687.38
658.124	1965.91
661.017	2285.67
663.909	2572.4
666.802	2797.01
669.695	2820.73
672.587	2738.9
675.48	2542.65
678.373	2370.83
681.265	2080.93
684.158	1803.12
687.051	1541.65
689.944	1341.51
692.836	1142.88
695.729	970.298
698.622	833.76
701.514	681.865
704.407	501.307
707.3	410.322
710.192	368.431
713.085	296.455
715.978	234.07
718.871	131.233
721.763	160.879
724.656	88.8486
727.549	79.0438
730.441	10.6119
733.334	4.92481
736.227	26.2883
739.12	29.8352
742.012	8.55859
744.905	13.1636
747.798	67.332
750.69	1.94727
753.583	23.004
756.476	13.5853
759.368	7.72131
762.261	9.11621
765.154	2.58234
768.047	55.5279
770.939	7.07385
773.832	4.18585
776.725	24.2617
779.617	24.5256
782.51	34.2283
785.403	17.8171
788.295	38.4326
791.188	7.04486
794.081	36.2344
796.973	34.7866
799.866	42.1102
802.759	54.4061
805.652	66.4749
808.544	22.915
811.437	16.301
814.33	19.8941
817.222	60.6943
820.115	43.8433
823.008	77.7158
825.9	26.3893
828.793	27.2625
831.686	66.9529
834.579	16.0881
837.471	39.8727
840.364	52.2754
843.257	45.2534
846.149	49.6606
849.042	42.3549
851.935	28.0772
854.827	25.0073
857.72	37.284
860.613	48.7948
863.506	84.356
866.398	21.6992
869.291	1.31958
872.184	41.2188
875.076	26.6847
877.969	88.6354
880.862	56.2709
883.755	8.3045
886.647	2.13306
889.54	29.349
892.433	53.2274
895.325	52.4196
898.218	28.6457
901.111	36.2924
904.003	50.4313
906.896	60.5607
909.789	16.6498
912.682	49.737
915.574	16.0317
918.467	27.6047
921.36	30.5489
924.252	52.7393
927.145	39.9333
930.038	59.8036
932.93	28.2683
935.823	88.1233
938.716	40.0668
941.609	76.6881
944.501	54.584
947.394	81.8024
950.287	80.0962
953.179	73.9362
956.072	75.5775
958.965	104.938
961.857	21.7434
964.75	75.6832
967.643	50.4749
970.535	67.5353
973.428	28.9896
976.321	58.1175
979.214	40.439
982.106	65.0261
984.999	95.3862
987.892	5.49023
990.784	6.90961
993.677	4.9585
996.57	68.6941
999.462	84.9051
1002.36	46.0203
1005.25	73.5192
1008.14	72.9453
1011.03	23.7736
1013.93	91.3359
1016.82	75.6153
1019.71	66.7477
1022.6	22.5787
1025.5	38.1597
1028.39	37.7481
1031.28	47.0651
1034.17	46.7068
1037.07	35.2935
1039.96	80.6058
1042.85	62.8375
1045.75	86.4388
1048.64	90.6968
1051.53	59.1223
1054.42	55.1136
1057.32	61.6483
1060.21	19.8978
1063.1	46.3461
1065.99	18.9073
1068.89	48.157
1071.78	4.82452
1074.67	20.8023
1077.57	45.856
1080.46	71.9061
1083.35	0.152832
1086.24	21.1995
1089.14	60.8037
1092.03	52.882
1094.92	30.0818
1097.81	81.5309
1100.71	57.9181
1103.6	65.6299
1106.49	32.5834
1109.38	65.0607
1112.28	30.042
1115.17	24.0143
1118.06	46.0989
1120.96	13.1143
1123.85	45.5117
1126.74	95.431
1129.63	62.0479
1132.53	12.0616
1135.42	64.1036
1138.31	2.44781
1141.2	43.8188
1144.1	37.609
1146.99	24.841
1149.88	55.7466
1152.78	3.14356
1155.67	7.88196
1158.56	25.6544
1161.45	23.5031
1164.35	40.5209
1167.24	50.4875
1170.13	88.0323
1173.02	69.5265
1175.92	46.9908
1178.81	60.4948
1181.7	18.6025
1184.6	37.0973
1187.49	35.9061
1190.38	45.0948
1193.27	61.4902
1196.17	35.1894
1199.06	33.0299
1201.95	24.9313
1204.84	33.2002
1207.74	60.5533
1210.63	34.5316
1213.52	80.2234
1216.41	62.0346
1219.31	93.462
1222.2	45.7487
1225.09	41.5571
1227.99	40.5908
1230.88	83.3575
1233.77	76.6354
1236.66	52.5444
1239.56	63.7723
1242.45	61.3876
1245.34	81.0711
1248.23	103.93
1251.13	84.8325
1254.02	64.705
1256.91	91.3362
1259.81	31.0475
1262.7	99.6666
1265.59	91.6301
1268.48	48.1116
1271.38	13.5026
