Measurement: Raman, 780 nm, unoriented, Raman Data RAW
Mineral: Ferrierite-K
Rruff sample: R110200
Ideal chemistry: (K,Na)_5_(Si_31_Al_5_)O_72_18H_2_O
Locality: Conejo Volcanics, Agoura, Santa Monica Mountains, Los Angeles Co., California, USA
Source: Donald Doell
Description: Radial aggregates of acicular colorless crystals associated with clinoptilolite-K R110201
Raman shift (cm-1)	intensity
192.366	0
195.259	0.000854
198.151	4.39679
201.044	4.26862
203.937	6.46826
206.829	9.70111
209.722	11.8984
212.615	13.6864
215.507	16.299
218.4	15.8171
221.293	15.908
224.186	20.1763
227.078	23
229.971	18.8218
232.864	17.4659
235.756	12.4363
238.649	6.98279
241.542	4.70978
244.435	1.38599
247.327	3.16553
250.22	0.08905
253.113	1.46002
256.005	0.954407
258.898	0.070679
261.791	0.762268
264.683	0.522461
267.576	1.90317
270.469	3.86453
273.361	5.34369
276.254	7.45715
279.147	7.80896
282.04	8.01526
284.932	9.67554
287.825	9.07544
290.718	13.7625
293.61	14.9345
296.503	15.7524
299.396	19.5998
302.288	21.357
305.181	22.7407
308.074	22.598
310.967	27.1957
313.859	25.6834
316.752	29.3711
319.645	30.8298
322.537	34.5554
325.43	38.6482
328.323	40.667
331.216	44.4103
334.108	44.5387
337.001	46.4585
339.894	40.4143
342.786	38.5032
345.679	33.5723
348.572	31.0483
351.464	25.9806
354.357	23.0231
357.25	21.3415
360.142	13.3722
363.035	8.59277
365.928	3.91403
368.821	2.08432
371.713	0.502869
374.606	2.41644
377.499	2.58368
380.391	0.480988
383.284	2.73807
386.177	8.00497
389.07	12.2514
391.962	17.2925
394.855	29.4062
397.748	35.6519
400.64	49.3796
403.533	59.2539
406.426	73.9665
409.318	88.791
412.211	99.6696
415.104	114.847
417.997	127.312
420.889	141.25
423.782	152.157
426.675	159.408
429.567	166.309
432.46	165.778
435.353	160.403
438.245	153.884
441.138	149.58
444.031	144.614
446.923	133.629
449.816	120.009
452.709	107.36
455.602	90.8817
458.494	76.4594
461.387	59.3839
464.28	47.2988
467.172	35.0242
470.065	27.639
472.958	22.8686
475.851	15.2771
478.743	11.1455
481.636	8.78375
484.529	8.76013
487.421	5.20206
490.314	5.77582
493.207	4.42084
496.099	2.54337
498.992	1.48068
501.885	0.279205
504.777	0.138306
507.67	0.580658
510.563	1.36966
513.456	1.60794
516.348	0.68924
519.241	0.016571
522.134	0.711639
525.026	2.29752
527.919	4.19339
530.812	7.08649
533.705	8.43317
536.597	7.22241
539.49	11.3441
542.383	14.3264
545.275	15.2055
548.168	18.0667
551.061	20.398
553.953	23.2044
556.846	27.414
559.739	25.9533
562.631	25.3004
565.524	24.8084
568.417	24.3141
571.31	20.9099
574.202	17.4567
577.095	14.438
579.988	10.6073
582.88	11.7255
585.773	7.6684
588.666	8.90122
591.558	7.20172
594.451	4.59213
597.344	5.48636
600.237	5.34833
603.129	4.91574
606.022	5.28958
608.915	0.701141
611.807	3.72604
614.7	1.23209
617.593	1.46845
620.486	0.706604
623.378	2.85681
626.271	1.79981
629.164	1.25983
632.056	0.227966
634.949	0.05249
637.842	2.57819
640.734	2.34091
643.627	2.18265
646.52	2.23032
649.413	1.61887
652.305	3.03577
655.198	2.31479
658.091	3.43033
660.983	3.37494
663.876	1.89691
666.769	3.64712
669.661	3.29007
672.554	3.84198
675.447	3.21927
678.34	2.93396
681.232	2.401
684.125	1.42917
687.018	1.03326
689.91	0.288574
692.803	3.04648
695.696	0.687988
698.588	0.245972
701.481	0.92334
704.374	1.32684
707.266	2.06628
710.159	1.84454
713.052	0.355164
715.945	1.90286
718.837	0.055511
721.73	0.470184
724.623	2.30191
727.515	0.610352
730.408	0.573853
733.301	2.75644
736.193	0.30719
739.086	0.050781
741.979	1.0368
744.872	0.259552
747.764	1.00308
750.657	0.540955
753.55	0.085236
756.442	3.08548
759.335	2.59604
762.228	2.97797
765.12	3.58667
768.013	5.85489
770.906	6.09122
773.799	7.57037
776.691	6.83658
779.584	10.5075
782.477	11.7236
785.369	12.055
788.262	9.53052
791.155	12.3719
794.048	10.1944
796.94	12.1381
799.833	8.41165
802.726	7.00296
805.618	7.35251
808.511	7.0311
811.404	6.52643
814.296	7.84784
817.189	9.73157
820.082	10.5992
822.975	8.49008
825.867	6.1221
828.76	3.25571
831.653	2.76681
834.545	0.377167
837.438	0.243805
840.331	2.42136
843.223	2.14215
846.116	4.06323
849.009	3.61526
851.902	6.62567
854.794	6.53513
857.687	9.53577
860.58	11.9044
863.472	12.9498
866.365	16.0726
869.258	14.5415
872.15	11.5401
875.043	7.12877
877.936	6.83775
880.829	5.75487
883.721	2.07909
886.614	1.97292
889.507	1.81763
892.399	3.08063
895.292	1.15955
898.185	0.881088
901.077	1.55832
903.97	0.938889
906.863	0.641022
909.756	1.85167
912.648	2.27823
915.541	1.42653
918.434	0.388
921.326	1.61984
924.219	0.240936
927.112	0.411163
930.005	1.28679
932.897	1.53351
935.79	0.155533
938.683	2.03595
941.575	0.248596
944.468	0.737762
947.361	0.096222
950.253	0.031052
953.146	0.652191
956.039	0.194366
958.932	2.04387
961.824	0.478668
964.717	0.994736
967.61	1.45464
970.502	0.575699
973.395	1.21037
976.288	1.10924
979.18	0.730606
982.073	0.021225
984.966	1.36475
987.859	1.7086
990.751	2.03787
993.644	0.512955
996.537	2.90411
999.429	3.22147
1002.32	3.8318
1005.22	4.28416
1008.11	4.78708
1011	3.58386
1013.89	5.29135
1016.78	3.32124
1019.68	6.03372
1022.57	4.49492
1025.46	6.10982
1028.36	3.40012
1031.25	8.46176
1034.14	4.72319
1037.03	9.8651
1039.93	9.05396
1042.82	6.48975
1045.71	7.69482
1048.61	7.19496
1051.5	3.97456
1054.39	6.70189
1057.28	4.17863
1060.18	5.68985
1063.07	7.38451
1065.96	6.5622
1068.85	5.52271
1071.75	5.76872
1074.64	3.78345
1077.53	7.18805
1080.42	4.3871
1083.32	4.67012
1086.21	5.33084
1089.1	1.60451
1092	2.8103
1094.89	2.28885
1097.78	1.06119
1100.67	0.091034
1103.57	1.88336
1106.46	0.874207
1109.35	1.06224
1112.24	0.696655
1115.14	0.450226
1118.03	2.31869
1120.92	2.5701
1123.82	3.99014
1126.71	3.50629
1129.6	4.45139
1132.49	7.3298
1135.39	7.90694
1138.28	10.0949
1141.17	7.90378
1144.06	8.78763
1146.96	11.7908
1149.85	10.3523
1152.74	10.2064
1155.63	9.80701
1158.53	11.4073
1161.42	8.92351
1164.31	10.8699
1167.21	10.0297
1170.1	10.3954
1172.99	9.71339
1175.88	10.0938
1178.78	10.3753
1181.67	11.9708
1184.56	11.2908
1187.45	10.0073
1190.35	12.1342
1193.24	11.8497
1196.13	15.3917
1199.03	13.7323
1201.92	12.0975
1204.81	9.50511
1207.7	9.87663
1210.6	7.73839
1213.49	7.87479
1216.38	5.1711
1219.27	6.4462
1222.17	2.72659
1225.06	4.47667
1227.95	3.49181
1230.85	1.07544
1233.74	0.256088
1236.63	1.72043
1239.52	1.92603
1242.42	1.55843
1245.31	0.871887
1248.2	1.84416
1251.09	0.87825
1253.99	0.160507
1256.88	2.27107
1259.77	2.18993
1262.66	1.20187
1265.56	2.08342
1268.45	1.04246
1271.34	1.54919
1274.24	1.27652
1277.13	1.51459
1280.02	2.86054
1282.91	1.59219
