Measurement: Raman, 532 nm, unoriented, Raman Data Processed
Mineral: Ferri-winchite
Rruff sample: R060038
Ideal chemistry: [box]NaCa(Mg_4_Fe^3+^)Si_8_O_22_(OH)_2_
Locality: Imerina, Madagascar
Source: University of Arizona Mineral Museum
Description: Deep black-blue bladed single crystals embedded in dolomite
Measured chemistry: ([box]_0.70_Na_0.21_K_0.09_)_Σ=1_(Na_1.40_Ca_0.60_)_Σ=2_(Mg_3.56_Fe^3+^_1.06_Fe^2+^_0.28_Al_0.08_Ti_0.01_)_Σ=5_(Si_7.96_Al_0.04_)_Σ=8.00_O_22_((OH)_1.85_F_0.15_)_Σ=2_
Raman shift (cm-1)	intensity
142.891	0
145.783	0.48587
148.676	2.68922
151.569	16.3186
154.462	28.19
157.354	19.68
160.247	20.5563
163.14	32.2914
166.032	41.5284
168.925	62.3137
171.818	79.6051
174.71	57.4376
177.603	27.423
180.496	12.2687
183.388	4.31625
186.281	1.64233
189.174	0.178696
192.067	1.2928
194.959	3.9366
197.852	9.3361
200.745	15.7528
203.637	24.9411
206.53	31.3788
209.423	39.6342
212.315	46.7305
215.208	55.0284
218.101	63.5306
220.994	71.2468
223.886	69.8543
226.779	60.4201
229.672	48.1614
232.564	35.0192
235.457	23.7864
238.35	17.5858
241.243	12.3543
244.135	10.6505
247.028	11.1314
249.921	13.3636
252.813	16.6806
255.706	16.2622
258.599	9.88675
261.491	3.98441
264.384	0.516312
267.277	0.466949
270.17	2.34917
273.062	2.54123
275.955	1.20604
278.848	1.9209
281.74	0.639893
284.633	1.77275
287.526	3.46303
290.418	8.5799
293.311	13.6213
296.204	18.3962
299.096	23.269
301.989	22.8527
304.882	18.3595
307.775	13.7551
310.667	12.2871
313.56	10.4913
316.453	13.4959
319.345	15.1079
322.238	16.2515
325.131	17.4799
328.024	18.4129
330.916	20.3231
333.809	23.0647
336.702	24.6322
339.594	22.8651
342.487	22.0002
345.38	23.8819
348.272	25.733
351.165	30.9968
354.058	35.8785
356.95	44.6162
359.843	55.0267
362.736	71.0524
365.629	94.9412
368.521	125.183
371.414	147.54
374.307	130.118
377.199	90.0219
380.092	62.9429
382.985	48.7783
385.877	44.844
388.77	47.6178
391.663	45.5289
394.556	39.5108
397.448	26.101
400.341	17.059
403.234	9.61629
406.126	9.10295
409.019	8.46855
411.912	9.51091
414.805	13.2835
417.697	12.5504
420.59	10.4063
423.483	8.11075
426.375	5.62404
429.268	6.05411
432.161	6.9286
435.053	6.78975
437.946	4.5481
440.839	1.10211
443.731	0.21225
446.624	1.0927
449.517	1.96466
452.409	2.48047
455.302	2.36839
458.195	1.79157
461.088	0.228027
463.98	1.47101
466.873	4.25679
469.766	6.86679
472.658	11.4834
475.551	10.1344
478.444	9.95448
481.337	9.53046
484.229	5.06883
487.122	3.02048
490.015	1.83881
492.907	1.76913
495.8	1.80185
498.693	5.16029
501.585	6.8128
504.478	9.8824
507.371	14.6463
510.264	16.6149
513.156	20.7738
516.049	25.9223
518.942	28.7249
521.834	30.0549
524.727	34.5761
527.62	41.1932
530.513	52.1845
533.405	64.9327
536.298	80.8752
539.191	85.9331
542.083	84.8168
544.976	71.8952
547.869	57.4641
550.761	46.0299
553.654	39.0496
556.547	33.7853
559.439	29.829
562.332	25.0912
565.225	21.4588
568.118	19.3179
571.01	18.9433
573.903	18.0174
576.796	17.299
579.688	16.4654
582.581	16.8483
585.474	17.0468
588.366	14.3299
591.259	12.609
594.152	7.56085
597.044	3.76051
599.937	1.42691
602.83	1.00075
605.723	0.700668
608.615	0.832657
611.508	1.44301
614.401	1.05507
617.293	0.512268
620.186	0.407562
623.079	0.115143
625.971	0.25824
628.864	1.06497
631.757	2.41954
634.65	3.2182
637.542	4.13864
640.435	6.90086
643.328	9.45203
646.22	13.5176
649.113	16.7868
652.006	23.9549
654.899	32.3394
657.791	46.637
660.684	64.1139
663.577	87.4452
666.469	115.565
669.362	146.558
672.255	179.323
675.147	190.361
678.04	163.232
680.933	111.784
683.826	70.1865
686.718	44.0752
689.611	28.0307
692.504	19.1332
695.396	11.8898
698.289	7.02713
701.182	4.20985
704.074	3.58252
706.967	1.53473
709.86	1.33707
712.753	0.890381
715.645	0.109177
718.538	0.439545
721.431	0.416473
724.323	0.727631
727.216	1.41634
730.109	2.4016
733.001	3.48785
735.894	4.6389
738.787	5.77109
741.679	7.22427
744.572	9.15286
747.465	8.52853
750.358	9.11827
753.25	7.00032
756.143	5.41663
759.036	5.25922
761.928	5.13329
764.821	4.64616
767.714	4.57272
770.606	2.36218
773.499	4.42862
776.392	2.73996
779.285	1.59576
782.177	1.97827
785.07	1.5977
787.963	1.65503
790.855	0.043289
793.748	1.3885
796.641	2.18599
799.533	0.709015
802.426	0.741882
805.319	0.079544
808.212	0.015274
811.104	0.220535
813.997	0.331329
816.89	0.420212
819.782	0.22522
822.675	0.09668
825.568	1.15982
828.46	0.090515
831.353	0.376144
834.246	0.020905
837.139	0.161163
840.031	0.823181
842.924	0.932419
845.817	0.277573
848.709	0.774582
851.602	1.11328
854.495	2.84595
857.388	3.72287
860.28	4.64027
863.173	5.80765
866.066	7.51495
868.958	10.3701
871.851	11.6379
874.744	14.3861
877.636	17.6568
880.529	20.7766
883.422	24.5715
886.314	29.5739
889.207	31.9487
892.1	34.3579
894.993	33.2563
897.885	29.8769
900.778	25.3772
903.671	19.7683
906.563	16.0637
909.456	12.408
912.349	9.4966
915.241	8.68785
918.134	6.81183
921.027	6.44002
923.92	5.16162
926.812	3.46118
929.705	3.26862
932.598	2.19029
935.49	0.020294
938.383	0.103516
941.276	0.151337
944.168	0.315125
947.061	2.84933
949.954	7.14163
952.847	10.1165
955.739	16.2129
958.632	22.2929
961.525	29.3485
964.417	36.8032
967.31	43.3632
970.203	47.1542
973.096	45.272
975.988	39.2559
978.881	29.1918
981.774	21.5523
984.666	14.2358
987.559	10.2423
990.452	6.42972
993.344	4.74554
996.237	1.4443
999.13	0.411453
1002.02	0.861343
1004.91	0.658798
1007.81	0.603806
1010.7	0.157059
1013.59	1.01746
1016.49	1.74402
1019.38	1.25635
1022.27	0.299118
1025.16	2.12379
1028.06	1.9055
1030.95	2.76561
1033.84	3.57245
1036.73	3.37059
1039.63	3.2829
1042.52	2.91402
1045.41	4.27635
1048.31	4.34982
1051.2	4.35118
1054.09	3.27693
1056.98	3.97406
1059.88	3.29379
1062.77	3.72055
1065.66	3.62587
1068.56	3.51422
1071.45	3.25185
1074.34	3.29152
1077.23	3.13002
1080.12	3.32242
1083.02	2.34061
1085.91	4.04199
1088.8	4.65118
1091.7	7.11525
1094.59	7.98907
1097.48	11.7114
1100.37	7.92787
1103.27	4.07167
1106.16	2.02094
1109.05	1.52748
1111.94	1.57488
1114.84	1.89435
1117.73	2.89081
1120.62	2.69667
1123.52	3.94949
1126.41	3.08641
1129.3	2.72182
1132.19	2.52023
1135.09	1.89038
1137.98	2.28256
1140.87	2.06807
1143.77	1.34503
1146.66	0.168625
1149.55	1.37343
1152.44	1.69333
1155.34	1.3094
1158.23	0.879532
1161.12	0.439575
1164.01	0.906311
1166.91	0.51976
1169.8	0.912994
1172.69	0.206833
1175.58	0.201065
1178.48	0.395172
1181.37	1.34439
1184.26	1.05264
1187.15	1.26836
1190.05	0.681473
1192.94	0.095581
1195.83	2.05162
1198.73	0.90213
1201.62	1.39774
1204.51	1.66838
1207.4	1.86055
1210.3	2.19897
1213.19	0.656616
1216.08	2.61496
1218.97	1.91722
1221.87	2.04694
1224.76	1.7337
1227.65	2.10892
1230.55	1.53043
1233.44	1.58701
1236.33	1.4783
1239.22	1.24309
1242.12	0.606964
1245.01	1.8378
1247.9	1.12544
1250.8	0.691742
1253.69	1.19363
1256.58	1.36349
1259.47	1.8
1262.37	1.41791
1265.26	1.44098
1268.15	0.528641
1271.04	1.17334
1273.94	1.7363
1276.83	1.04266
1279.72	0.802658
1282.61	0.901428
1285.51	1.54071
1288.4	0.540817
1291.29	1.55107
1294.18	1.01512
1297.08	0.003021
