Measurement: Raman, 532 nm, unoriented, Raman Data Processed
Mineral: Ferrowyllieite
Rruff sample: R060178
Ideal chemistry: Na_2_Fe^2+^_2_Al(PO_4_)_3_
Locality: Victory mine, Custer County, South Dakota, USA
Source: Marcus Origlieri
Description: Dark gray massive associated with muscovite
Measured chemistry: (Na_1.30_[box]_0.35_Mn^2+^_0.27_Ca_0.08_)_2_(Fe^2+^_1.78_Mg_0.22_)_Σ=2_(Al_0.75_Fe^3+^_0.25_)_Σ=1_(P_1.00_O_4_)_3_
Raman shift (cm-1)	intensity
150.046	0
152.939	2.15757
155.832	1.24537
158.724	3.06289
161.617	2.21585
164.51	0.722443
167.403	1.15934
170.295	1.41198
173.188	1.87009
176.081	1.80949
178.973	0.771858
181.866	0.330082
184.759	0.217453
187.651	0.02256
190.544	1.32278
193.437	0.339157
196.329	0.991215
199.222	3.43992
202.115	1.95097
205.008	3.80907
207.9	2.80534
210.793	2.5472
213.686	3.87225
216.578	3.83079
219.471	4.48641
222.364	4.93705
225.256	4.8075
228.149	3.53921
231.042	4.68923
233.935	5.15036
236.827	5.66206
239.72	4.40327
242.613	5.4533
245.505	4.39679
248.398	4.29502
251.291	1.89559
254.184	3.24242
257.076	2.32066
259.969	4.17505
262.862	3.50371
265.754	1.28187
268.647	1.09104
271.54	1.86865
274.433	2.23701
277.325	1.61152
280.218	2.22735
283.111	2.48832
286.003	2.91406
288.896	2.2174
291.789	1.36296
294.681	3.18047
297.574	0.200275
300.467	1.77268
303.36	1.2196
306.252	0.145504
309.145	0.091095
312.038	0.292713
314.93	0.577705
317.823	0.185806
320.716	1.01776
323.608	0.144558
326.501	0.019512
329.394	0.906185
332.287	0.82098
335.179	0.750702
338.072	1.59166
340.965	1.69204
343.857	1.76382
346.75	2.55931
349.643	1.82541
352.536	1.6636
355.428	1.67562
358.321	2.11395
361.214	2.45563
364.106	2.48399
366.999	3.77134
369.892	4.72324
372.784	3.48234
375.677	3.16789
378.57	1.59929
381.462	0.876076
384.355	0.686707
387.248	1.09764
390.141	0.257069
393.033	0.569374
395.926	0.777081
398.819	1.53394
401.712	2.36814
404.604	2.18284
407.497	3.1371
410.39	4.14256
413.282	3.85268
416.175	2.65758
419.068	2.70276
421.96	1.97885
424.853	1.40703
427.746	2.22764
430.639	1.54277
433.531	2.46315
436.424	2.93649
439.317	4.58798
442.209	4.01302
445.102	7.24525
447.995	9.19455
450.887	11.1655
453.78	13.2154
456.673	14.2373
459.566	15.1746
462.458	18.3431
465.351	22.092
468.244	25.4861
471.136	26.9167
474.029	29.9838
476.922	30.2918
479.815	27.3285
482.707	25.8306
485.6	24.2947
488.493	21.932
491.385	21.1025
494.278	19.4046
497.171	18.7572
500.063	16.4973
502.956	15.269
505.849	14.353
508.741	11.1495
511.634	8.96418
514.527	8.369
517.42	7.36072
520.312	5.40191
523.205	2.71044
526.098	0.797819
528.99	0.083145
531.883	1.06439
534.776	0.531368
537.669	0.281885
540.561	0.67667
543.454	1.04884
546.347	2.54334
549.239	3.11228
552.132	5.001
555.025	7.18091
557.918	8.49293
560.81	9.73902
563.703	10.1815
566.596	11.6152
569.488	11.2302
572.381	11.4506
575.274	11.6425
578.166	13.2523
581.059	14.285
583.952	15.8957
586.845	16.3535
589.737	18.9354
592.63	19.9538
595.523	20.6394
598.415	22.5927
601.308	24.5453
604.201	24.2863
607.093	23.8919
609.986	23.2814
612.879	23.1864
615.771	22.6095
618.664	22.4109
621.557	20.2188
624.45	19.9282
627.342	17.1594
630.235	13.8101
633.128	11.7693
636.02	9.14234
638.913	5.82744
641.806	4.87636
644.699	3.84677
647.591	3.50133
650.484	2.62283
653.377	1.03304
656.269	1.35068
659.162	0.177135
662.055	0.480667
664.947	0.000832
667.84	0.688011
670.733	0.266907
673.626	0.715866
676.518	0.75285
679.411	0.451372
682.304	0.195904
685.197	0.412437
688.089	0.00876
690.982	0.101326
693.875	0.192898
696.767	0.568665
699.66	0.984547
702.553	0.304771
705.445	0.288839
708.338	0.141428
711.231	0.624987
714.124	0.185701
717.016	0.769417
719.909	1.14497
722.802	0.153872
725.694	1.3092
728.587	1.25827
731.48	0.889999
734.372	0.820505
737.265	0.652386
740.158	0.942163
743.051	1.26294
745.943	1.68308
748.836	0.858418
751.729	0.407206
754.621	0.599096
757.514	0.044664
760.407	0.138468
763.299	0.561375
766.192	0.889788
769.085	0.66795
771.977	1.15037
774.87	1.60776
777.763	1.47446
780.656	0.921972
783.548	0.549362
786.441	0.814383
789.334	1.35299
792.226	1.63323
795.119	1.6203
798.012	1.36741
800.905	1.64613
803.797	0.981619
806.69	1.50719
809.583	1.13656
812.475	1.72001
815.368	2.009
818.261	1.78594
821.154	2.23605
824.046	2.27967
826.939	2.4035
829.832	2.71647
832.724	2.06914
835.617	1.79767
838.51	3.15404
841.403	2.41373
844.295	2.04306
847.188	3.0331
850.081	3.1479
852.973	3.55826
855.866	3.14613
858.759	3.90254
861.651	3.38878
864.544	3.34112
867.437	2.6121
870.33	2.16299
873.222	2.03891
876.115	1.82482
879.008	1.167
881.9	1.19815
884.793	1.30598
887.686	0.960201
890.578	0.301447
893.471	0.243387
896.364	0.408508
899.256	0.30455
902.149	0.258982
905.042	0.412729
907.935	0.661919
910.827	0.860142
913.72	0.172546
916.613	0.653189
919.505	0.288906
922.398	0.344606
925.291	1.66303
928.184	2.52244
931.076	3.58268
933.969	4.96569
936.862	7.93087
939.754	10.2417
942.647	13.3367
945.54	16.9374
948.433	20.5808
951.325	23.9893
954.218	28.129
957.111	32.8758
960.003	38.3019
962.896	45.8486
965.789	52.9086
968.682	64.7457
971.574	76.7893
974.467	89.4911
977.36	101.581
980.252	110.568
983.145	112.332
986.038	110.441
988.93	104.473
991.823	93.3803
994.716	83.439
997.609	70.8519
1000.5	59.1075
1003.39	48.6628
1006.29	39.5091
1009.18	32.268
1012.07	27.9944
1014.97	23.6849
1017.86	20.6674
1020.75	16.7569
1023.64	13.6779
1026.54	12.6265
1029.43	10.6769
1032.32	9.24852
1035.21	8.84256
1038.11	6.31908
1041	5.64353
1043.89	4.29619
1046.78	2.66192
1049.68	2.76677
1052.57	2.24734
1055.46	1.07828
1058.36	0.598934
1061.25	0.827187
1064.14	0.507858
1067.03	1.01556
1069.93	1.27546
1072.82	0.736485
1075.71	0.587639
1078.6	0.096077
1081.5	0.847557
1084.39	2.11853
1087.28	3.38408
1090.17	4.56926
1093.07	4.8898
1095.96	6.01125
1098.85	5.63706
1101.75	7.66497
1104.64	8.19212
1107.53	8.77435
1110.42	10.7513
1113.32	11.1154
1116.21	13.7229
1119.1	14.0622
1121.99	13.1671
1124.89	13.3091
1127.78	13.4148
1130.67	11.573
1133.57	11.5847
1136.46	11.8307
1139.35	9.97759
1142.24	10.2714
1145.14	9.15115
1148.03	7.69351
1150.92	6.8706
1153.81	7.40358
1156.71	6.82117
1159.6	6.97695
1162.49	7.14522
1165.38	8.31589
1168.28	7.73116
1171.17	8.00462
1174.06	6.41841
1176.96	6.21271
1179.85	6.08347
1182.74	5.21727
1185.63	4.32328
1188.53	4.9619
1191.42	2.68343
1194.31	2.12083
1197.2	0.610172
1200.1	0.79179
1202.99	0.015684
1205.88	0.035641
1208.78	0.451488
1211.67	0.729487
1214.56	0.116782
1217.45	0.091348
1220.35	0.084536
1223.24	0.748889
1226.13	0.540756
1229.03	1.61106
1231.92	0.766134
1234.81	2.15233
1237.7	0.778912
1240.6	0.480114
1243.49	1.22282
1246.38	1.68703
1249.27	1.49853
1252.17	2.13307
1255.06	2.01867
1257.95	1.68411
1260.84	1.27774
1263.74	2.0391
1266.63	0.985756
1269.52	0.97205
1272.41	1.75903
1275.31	1.76001
1278.2	0.866821
1281.09	1.74111
1283.99	1.14947
1286.88	0.789733
1289.77	1.35475
1292.66	0.393162
1295.56	1.33757
1298.45	0.764693
1301.34	1.38997
