Measurement: Raman, 532 nm, unoriented, Raman Data Processed
Mineral: Ferrohogbomite-2N2S
Rruff sample: R070156
Ideal chemistry: (Fe,Mg,Zn,Al)_3_(Al,Ti,Fe)_8_O_15_(OH)
Locality: Norway
Source: James Shigley
Description: Black vitreous fragments embedded in fine-grained magnetite
Raman shift (cm-1)	intensity
135.718	0
138.611	25.9226
141.504	42.6544
144.396	1.5089
147.289	44.6278
150.182	48.4972
153.074	68.1683
155.967	64.8943
158.86	37.2507
161.752	60.7059
164.645	42.2753
167.538	12.9753
170.431	52.6381
173.323	55.7388
176.216	57.7467
179.109	46.0686
182.001	46.4673
184.894	89.4959
187.787	91.1793
190.679	72.2779
193.572	85.392
196.465	77.604
199.358	63.0651
202.25	38.2352
205.143	52.2426
208.036	32.2488
210.928	43.313
213.821	14.1806
216.714	7.10825
219.607	2.35983
222.499	1.98502
225.392	20.2365
228.285	5.40649
231.177	1.02564
234.07	5.00546
236.963	28.4795
239.855	3.12891
242.748	5.04044
245.641	1.72791
248.534	14.678
251.426	17.6034
254.319	24.0333
257.212	21.7631
260.104	14.1134
262.997	10.7137
265.89	17.9741
268.782	20.2049
271.675	29.8258
274.568	43.5445
277.461	45.0249
280.353	65.022
283.246	66.6183
286.139	61.1617
289.031	83.8142
291.924	75.5374
294.817	100.501
297.709	106.838
300.602	117.5
303.495	99.3498
306.387	143.095
309.28	116.853
312.173	114.193
315.066	107.886
317.958	114.418
320.851	94.2821
323.744	71.5811
326.636	83.3517
329.529	62.192
332.422	47.2332
335.315	37.5469
338.207	40.3938
341.1	25.8722
343.993	28.9438
346.885	23.8217
349.778	12.442
352.671	23.9665
355.563	2.16421
358.456	2.45868
361.349	13.1039
364.241	9.6694
367.134	19.7088
370.027	1.16513
372.92	24.0775
375.812	32.4791
378.705	31.5683
381.598	27.4661
384.49	66.3456
387.383	76.2337
390.276	85.695
393.168	100.217
396.061	155.544
398.954	169.416
401.847	175.596
404.739	164.094
407.632	128.03
410.525	64.6998
413.417	58.2818
416.31	47.3124
419.203	39.5868
422.096	34.0668
424.988	29.5579
427.881	23.923
430.774	14.2654
433.666	0.379211
436.559	9.17453
439.452	0.101288
442.344	1.76175
445.237	31.1765
448.13	26.0171
451.022	15.0883
453.915	8.42889
456.808	31.1541
459.701	8.09705
462.593	26.99
465.486	23.6047
468.379	0.889923
471.271	1.32565
474.164	22.7307
477.057	15.8015
479.95	11.7645
482.842	6.01373
485.735	18.0651
488.628	29.5149
491.52	3.59351
494.413	28.7217
497.306	45.2524
500.198	25.3461
503.091	43.8345
505.984	25.0908
508.877	41.3254
511.769	60.364
514.662	71.7572
517.555	79.5765
520.447	100.813
523.34	148.954
526.233	107.103
529.125	188.867
532.018	189.934
534.911	240.984
537.803	247.522
540.696	254.008
543.589	276.361
546.482	256.191
549.374	220.177
552.267	214.325
555.16	167.681
558.052	166.963
560.945	114.118
563.838	85.3958
566.731	84.7787
569.623	63.2516
572.516	51.2775
575.409	32.9117
578.301	36.8613
581.194	14.2097
584.087	11.256
586.979	23.5531
589.872	17.8705
592.765	11.5768
595.658	3.36084
598.55	18.5412
601.443	10.1856
604.336	32.0299
607.228	40.2844
610.121	17.6523
613.014	28.95
615.907	44.0242
618.799	69.3017
621.692	59.4171
624.585	58.6259
627.477	66.3048
630.37	125.381
633.263	131.607
636.155	169.278
639.048	197.794
641.941	303.011
644.833	301.803
647.726	396.743
650.619	465.379
653.512	588.455
656.404	698.266
659.297	788.85
662.19	884.359
665.082	975.96
667.975	1020.38
670.868	985.61
673.76	944.413
676.653	848.476
679.546	730.09
682.439	631.238
685.331	581.06
688.224	476.187
691.117	404.821
694.009	309.503
696.902	278.666
699.795	224.593
702.688	181.914
705.58	147.049
708.473	101.858
711.366	80.6288
714.258	57.9093
717.151	36.2528
720.044	14.244
722.936	8.47476
725.829	3.52902
728.722	4.99527
731.615	3.78024
734.507	9.19623
737.4	2.17264
740.293	15.4381
743.185	6.00522
746.078	15.9658
748.971	30.8382
751.863	40.248
754.756	29.0573
757.649	48.9492
760.542	41.6243
763.434	18.8933
766.327	34.6229
769.22	34.4796
772.112	8.08585
775.005	32.614
777.898	5.30948
780.79	31.533
783.683	20.1445
786.576	41.7536
789.468	23.743
792.361	17.9257
795.254	8.80508
798.147	33.7931
801.039	8.20547
803.932	36.99
806.825	6.85365
809.717	32.813
812.61	16.2964
815.503	25.757
818.395	19.9441
821.288	7.45335
824.181	19.402
827.074	17.3694
829.966	27.7942
832.859	8.29494
835.752	15.8276
838.644	43.6954
841.537	11.673
844.43	11.3095
847.322	23.5985
850.215	52.585
853.108	9.12253
856.001	25.1778
858.893	28.7949
861.786	22.7859
864.679	16.9648
867.571	48.3602
870.464	29.4621
873.357	37.8617
876.25	10.5363
879.142	35.796
882.035	54.0999
884.928	46.5769
887.82	4.45018
890.713	0.666183
893.606	49.6496
896.498	16.1567
899.391	16.1059
902.284	10.5866
905.177	26.9006
908.069	39.4311
910.962	21.8284
913.855	26.6004
916.747	46.2225
919.64	28.4541
922.533	53.6311
925.425	32.6974
928.318	33.7631
931.211	7.13721
934.104	28.4169
936.996	26.5619
939.889	27.2429
942.782	45.9413
945.674	31.227
948.567	13.6115
951.46	31.7981
954.352	0.037277
957.245	38.1285
960.138	17.2382
963.031	32.7384
965.923	27.1934
968.816	19.5405
971.709	46.8482
974.601	25.8348
977.494	13.5718
980.387	14.3561
983.279	25.5778
986.172	20.1858
989.065	30.4295
991.958	58.7249
994.85	39.0701
997.743	10.3888
1000.64	55.0095
1003.53	17.7609
1006.42	64.7942
1009.31	21.6086
1012.21	39.0452
1015.1	16.3897
1017.99	4.46225
1020.88	4.84378
1023.78	16.0467
1026.67	17.1344
1029.56	34.3638
1032.45	40.6527
1035.35	4.02342
1038.24	41.3058
1041.13	29.1566
1044.03	44.6089
1046.92	33.3654
1049.81	4.19908
1052.7	27.4651
1055.6	20.9806
1058.49	26.2887
1061.38	16.6528
1064.28	4.54038
1067.17	31.1712
1070.06	26.2628
1072.95	9.93216
1075.85	19.6192
1078.74	28.2426
1081.63	7.65468
1084.52	7.57298
1087.42	2.20731
1090.31	44.0971
1093.2	18.4458
1096.1	39.2212
1098.99	14.4709
1101.88	33.2755
1104.77	27.5613
1107.67	16.2099
1110.56	11.4758
1113.45	10.861
1116.34	27.6737
1119.24	17.8714
1122.13	20.0859
1125.02	1.94019
1127.91	5.69484
1130.81	15.1777
1133.7	15.5078
1136.59	20.4308
1139.48	18.9944
1142.38	11.0036
1145.27	36.56
1148.16	19.6165
1151.06	28.3977
1153.95	7.74451
1156.84	54.0825
1159.73	4.14236
1162.63	7.10579
1165.52	12.3618
1168.41	4.46718
1171.31	39.5115
1174.2	17.6708
1177.09	21.6356
1179.98	13.5432
1182.88	18.4487
1185.77	26.3169
1188.66	17.4441
1191.55	35.7801
1194.45	45.6162
1197.34	26.1242
1200.23	31.9799
1203.12	50.5679
1206.02	18.4069
1208.91	22.9029
1211.8	38.7655
1214.7	47.1977
1217.59	50.5963
1220.48	23.1244
1223.37	38.8537
1226.27	29.2668
1229.16	2.02142
1232.05	8.46181
1234.94	45.8829
1237.84	50.625
1240.73	0.153931
1243.62	24.4357
1246.52	33.1333
1249.41	30.9785
1252.3	22.3736
1255.19	3.50284
1258.09	22.1857
1260.98	39.7221
1263.87	12.269
1266.76	26.5327
1269.66	8.17455
1272.55	24.9885
1275.44	0
