Measurement: Raman, 785 nm, unoriented, Raman Data Processed
Mineral: Ferroericssonite
Rruff sample: R070406
Ideal chemistry: BaFe^2+^_2_Fe^3+^(Si_2_O_7_)O(OH)
Locality: Big Creek, Fresno County, California, USA
Source: Michael Scott
Description: Dark reddish brown platy crystals, associated with dark brown titantaramellite, prismatic pale-green ferro-actinolite, quartz, and devitoite, R120091.
Raman shift (cm-1)	intensity
157.66	0
160.553	13.1248
163.446	109.01
166.338	24.0338
169.231	59.4867
172.124	30.6915
175.017	98.7168
177.909	132.862
180.802	197.391
183.695	291.36
186.587	406.299
189.48	514.071
192.373	571.404
195.265	590.305
198.158	571.181
201.051	578.428
203.944	568.178
206.836	547.429
209.729	421.463
212.622	356.041
215.514	323.702
218.407	266.707
221.3	259.476
224.192	232.648
227.085	243.561
229.978	249.961
232.87	299.509
235.763	316.637
238.656	325.117
241.549	267.589
244.441	208.453
247.334	167.828
250.227	105.149
253.119	91.1836
256.012	92.5862
258.905	68.8889
261.798	94.5697
264.69	63.1149
267.583	20.4669
270.476	5.1521
273.368	4.3241
276.261	30.5602
279.154	2.25684
282.046	26.3418
284.939	67.9299
287.832	83.2717
290.724	98.5682
293.617	117.938
296.51	118.738
299.403	167.65
302.295	180.312
305.188	201.159
308.081	189.004
310.973	130.723
313.866	111.641
316.759	87.0696
319.651	72.8622
322.544	47.1529
325.437	64.3456
328.33	11.5142
331.222	2.08081
334.115	2.7655
337.008	8.07605
339.9	19.9352
342.793	6.45642
345.686	27.4308
348.579	98.0172
351.471	154.976
354.364	216.709
357.257	219.517
360.149	200.767
363.042	235.254
365.935	228.773
368.827	255.092
371.72	307.835
374.613	367.238
377.505	433.642
380.398	549.723
383.291	642.35
386.184	733.209
389.076	852.325
391.969	897.219
394.862	797.629
397.754	542.721
400.647	376.422
403.54	262.865
406.433	150.655
409.325	60.1233
412.218	77.2695
415.111	60.2082
418.003	57.6177
420.896	67.9236
423.789	32.5215
426.681	54.6559
429.574	7.18127
432.467	16.8701
435.36	30.39
438.252	0.26123
441.145	47.9595
444.038	99.0643
446.93	193.613
449.823	401.474
452.716	598.458
455.608	914.785
458.501	1428.94
461.394	2045.02
464.286	2305.11
467.179	1847.5
470.072	1200.3
472.965	864.816
475.857	626.809
478.75	476.333
481.643	336.537
484.535	256.364
487.428	193.286
490.321	156.839
493.214	109.687
496.106	105.907
498.999	73.1946
501.892	48.2144
504.784	43.481
507.677	3.3988
510.57	19.6183
513.462	23.2671
516.355	22.8257
519.248	2.31909
522.14	15.7084
525.033	3.94592
527.926	7.72424
530.819	29.7034
533.711	13.3651
536.604	9.16223
539.497	14.556
542.389	13.5548
545.282	2.06995
548.175	4.8634
551.067	23.6294
553.96	36.9735
556.853	67.6519
559.745	115.071
562.638	182.57
565.531	257.241
568.424	330.157
571.316	386.67
574.209	279.552
577.102	188.084
579.994	106.782
582.887	48.344
585.78	30.6732
588.673	11.1836
591.565	8.97876
594.458	3.50012
597.351	20.3746
600.243	7.53748
603.136	8.14673
606.029	6.30725
608.921	47.8425
611.814	58.171
614.707	122.979
617.6	154.601
620.492	258.011
623.385	288.089
626.278	369.727
629.17	473.889
632.063	503.545
634.956	551.038
637.848	568.112
640.741	691.648
643.634	843.407
646.527	1052.4
649.419	1336.38
652.312	1747.02
655.205	2296.13
658.097	2761.3
660.99	3119.56
663.883	2988.48
666.775	2518.82
669.668	1991.06
672.561	1470.41
675.454	1081.78
678.346	793.361
681.239	561.354
684.132	408.824
687.024	273.024
689.917	202.516
692.81	176.918
695.702	134.409
698.595	116.913
701.488	93.5261
704.381	28.3977
707.273	74.9167
710.166	31.0206
713.059	32.7638
715.951	31.4462
718.844	18.4679
721.737	21.767
724.63	15.1355
727.522	2.91888
730.415	16.6632
733.308	6.07465
736.2	20.8669
739.093	20.9545
741.986	7.15301
744.878	13.0798
747.771	9.09338
750.664	8.69708
753.557	7.56891
756.449	1.03748
759.342	1.03796
762.235	11.3
765.127	6.84338
768.02	17.7715
770.913	11.515
773.805	22.1744
776.698	23.119
779.591	51.3973
782.484	9.03473
785.376	54.5547
788.269	43.7914
791.162	91.3748
794.054	112.028
796.947	115.178
799.84	98.7866
802.732	109.353
805.625	77.1579
808.518	84.0613
811.41	59.0884
814.303	18.8708
817.196	70.9661
820.089	53.114
822.981	61.9481
825.874	30.5101
828.767	25.5436
831.659	35.9634
834.552	1.32922
837.445	11.2794
840.337	1.70898
843.23	22.5742
846.123	18.0806
849.016	33.6309
851.908	18.5803
854.801	4.89123
857.694	7.00891
860.586	6.47607
863.479	5.1499
866.372	24.3408
869.264	39.1674
872.157	54.7936
875.05	115.527
877.943	145.744
880.835	199.591
883.728	390.356
886.621	619.112
889.513	885.174
892.406	1273.33
895.299	1435.77
898.192	1180.36
901.084	757.774
903.977	459.752
906.87	269.696
909.762	237.62
912.655	218.261
915.548	205.257
918.44	211.843
921.333	245.521
924.226	275.713
927.119	363.448
930.011	432.976
932.904	385.372
935.797	318.596
938.689	222.379
941.582	148.264
944.475	84.1556
947.367	103.686
950.26	27.7086
953.153	35.9341
956.045	14.2194
958.938	5.29028
961.831	17.2122
964.724	5.20984
967.616	10.4884
970.509	5.42139
973.402	12.9097
976.294	27.5162
979.187	18.9947
982.08	21.0966
984.972	44.3616
987.865	81.6603
990.758	65.3912
993.651	74.9771
996.543	55.5741
999.436	101.723
1002.33	126.15
1005.22	91.5204
1008.11	54.9129
1011.01	74.8511
1013.9	65.7637
1016.79	94.9429
1019.68	70.3587
1022.58	81.0031
1025.47	91.3724
1028.36	70.5967
1031.26	9.2359
1034.15	30.48
1037.04	28.4663
1039.93	7.19727
1042.83	10.3601
1045.72	20.8174
1048.61	18.1219
1051.51	31.1559
1054.4	41.6512
1057.29	9.69788
1060.18	15.7962
1063.08	35.3806
1065.97	9.71643
1068.86	4.45813
1071.75	17.4954
1074.65	39.4202
1077.54	29.399
1080.43	72.3384
1083.32	24.1461
1086.22	27.7479
1089.11	32.915
1092	20.1559
1094.89	33.9374
1097.79	60.7306
1100.68	64.2587
1103.57	38.9822
1106.47	39.6906
1109.36	29.4779
1112.25	46.6721
1115.14	46.5812
1118.04	52.8813
1120.93	57.489
1123.82	65.5444
1126.71	61.8655
1129.61	59.3314
1132.5	71.8752
1135.39	68.353
1138.29	41.663
1141.18	60.6977
1144.07	26.0435
1146.96	19.7673
1149.86	33.0514
1152.75	36.7675
1155.64	0.981873
1158.53	59.1411
1161.43	3.40265
1164.32	40.1367
1167.21	0.025696
1170.11	17.4598
1173	27.2166
1175.89	1.36676
1178.78	38.0808
1181.68	54.5051
1184.57	32.1162
1187.46	29.6939
1190.35	20.9661
1193.25	47.322
1196.14	61.8353
1199.03	41.1954
1201.92	28.3763
1204.82	21.1101
1207.71	27.1252
1210.6	31.0494
1213.5	11.2344
1216.39	24.3693
1219.28	14.1177
1222.17	14.3633
1225.07	5.13257
