Measurement: Raman, 780 nm, unoriented, Raman Data Processed
Mineral: Ferrowodginite
Rruff sample: R120166
Ideal chemistry: Fe^2+^(Sn^4+^,Ti,Ta,Fe^3+^)(Ta,Nb)_2_O_8_
Locality: Nyanga #2 pegmatite, Ankloe, Uganda
Source: Rock Currier
Raman shift (cm-1)	intensity
186.659	0
189.551	1.75345
192.444	2.36179
195.337	0.1875
198.229	0.752991
201.122	2.27188
204.015	4.24026
206.907	8.43561
209.8	11.4681
212.693	16.3837
215.586	21.0597
218.478	26.7925
221.371	30.384
224.264	35.9066
227.156	31.7364
230.049	33.6358
232.942	35.8779
235.834	33.429
238.727	35.3449
241.62	29.9095
244.513	30.6883
247.405	25.5186
250.298	19.5357
253.191	14.735
256.083	14.242
258.976	10.4231
261.869	12.1501
264.762	9.74499
267.654	14.8149
270.547	22.1832
273.44	30.6633
276.332	40.0602
279.225	52.7827
282.118	65.1752
285.01	71.5853
287.903	71.4865
290.796	75.9754
293.688	70.2416
296.581	68.0777
299.474	64.0977
302.366	65.1986
305.259	63.899
308.152	56.5138
311.045	47.6632
313.937	36.024
316.83	22.8868
319.723	13.5455
322.615	5.13608
325.508	2.58118
328.401	0.735443
331.293	3.49591
334.186	3.09106
337.079	1.74454
339.972	0.340363
342.864	0.895447
345.757	1.90634
348.65	2.34808
351.542	1.4993
354.435	4.91202
357.328	10.3268
360.221	13.4963
363.113	13.8485
366.006	18.4317
368.899	25.5562
371.791	30.4315
374.684	35.3554
377.577	43.351
380.469	50.1056
383.362	54.5397
386.255	60.4719
389.147	62.0232
392.04	68.0703
394.933	71.2065
397.826	73.7652
400.718	72.1434
403.611	70.778
406.504	68.9655
409.396	64.763
412.289	59.873
415.182	55.0543
418.075	48.6944
420.967	43.2699
423.86	36.2577
426.753	28.9733
429.645	23.4883
432.538	21.1291
435.431	16.336
438.323	14.8151
441.216	11.8958
444.109	12.1236
447.001	10.2443
449.894	8.15631
452.787	8.36691
455.68	9.1073
458.572	8.39423
461.465	9.66989
464.358	8.29935
467.25	9.40955
470.143	11.3413
473.036	12.1352
475.928	9.6731
478.821	11.6374
481.714	16.1652
484.606	15.8242
487.499	13.1276
490.392	11.3455
493.285	10.259
496.177	7.36002
499.07	7.24948
501.963	9.1561
504.855	5.09534
507.748	5.21643
510.641	5.59436
513.534	5.19247
516.426	1.27081
519.319	1.86713
522.212	0.891266
525.104	0.66922
527.997	0.178101
530.89	3.35245
533.782	2.66242
536.675	1.49249
539.568	1.17718
542.46	0.790771
545.353	1.15817
548.246	4.36606
551.139	5.90848
554.031	7.84668
556.924	10.6187
559.817	14.478
562.709	14.2456
565.602	16.8234
568.495	17.5212
571.388	19.0219
574.28	19.4182
577.173	21.3476
580.066	20.8655
582.958	20.4582
585.851	25.6624
588.744	23.1405
591.636	20.7056
594.529	17.1446
597.422	17.3326
600.314	17.7716
603.207	16.8516
606.1	20.8271
608.993	20.4742
611.885	20.0684
614.778	23.8485
617.671	25.0921
620.563	26.0668
623.456	27.1625
626.349	28.6508
629.241	29.3899
632.134	30.5006
635.027	30.1347
637.919	33.1942
640.812	32.9825
643.705	33.5714
646.598	33.0082
649.49	31.6121
652.383	31.9705
655.276	31.8799
658.168	29.2831
661.061	25.6848
663.954	24.9826
666.846	22.6498
669.739	20.2721
672.632	19.2326
675.525	15.9523
678.417	13.8686
681.31	10.3112
684.203	8.63455
687.095	7.16376
689.988	3.12833
692.881	3.31503
695.774	1.18253
698.666	2.72562
701.559	2.75168
704.452	1.2305
707.344	2.45187
710.237	2.07349
713.13	2.46649
716.022	1.07361
718.915	1.88327
721.808	2.92306
724.7	4.13467
727.593	5.79617
730.486	8.54538
733.379	10.3802
736.271	10.8402
739.164	13.6099
742.057	12.8721
744.949	15.8307
747.842	14.6982
750.735	18.68
753.627	18.3313
756.52	18.7241
759.413	18.9648
762.306	19.6099
765.198	21.7713
768.091	19.6233
770.984	22.959
773.876	21.9992
776.769	21.0569
779.662	19.5693
782.554	20.3776
785.447	18.8594
788.34	22.2179
791.232	23.6168
794.125	20.6115
797.018	20.9148
799.911	20.8244
802.803	22.7265
805.696	23.91
808.589	25.644
811.481	30.4219
814.374	31.8773
817.267	32.9465
820.159	38.7485
823.052	41.0321
825.945	45.9421
828.838	50.7062
831.73	54.9269
834.623	58.625
837.516	62.8609
840.408	66.3206
843.301	72.8734
846.194	78.8418
849.087	85.7062
851.979	93.3457
854.872	97.3866
857.765	100.982
860.657	101.241
863.55	100.882
866.443	96.8521
869.335	87.1252
872.228	73.7815
875.121	61.3085
878.013	46.7401
880.906	33.5224
883.799	24.6617
886.692	15.7695
889.584	8.06982
892.477	3.84941
895.37	0.363419
898.262	1.30992
901.155	2.47166
904.048	2.8148
906.94	3.47484
909.833	2.25195
912.726	1.45694
915.619	0.131378
918.511	2.03734
921.404	2.09589
924.297	2.51669
927.189	4.75496
930.082	5.71928
932.975	6.60149
935.867	8.73483
938.76	9.29694
941.653	9.45688
944.545	11.403
947.438	11.7474
950.331	12.9685
953.224	13.2017
956.116	14.5274
959.009	15.8075
961.902	13.8668
964.794	12.9199
967.687	11.3091
970.58	10.3609
973.472	8.80202
976.365	8.84592
979.258	7.32367
982.151	8.4557
985.043	6.68307
987.936	7.17989
990.829	6.15933
993.721	5.8738
996.614	6.47195
999.507	5.52999
1002.4	4.72234
1005.29	5.23669
1008.18	5.1033
1011.08	4.06702
1013.97	3.15825
1016.86	3.30571
1019.76	3.50719
1022.65	3.83492
1025.54	2.78168
1028.43	4.12814
1031.33	2.83048
1034.22	2.48039
1037.11	2.08592
1040.01	1.56083
1042.9	0.959213
1045.79	1.54371
1048.68	1.13803
1051.58	0.331154
1054.47	1.95947
1057.36	1.22687
1060.25	1.81953
1063.15	0.546768
1066.04	0.002625
1068.93	0.791389
1071.82	0.672211
1074.72	0.931755
1077.61	0.760017
1080.5	3.08667
1083.39	1.23438
1086.29	0.70771
1089.18	0.199753
1092.07	1.22846
1094.97	0.082367
1097.86	0.262459
1100.75	1.33775
1103.64	0.574463
1106.54	0.663651
1109.43	0.222511
1112.32	0.19696
1115.21	0.453049
1118.11	0.74408
1121	0.565254
1123.89	0.061539
1126.79	0.987854
1129.68	0.954742
1132.57	0.629951
1135.46	0.713394
1138.36	0.920135
1141.25	0.304596
1144.14	0.284126
1147.03	1.2849
1149.93	0.711082
1152.82	0.914078
1155.71	1.57497
1158.61	2.29911
1161.5	2.0565
1164.39	1.94031
1167.28	1.87493
1170.18	2.49902
1173.07	2.58136
1175.96	0.490364
1178.85	1.88582
1181.75	1.27291
1184.64	1.56274
1187.53	1.62309
1190.42	2.62323
1193.32	2.05592
1196.21	1.28474
1199.1	1.3549
1202	1.76404
1204.89	1.01354
1207.78	0.906677
1210.67	1.28863
1213.57	1.08514
1216.46	1.02208
1219.35	1.67685
1222.24	0.932686
1225.14	2.35469
1228.03	0.475403
1230.92	0.066681
1233.82	1.19575
1236.71	1.159
1239.6	0.627274
1242.49	0.359123
1245.39	0.771713
1248.28	1.32146
1251.17	1.50931
1254.06	0.14328
1256.96	1.14124
1259.85	2.22604
1262.74	2.25552
1265.63	1.7887
1268.53	0.502136
1271.42	0.451042
1274.31	0.980515
1277.21	0.019958
1280.1	1.45848
1282.99	0.581177
