Measurement: Raman, 785 nm, unoriented, Raman Data Processed
Mineral: Fersmite
Rruff sample: R060717
Ideal chemistry: (Ca,Ce,Na)(Nb,Ta,Ti)_2_(O,OH,F)_6_
Locality: Lueshe carbonatite, Kivu Province, Democratic Republic of the Congo
Source: Michael Scott
Description: Dark brown coating on octahedral columbite crystals
Raman shift (cm-1)	intensity
181.793	0
184.685	2.542
187.578	184.09
190.471	232.518
193.363	310.972
196.256	376.977
199.149	630.116
202.042	732.656
204.934	999.344
207.827	899.184
210.72	942.482
213.612	875.391
216.505	855.026
219.398	743.372
222.29	682.073
225.183	729.563
228.076	626.552
230.969	545.601
233.861	533.301
236.754	575.882
239.647	813.064
242.539	843.693
245.432	967.676
248.325	864.467
251.217	1011.82
254.11	1050.14
257.003	1159.64
259.896	1242.52
262.788	1288.02
265.681	1402.9
268.574	1112.45
271.466	933.226
274.359	969.83
277.252	896.107
280.144	1137.9
283.037	1436.97
285.93	1610.66
288.823	1429.4
291.715	996.837
294.608	721.021
297.501	434.356
300.393	545.652
303.286	944.135
306.179	1012.93
309.071	897.369
311.964	590.51
314.857	372.539
317.75	50.172
320.642	204.357
323.535	13.328
326.428	229.398
329.32	347.292
332.213	490.082
335.106	309.921
337.998	128.347
340.891	11.485
343.784	7.883
346.677	41.876
349.569	288.645
352.462	414.168
355.355	413.896
358.247	227.33
361.14	158.163
364.033	180.538
366.925	173.026
369.818	387.108
372.711	783.942
375.603	1064.68
378.496	1279.66
381.389	1247.34
384.282	1299.63
387.174	1466.82
390.067	1783.44
392.96	2192.42
395.852	2599.42
398.745	2729.75
401.638	2763.56
404.53	2344.9
407.423	1939.01
410.316	1620.95
413.209	1211.78
416.101	976.554
418.994	817.91
421.887	497.266
424.779	384.451
427.672	282.584
430.565	10.619
433.457	10.606
436.35	33.762
439.243	19.055
442.136	0.153
445.028	46.068
447.921	7.024
450.814	0.489
453.706	9.454
456.599	8.562
459.492	41.286
462.384	2.202
465.277	6.453
468.17	3.726
471.063	87.45
473.955	119.267
476.848	2.573
479.741	11.849
482.633	10.894
485.526	1.752
488.419	160.913
491.311	285.171
494.204	329.402
497.097	178.634
499.99	36.642
502.882	146.757
505.775	142.032
508.668	314.388
511.56	324.941
514.453	481.41
517.346	830.689
520.239	1016.32
523.131	1102.07
526.024	1130.47
528.917	1096.2
531.809	887.087
534.702	783.391
537.595	759.366
540.487	578.723
543.38	458.081
546.273	336.053
549.166	171.534
552.058	22.951
554.951	53.766
557.844	5.347
560.736	44.755
563.629	51.491
566.522	4.479
569.414	4.643
572.307	30.96
575.2	97.609
578.093	10.855
580.985	2.446
583.878	15.043
586.771	18.911
589.663	4.319
592.556	23.075
595.449	26.66
598.341	2.402
601.234	2.98
604.127	0.074
607.019	3.252
609.912	2.573
612.805	76.038
615.698	0.718
618.59	12.179
621.483	44.189
624.376	37.195
627.268	164.584
630.161	30.999
633.054	161.944
635.946	217.791
638.839	234.816
641.732	282.747
644.625	161.518
647.517	87.455
650.41	57.706
653.303	87.78
656.195	160.593
659.088	144.672
661.981	140.849
664.873	4.285
667.766	100.551
670.659	3.863
673.552	10.236
676.444	4.428
679.337	2.421
682.23	0.487
685.122	104.368
688.015	5.737
690.908	0.448
693.8	5.606
696.693	5.776
699.586	15.221
702.479	0.122
705.371	5.366
708.264	3.431
711.157	2.758
714.049	12.302
716.942	1.977
719.835	16.965
722.727	12.38
725.62	0.425
728.513	15.343
731.406	10.259
734.298	10.127
737.191	20.239
740.084	22.512
742.976	16.532
745.869	5.209
748.762	139.764
751.654	169.389
754.547	63.604
757.44	93.992
760.333	3.862
763.225	2.403
766.118	159.003
769.011	200.624
771.903	114.612
774.796	100.045
777.689	109.414
780.581	18.05
783.474	135.825
786.367	229.435
789.26	307.634
792.152	244
795.045	275.416
797.938	117.931
800.83	315.447
803.723	184.682
806.616	462.8
809.508	574.46
812.401	779.832
815.294	875.85
818.187	862.406
821.079	1168.18
823.972	1246.36
826.865	1482.05
829.757	1885.38
832.65	1971.87
835.543	2458.26
838.435	2538.32
841.328	2789.93
844.221	3211.94
847.114	3824.02
850.006	4534.99
852.899	5071.08
855.792	6067.04
858.684	6841.1
861.577	8020.29
864.47	9084.86
867.362	9982.22
870.255	10621.1
873.148	10762.8
876.041	10758
878.933	10372.6
881.826	9819.93
884.719	8781.41
887.611	7601.02
890.504	6376.2
893.397	4869.26
896.289	3645.6
899.182	2506.65
902.075	1493.67
904.968	851.257
907.86	441.375
910.753	228.084
913.646	2.705
916.538	8.872
919.431	30.858
922.324	13.685
925.216	26.237
928.109	25.44
931.002	6.898
933.894	14.929
936.787	12.442
939.68	16.133
942.573	30.725
945.465	1.167
948.358	9.906
951.251	6.687
954.143	13.115
957.036	10.757
959.929	6.262
962.821	3.005
965.714	14.357
968.607	7.543
971.5	7.293
974.392	2.971
977.285	3.481
980.178	3.349
983.07	1.13
985.963	1.372
988.856	5.285
991.748	18.056
994.641	0.544
997.534	2.094
1000.43	28.958
1003.32	136.769
1006.21	2.58
1009.11	0.296
1012	1.221
1014.89	1.748
1017.78	1.036
1020.68	10.644
1023.57	0.922
1026.46	23.792
1029.35	1.412
1032.25	1.291
1035.14	147.086
1038.03	1.896
1040.92	30.263
1043.82	0.879
1046.71	41.345
1049.6	169.017
1052.49	87.317
1055.39	0.838
1058.28	0.809
1061.17	75.581
1064.07	71.672
1066.96	29.44
1069.85	79.361
1072.74	34.57
1075.64	78.424
1078.53	96.989
1081.42	0.519
1084.32	134.827
1087.21	41.071
1090.1	54.615
1092.99	0.538
1095.89	0.796
1098.78	12.867
1101.67	3.537
1104.56	51.204
1107.46	20.228
1110.35	11.107
1113.24	23.627
1116.13	8.84
1119.03	1.17
1121.92	3.596
1124.81	0.084
1127.7	47.701
1130.6	40.199
1133.49	71.033
1136.38	15.486
1139.28	0.895
1142.17	0.348
1145.06	63.631
1147.95	68.531
1150.85	26.314
1153.74	117.133
1156.63	12.596
1159.53	10.938
1162.42	3.023
1165.31	85.683
1168.2	52.727
1171.1	138.066
1173.99	147.447
1176.88	119.933
1179.77	192.5
1182.67	216.514
1185.56	208.916
1188.45	207.165
1191.35	261.092
1194.24	195.701
1197.13	206.903
1200.02	255.231
1202.92	262.757
1205.81	328.226
1208.7	274.346
1211.59	117.016
1214.49	145.683
1217.38	56.038
1220.27	76.349
1223.16	0.739
1226.06	82.63
1228.95	30.453
1231.84	70.668
1234.73	69.192
1237.63	36.506
1240.52	83.884
1243.41	128.033
1246.31	67.26
1249.2	82.816
1252.09	35.125
1254.98	28.606
