Measurement: Raman, 785 nm, unoriented, Raman Data Processed
Mineral: Fersmanite
Rruff sample: R070290
Ideal chemistry: Ca_4_(Na,Ca)_4_(Ti,Nb)_4_(Si_2_O_7_)_2_O_8_F_3_
Locality: Vein No. 1 of Labuntsov, 3rd left tributary of Vuonnemijok river, Eveslogchorr Mt, Khibiny Massif, Kola peninsula, Murmanskaja oblast', Northern Region, Russia
Source: Michael Scott
Description: Brown crystals frozen in orthoclase, associated with red eudialyte and black arfvedsonite
Raman shift (cm-1)	intensity
158.625	0
161.035	6.51562
163.446	483.346
165.856	1380.16
168.267	2055.56
170.677	2446.44
173.088	2328.28
175.499	2065.62
177.909	1562.18
180.32	1251.88
182.73	1071.59
185.141	1006.37
187.552	850.189
189.962	815.182
192.373	813.109
194.783	1204.18
197.194	851.797
199.604	859.023
202.015	1131.09
204.426	1059.25
206.836	1147.42
209.247	1140.41
211.657	1237.75
214.068	1136.06
216.478	1161.34
218.889	1091.33
221.3	1022.13
223.71	767.193
226.121	634.723
228.531	478.127
230.942	453.242
233.353	476.176
235.763	568.373
238.174	747.428
240.584	1094.71
242.995	1407.71
245.405	1639.08
247.816	1568.61
250.227	1673.12
252.637	1514.79
255.048	1578.98
257.458	1506.23
259.869	1527.57
262.28	1420.71
264.69	1224.72
267.101	1060.46
269.511	866.906
271.922	664.41
274.332	585.918
276.743	567.295
279.154	601.096
281.564	459.484
283.975	568.742
286.385	626.965
288.796	645.221
291.207	572.557
293.617	613.125
296.028	612.207
298.438	660.359
300.849	639.26
303.26	691.928
305.67	674.152
308.081	383.682
310.491	220.135
312.902	97.9316
315.312	129.527
317.723	215.518
320.134	320.9
322.544	141.793
324.955	29.5898
327.365	360.789
329.776	619.979
332.187	1009.67
334.597	1279.09
337.008	1704.73
339.418	1989.32
341.829	2268.56
344.239	2777.97
346.65	3145.86
349.061	3399.15
351.471	3687.06
353.882	3713.95
356.292	3850.35
358.703	3554.92
361.113	3423.68
363.524	3095.94
365.935	2748.57
368.345	2290.93
370.756	2101.94
373.166	1816.89
375.577	1516.17
377.988	1232.14
380.398	759.084
382.809	538.809
385.219	221.754
387.63	85.3242
390.041	71.0469
392.451	72.5859
394.862	70.0898
397.272	112.012
399.683	79.1836
402.093	116.561
404.504	174.408
406.915	96.9043
409.325	138.912
411.736	35.8828
414.146	73.5391
416.557	115.951
418.967	185.203
421.378	128.346
423.789	223.596
426.199	156.182
428.61	195.236
431.02	159.594
433.431	176.973
435.842	199.598
438.252	175.887
440.663	315.756
443.073	506.473
445.484	631.115
447.894	464.938
450.305	626.818
452.716	587.949
455.126	549.186
457.537	483.949
459.947	452.166
462.358	481.981
464.769	358.086
467.179	215.348
469.59	66.084
472	96.8613
474.411	74.4356
476.822	134.447
479.232	132.512
481.643	32.1465
484.053	11.4023
486.464	181.838
488.874	564.312
491.285	1015.77
493.696	1421.15
496.106	1951.82
498.517	2572.07
500.927	2949.06
503.338	3487.47
505.748	3705.26
508.159	3938.99
510.57	3900.57
512.98	3787.51
515.391	3658.95
517.802	3544.16
520.212	3487.5
522.623	3322.6
525.033	3441.53
527.444	3106.42
529.854	3175.9
532.265	3074.52
534.676	2951.38
537.086	2882.89
539.497	2694.04
541.907	2563.42
544.318	2477.51
546.729	2323.62
549.139	2177.68
551.55	1972.21
553.96	1930.65
556.371	1755.19
558.781	1668.88
561.192	1606.57
563.602	1386.87
566.013	1406.16
568.424	1297.63
570.834	1302.81
573.245	1123.15
575.655	1264.47
578.066	1161.93
580.477	1087.53
582.887	1152.47
585.298	1090.68
587.708	1007.52
590.119	941.064
592.529	766.504
594.94	723.291
597.351	666.854
599.761	625.178
602.172	670.162
604.582	651.252
606.993	547.441
609.404	407.4
611.814	308.135
614.225	249.94
616.635	244.783
619.046	126.055
621.457	125.059
623.867	121.377
626.278	0.009766
628.688	36.5654
631.099	20.4619
633.509	20.4326
635.92	69.5478
638.331	38.3008
640.741	63.8096
643.152	19.5029
645.562	61.2764
647.973	36.2617
650.384	39.0176
652.794	50.708
655.205	148.288
657.615	220.909
660.026	245.182
662.436	324.058
664.847	452.843
667.258	529.722
669.668	518.085
672.079	607.517
674.489	660.587
676.9	565.636
679.311	644.716
681.721	702.269
684.132	592.977
686.542	716.755
688.953	675.279
691.363	769.004
693.774	679.267
696.185	767.224
698.595	777.34
701.006	724.148
703.416	576.398
705.827	543.315
708.237	555.729
710.648	508.693
713.059	400.278
715.469	390.442
717.88	289.923
720.29	224.329
722.701	234.779
725.112	113.353
727.522	33.1182
729.933	20.0811
732.343	10.4443
734.754	30.165
737.164	78.1016
739.575	55.7402
741.986	81.3887
744.396	64.168
746.807	14.9775
749.217	63.4697
751.628	121.231
754.039	141.906
756.449	180.19
758.86	361.235
761.27	460.902
763.681	605.373
766.091	782.447
768.502	886.025
770.913	1113.03
773.323	1262.41
775.734	1458.15
778.144	1585.86
780.555	1808.39
782.966	1904.78
785.376	2120.11
787.787	2333.89
790.197	2464.41
792.608	2583.93
795.019	2698.67
797.429	2828.75
799.84	2759.89
802.25	2847.84
804.661	2791.92
807.071	2812.63
809.482	2761.41
811.893	2754.02
814.303	2638.99
816.714	2552.19
819.124	2398.07
821.535	2421.29
823.946	2247.1
826.356	2216.06
828.767	1970.52
831.177	1753.53
833.588	1574.55
835.998	1349.44
838.409	1201.92
840.82	1010.5
843.23	924.304
845.641	854.932
848.051	837.88
850.462	793.351
852.872	843.012
855.283	803.164
857.694	791.442
860.104	781.856
862.515	888.07
864.925	967.334
867.336	889.945
869.747	926.289
872.157	858.694
874.568	789.414
876.978	787.953
879.389	749.585
881.799	682.688
884.21	578.17
886.621	444.755
889.031	436.796
891.442	295.584
893.852	205.89
896.263	183.133
898.674	47.4199
901.084	8.73535
903.495	10.1357
905.905	38.1494
908.316	24.0654
910.726	120.686
913.137	55.2285
915.548	69.8643
917.958	14.4736
920.369	114.73
922.779	157.243
925.19	272.075
927.601	360.29
930.011	393.693
932.422	477.998
934.832	573.743
937.243	540.552
939.654	608.871
942.064	591.414
944.475	665.65
946.885	667.462
949.296	804.334
951.706	809.197
954.117	949.215
956.528	965.594
958.938	1050.83
961.349	1140.81
963.759	1077.36
966.17	1132.12
968.581	1089.34
970.991	999.986
973.402	978.244
975.812	919.43
978.223	810.655
980.633	838.236
983.044	584.46
985.455	498.142
987.865	290.61
990.276	322.49
992.686	161.317
995.097	93.4668
997.508	10.9268
999.918	90.1318
1002.33	108.03
1004.74	183.782
1007.15	212.477
1009.56	234.812
1011.97	395.115
1014.38	335.342
1016.79	211.511
1019.2	171.885
1021.61	70.8272
1024.02	2.41992
1026.43	29.9844
1028.85	0.584961
1031.26	0.682617
