Measurement: Raman, 532 nm, unoriented, Raman Data Processed
Mineral: Fersmanite
Rruff sample: R070290
Ideal chemistry: Ca_4_(Na,Ca)_4_(Ti,Nb)_4_(Si_2_O_7_)_2_O_8_F_3_
Locality: Vein No. 1 of Labuntsov, 3rd left tributary of Vuonnemijok river, Eveslogchorr Mt, Khibiny Massif, Kola peninsula, Murmanskaja oblast', Northern Region, Russia
Source: Michael Scott
Description: Brown crystals frozen in orthoclase, associated with red eudialyte and black arfvedsonite
Raman shift (cm-1)	intensity
137.609	0
140.984	288.098
144.358	131.715
147.733	642.166
151.108	2267.13
154.483	3566.53
157.858	3913.25
161.233	4066.34
164.607	4461.34
167.982	4949.2
171.357	5393.43
174.732	5255.09
178.107	4818.45
181.482	4439.52
184.856	4199.69
188.231	4008.67
191.606	3888.99
194.981	3716.29
198.356	3606.7
201.731	3518.57
205.105	3913.2
208.48	4166.61
211.855	4506.22
215.23	4113.64
218.605	3969.37
221.979	3466.38
225.354	3060.18
228.729	2935.51
232.104	3071.58
235.479	3140.62
238.853	3641.68
242.228	4318.59
245.603	4935.96
248.978	5447.31
252.353	5760.73
255.727	5521.32
259.102	5437.56
262.477	4912.69
265.852	4571.68
269.227	4485.54
272.602	4227.6
275.976	4139.78
279.351	4138.64
282.726	3708.8
286.101	3619.49
289.476	3550.55
292.851	3488.75
296.225	3511.99
299.6	3424.14
302.975	3059.97
306.35	2313.05
309.725	1600.64
313.099	991.352
316.474	310.082
319.849	13.6348
323.224	300.988
326.599	387.654
329.974	357.685
333.348	202.652
336.723	101.393
340.098	30.8281
343.473	103.641
346.848	92.9863
350.223	266.488
353.597	542.408
356.972	824.381
360.347	1166.98
363.722	1489.22
367.097	2066.27
370.471	2274.53
373.846	2265.47
377.221	2339.97
380.596	2188.2
383.971	2149.91
387.346	1766.42
390.72	1654.81
394.095	1380.77
397.47	1220.81
400.845	1029.96
404.219	786.414
407.594	604.777
410.969	471.035
414.344	339.815
417.719	275.607
421.094	249.74
424.469	369.103
427.843	420.781
431.218	400.33
434.593	494.428
437.968	653.977
441.343	889.684
444.717	1092.01
448.092	1229.08
451.467	1513.31
454.842	1510.82
458.217	1502.38
461.591	1395.38
464.966	990.408
468.341	504.75
471.716	56.8242
475.091	214.613
478.466	358.857
481.84	347.701
485.215	136.043
488.59	949.857
491.965	2151.68
495.34	3736.59
498.714	5515.48
502.089	7055.65
505.464	7854.33
508.839	8291.29
512.214	8273.69
515.589	7912.3
518.963	7678.93
522.338	7437.75
525.713	7343.07
529.088	7262.76
532.463	6967.19
535.837	6738.58
539.212	6337.99
542.587	5937.35
545.962	5612.35
549.337	5169.4
552.712	4801.48
556.086	4436.55
559.461	3976.48
562.836	3742.82
566.211	3460.06
569.586	3246.74
572.96	3092.65
576.335	2898.12
579.71	2784.2
583.085	2682.9
586.46	2481.26
589.835	2296.55
593.209	2122.34
596.584	1988.73
599.959	1814.81
603.334	1572.8
606.709	1377.38
610.083	1145.82
613.458	883.148
616.833	750.994
620.208	443.062
623.583	388.242
626.958	116.037
630.332	50.5
633.707	83.8027
637.082	104.996
640.457	185.428
643.832	46.3457
647.207	6.9707
650.581	41.3613
653.956	16.5059
657.331	205.83
660.706	400.941
664.081	647.006
667.455	835.375
670.83	1067.55
674.205	1170.92
677.58	1270.03
680.955	1289.82
684.33	1491.39
687.704	1807.37
691.079	1891.03
694.454	1991.12
697.829	1911.98
701.204	1849.48
704.578	1738.11
707.953	1607.08
711.328	1343.42
714.703	1117.44
718.078	977.113
721.452	647.438
724.827	429.049
728.202	249.758
731.577	39.1426
734.952	17.6738
738.327	154.662
741.701	108.965
745.076	151.988
748.451	111.654
751.826	87.9629
755.201	340.641
758.576	553.127
761.95	943.969
765.325	1356.47
768.7	1854.24
772.075	2342.69
775.45	2923.82
778.824	3548.43
782.199	4107.32
785.574	4811.85
788.949	5258.38
792.324	5871.86
795.698	6296.05
799.073	6606.27
802.448	6704.84
805.823	6716.51
809.198	6645.94
812.573	6420.18
815.947	6153.65
819.322	5684.36
822.697	5159.76
826.072	4558.94
829.447	3954.01
832.822	3405.13
836.196	2846.34
839.571	2267.1
842.946	1969.2
846.321	1765.66
849.696	1736.54
853.07	1616.82
856.445	1751.15
859.82	1771.52
863.195	1766.29
866.57	1764.34
869.944	1815.55
873.319	1732.19
876.694	1581.97
880.069	1442.73
883.444	1288.51
886.819	1029.65
890.193	770.956
893.568	504.236
896.943	298.929
900.318	0.259766
903.693	48.8643
907.067	260.737
910.442	213.56
913.817	150.453
917.192	74.0664
920.567	217.879
923.942	476.832
927.316	807.629
930.691	1209.18
934.066	1539.15
937.441	1613.41
940.816	1508.22
944.191	1475.98
947.565	1465
950.94	1498.91
954.315	1604.39
957.69	1782.04
961.065	1743.63
964.439	1713.49
967.814	1610.19
971.189	1456.83
974.564	1248.92
977.939	1083.15
981.313	1000.39
984.688	670.465
988.063	570.028
991.438	441.259
994.813	321.397
998.188	348.37
1001.56	456.342
1004.94	729.594
1008.31	961.49
1011.69	1097.42
1015.06	1031.56
1018.44	800.404
1021.81	625.527
1025.19	444.816
1028.56	440.106
1031.94	308.479
1035.31	200.193
1038.68	150.865
1042.06	196.322
1045.43	154.247
1048.81	124.329
1052.18	166.653
1055.56	115.942
1058.93	49.626
1062.31	46.8008
1065.68	0.15625
1069.06	8.55762
1072.43	11.9609
1075.81	8.15332
1079.18	48.627
1082.56	11.9834
1085.93	16.9902
1089.31	18.4961
1092.68	12.1221
1096.06	15.251
1099.43	11.208
1102.81	11.9468
1106.18	22.3525
1109.56	1.86719
1112.93	64.2632
1116.31	103.1
1119.68	82.4072
1123.06	137.342
1126.43	127.528
1129.81	147.692
1133.18	158.898
1136.56	194.122
1139.93	185.96
1143.31	191.838
1146.68	245.889
1150.05	195.944
1153.43	159.513
1156.8	209.518
1160.18	149.51
1163.55	125.295
1166.93	121.607
1170.3	144.667
1173.68	94.1079
1177.05	126.321
1180.43	111.013
1183.8	66.3032
1187.18	150.651
1190.55	140.622
1193.93	106.69
1197.3	61.3135
1200.68	73.3272
1204.05	49.8658
1207.43	57.1833
1210.8	17.2776
1214.18	69.8575
1217.55	59.1441
1220.93	73.1084
1224.3	61.2993
1227.67	36.5674
1231.05	100.589
1234.42	0.623535
1237.8	17.0645
1241.17	102.672
1244.55	53.7471
1247.92	80.834
1251.3	57.7227
1254.67	3.88428
1258.05	49.25
1261.42	78.8828
1264.8	53.208
1268.17	82.0903
1271.55	19.8423
1274.92	36.7095
1278.3	27.6396
1281.67	74.0122
1285.05	37.4326
1288.42	60.1338
1291.8	5.48975
1295.17	49.3965
1298.55	79.4409
1301.92	99.5366
1305.3	57.6816
