Measurement: Raman, 532 nm, unoriented, Raman Data Processed
Mineral: Feruvite
Rruff sample: R061109
Ideal chemistry: CaFe^2+^_3_(Al_5_Mg)(Si_6_O_18_)(BO_3_)_3_(OH)_3_OH
Locality: Red Cross Lake, Manitoba, Canada
Source: Michael Scott
Description: Green fragment
Raman shift (cm-1)	intensity
157.241	0
160.134	8.2456
163.027	39.5874
165.919	153.148
168.812	350.471
171.705	493.642
174.598	486.808
177.49	475.25
180.383	528.517
183.276	720.808
186.168	857.539
189.061	1037.51
191.954	956.157
194.846	909.854
197.739	814.333
200.632	876.997
203.525	923.076
206.417	829.835
209.31	752.544
212.203	718.569
215.095	478.989
217.988	367.479
220.881	273.166
223.774	298.311
226.666	365.919
229.559	479.492
232.452	445.369
235.344	441.014
238.237	440.94
241.13	373.394
244.022	442.506
246.915	464.303
249.808	320.489
252.7	226.412
255.593	212.212
258.486	135.387
261.378	66.9712
264.271	208.989
267.164	96.6602
270.057	145.159
272.949	220.667
275.842	231.834
278.735	90.3023
281.627	62.4756
284.52	4.68506
287.413	15.1807
290.305	69.811
293.198	22.5395
296.091	18.5806
298.984	3.85303
301.876	37.9595
304.769	30.3628
307.662	18.2153
310.554	71.936
313.447	36.3931
316.34	21.5923
319.233	9.70947
322.125	154.196
325.018	247.722
327.911	336.402
330.803	432.965
333.696	557.987
336.589	671.602
339.481	731.374
342.374	904.072
345.267	1142.8
348.159	1270.56
351.052	1405.28
353.945	1176.29
356.838	696.345
359.73	391.365
362.623	212.247
365.516	180.312
368.408	151.171
371.301	80.1738
374.194	95.2017
377.087	154.789
379.979	306.092
382.872	517.005
385.765	591.058
388.657	612.298
391.55	570.152
394.443	418.031
397.335	214.277
400.228	47.4995
403.121	0.668457
406.013	105.548
408.906	58.6157
411.799	3.64209
414.692	170.898
417.584	363.773
420.477	689.346
423.37	975.368
426.262	1137.5
429.155	1141.25
432.048	1215.71
434.94	1295.71
437.833	1446.38
440.726	1714.47
443.618	2011.73
446.511	2398.25
449.404	2894.07
452.297	3396.15
455.189	4067.63
458.082	4780.53
460.975	5532.85
463.867	5631.98
466.76	3952.12
469.653	2376.95
472.546	1404.43
475.438	924.02
478.331	690.632
481.224	521.986
484.116	401.787
487.009	342.79
489.902	293.577
492.794	265.766
495.687	306.786
498.58	374.148
501.473	437.285
504.365	652.632
507.258	640.737
510.151	644.963
513.043	551.832
515.936	404.417
518.829	246.579
521.721	218.168
524.614	123.106
527.507	9.07471
530.399	5.20801
533.292	8.72266
536.185	35.6528
539.077	4.37012
541.97	21.7578
544.863	89.9443
547.756	136.565
550.648	243.865
553.541	376.755
556.434	559.358
559.326	873.413
562.219	1267.1
565.112	1759.15
568.005	1943.88
570.897	1345.49
573.79	749.388
576.683	557.642
579.575	557.605
582.468	671.387
585.361	903.687
588.253	1200.18
591.146	1506.96
594.039	1895.03
596.932	2203.07
599.824	2293.55
602.717	2207.58
605.61	2003.94
608.502	1613.96
611.395	1308.3
614.288	1016.28
617.18	721.732
620.073	508.397
622.966	366.812
625.859	244.38
628.751	209.108
631.644	64.3511
634.537	7.42139
637.429	17.0117
640.322	61.5718
643.215	10.2358
646.107	133.548
649	201.447
651.893	274.459
654.785	446.963
657.678	570.878
660.571	891.206
663.464	1207.3
666.356	1664.95
669.249	1856.93
672.142	2010.97
675.034	1871.84
677.927	1428.78
680.82	1024.72
683.712	679.621
686.605	619.832
689.498	485.19
692.391	374.272
695.283	346.174
698.176	282.296
701.069	203.971
703.961	166.334
706.854	65.5503
709.747	36.0508
712.639	12.6489
715.532	42.0044
718.425	2.72119
721.317	15.5117
724.21	1.18897
727.103	68.2075
729.996	34.042
732.888	55.419
735.781	86.9819
738.674	137.031
741.566	166.932
744.459	244.243
747.352	262.544
750.245	220.208
753.137	208.527
756.03	146.953
758.923	158.144
761.815	194.031
764.708	218.663
767.601	194.798
770.493	139.118
773.386	163.946
776.279	104.207
779.172	123.356
782.064	121.565
784.957	108.552
787.85	122.501
790.742	97.8589
793.635	122.485
796.528	74.5903
799.42	87.2812
802.313	96.9805
805.206	66.0439
808.098	30.9893
810.991	43.647
813.884	50.0967
816.777	64.8945
819.669	42.0825
822.562	103.326
825.455	90.7954
828.347	141.509
831.24	132.316
834.133	195.189
837.025	143.76
839.918	158.935
842.811	123.632
845.704	99.2319
848.596	202.149
851.489	172.081
854.382	304.191
857.274	277.84
860.167	459.946
863.06	517.254
865.952	678.469
868.845	770.256
871.738	862.339
874.63	877.766
877.523	1067.14
880.416	1189.07
883.309	1405.47
886.201	1586.79
889.094	1662.94
891.987	1728.48
894.879	1570.69
897.772	1462.49
900.665	1365.57
903.558	1655.92
906.45	1881.76
909.343	2195.26
912.236	2304.03
915.128	2357.37
918.021	2162.18
920.914	1853.07
923.806	1416.59
926.699	1009.84
929.592	713.467
932.485	425.325
935.377	211.519
938.27	87.0532
941.163	33.6773
944.055	26.1421
946.948	22.2065
949.841	14.4204
952.733	49.6787
955.626	105.881
958.519	203.638
961.411	320.345
964.304	232.976
967.197	168.868
970.09	108.755
972.982	143.055
975.875	257.066
978.768	408.958
981.66	415.3
984.553	391.483
987.446	311.42
990.338	189.546
993.231	91.6792
996.124	49.2666
999.016	10.2544
1001.91	77.8184
1004.8	42.6401
1007.7	44.5586
1010.59	37.2602
1013.48	122.313
1016.37	151.717
1019.26	224.44
1022.16	349.826
1025.05	387.932
1027.94	366.426
1030.84	364.25
1033.73	322.51
1036.62	418.511
1039.51	387.799
1042.41	506.482
1045.3	460.931
1048.19	494.712
1051.09	502.393
1053.98	422.722
1056.87	439.091
1059.76	435.92
1062.66	349.21
1065.55	299.06
1068.44	282.718
1071.33	259.949
1074.23	309.009
1077.12	487.33
1080.01	576.732
1082.9	777.598
1085.8	960.395
1088.69	950.321
1091.58	817.82
1094.48	484.569
1097.37	236.233
1100.26	142.277
1103.15	36.5391
1106.05	90.1377
1108.94	31.231
1111.83	38.877
1114.72	13.2168
1117.62	27.4429
1120.51	70.29
1123.4	85.5869
1126.3	37.0698
1129.19	46.6055
1132.08	54.083
1134.97	57.5571
1137.87	71.9219
1140.76	39.0127
1143.65	32.4487
1146.54	77.8174
1149.44	22.915
1152.33	76.5918
1155.22	123.869
1158.12	161.496
1161.01	125.688
1163.9	103.279
1166.79	19.2876
1169.69	23.5645
1172.58	45.8984
1175.47	23.354
1178.36	62.1621
1181.26	66.5356
1184.15	31.4829
1187.04	133.25
1189.93	89.2915
1192.83	84.1255
1195.72	14.1152
1198.61	86.8696
1201.51	80.8618
1204.4	65.0884
1207.29	37.5249
1210.18	34.7544
1213.08	67.6519
1215.97	46.3213
1218.86	42.52
1221.75	104.206
1224.65	104.725
1227.54	132.09
1230.43	47.3389
1233.33	49.1577
1236.22	59.4634
1239.11	25.9448
1242	50.7319
1244.9	20.6421
1247.79	32.6148
1250.68	63.9785
1253.57	34.8032
1256.47	11.3896
1259.36	63.522
1262.25	32.126
1265.14	12.061
1268.04	44.5523
1270.93	71.2485
1273.82	56.916
1276.72	106.619
1279.61	74.5791
1282.5	85.8877
1285.39	8.45752
1288.29	107.595
1291.18	68.8867
1294.07	1.41846
1296.96	14.7559
