Measurement: Raman, 785 nm, unoriented, Raman Data Processed
Mineral: Feruvite
Rruff sample: R061109
Ideal chemistry: CaFe^2+^_3_(Al_5_Mg)(Si_6_O_18_)(BO_3_)_3_(OH)_3_OH
Locality: Red Cross Lake, Manitoba, Canada
Source: Michael Scott
Description: Green fragment
Raman shift (cm-1)	intensity
138.504	0
141.396	95.9263
144.289	1490.41
147.181	2785.46
150.074	2888.47
152.967	2328.26
155.86	1339.69
158.752	671.441
161.645	522.189
164.538	499.114
167.43	690.294
170.323	817.903
173.216	921.299
176.108	949.295
179.001	845.74
181.894	1010.62
184.787	1508.53
187.679	1786.38
190.572	1794.59
193.465	1612.9
196.357	1335.91
199.25	1284.96
202.143	1383.53
205.036	1351.65
207.928	1332.61
210.821	1165.15
213.714	906.431
216.606	692.681
219.499	532.109
222.392	218.734
225.284	84.8848
228.177	72.7842
231.07	81.7891
233.963	108.061
236.855	183.141
239.748	240.74
242.641	394.485
245.533	553.154
248.426	593.065
251.319	472.49
254.211	209.29
257.104	68.8174
259.997	39.7383
262.889	178.77
265.782	183.619
268.675	162.103
271.568	247.598
274.46	326.553
277.353	270.778
280.246	102.607
283.138	18.8452
286.031	164.944
288.924	219.439
291.817	4.95459
294.709	34.9282
297.602	59.8648
300.495	26.1489
303.387	0.779785
306.28	62.3242
309.173	26.3237
312.065	93.0547
314.958	166.786
317.851	118.598
320.743	200.785
323.636	289.653
326.529	480.989
329.422	737.609
332.314	947.451
335.207	1168.77
338.1	1260.14
340.992	1232.27
343.885	1460.33
346.778	1788.96
349.671	2020.24
352.563	2018.7
355.456	1633.02
358.349	925.569
361.241	707.748
364.134	512.437
367.027	424.791
369.919	420.142
372.812	236.932
375.705	258.169
378.598	444.804
381.49	610.834
384.383	792.829
387.276	836.837
390.168	841.242
393.061	624.939
395.954	344.743
398.846	223.582
401.739	141.673
404.632	1.42725
407.524	23.6558
410.417	59.8838
413.31	38.4697
416.202	164.689
419.095	362.106
421.988	615.722
424.881	800.288
427.773	809.847
430.666	676.554
433.559	681.304
436.451	718.463
439.344	1114.74
442.237	1426.99
445.13	2041.19
448.022	2698.39
450.915	3421.12
453.808	4132.44
456.7	5242.16
459.593	6739.15
462.486	7965.3
465.378	7007.7
468.271	4334.19
471.164	2520.55
474.057	1654.53
476.949	1118.91
479.842	743.115
482.735	528.725
485.627	424.482
488.52	267.112
491.413	248.586
494.305	223.11
497.198	243.277
500.091	211.324
502.983	400.546
505.876	421.095
508.769	537.874
511.662	607.662
514.554	475.425
517.447	425.533
520.34	389.875
523.232	340.124
526.125	397.333
529.018	192.506
531.91	94.0772
534.803	6.46338
537.696	46.625
540.589	19.8857
543.481	2.8833
546.374	66.5928
549.267	14.311
552.159	31.0151
555.052	134.343
557.945	247.938
560.837	549.893
563.73	896.045
566.623	1229.25
569.516	1284.33
572.408	638.021
575.301	180.779
578.194	12.7842
581.086	12.979
583.979	80.3247
586.872	71.8618
589.764	92.1943
592.657	295.38
595.55	429.399
598.443	578.566
601.335	719.75
604.228	710.817
607.121	591.867
610.013	470.216
612.906	365.525
615.799	281.791
618.692	137.6
621.584	30.519
624.477	16.0386
627.37	58.1445
630.262	18.1392
633.155	32.5757
636.048	131.007
638.94	130.758
641.833	202.544
644.726	281.06
647.619	411.223
650.511	422.584
653.404	562.064
656.297	737.517
659.189	1143.91
662.082	1622.41
664.975	2276.84
667.867	2776.77
670.76	2922.02
673.653	2733.81
676.545	2233
679.438	1586.24
682.331	1166.7
685.224	817.052
688.116	673.65
691.009	515.46
693.902	359.527
696.794	322.643
699.687	228.459
702.58	233.441
705.472	197.364
708.365	143.389
711.258	52.4131
714.151	58.2598
717.043	0.621582
719.936	26.9233
722.829	46.9976
725.721	71.7192
728.614	81.6367
731.507	19.3184
734.399	40.7129
737.292	113.705
740.185	153.159
743.077	184.832
745.97	196.943
748.863	156.461
751.756	135.756
754.648	119.68
757.541	135.874
760.434	115.57
763.326	59.4033
766.219	105.189
769.112	38.6509
772.005	153.106
774.897	5.97314
777.79	158.128
780.683	84.9692
783.575	150.324
786.468	196.858
789.361	203.786
792.253	123.638
795.146	157.685
798.039	28.7056
800.932	46.2119
803.824	164.685
806.717	198.462
809.61	165.679
812.502	156.323
815.395	101.596
818.288	98.374
821.18	2.04834
824.073	55.9775
826.966	37.8882
829.859	20.0195
832.751	24.7197
835.644	12.9424
838.537	11.6753
841.429	11.6831
844.322	42.0654
847.215	95.4888
850.107	124.823
853	152.956
855.893	294.06
858.785	348.558
861.678	536.995
864.571	712.539
867.464	969.674
870.356	1071.28
873.249	1056.29
876.142	1186.42
879.034	1328.07
881.927	1415.51
884.82	1593.32
887.712	1544.12
890.605	1702.44
893.498	1578.72
896.391	1316.99
899.283	1131.29
902.176	876.813
905.069	921.994
907.961	1007.86
910.854	1142.82
913.747	1101.15
916.639	1033.99
919.532	916.616
922.425	810.238
925.318	610.72
928.21	481.596
931.103	396.209
933.996	206.617
936.888	148.622
939.781	127.983
942.674	5.65088
945.567	53.6016
948.459	52.644
951.352	9.54297
954.245	57.0244
957.137	25.3682
960.03	15.2578
962.923	166.925
965.815	234.084
968.708	31.0991
971.601	28.5757
974.494	180.946
977.386	360.546
980.279	437.871
983.172	493.017
986.064	411.751
988.957	233.738
991.85	10.522
994.742	150.204
997.635	258.925
1000.53	32.4849
1003.42	52.8413
1006.31	30.4971
1009.21	61.4458
1012.1	33.9927
1014.99	149.991
1017.88	194.894
1020.78	291.926
1023.67	279.367
1026.56	298.253
1029.45	350.094
1032.35	308.29
1035.24	339.035
1038.13	346.752
1041.03	399.604
1043.92	376.89
1046.81	515.988
1049.7	483.681
1052.6	483.269
1055.49	494.743
1058.38	557.963
1061.27	522.653
1064.17	475.59
1067.06	318.203
1069.95	247.47
1072.85	123.264
1075.74	184.087
1078.63	345.7
1081.52	363.73
1084.42	600.188
1087.31	722.6
1090.2	535.312
1093.09	512.536
1095.99	233.972
1098.88	127.996
1101.77	59.8315
1104.66	17.3828
1107.56	23.0034
1110.45	19.146
1113.34	71.8813
1116.24	12.1055
1119.13	76.9688
1122.02	42.9292
1124.91	78.9424
1127.81	40.0586
1130.7	52.8208
1133.59	46.2432
1136.48	30.4678
1139.38	10.7124
1142.27	17.6001
1145.16	8.96338
1148.06	58.1338
1150.95	19.0137
1153.84	48.2602
1156.73	109.513
1159.63	144.255
1162.52	101.22
1165.41	101.53
1168.3	40.1035
1171.2	46.3789
1174.09	83.478
1176.98	59.5742
1179.88	5.17139
1182.77	87.8574
1185.66	49.4546
1188.55	121.043
1191.45	43.6245
1194.34	33.2588
1197.23	153.129
1200.12	133.452
1203.02	17.4966
1205.91	27.5044
1208.8	99.4868
1211.69	136.509
1214.59	101.254
1217.48	134.945
1220.37	209.274
1223.27	125.402
1226.16	156.211
1229.05	128.412
1231.94	83.6108
1234.84	117.649
1237.73	77.1152
1240.62	55.5918
1243.51	68.9087
1246.41	98.397
1249.3	81.9595
1252.19	120.771
1255.09	66.6694
1257.98	20.3599
1260.87	67.2168
1263.76	123.947
1266.66	40.916
1269.55	12.4248
