Measurement: Raman, 780 nm, unoriented, Raman Data Processed
Mineral: Fettelite
Rruff sample: R100124
Ideal chemistry: Ag_16_HgAs_4_S_15_
Locality: Nieder-Berbach, Odenwald, Germany
Source: William W. Pinch
Description: Dark reddish thin platy crystals associated with proustite and xanthoconite.
Measured chemistry: Ag_17.81_Fe_0.97_Hg_0.55_Cu_0.01_Sb_0.05_As_3.34_S_15_
Raman shift (cm-1)	intensity
163.405	6.6438
166.298	48.9534
169.19	55.5828
172.083	44.4417
174.976	43.4297
177.869	33.0671
180.761	25.6401
183.654	4.57397
186.547	69.0266
189.439	151.32
192.332	235.779
195.225	315.93
198.117	377.35
201.01	482.135
203.903	657.534
206.796	895.649
209.688	1170.43
212.581	1488.63
215.474	1790.08
218.366	2030.78
221.259	2187.8
224.152	2252.51
227.044	2271.75
229.937	2264.25
232.83	2192.6
235.722	2009.81
238.615	1777.49
241.508	1570.33
244.401	1476.01
247.293	1416.61
250.186	1439.47
253.079	1543.92
255.971	1777.2
258.864	2135.15
261.757	2487.36
264.649	2706.76
267.542	2852.5
270.435	2956.73
273.328	3065.44
276.22	3190.96
279.113	3250.35
282.006	3200.85
284.898	3207.27
287.791	3251.27
290.684	2967.98
293.576	2232.34
296.469	1343.93
299.362	665.189
302.255	256.495
305.147	50.0894
308.04	17.9409
310.933	37.3176
313.825	121.745
316.718	213.762
319.611	362.612
322.503	612.754
325.396	922.862
328.289	1202.92
331.182	1330.64
334.074	1588.84
336.967	2107.22
339.86	2855.99
342.752	3643.43
345.645	3560.87
348.538	2299.66
351.43	1157.61
354.323	549.639
357.216	239.719
360.108	104.303
363.001	63.5546
365.894	45.1521
368.787	1.18457
371.679	50.3668
374.572	68.7549
377.465	64.0819
380.357	42.9856
383.25	23.4924
386.143	0.679535
389.036	24.7937
391.928	51.9907
394.821	81.0241
397.714	106.791
400.606	130.867
403.499	154.567
406.392	181.057
409.284	198.7
412.177	225.129
415.07	245.536
417.962	263.128
420.855	279.616
423.748	298.566
426.641	311.172
429.533	311.493
432.426	294.021
435.319	268.97
438.211	243.478
441.104	220.836
443.997	203.864
446.889	186.648
449.782	179.875
452.675	171.716
455.567	167.552
458.46	160.636
461.353	154.084
464.246	144.319
467.138	139.705
470.031	132.508
472.924	126.365
475.816	117.337
478.709	102.222
481.602	95.1444
484.495	83.2975
487.387	74.4646
490.28	64.7398
493.173	56.3179
496.065	50.3534
498.958	43.6041
501.851	38.4587
504.743	31.5514
507.636	30.8811
510.529	28.3764
513.422	23.8735
516.314	24.3231
519.207	20.8342
522.1	19.1758
524.992	14.5038
527.885	16.2005
530.778	14.7048
533.67	13.6588
536.563	11.8242
539.456	11.0071
542.348	8.91785
545.241	8.37076
548.134	5.86987
551.027	4.77167
553.919	3.18585
556.812	2.3197
559.705	1.34906
562.597	0.281967
565.49	2.33298
568.383	0.108002
571.275	1.88109
574.168	2.37558
577.061	0.406677
579.954	1.5045
582.846	1.90919
585.739	5.45143
588.632	2.67116
591.524	2.37981
594.417	4.52908
597.31	1.13141
600.202	1.45015
603.095	0.203156
605.988	1.35791
608.881	0.657501
611.773	3.17879
614.666	2.2921
617.559	3.77107
620.451	4.97206
623.344	3.34216
626.237	5.56337
629.129	6.22353
632.022	6.33447
634.915	7.68533
637.808	9.25436
640.7	9.21168
643.593	8.95576
646.486	7.79291
649.378	8.46893
652.271	6.70534
655.164	6.37236
658.056	5.55716
660.949	7.03461
663.842	6.75678
666.735	5.3183
669.627	3.78168
672.52	5.21095
675.413	4.67223
678.305	5.01544
681.198	5.21979
684.091	3.12907
686.983	2.8476
689.876	2.99753
692.769	2.59161
695.662	1.30817
698.554	2.30262
701.447	5.78048
704.34	0.580734
707.232	3.15525
710.125	2.98543
713.018	1.43552
715.91	2.70714
718.803	4.74511
721.696	6.23601
724.588	3.44342
727.481	3.90393
730.374	5.08708
733.266	5.21795
736.159	4.68418
739.052	5.45543
741.945	3.55386
744.837	4.53653
747.73	5.78157
750.623	5.23019
753.515	3.09779
756.408	3.07512
759.301	2.788
762.193	3.97562
765.086	2.39343
767.979	2.49325
770.872	4.02978
773.764	1.5961
776.657	3.46672
779.55	2.56817
782.442	2.86745
785.335	1.45416
788.228	2.87071
791.12	2.79434
794.013	0.674477
796.906	2.54649
799.799	1.49945
802.691	2.28195
805.584	1.18783
808.477	2.73871
811.369	1.45889
814.262	0.307411
817.155	1.48288
820.048	2.79718
822.94	2.6717
825.833	0.342049
828.726	0.996094
831.618	0.493729
834.511	2.61082
837.404	2.56416
840.296	0.028534
843.189	0.79686
846.082	1.22293
848.975	0.837662
851.867	0.775658
854.76	1.09394
857.653	2.55218
860.545	0.291245
863.438	0.969292
866.331	0.205849
869.223	0.341965
872.116	0.565834
875.009	2.82257
877.901	1.88731
880.794	1.99247
883.687	1.03982
886.58	0.185913
889.472	0.980782
892.365	1.10831
895.258	1.42049
898.15	1.66161
901.043	1.47347
903.936	0.516571
906.828	0.364136
909.721	1.50509
912.614	2.5557
915.506	1.32405
918.399	1.65796
921.292	2.03909
924.185	0.254967
927.077	1.67589
929.97	1.48735
932.863	2.11394
935.755	1.17387
938.648	0.664711
941.541	1.3374
944.433	1.01707
947.326	2.35754
950.219	3.33941
953.112	2.42166
956.004	1.37975
958.897	2.76611
961.79	0.452408
964.682	1.68727
967.575	2.37041
970.468	1.73296
973.361	1.40976
976.253	0.690758
979.146	0.797783
982.039	0.686234
984.931	2.22765
987.824	3.13358
990.717	1.83128
993.609	1.36308
996.502	1.67934
999.395	3.07013
1002.29	3.05138
1005.18	1.78243
1008.07	0.153381
1010.97	4.03783
1013.86	1.42036
1016.75	0.287659
1019.64	1.50964
1022.54	2.29951
1025.43	1.54292
1028.32	3.37621
1031.21	3.42792
1034.11	0.903412
1037	1.79639
1039.89	8.00572
1042.79	3.97292
1045.68	1.86578
1048.57	2.41187
1051.46	1.84329
1054.36	1.54835
1057.25	2.5557
1060.14	2.21712
1063.03	1.76392
1065.93	2.30437
1068.82	1.85748
1071.71	1.70657
1074.61	3.74224
1077.5	2.73978
1080.39	0.803581
1083.28	1.31778
1086.18	2.20218
1089.07	1.4594
1091.96	0.671356
1094.85	0.793236
1097.75	0.752769
1100.64	2.90892
1103.53	0.332573
1106.42	1.40638
1109.32	0.0812
1112.21	0.632034
1115.1	0.510307
1117.99	0.59314
1120.89	1.29956
1123.78	0.017029
1126.67	1.07227
1129.57	0.733749
1132.46	1.32009
1135.35	1.28346
1138.24	0.761856
1141.14	8.9549
1144.03	3.21448
1146.92	0.672523
1149.82	0.886383
1152.71	1.54143
1155.6	1.07897
1158.49	1.17422
1161.39	1.18791
1164.28	2.60672
1167.17	1.74091
1170.06	2.55578
1172.96	2.31395
1175.85	2.43127
1178.74	1.25472
1181.63	1.22821
1184.53	2.80371
1187.42	1.5367
1190.31	1.95691
1193.21	0.977219
1196.1	1.36295
1198.99	1.20747
1201.88	1.45028
1204.78	1.50003
1207.67	1.9323
1210.56	2.08017
1213.45	1.27142
1216.35	0.154648
1219.24	2.82788
1222.13	1.65076
1225.03	1.75267
1227.92	0.576126
1230.81	2.12849
1233.7	1.41834
1236.6	0.96875
1239.49	2.22051
1242.38	1.4032
1245.27	2.5377
1248.17	2.91485
1251.06	0.927895
1253.95	2.98165
1256.85	4.22668
1259.74	2.76341
1262.63	1.63325
1265.52	0.042625
1268.42	1.76231
1271.31	0.751198
1274.2	1.54306
1277.09	1.54957
1279.99	5.86888
1282.88	1.02304
