Measurement: Raman, 780 nm, unoriented, Raman Data Processed
Mineral: Fettelite
Rruff sample: R110042
Ideal chemistry: Ag_16_HgAs_4_S_15_
Locality: Nieder-Beerbach mine near Darmstadt, Odenwald, Germany
Source: Institute of Mineralogy, University of Heidelberg
Description: Red hexagonal plates, type-sample. New data are reported in Bindi et al (2012)
Measured chemistry: Ag_16.08_Cu_0.13_Fe_0.01_Hg_0.71_As_3.80_S_15.28_
Raman shift (cm-1)	intensity
169.224	0
172.117	2.15463
175.01	0.577362
177.902	0.289795
180.795	2.71594
183.688	3.78958
186.581	4.18988
189.473	4.46518
192.366	10.3227
195.259	9.44345
198.151	5.91068
201.044	7.89972
203.937	8.47119
206.829	10.9535
209.722	13.7944
212.615	20.2693
215.507	15.789
218.4	19.736
221.293	20.5381
224.186	22.1606
227.078	27.8763
229.971	25.5865
232.864	26.5789
235.756	27.4626
238.649	33.5221
241.542	33.1613
244.435	34.994
247.327	31.6446
250.22	29.5569
253.113	31.4891
256.005	31.7494
258.898	30.6374
261.791	29.2407
264.683	33.3497
267.576	38.0026
270.469	32.9647
273.361	33.7908
276.254	24.5208
279.147	25.8698
282.04	24.1947
284.932	25.5584
287.825	24.7215
290.718	25.3961
293.61	24.186
296.503	27.0093
299.396	27.1227
302.288	26.2775
305.181	21.3903
308.074	10.7503
310.967	8.56609
313.859	2.11128
316.752	2.70471
319.645	2.3419
322.537	2.44725
325.43	1.62813
328.323	0.784317
331.216	1.64356
334.108	4.19936
337.001	1.63084
339.894	8.93835
342.786	8.55856
345.679	13.556
348.572	13.3437
351.464	15.782
354.357	17.5122
357.25	25.0574
360.142	36.6221
363.035	46.4284
365.928	63.7558
368.821	83.1082
371.713	100.135
374.606	125.087
377.499	129.104
380.391	103.377
383.284	61.3047
386.177	36.0198
389.07	21.6724
391.962	16.3604
394.855	8.60348
397.748	4.75453
400.64	5.67174
403.533	3.9007
406.426	5.21994
409.318	4.0024
412.211	6.92661
415.104	1.51701
417.997	5.21204
420.889	3.91832
423.782	5.55609
426.675	3.0529
429.567	4.05034
432.46	7.16342
435.353	4.20608
438.245	5.95044
441.138	5.13504
444.031	4.57797
446.923	2.42708
449.816	3.89218
452.709	6.39506
455.602	5.73424
458.494	4.26688
461.387	7.30887
464.28	6.00766
467.172	5.3687
470.065	5.83182
472.958	3.01199
475.851	5.68546
478.743	6.64778
481.636	4.5519
484.529	5.61038
487.421	5.44534
490.314	2.82655
493.207	2.88397
496.099	4.07648
498.992	2.90727
501.885	1.78737
504.777	4.31775
507.67	4.47987
510.563	2.6862
513.456	0.821701
516.348	4.5417
519.241	4.77541
522.134	1.09497
525.026	3.92403
527.919	1.76558
530.812	2.42709
533.705	2.66074
536.597	2.03609
539.49	4.15057
542.383	4.38626
545.275	2.81747
548.168	2.50168
551.061	3.74779
553.953	1.82518
556.846	7.85681
559.739	1.659
562.631	3.68465
565.524	3.58626
568.417	0.342361
571.31	0.470535
574.202	9.09911
577.095	3.61643
579.988	3.72804
582.88	3.21236
585.773	0.609314
588.666	4.54047
591.558	3.59787
594.451	4.53439
597.344	0.072098
600.237	2.73689
603.129	8.60565
606.022	5.49214
608.915	5.11017
611.807	7.38849
614.7	5.81145
617.593	4.32182
620.486	4.84659
623.378	3.27046
626.271	2.55655
629.164	1.59201
632.056	1.16789
634.949	0.235809
637.842	5.41153
640.734	0.394547
643.627	5.48523
646.52	1.77441
649.413	4.93327
652.305	2.96185
655.198	2.93582
658.091	0.482407
660.983	2.90996
663.876	4.2043
666.769	2.3819
669.661	2.08347
672.554	3.42842
675.447	5.30388
678.34	4.89658
681.232	5.50178
684.125	4.36668
687.018	7.19556
689.91	3.29431
692.803	4.49057
695.696	1.968
698.588	3.98166
701.481	2.10335
704.374	3.91698
707.266	4.49768
710.159	0.79071
713.052	3.12198
715.945	7.07933
718.837	7.04507
721.73	5.90892
724.623	2.5824
727.515	6.22754
730.408	2.36903
733.301	5.18299
736.193	1.83015
739.086	2.67636
741.979	5.85054
744.872	2.05278
747.764	1.16246
750.657	0.735634
753.55	7.03209
756.442	2.30836
759.335	0.534134
762.228	0.453041
765.12	2.04379
768.013	2.93583
770.906	4.23299
773.799	1.7281
776.691	1.99744
779.584	3.69663
782.477	4.39675
785.369	4.68329
788.262	1.43121
791.155	3.03616
794.048	1.49166
796.94	4.44421
799.833	2.63535
802.726	1.33581
805.618	4.36942
808.511	8.23337
811.404	3.67175
814.296	4.16365
817.189	4.62686
820.082	4.12977
822.975	5.02065
825.867	6.29908
828.76	5.08923
831.653	4.27314
834.545	6.19618
837.438	3.81712
840.331	4.5889
843.223	3.58413
846.116	4.1471
849.009	2.18201
851.902	5.62945
854.794	3.26793
857.687	6.01086
860.58	2.62692
863.472	0.008331
866.365	1.99678
869.258	4.96075
872.15	2.83093
875.043	4.48403
877.936	2.96893
880.829	3.03968
883.721	2.52766
886.614	5.82309
889.507	3.19833
892.399	4.50231
895.292	4.05857
898.185	2.24753
901.077	2.32092
903.97	0.583122
906.863	0.302879
909.756	0.418297
912.648	1.74246
915.541	3.48611
918.434	0.653488
921.326	4.69507
924.219	2.09676
927.112	3.14891
930.005	1.99046
932.897	2.79481
935.79	1.48139
938.683	4.14444
941.575	4.94143
944.468	0.703026
947.361	2.57973
950.253	1.08278
953.146	6.16002
956.039	1.62735
958.932	0.140678
961.824	4.05748
964.717	1.57011
967.61	0.433762
970.502	6.89298
973.395	3.10769
976.288	2.59266
979.18	2.55865
982.073	6.29705
984.966	3.42243
987.859	0.34169
990.751	2.06807
993.644	3.89855
996.537	4.65578
999.429	3.82264
1002.32	4.21713
1005.22	2.14854
1008.11	6.92263
1011	3.64802
1013.89	2.6913
1016.78	3.84576
1019.68	4.268
1022.57	3.20963
1025.46	4.42932
1028.36	4.09994
1031.25	7.02837
1034.14	3.07118
1037.03	0.028961
1039.93	2.33865
1042.82	2.23862
1045.71	2.94477
1048.61	2.65267
1051.5	7.35156
1054.39	2.85587
1057.28	1.03884
1060.18	2.65207
1063.07	3.05674
1065.96	2.38127
1068.85	2.43817
1071.75	1.17085
1074.64	3.89647
1077.53	7.61375
1080.42	3.2961
1083.32	2.51627
1086.21	2.17839
1089.1	4.61538
1092	6.75533
1094.89	3.78594
1097.78	4.22312
1100.67	2.48129
1103.57	2.8519
1106.46	2.65862
1109.35	5.96418
1112.24	2.81231
1115.14	1.79375
1118.03	4.41825
1120.92	1.7972
1123.82	2.31115
1126.71	2.42048
1129.6	6.99855
1132.49	3.48322
1135.39	3.73076
1138.28	3.58814
1141.17	3.61904
1144.06	0.782158
1146.96	3.92031
1149.85	6.79066
1152.74	1.48894
1155.63	6.70941
1158.53	3.92758
1161.42	0.034325
1164.31	2.6298
1167.21	7.9779
1170.1	2.80263
1172.99	6.49026
1175.88	1.24283
1178.78	1.09211
1181.67	5.22001
1184.56	4.28004
1187.45	7.37677
1190.35	6.51917
1193.24	8.2505
1196.13	2.67467
1199.03	2.87213
1201.92	4.82867
1204.81	4.36913
1207.7	4.01743
1210.6	7.48143
1213.49	6.20122
1216.38	5.37857
1219.27	3.74055
1222.17	10.3858
1225.06	6.21522
1227.95	4.33669
1230.85	5.53434
1233.74	1.49929
1236.63	4.79024
1239.52	8.64938
1242.42	5.55792
1245.31	7.32954
1248.2	6.67643
1251.09	5.85921
1253.99	9.40024
1256.88	4.58398
1259.77	4.53256
1262.66	10.1395
1265.56	8.06911
1268.45	7.43376
1271.34	9.92847
1274.24	3.89691
1277.13	1.77365
1280.02	0.892311
1282.91	0.117943
