Measurement: Raman, 532 nm, unoriented, Raman Data Processed
Mineral: Fibroferrite
Rruff sample: R061076
Ideal chemistry: Fe^3+^SO_4_(OH)5H_2_O
Locality: Cyprus
Source: Michael Scott
Description: Matted aggregates of pale yellow fibers
Measured chemistry: Fe^3+^_1.00_(S_1.00_O_4_)(OH)Â·5H_2_O
Raman shift (cm-1)	intensity
111.922	0
115.297	58.2651
118.672	279.628
122.047	694.583
125.422	1034.53
128.797	1029.65
132.171	739.144
135.546	632.208
138.921	546.051
142.296	416.004
145.671	205.521
149.045	105.788
152.42	154.93
155.795	303.468
159.17	567.926
162.545	1000.09
165.919	1511.87
169.294	1917.32
172.669	1931.96
176.044	1527.54
179.419	944.67
182.794	584.135
186.168	298.295
189.543	218.408
192.918	102.029
196.293	20.1403
199.668	32.3154
203.042	3.3949
206.417	4.30994
209.792	9.63147
213.167	13.5233
216.542	6.98218
219.917	122.51
223.291	162.818
226.666	397.007
230.041	557.278
233.416	767.071
236.791	952.265
240.165	1242.75
243.54	1594.14
246.915	1880.02
250.29	2097.73
253.665	2094.01
257.039	1907.72
260.414	1367.32
263.789	921.857
267.164	582.42
270.539	379.178
273.913	213.369
277.288	129.702
280.663	45.8854
284.038	35.6043
287.413	15.9503
290.788	9.24481
294.162	43.3586
297.537	18.7733
300.912	63.5313
304.287	88.3826
307.662	129.073
311.036	114.673
314.411	75.8543
317.786	77.0364
321.161	30.9158
324.536	22.2842
327.911	39.8401
331.285	39.2325
334.66	20.1672
338.035	19.9192
341.41	12.5536
344.785	6.77161
348.159	26.1774
351.534	56.4523
354.909	2.55572
358.284	49.0533
361.659	60.7568
365.034	37.005
368.408	104.253
371.783	153.882
375.158	192.361
378.533	216.488
381.908	319.6
385.282	386.914
388.657	463.131
392.032	552.752
395.407	586.521
398.782	643.631
402.156	646.646
405.531	645.896
408.906	613.05
412.281	561.871
415.656	498.731
419.031	475.489
422.405	533.97
425.78	541.933
429.155	515.6
432.53	469.531
435.905	355.081
439.279	251.784
442.654	196.212
446.029	136.579
449.404	88.3215
452.779	5.02429
456.154	33.7966
459.528	3.61835
462.903	40.8583
466.278	69.1768
469.653	224.216
473.028	300.824
476.402	425.804
479.777	447.797
483.152	410.432
486.527	275.36
489.902	277.608
493.276	251.285
496.651	321.386
500.026	400.984
503.401	541.901
506.776	723.241
510.151	995.575
513.525	1219.49
516.9	1435.42
520.275	1549.56
523.65	1516.96
527.025	1316.85
530.399	1064.35
533.774	695.326
537.149	430.796
540.524	252.932
543.899	121.437
547.274	32.9491
550.648	15.7485
554.023	21.8111
557.398	20.9891
560.773	32.0584
564.148	22.9937
567.522	53.7029
570.897	148.929
574.272	153.07
577.647	161.412
581.022	166.831
584.396	134.352
587.771	163.511
591.146	137.731
594.521	139.275
597.896	185.861
601.271	200.483
604.645	219.903
608.02	219.604
611.395	136.664
614.77	64.9945
618.145	17.5674
621.519	8.83035
624.894	51.5305
628.269	12.4601
631.644	50.1114
635.019	18.1698
638.394	0.56897
641.768	29.4834
645.143	47.7995
648.518	59.1015
651.893	36.4356
655.268	116.986
658.642	105.331
662.017	154.587
665.392	130.237
668.767	141.271
672.142	97.2425
675.516	111.745
678.891	97.7072
682.266	75.1703
685.641	71.8532
689.016	52.2185
692.391	46.5446
695.765	10.9876
699.14	35.9482
702.515	48.7859
705.89	50.7809
709.265	2.07518
712.639	71.1876
716.014	0.484238
719.389	54.8211
722.764	38.709
726.139	45.046
729.514	19.885
732.888	12.9788
736.263	70.5162
739.638	33.0851
743.013	28.1972
746.388	39.9915
749.762	62.8071
753.137	0.682419
756.512	31.299
759.887	7.21364
763.262	46.0238
766.636	39.8811
770.011	44.633
773.386	19.4342
776.761	44.4507
780.136	68.2117
783.51	0.32962
786.885	58.6521
790.26	36.4279
793.635	60.3192
797.01	35.7573
800.385	43.1349
803.759	54.9504
807.134	72.1067
810.509	77.8459
813.884	61.0969
817.259	44.4441
820.634	37.6387
824.008	47.0368
827.383	53.7876
830.758	57.6101
834.133	33.3171
837.508	23.3603
840.882	23.2391
844.257	44.3159
847.632	20.2722
851.007	27.7063
854.382	6.51465
857.756	70.6639
861.131	34.8495
864.506	57.7148
867.881	38.0825
871.256	27.9601
874.63	0.757645
878.005	4.25612
881.38	30.82
884.755	56.1103
888.13	21.8519
891.505	11.1529
894.879	16.6299
898.254	48.85
901.629	41.8472
905.004	112.574
908.379	63.4636
911.754	82.8886
915.128	68.0567
918.503	105.841
921.878	86.9141
925.253	65.8903
928.628	110.652
932.002	77.1366
935.377	67.1854
938.752	51.4534
942.127	84.1134
945.502	2.76315
948.876	50.807
952.251	3.97345
955.626	4.78082
959.001	21.4468
962.376	19.6492
965.75	1.39499
969.125	11.0862
972.5	6.28522
975.875	9.34958
979.25	6.72372
982.625	38.2714
985.999	10.2974
989.374	57.5905
992.749	60.0692
996.124	79.1464
999.499	210.676
1002.87	344.601
1006.25	685.375
1009.62	1103.81
1013	1815.11
1016.37	2571.43
1019.75	1961.16
1023.12	1222.85
1026.5	1304.33
1029.87	1654.98
1033.25	2261.63
1036.62	2774.74
1040	2664.84
1043.37	1815.89
1046.75	1016.86
1050.12	491.154
1053.5	243.669
1056.87	114.176
1060.24	87.3982
1063.62	84.5729
1066.99	133.828
1070.37	172.212
1073.74	176.502
1077.12	67.2889
1080.49	36.2377
1083.87	30.6237
1087.24	22.4435
1090.62	9.84741
1093.99	2.7157
1097.37	90.7191
1100.74	64.4383
1104.12	135.771
1107.49	232.511
1110.87	280.182
1114.24	478.542
1117.62	611.639
1120.99	705.4
1124.37	715.995
1127.74	729.033
1131.12	603.946
1134.49	533.674
1137.87	454.611
1141.24	411.692
1144.62	399.796
1147.99	425.163
1151.37	479.934
1154.74	471.746
1158.12	445.537
1161.49	425.642
1164.87	372.224
1168.24	318.139
1171.61	290.294
1174.99	244.171
1178.36	151.982
1181.74	124.72
1185.11	53.4039
1188.49	54.3716
1191.86	23.165
1195.24	8.44757
1198.61	27.1196
1201.99	34.9297
1205.36	32.1407
1208.74	51.7817
1212.11	2.94809
1215.49	4.93402
1218.86	1.61948
1222.24	5.01779
1225.61	6.64267
1228.99	14.0164
1232.36	37.0688
1235.74	4.65491
1239.11	68.0803
1242.48	52.8095
1245.86	50.653
1249.23	41.2821
1252.61	77.9199
1255.98	81.2713
1259.36	79.5991
1262.73	40.3819
1266.11	96.4471
1269.48	18.7654
1272.86	70.065
1276.23	31.7951
1279.61	45.5982
1282.98	69.1107
1286.36	39.0006
1289.73	52.9264
1293.11	34.4879
1296.48	5.0238
