Measurement: Raman, 532 nm, unoriented, Raman Data Processed
Mineral: Fiedlerite
Rruff sample: R060859
Ideal chemistry: Pb_3_Cl_4_F(OH)H_2_O
Locality: Laurium, Attica, Greece
Source: Michael Scott
Description: Colorless prismatic crystals associated with phosgenite, polytype 1A
Measured chemistry: Pb_3.00_Cl_4.00_F_1.00_(OH)Â·H_2_O ; OH and H_2_O estimated by difference
Raman shift (cm-1)	intensity
107.059	0
110.434	1771.11
113.809	13072.2
117.184	19989.7
120.559	29594.5
123.934	37363.9
127.308	47778.6
130.683	68945.2
134.058	98423.3
137.433	112279
140.808	95848.7
144.183	72598.6
147.557	59376.3
150.932	52149.8
154.307	45182.3
157.682	42592.1
161.057	46377.4
164.431	51749.6
167.806	51445.7
171.181	45384.7
174.556	38119.7
177.931	31570.4
181.305	24450.1
184.68	18103.5
188.055	12858.4
191.43	8545.42
194.805	5240.18
198.179	2425.68
201.554	745.68
204.929	-38.8018
208.304	140.934
211.679	316.851
215.054	-62.5401
218.428	2845.98
221.803	5658.88
225.178	8134.52
228.553	10722.1
231.928	13810.1
235.303	15521.3
238.677	15016.6
242.052	12614.1
245.427	10166.1
248.802	8372.25
252.177	7244.92
255.551	7179.3
258.926	7208.81
262.301	6675.87
265.676	4720.59
269.051	1866.15
272.425	82.7281
275.8	204.65
279.175	322.341
282.55	575.072
285.925	3143.59
289.3	6887.85
292.674	10680.1
296.049	11972.1
299.424	10210.5
302.799	7810.65
306.174	6167.65
309.548	5349.81
312.923	5570.51
316.298	6771.69
319.673	8369.78
323.048	9935.49
326.422	10444.9
329.797	9184.48
333.172	6759
336.547	4072.07
339.922	2375.86
343.296	1355.8
346.671	937.931
350.046	781.876
353.421	761.315
356.796	652.999
360.171	636.338
363.545	679.06
366.92	721.894
370.295	682.91
373.67	763.87
377.045	796.064
380.419	728.814
383.794	681.573
387.169	629.806
390.544	610.112
393.919	608.089
397.293	634.823
400.668	576.453
404.043	549.692
407.418	455.834
410.793	320.337
414.168	333.338
417.542	302.932
420.917	184.604
424.292	144.663
427.667	57.1699
431.042	14.7339
434.416	5.70898
437.791	4.06836
441.166	13.7959
444.541	16.9014
447.916	9.95508
451.291	16.6143
454.665	35.0225
458.04	10.1201
461.415	64.3423
464.79	39.6362
468.165	74.7407
471.539	62.4116
474.914	33.687
478.289	11.4409
481.664	9.73242
485.039	11.9048
488.413	13.1421
491.788	13.2637
495.163	57.8911
498.538	74.707
501.913	33.1626
505.288	38.4785
508.662	19.1807
512.037	31.8491
515.412	23.9634
518.787	48.5405
522.162	6.52881
525.536	39.4907
528.911	88.7563
532.286	81.6231
535.661	57.3589
539.036	102.406
542.41	147.81
545.785	127.501
549.16	130.683
552.535	127.177
555.91	133.009
559.284	144.13
562.659	71.5337
566.034	138.518
569.409	91.0269
572.784	129.272
576.159	47.6704
579.533	37.3369
582.908	21.9004
586.283	4.22266
589.658	24.3271
593.033	57.2715
596.408	0.079102
599.782	32.8145
603.157	55.7266
606.532	25.147
609.907	36.3345
613.282	65.3179
616.656	28.2969
620.031	85.3272
623.406	88.0024
626.781	138.71
630.156	222.327
633.53	203.5
636.905	361.269
640.28	402.733
643.655	559.527
647.03	641.719
650.404	900.557
653.779	1221.4
657.154	1573.36
660.529	2038.99
663.904	2740.5
667.279	3626.72
670.653	4489.88
674.028	5037.34
677.403	5057.95
680.778	4575.15
684.153	3839.71
687.528	3114.3
690.902	2760.9
694.277	2760.04
697.652	3101.7
701.027	3601.12
704.402	4513.54
707.776	4473.46
711.151	4595.33
714.526	4616.45
717.901	3470.43
721.276	2743.15
724.65	2094.87
728.025	1552.51
731.4	1133.04
734.775	922.842
738.15	753.299
741.524	576.105
744.899	508.584
748.274	443.272
751.649	226.044
755.024	264.968
758.399	185.868
761.773	44.6968
765.148	25.8667
768.523	20.1426
771.898	54.4639
775.273	45.0239
778.648	71.8745
782.022	15.5669
785.397	94.3457
788.772	29.2446
792.147	17.9102
795.521	32.6733
798.896	6.37451
802.271	26.0503
805.646	22.8286
809.021	24.9229
812.396	50.8379
815.77	19.7207
819.145	61.4141
822.52	19.7842
825.895	139.513
829.27	143.727
832.644	107.816
836.019	67.2271
839.394	119.393
842.769	90.1416
846.144	97.2314
849.519	63.9273
852.893	33.4873
856.268	97.2471
859.643	92.0122
863.018	78.3594
866.393	62.811
869.767	91.1021
873.142	72.1953
876.517	43.063
879.892	52.6372
883.267	88.6128
886.641	67.2134
890.016	85.4302
893.391	144.885
896.766	116.34
900.141	78.9258
903.516	64.0757
906.89	48.063
910.265	67.4829
913.64	84.021
917.015	11.7783
920.39	49.6582
923.764	59.8711
927.139	121.962
930.514	141.448
933.889	74.0791
937.264	58.0889
940.639	64.4038
944.013	56.4165
947.388	19.416
950.763	36.6397
954.138	12.1226
957.513	46.7822
960.887	57.1348
964.262	20.5181
967.637	38.8062
971.012	24.6787
974.387	22.2651
977.761	59.1108
981.136	64.6357
984.511	68.3018
987.886	51.6411
991.261	62.5898
994.635	7.64356
998.01	23.0913
1001.38	81.2188
1004.76	4.4917
1008.13	20.0815
1011.51	8.83252
1014.88	55.4727
1018.26	41.6919
1021.63	65.644
1025.01	27.1148
1028.38	59.8184
1031.76	86.9844
1035.13	95.2661
1038.51	78.6631
1041.88	87.0029
1045.26	94.3345
1048.63	4.02246
1052.01	75.7627
1055.38	92.0698
1058.76	66.5923
1062.13	96.4287
1065.51	87.6167
1068.88	20.1558
1072.26	61.4624
1075.63	45.4717
1079.01	0.818848
1082.38	53.6455
1085.76	67.4624
1089.13	68.4258
1092.51	75.8369
1095.88	59.937
1099.26	58.1616
1102.63	45.1606
1106	150.463
1109.38	77.563
1112.75	26.3936
1116.13	11.6841
1119.5	62.5889
1122.88	82.1553
1126.25	47.936
1129.63	122.869
1133	109.227
1136.38	65.6445
1139.75	45.7412
1143.13	45.0674
1146.5	40.7012
1149.88	66.2007
1153.25	49.3428
1156.63	51.6289
1160	98.5005
1163.38	97.7954
1166.75	51.019
1170.13	34.4321
1173.5	86.0454
1176.88	100.107
1180.25	72.834
1183.62	34.2734
1187	173.12
1190.38	38.9336
1193.75	20.5532
1197.12	33.73
1200.5	23.2085
1203.87	28.4429
1207.25	102.376
1210.62	50.3062
1214	100.137
1217.37	69.7754
1220.75	5.52686
1224.12	32.0645
1227.5	75.0806
1230.87	73.0898
1234.25	81.5083
1237.62	146.164
1241	58.8857
1244.37	105.099
1247.75	136.484
1251.12	66.7012
1254.5	56.8037
1257.87	33.2681
1261.25	36.2988
1264.62	70.999
1267.99	53.0713
1271.37	120.878
1274.74	116.942
1278.12	86.3447
1281.49	30.6201
1284.87	13.4609
1288.24	29.6094
1291.62	0
