Measurement: Raman, 785 nm, unoriented, Raman Data Processed
Mineral: Fiedlerite
Rruff sample: R060859
Ideal chemistry: Pb_3_Cl_4_F(OH)H_2_O
Locality: Laurium, Attica, Greece
Source: Michael Scott
Description: Colorless prismatic crystals associated with phosgenite, polytype 1A
Measured chemistry: Pb_3.00_Cl_4.00_F_1.00_(OH)Â·H_2_O ; OH and H_2_O estimated by difference
Raman shift (cm-1)	intensity
137.919	0
140.812	1617.64
143.705	7240.78
146.597	12149.6
149.49	12986.1
152.383	9056.24
155.276	5493.33
158.168	5751.62
161.061	9644.59
163.954	14676.8
166.846	18097.3
169.739	17853
172.632	16010.5
175.524	13878.3
178.417	10947.4
181.31	8676.46
184.203	6521.97
187.095	4616.28
189.988	3133.51
192.881	1885.01
195.773	1100.5
198.666	648.41
201.559	173.473
204.452	-2.18527
207.344	-4.74414
210.237	46.038
213.13	187.065
216.022	1046.65
218.915	1917.58
221.808	2672.04
224.7	3001.7
227.593	3461.18
230.486	4116.99
233.379	4866.5
236.271	5089.73
239.164	4933.1
242.057	4346.67
244.949	3626.15
247.842	3359.54
250.735	3400.09
253.627	3783.8
256.52	4248.7
259.413	4515.89
262.305	4055.38
265.198	3008.41
268.091	1655.98
270.984	598.317
273.876	97.2451
276.769	116.049
279.662	96.0537
282.554	787.952
285.447	1861.98
288.34	3251.97
291.233	4670.79
294.125	5408.69
297.018	5001.01
299.911	4022.28
302.803	2917.56
305.696	2045.56
308.589	1525.83
311.481	1249.93
314.374	1273.82
317.267	1640.41
320.159	2142.83
323.052	2481.02
325.945	2619.86
328.838	2345.36
331.73	1779.11
334.623	1125.69
337.516	542.872
340.408	207.8
343.301	102.327
346.194	11.4815
349.087	21.1055
351.979	4.73828
354.872	22.127
357.765	12.2847
360.657	3.4082
363.55	28.665
366.443	80.061
369.335	192.152
372.228	213.423
375.121	225.523
378.014	273.149
380.906	313.67
383.799	236.749
386.692	229.527
389.584	198.748
392.477	238.039
395.37	261.427
398.262	234.61
401.155	177.731
404.048	178.382
406.941	94.5796
409.833	50.6626
412.726	22.0215
415.619	79.5459
418.511	49.5273
421.404	13.4815
424.297	47.4619
427.19	38.748
430.082	8.41895
432.975	2.26123
435.868	0.806152
438.76	21
441.653	5.97314
444.546	9.42236
447.438	53.5557
450.331	14.0059
453.224	6.44531
456.116	33.2612
459.009	29.2925
461.902	123.799
464.795	78.8218
467.687	32.3047
470.58	59.4077
473.473	85.6977
476.365	28.9595
479.258	64.1011
482.151	30.5947
485.043	25.7002
487.936	32.1655
490.829	49.5581
493.722	57.5478
496.614	9.12158
499.507	15.3506
502.4	10.3618
505.292	16.8604
508.185	31.6948
511.078	31.1982
513.971	74.04
516.863	57.8101
519.756	38.9126
522.649	59.1387
525.541	65.8535
528.434	55.4619
531.327	49.0845
534.219	31.2598
537.112	18.54
540.005	61.1826
542.898	49.8486
545.79	50.6074
548.683	65.2764
551.576	56.2012
554.468	29.2183
557.361	15.1977
560.254	60.8945
563.146	93.8911
566.039	26.063
568.932	24.6492
571.824	25.5593
574.717	19.4077
577.61	24.7788
580.503	31.1455
583.395	25.8696
586.288	44.199
589.181	16.1897
592.073	2.12207
594.966	13.9915
597.859	35.1003
600.751	4.4895
603.644	10.5071
606.537	22.1709
609.43	22.7451
612.322	6.99634
615.215	10.5383
618.108	50.5867
621	18.8955
623.893	29.8982
626.786	20.0808
629.678	60.1838
632.571	89.239
635.464	97.8335
638.357	131.075
641.249	191.055
644.142	210.82
647.035	266.576
649.927	290.63
652.82	397.352
655.713	465.485
658.606	611.734
661.498	814.586
664.391	1002.13
667.284	1265.17
670.176	1548.52
673.069	1801.82
675.962	1831.38
678.854	1780.66
681.747	1521.62
684.64	1301.3
687.533	1082.9
690.425	960.14
693.318	882.136
696.211	916.809
699.103	1056.94
701.996	1218.02
704.889	1327.97
707.781	1449.92
710.674	1483.69
713.567	1475.2
716.46	1326.24
719.352	1154.26
722.245	907.949
725.138	669.706
728.03	519.252
730.923	394.117
733.816	324.462
736.708	277.482
739.601	233.372
742.494	210.866
745.386	120.606
748.279	172.383
751.172	150.037
754.065	56.6831
756.957	71.5286
759.85	43.3606
762.743	51.2778
765.635	25.7356
768.528	22.3938
771.421	19.6167
774.313	16.8655
777.206	27.5972
780.099	8.70361
782.992	14.137
785.884	25.3425
788.777	46.1331
791.67	2.19409
794.562	14.6592
797.455	4.99683
800.348	20.8904
803.24	16.582
806.133	6.57227
809.026	14.3247
811.919	17.0449
814.811	47.0335
817.704	38.0269
820.597	3.57788
823.489	59.5383
826.382	35.6409
829.275	37.2573
832.168	30.1333
835.06	54.0249
837.953	33.6763
840.846	50.9094
843.738	65.949
846.631	35.5823
849.524	67.6721
852.416	25.9624
855.309	24.103
858.202	47.8096
861.095	51.3418
863.987	51.5818
866.88	16.0352
869.773	27.259
872.665	9.26709
875.558	55.6707
878.451	15.3892
881.343	72.4429
884.236	46.0769
887.129	10.0986
890.021	31.2329
892.914	14.751
895.807	27.2905
898.7	36.8225
901.592	43.8796
904.485	79.6387
907.378	39.7102
910.27	32.521
913.163	17.9172
916.056	9.73169
918.949	9.43823
921.841	46.9736
924.734	27.0554
927.627	36.6787
930.519	31.7085
933.412	45.5198
936.305	35.5596
939.197	46.5601
942.09	5.75635
944.983	33.7549
947.876	16.1274
950.768	13.4128
953.661	48.9363
956.554	51.353
959.446	17.5908
962.339	38.168
965.232	64.2541
968.125	58.6538
971.017	39.0466
973.91	53.4324
976.803	57.5708
979.695	48.2463
982.588	54.0645
985.481	43.5127
988.373	5.05859
991.266	8.73608
994.159	2.59961
997.052	41.6747
999.944	46.3184
1002.84	54.635
1005.73	57.842
1008.62	58.9085
1011.51	26.6362
1014.41	13.507
1017.3	12.2832
1020.19	26.137
1023.09	4.58582
1025.98	5.06213
1028.87	36.2031
1031.76	29.4962
1034.66	1.59033
1037.55	43.2145
1040.44	27.1327
1043.34	39.2566
1046.23	22.6178
1049.12	24.905
1052.01	34.6108
1054.91	38.5575
1057.8	3.58667
1060.69	49.3742
1063.58	58.3214
1066.48	13.9501
1069.37	52.2389
1072.26	18.9564
1075.15	28.9088
1078.05	36.0753
1080.94	5.32275
1083.83	6.14697
1086.72	24.6908
1089.62	13.1102
1092.51	44.7091
1095.4	24.0625
1098.3	5.32007
1101.19	5.34363
1104.08	13.5366
1106.97	54.6948
1109.87	35.0579
1112.76	11.3873
1115.65	42.1345
1118.55	9.90955
1121.44	29.5913
1124.33	18.3925
1127.22	4.71191
1130.12	32.8362
1133.01	42.8994
1135.9	53.4099
1138.79	44.7263
1141.69	22.9176
1144.58	13.905
1147.47	36.2069
1150.37	38.7502
1153.26	76.6235
1156.15	64.2292
1159.04	63.4661
1161.93	37.1346
1164.83	39.2775
1167.72	35.4429
1170.61	45.8882
1173.51	5.42859
1176.4	18.4791
1179.29	70.4126
1182.18	28.2439
1185.08	35.9759
1187.97	35.2245
1190.86	57.1977
1193.76	30.5801
1196.65	46.7607
1199.54	42.7296
1202.43	11.2366
1205.33	5.90015
1208.22	7.71423
1211.11	62.0839
1214	52.1134
1216.9	57.8956
1219.79	62.7715
1222.68	73.2946
1225.58	41.9884
1228.47	59.0674
1231.36	30.1826
1234.25	61.4969
1237.15	24.7142
1240.04	0.244019
1242.93	54.8207
1245.82	51.3232
1248.72	16.3835
1251.61	24.3229
1254.5	1.87122
1257.39	30.8245
1260.29	31.694
1263.18	53.9713
1266.07	24.5477
