Measurement: Raman, 532 nm, unoriented, Raman Data Processed
Mineral: Filatovite
Rruff sample: R070030
Ideal chemistry: K(Al,Zn^2+^)_2_(As^5+^,Si)_2_O_8_
Locality: Great Tolbachik Eruption (1976), Tolbachik Volcano, Kamchatka Peninsula, Russia
Source: Michael Scott
Description: Colorless prismatic single crystal embedded in epoxy, co-type material
Raman shift (cm-1)	intensity
156.932	0
160.307	89.418
163.681	141.504
167.056	227.788
170.431	229.133
173.806	320.173
177.181	242.88
180.555	206.4
183.93	166.686
187.305	291.634
190.68	295.565
194.055	265.907
197.43	348.801
200.804	462.44
204.179	498.146
207.554	680.586
210.929	714.383
214.304	836.879
217.679	728.009
221.053	898.235
224.428	753.298
227.803	712.045
231.178	738.79
234.553	634.536
237.927	597.569
241.302	677.808
244.677	666.579
248.052	521.32
251.427	486.69
254.801	469.583
258.176	385.524
261.551	237.024
264.926	290.762
268.301	125.127
271.675	132.613
275.05	47.2598
278.425	33.4834
281.8	2.54102
285.175	45.9766
288.55	12.8525
291.924	122.592
295.299	139.358
298.674	333.532
302.049	376.329
305.424	469.177
308.798	602.081
312.173	734.128
315.548	770.345
318.923	861.955
322.298	749.878
325.673	631.953
329.047	457.205
332.422	385.904
335.797	177.447
339.172	202.869
342.546	71.6445
345.921	64.4619
349.296	80.8193
352.671	18.7686
356.046	45.8789
359.421	28.4941
362.795	187.035
366.17	344.947
369.545	349.683
372.92	558.856
376.295	598.179
379.67	689.015
383.044	720.34
386.419	873.805
389.794	929.664
393.169	1160.25
396.543	1421.18
399.918	1685.06
403.293	2015.08
406.668	2189.67
410.043	2147.63
413.418	1909.21
416.792	1627.56
420.167	1297.85
423.542	1017.98
426.917	858.203
430.292	725.869
433.666	629.51
437.041	349.367
440.416	180.823
443.791	43.4043
447.166	9.60547
450.541	26.4219
453.915	49.3203
457.29	38.5898
460.665	278.188
464.04	566.838
467.415	849.957
470.789	1085.22
474.164	1449.15
477.539	1680.23
480.914	1840.38
484.289	1701.88
487.663	1652.92
491.038	1340.06
494.413	950.9
497.788	762.709
501.163	401.723
504.538	319.572
507.912	248.342
511.287	195.025
514.662	98.4121
518.037	143.639
521.412	126.09
524.786	6.7793
528.161	19.6797
531.536	106.625
534.911	22.127
538.286	43.2637
541.66	44.6426
545.035	31.0742
548.41	19.9141
551.785	113.022
555.16	235.359
558.534	137.688
561.909	221.758
565.284	198.055
568.659	182.994
572.034	129.805
575.409	21.9219
578.783	24.9609
582.158	54.7832
585.533	26.1602
588.908	55.0703
592.283	38.1016
595.658	54.5957
599.032	78.4766
602.407	27.2363
605.782	60.1113
609.157	179.33
612.532	241.338
615.906	172.586
619.281	149.049
622.656	238.254
626.031	274.039
629.406	269.889
632.78	326.158
636.155	419.693
639.53	440.81
642.905	446.281
646.28	427.08
649.654	429.156
653.029	346.924
656.404	515.658
659.779	463.582
663.154	522.144
666.529	617.738
669.903	613.268
673.278	664.394
676.653	666.797
680.028	718.146
683.403	657.502
686.778	656.576
690.152	642.25
693.527	671.854
696.902	553.881
700.277	499.24
703.652	484.607
707.026	398.482
710.401	297.252
713.776	240.016
717.151	175.555
720.526	237.477
723.9	32.2832
727.275	31.709
730.65	196.484
734.025	116.023
737.4	148.426
740.774	123.482
744.149	145.578
747.524	39.6094
750.899	13.834
754.274	92.918
757.649	359.826
761.023	382.777
764.398	478.91
767.773	647.373
771.148	858.998
774.523	963.676
777.897	1159.06
781.272	1288.94
784.647	1273.56
788.022	1246.77
791.397	978.963
794.771	912.146
798.146	834.016
801.521	741.277
804.896	645.684
808.271	830.408
811.645	881.74
815.02	885.789
818.395	1110.77
821.77	1187.95
825.145	1398.47
828.52	1644.11
831.894	2028.37
835.269	2555.08
838.644	3273.55
842.019	4277.54
845.394	5657.42
848.769	7452.69
852.143	9407.57
855.518	11209.7
858.893	12312.6
862.268	12248.3
865.643	11139.5
869.017	9471.97
872.392	7944.2
875.767	6283.9
879.142	5164.08
882.517	4133.12
885.891	3315
889.266	2862.33
892.641	2360.54
896.016	1979.1
899.391	1848.69
902.765	1762.31
906.14	1530.04
909.515	1406.68
912.89	1189.1
916.265	943.324
919.639	556.951
923.014	505.566
926.389	273.391
929.764	51.6758
933.139	74.0938
936.514	67.6797
939.888	42.0391
943.263	59.0957
946.638	93.8164
950.013	54.207
953.388	142.5
956.763	141.152
960.137	21.3457
963.512	66.5176
966.887	176.75
970.262	237.426
973.636	277.34
977.011	331.299
980.386	460.949
983.761	554.764
987.136	674.981
990.511	652.975
993.885	683.365
997.26	685.879
1000.63	754.648
1004.01	755.549
1007.38	715.793
1010.76	671.144
1014.13	563.057
1017.51	578.916
1020.88	513.125
1024.26	465.111
1027.63	326.361
1031.01	391.59
1034.38	467.223
1037.76	344.545
1041.13	334.273
1044.51	279.859
1047.88	310.715
1051.26	185.312
1054.63	217.744
1058.01	189.295
1061.38	290.711
1064.76	144.912
1068.13	148.17
1071.51	200.934
1074.88	226.432
1078.26	104.607
1081.63	142.17
1085.01	111.842
1088.38	155.621
1091.76	160.828
1095.13	168.488
1098.51	190.508
1101.88	75.2246
1105.25	82.6797
1108.63	74.4961
1112	148.348
1115.38	69
1118.75	116.99
1122.13	209.84
1125.5	98.1172
1128.88	225.869
1132.25	57.9141
1135.63	52.9609
1139	32.9434
1142.38	118.518
1145.75	81.4551
1149.13	51.3379
1152.5	78.3379
1155.88	108.471
1159.25	23.6172
1162.63	55.3594
1166	25.0898
1169.38	15.4941
1172.75	60.9199
1176.12	126.35
1179.5	78.2148
1182.88	17.873
1186.25	123.969
1189.62	109.578
1193	195.176
1196.37	122.846
1199.75	164.625
1203.12	144.16
1206.5	230.031
1209.87	124.236
1213.25	28.5215
1216.62	82.6133
1220	133.891
1223.37	60.3906
1226.75	43.4512
1230.12	111.492
1233.5	225.912
1236.87	137.935
1240.25	134.68
1243.62	106.508
1247	28.4727
1250.37	106.842
1253.75	85.1836
1257.12	32.5742
1260.5	32.0449
1263.87	35.8086
1267.24	220.188
1270.62	168.203
1273.99	197.557
1277.37	178.166
1280.74	91.6367
1284.12	199.731
1287.49	184.078
1290.87	337.008
1294.24	229.781
1297.62	155.75
1300.99	82.3281
1304.37	220.951
1307.74	157.461
1311.12	95.2207
1314.49	132.391
1317.87	11.5547
