Measurement: Raman, 780 nm, unoriented, Raman Data Processed
Mineral: Fillowite
Rruff sample: R110143
Ideal chemistry: Na_2_CaMn^2+^_7_(PO_4_)_6_
Locality: Gottcha claim, Cross Lake, Manitoba, Canada
Source: Donald M Doell
Description: Reddish-brown, greasy, massive
Raman shift (cm-1)	intensity
176.456	0
179.349	0.90686
182.242	1.47397
185.134	5.35442
188.027	6.34525
190.92	8.87094
193.812	10.0766
196.705	6.40509
199.598	10.1562
202.49	17.5068
205.383	20.3216
208.276	19.1641
211.168	16.9013
214.061	16.8965
216.954	14.8509
219.847	11.4134
222.739	6.5757
225.632	8.01442
228.525	10.2104
231.417	13.7293
234.31	16.3958
237.203	23.5123
240.095	28.1455
242.988	33.2923
245.881	30.802
248.774	31.4056
251.666	24.5063
254.559	20.0853
257.452	15.3952
260.344	15.228
263.237	14.2835
266.13	11.526
269.022	10.54
271.915	7.2458
274.808	4.41127
277.701	4.20364
280.593	2.80142
283.486	0.102631
286.379	0.69136
289.271	1.24767
292.164	0.365936
295.057	0.782349
297.95	0.149872
300.842	0.524185
303.735	0.976532
306.628	0.833176
309.52	1.91069
312.413	0.771957
315.306	1.66396
318.198	2.81068
321.091	3.65185
323.984	2.23283
326.877	3.79512
329.769	6.02135
332.662	6.3804
335.555	5.30281
338.447	3.40742
341.34	3.89774
344.233	4.17127
347.125	3.54088
350.018	2.54181
352.911	2.74383
355.803	1.48016
358.696	1.38097
361.589	2.54355
364.482	2.01715
367.374	1.78469
370.267	3.41336
373.16	0.781822
376.052	1.75514
378.945	0.240273
381.838	0.85376
384.731	1.54716
387.623	0.584557
390.516	0.556679
393.409	1.76929
396.301	8.18095
399.194	15.0397
402.087	18.7338
404.979	26.6907
407.872	36.7793
410.765	46.9955
413.658	58.0596
416.55	65.2517
419.443	70.5141
422.336	75.3127
425.228	75.7306
428.121	72.2684
431.014	68.3825
433.906	63.685
436.799	65.4421
439.692	57.1604
442.584	55.0251
445.477	56.6435
448.37	55.2609
451.263	53.881
454.155	51.3916
457.048	52.3106
459.941	51.3256
462.833	52.5027
465.726	53.0899
468.619	56.4909
471.512	58.4714
474.404	63.9147
477.297	66.1758
480.19	63.7413
483.082	61.9583
485.975	57.7112
488.868	48.5718
491.76	40.4953
494.653	35.1434
497.546	29.4349
500.438	18.5398
503.331	15.5517
506.224	8.84884
509.117	3.33433
512.009	1.55936
514.902	2.10296
517.795	1.6619
520.687	1.1789
523.58	0.6856
526.473	0.96228
529.365	0.637199
532.258	5.2297
535.151	12.0492
538.044	22.8343
540.936	36.9273
543.829	42.0109
546.722	43.0208
549.614	40.5828
552.507	44.7173
555.4	45.3123
558.293	44.6458
561.185	44.7303
564.078	44.6228
566.971	48.5399
569.863	51.6805
572.756	52.382
575.649	60.679
578.541	70.522
581.434	76.2558
584.327	80.7976
587.22	84.4454
590.112	78.3582
593.005	67.6092
595.898	56.65
598.79	50.4975
601.683	48.588
604.576	47.7609
607.468	49.9131
610.361	50.792
613.254	50.3285
616.146	48.2039
619.039	42.1185
621.932	39.7139
624.825	34.6394
627.717	31.3767
630.61	23.6663
633.503	15.5642
636.395	9.74186
639.288	9.77935
642.181	9.01685
645.073	3.90552
647.966	4.00493
650.859	0.277824
653.752	0.52861
656.644	2.12008
659.537	0.518448
662.43	1.89988
665.322	0.361641
668.215	2.04559
671.108	1.11945
674	0.445488
676.893	0.17543
679.786	1.08536
682.679	0.359818
685.571	1.59521
688.464	2.4551
691.357	2.20796
694.249	2.54714
697.142	1.27045
700.035	3.21953
702.928	2.31999
705.82	0.513535
708.713	1.33106
711.606	2.25497
714.498	2.3324
717.391	2.77572
720.284	2.04601
723.176	1.40807
726.069	2.22964
728.962	1.01779
731.855	4.50552
734.747	2.10037
737.64	1.67598
740.533	2.03646
743.425	1.73213
746.318	0.757202
749.211	2.0412
752.103	1.31579
754.996	1.09091
757.889	1.89623
760.782	3.24117
763.674	2.11215
766.567	2.60919
769.46	2.28663
772.352	1.95931
775.245	0.043976
778.138	1.02222
781.03	0.218987
783.923	3.58153
786.816	1.1423
789.708	3.27899
792.601	4.43835
795.494	4.97221
798.387	2.7573
801.279	2.57678
804.172	4.6986
807.065	3.57657
809.957	4.49715
812.85	3.66434
815.743	3.68872
818.635	8.21281
821.528	5.55507
824.421	6.05398
827.314	5.10574
830.206	7.90689
833.099	8.68915
835.992	6.27892
838.884	6.97636
841.777	6.23607
844.67	6.4791
847.562	6.06269
850.455	5.62438
853.348	6.60568
856.241	5.2968
859.133	3.82901
862.026	4.25561
864.919	3.41355
867.811	0.348495
870.704	0.009697
873.597	0.404205
876.49	0.086487
879.382	1.95277
882.275	1.94515
885.168	1.89288
888.06	3.24236
890.953	1.4546
893.846	0.626442
896.738	1.46789
899.631	1.32974
902.524	0.741386
905.417	2.03421
908.309	7.55856
911.202	7.23394
914.095	10.0905
916.987	14.2212
919.88	19.2257
922.773	27.7482
925.665	38.9144
928.558	52.1617
931.451	78.4938
934.343	116.967
937.236	180.196
940.129	272.488
943.022	346.503
945.914	336.36
948.807	361.879
951.7	483.11
954.592	665.782
957.485	842.988
960.378	921.837
963.27	842.131
966.163	736.519
969.056	705.868
971.949	779.835
974.841	767.207
977.734	535.841
980.627	307.011
983.519	181.754
986.412	119.186
989.305	82.7079
992.197	52.4858
995.09	32.8689
997.983	19.9699
1000.88	13.795
1003.77	11.8559
1006.66	16.0562
1009.55	17.0875
1012.45	14.9121
1015.34	10.0667
1018.23	5.61099
1021.12	1.35905
1024.02	0.38942
1026.91	0.797867
1029.8	4.4071
1032.69	8.23415
1035.59	10.7603
1038.48	17.7758
1041.37	24.5628
1044.27	25.8456
1047.16	20.973
1050.05	13.9531
1052.94	10.2809
1055.84	4.39387
1058.73	0.703545
1061.62	1.59505
1064.52	5.52861
1067.41	1.64913
1070.3	0.526711
1073.19	0.089912
1076.09	0.211586
1078.98	0.053467
1081.87	5.09112
1084.76	4.46287
1087.66	8.17525
1090.55	6.12654
1093.44	7.14559
1096.34	6.92051
1099.23	5.20406
1102.12	6.0422
1105.01	6.87453
1107.91	8.94374
1110.8	11.7032
1113.69	9.69279
1116.58	10.6638
1119.48	8.67761
1122.37	8.17136
1125.26	6.35789
1128.15	6.4991
1131.05	7.36406
1133.94	6.9018
1136.83	5.80142
1139.72	7.98761
1142.62	1.16717
1145.51	2.2168
1148.4	0.334831
1151.3	0.25425
1154.19	0.078644
1157.08	1.0465
1159.97	0.895119
1162.87	1.58634
1165.76	1.59675
1168.65	1.44349
1171.55	0.646973
1174.44	3.42549
1177.33	4.72663
1180.22	4.41443
1183.12	3.78921
1186.01	4.25993
1188.9	1.8879
1191.79	5.03796
1194.69	5.36913
1197.58	3.78173
1200.47	6.71877
1203.37	5.73198
1206.26	8.37749
1209.15	8.54184
1212.04	4.82481
1214.93	6.17678
1217.83	2.69887
1220.72	2.1776
1223.61	1.5761
1226.51	3.10388
1229.4	0.431473
1232.29	1.2164
1235.18	1.49447
1238.08	0.118523
1240.97	1.20158
1243.86	1.18923
1246.76	3.74245
1249.65	0.25325
1252.54	1.22993
1255.43	0.89959
1258.33	2.44675
1261.22	4.08366
1264.11	2.86318
1267	1.85043
1269.9	2.62396
1272.79	2.47952
1275.68	3.19103
1278.58	2.00759
1281.47	0.511833
1284.36	0.0028
