Measurement: Raman, 532 nm, unoriented, Raman Data Processed
Mineral: Fillowite
Rruff sample: R110143
Ideal chemistry: Na_2_CaMn^2+^_7_(PO_4_)_6_
Locality: Gottcha claim, Cross Lake, Manitoba, Canada
Source: Donald M Doell
Description: Reddish-brown, greasy, massive
Raman shift (cm-1)	intensity
171.006	0
173.898	1.6721
176.791	1.78743
179.684	4.65261
182.577	6.14087
185.469	6.4415
188.362	6.40334
191.255	8.32405
194.147	8.09992
197.04	8.12949
199.933	8.82329
202.825	9.39822
205.718	7.68469
208.611	10.0291
211.504	9.33073
214.396	8.59611
217.289	6.98785
220.182	6.69104
223.074	5.23899
225.967	4.78026
228.86	4.52647
231.752	5.93956
234.645	6.77175
237.538	7.569
240.43	8.27334
243.323	10.7591
246.216	9.96317
249.109	9.48955
252.001	8.06934
254.894	7.15343
257.787	6.08623
260.679	5.30597
263.572	5.03712
266.465	5.03463
269.358	3.88209
272.25	2.61532
275.143	3.43274
278.036	0.968243
280.928	2.3051
283.821	0.055962
286.714	0.239662
289.606	1.18048
292.499	1.6664
295.392	0.977215
298.284	0.852448
301.177	0.415203
304.07	0.708145
306.963	0.174782
309.855	0.428837
312.748	0.377769
315.641	0.486797
318.533	0.188007
321.426	0.896324
324.319	0.687325
327.212	2.31095
330.104	1.40131
332.997	1.98787
335.89	1.4017
338.782	2.52809
341.675	1.47178
344.568	1.97073
347.46	1.71898
350.353	2.3011
353.246	1.69729
356.139	1.83353
359.031	0.464756
361.924	1.25599
364.817	2.02803
367.709	0.883808
370.602	1.34568
373.495	1.2515
376.387	0.331028
379.28	0.679005
382.173	0.112577
385.065	1.37377
387.958	0.250803
390.851	1.60762
393.744	0.562881
396.636	0.430325
399.529	1.8052
402.422	3.12542
405.314	3.59619
408.207	4.80778
411.1	6.4193
413.993	7.33721
416.885	9.30643
419.778	9.67315
422.671	10.5102
425.563	10.9462
428.456	11.3242
431.349	14.0975
434.241	13.5827
437.134	12.453
440.027	12.2205
442.92	10.9779
445.812	11.3886
448.705	10.6295
451.598	9.25019
454.49	10.8543
457.383	10.585
460.276	12.3278
463.168	13.9622
466.061	15.6491
468.954	16.1893
471.846	17.1368
474.739	19.0986
477.632	21.1923
480.525	21.2275
483.417	21.0594
486.31	17.8425
489.203	15.9926
492.095	12.9158
494.988	11.1139
497.881	8.47293
500.774	7.02011
503.666	4.37667
506.559	3.69278
509.452	2.01334
512.344	0.172604
515.237	0.114311
518.13	0.059185
521.022	1.13447
523.915	0.535248
526.808	0.25214
529.701	1.25552
532.593	2.43495
535.486	5.94512
538.379	10.0114
541.271	14.6499
544.164	17.7196
547.057	14.5174
549.949	13.2872
552.842	14.5319
555.735	13.8648
558.628	14.5193
561.52	12.3434
564.413	12.2636
567.306	13.0823
570.198	13.6309
573.091	13.7902
575.984	15.8605
578.876	19.4878
581.769	19.5019
584.662	20.9145
587.554	20.3492
590.447	16.8493
593.34	13.967
596.232	10.3679
599.125	9.20646
602.018	7.75549
604.911	8.99764
607.803	11.1106
610.696	13.6767
613.589	13.9274
616.481	15.4266
619.374	13.818
622.267	11.8759
625.159	12.1264
628.052	8.80799
630.945	6.49956
633.838	4.20943
636.73	3.29169
639.623	2.14626
642.516	0.715729
645.408	0.290913
648.301	0.313351
651.194	0.13632
654.087	0.72645
656.979	0.636677
659.872	0.08353
662.765	0.317055
665.657	0.117149
668.55	0.317709
671.443	0.229895
674.335	1.1326
677.228	1.01612
680.121	0.294132
683.014	1.28763
685.906	1.05233
688.799	0.787689
691.692	1.52698
694.584	0.289459
697.477	0.584099
700.37	0.442225
703.263	0.488764
706.155	2.29114
709.048	0.944792
711.941	2.50015
714.833	1.04857
717.726	1.5012
720.619	0.811218
723.511	0.411358
726.404	0.992537
729.297	0.865145
732.189	0.713182
735.082	1.14903
737.975	0.784023
740.868	0.250082
743.76	0.291803
746.653	1.47358
749.546	0.708282
752.438	1.07777
755.331	0.71645
758.224	1.19283
761.116	1.19712
764.009	0.436087
766.902	1.36718
769.795	0.443157
772.687	0.908592
775.58	2.26026
778.473	1.01296
781.365	0.091917
784.258	1.06471
787.151	1.09902
790.043	0.494246
792.936	0.840439
795.829	0.900997
798.722	0.891691
801.614	1.43171
804.507	1.36424
807.4	1.29777
810.292	1.26274
813.185	1.47251
816.078	1.42806
818.971	2.68349
821.863	1.53378
824.756	2.26813
827.649	2.34836
830.541	2.00726
833.434	1.77025
836.327	1.91885
839.219	1.79419
842.112	1.43428
845.005	1.87104
847.898	1.33431
850.79	0.355103
853.683	1.1654
856.576	2.30894
859.468	0.797609
862.361	0.64044
865.254	0.15737
868.146	0.077684
871.039	0.233749
873.932	0.06813
876.824	0.614731
879.717	1.07462
882.61	0.246914
885.503	0.633629
888.395	0.135384
891.288	0.076191
894.181	1.05487
897.073	1.47623
899.966	1.78508
902.859	3.60614
905.751	4.23618
908.644	4.91072
911.537	6.41958
914.43	6.20895
917.322	8.70435
920.215	11.0857
923.108	13.7967
926	16.4526
928.893	21.1482
931.786	32.5436
934.678	49.7256
937.571	72.1307
940.464	97.8438
943.357	115.364
946.249	107
949.142	118.975
952.035	155.237
954.927	203.734
957.82	235.547
960.713	238.23
963.606	214.987
966.498	199.428
969.391	202.031
972.284	229.862
975.176	224.172
978.069	157.318
980.962	94.1644
983.854	58.4582
986.747	43.6098
989.64	31.4175
992.533	21.3406
995.425	14.4538
998.318	11.3544
1001.21	9.2767
1004.1	8.91904
1007	9.07261
1009.89	7.94204
1012.78	5.28446
1015.67	2.5599
1018.57	1.11954
1021.46	1.2724
1024.35	1.43128
1027.24	0.404293
1030.14	2.44829
1033.03	3.71896
1035.92	5.57487
1038.82	9.36435
1041.71	9.95624
1044.6	10.2036
1047.49	7.69436
1050.39	6.01605
1053.28	2.73818
1056.17	1.85955
1059.07	0.207432
1061.96	1.14691
1064.85	0.396385
1067.74	1.51985
1070.63	1.50032
1073.53	0.406712
1076.42	1.00017
1079.31	1.06822
1082.21	1.6895
1085.1	0.738701
1087.99	0.375629
1090.88	2.02594
1093.78	2.71014
1096.67	3.90477
1099.56	2.63737
1102.45	2.2215
1105.35	1.35593
1108.24	2.05988
1111.13	2.59867
1114.03	2.6926
1116.92	3.37997
1119.81	2.56614
1122.7	2.68142
1125.6	2.14823
1128.49	2.25002
1131.38	3.23894
1134.28	3.12767
1137.17	2.97726
1140.06	1.13069
1142.95	0.400375
1145.85	0.936321
1148.74	0.171772
1151.63	0.41613
1154.52	0.155857
1157.42	0.420536
1160.31	0.336632
1163.2	0.383335
1166.09	1.29302
1168.99	0.014328
1171.88	1.32758
1174.77	0.935261
1177.66	1.5244
1180.56	1.46306
1183.45	0.829668
1186.34	1.59698
1189.24	0.575562
1192.13	1.1194
1195.02	2.39926
1197.91	1.69219
1200.81	2.64782
1203.7	2.6971
1206.59	3.31965
1209.48	3.46918
1212.38	2.42106
1215.27	3.0485
1218.16	1.44177
1221.06	1.52542
1223.95	1.59763
1226.84	1.75814
1229.73	0.311941
1232.63	0.351851
1235.52	2.03219
1238.41	1.96468
1241.31	2.04623
1244.2	1.69003
1247.09	1.16033
1249.98	1.55141
1252.88	1.11624
1255.77	1.67897
1258.66	0.911087
1261.55	1.07594
1264.45	1.44802
1267.34	0.695057
1270.23	0.376745
1273.12	1.08618
1276.02	1.45617
1278.91	0.995111
1281.8	0.197313
1284.69	0.960213
1287.59	0.345192
1290.48	1.45249
1293.37	0.64115
1296.27	0.210073
1299.16	0.644905
1302.05	0.588272
