Measurement: Raman, 532 nm, unoriented, Raman Data Processed
Mineral: Finnemanite
Rruff sample: R140329
Ideal chemistry: Pb^2+^_5_(As^3+^O_3_)_3_Cl
Locality: LÃ¥ngban, Varmland, Sweden
Source: Benjamin N. Schumer
Description: Dark grey prismatic crystals, associated with hematite
Raman shift (cm-1)	intensity
193.499	0
196.392	6.8183
199.284	0.277649
202.177	36.3041
205.07	82.4456
207.962	106.072
210.855	95.3285
213.748	78.1793
216.64	75.824
219.533	89.6032
222.426	109.878
225.319	140.341
228.211	170.793
231.104	195.778
233.997	229.837
236.889	274.401
239.782	320.271
242.675	358.454
245.567	367.763
248.46	350.131
251.353	301.459
254.245	248.23
257.138	184.553
260.031	128.967
262.924	84.538
265.816	54.3374
268.709	33.384
271.602	18.3259
274.494	8.64751
277.387	1.57785
280.28	3.38832
283.173	6.61175
286.065	6.19806
288.958	4.29355
291.851	3.86385
294.743	1.02623
297.636	7.14313
300.529	13.286
303.421	25.0416
306.314	37.8966
309.207	52.6916
312.099	69.3044
314.992	82.8928
317.885	93.271
320.778	102.927
323.67	111.92
326.563	116.012
329.456	124.092
332.348	126.453
335.241	128.197
338.134	130.1
341.027	125.571
343.919	125.223
346.812	124.93
349.705	128.025
352.597	135.866
355.49	144.641
358.383	158.564
361.276	173.284
364.168	202.062
367.061	238.558
369.954	269.243
372.846	294.671
375.739	290.625
378.632	255.723
381.524	205.788
384.417	161.228
387.31	129.609
390.202	105.844
393.095	83.3344
395.988	66.5466
398.881	52.2379
401.773	40.4373
404.666	31.7596
407.559	22.7793
410.451	17.5089
413.344	13.0632
416.237	6.06473
419.13	2.70468
422.022	0.768127
424.915	0.918579
427.808	0.904068
430.7	3.09482
433.593	10.682
436.486	21.9243
439.378	41.1976
442.271	61.8891
445.164	89.9348
448.057	130.605
450.949	162.158
453.842	162.595
456.735	117.722
459.627	77.3738
462.52	50.7295
465.413	33.9949
468.305	24.8541
471.198	20.7291
474.091	14.6069
476.983	12.07
479.876	7.09584
482.769	3.48933
485.662	1.27934
488.554	1.6539
491.447	1.45956
494.34	2.44992
497.232	1.60063
500.125	0.039032
503.018	1.70741
505.911	1.26994
508.803	0.568863
511.696	0.811783
514.589	0.526794
517.481	0.663651
520.374	0.415939
523.267	1.98219
526.159	1.74721
529.052	2.96494
531.945	4.64363
534.837	9.24019
537.73	11.1003
540.623	14.7887
543.516	20.1967
546.408	27.4764
549.301	37.5977
552.194	49.2203
555.086	66.4221
557.979	90.4837
560.872	121.863
563.764	161.733
566.657	209.992
569.55	263.232
572.443	314.819
575.335	345.845
578.228	336.699
581.121	284.672
584.013	217.476
586.906	158.084
589.799	114.252
592.692	83.1098
595.584	64.1954
598.477	46.4915
601.37	34.9418
604.262	27.1132
607.155	22.6321
610.048	17.3718
612.94	19.9535
615.833	14.8008
618.726	13.9864
621.619	14.8172
624.511	18.0862
627.404	19.4561
630.297	26.1701
633.189	31.8774
636.082	36.3455
638.975	38.1366
641.867	35.4526
644.76	27.3919
647.653	18.6813
650.545	12.2482
653.438	5.58704
656.331	2.96666
659.224	0.658295
662.116	2.54062
665.009	2.91087
667.902	3.33154
670.794	2.57964
673.687	1.07638
676.58	3.08572
679.472	6.30776
682.365	10.1874
685.258	16.8073
688.151	24.4154
691.043	34.9012
693.936	46.4044
696.829	64.0593
699.721	86.6861
702.614	115.692
705.507	158.025
708.399	213.754
711.292	286.437
714.185	383.205
717.078	512.572
719.97	678.119
722.863	872.383
725.756	1083.56
728.648	1301.24
731.541	1483.45
734.434	1531.95
737.327	1341.97
740.219	993.657
743.112	654.723
746.005	420.652
748.897	268.758
751.79	172.21
754.683	108.98
757.575	67.8843
760.468	42.1694
763.361	24.9715
766.254	10.9474
769.146	2.47327
772.039	2.1059
774.932	4.17131
777.824	3.09729
780.717	2.19624
783.61	11.246
786.502	26.6354
789.395	47.5959
792.288	78.0168
795.181	119.525
798.073	177.56
800.966	257.536
803.859	353.305
806.751	464.628
809.644	576.776
812.537	641.046
815.429	655.283
818.322	593.627
821.215	484.098
824.107	357.295
827	252.446
829.893	178.898
832.786	127.441
835.678	93.8654
838.571	69.9413
841.464	51.4079
844.356	38.0338
847.249	26.5907
850.142	17.743
853.034	11.3293
855.927	6.6248
858.82	3.00041
861.713	0.245621
864.605	0.024757
867.498	0.22654
870.391	0.396538
873.283	0.749092
876.176	0.802704
879.069	1.52661
881.962	0.040619
884.854	0.784775
887.747	1.57119
890.64	2.98757
893.532	3.16682
896.425	3.92132
899.318	3.99825
902.21	2.80229
905.103	3.48753
907.996	3.38054
910.889	2.26751
913.781	2.99972
916.674	2.63377
919.567	2.25723
922.459	2.7932
925.352	2.77964
928.245	2.44376
931.137	2.84174
934.03	1.74413
936.923	0.587242
939.816	1.30334
942.708	0.425972
945.601	0.328239
948.494	1.23987
951.386	0.809013
954.279	0.53154
957.172	0.313065
960.064	0.016953
962.957	1.71182
965.85	2.20824
968.742	1.38672
971.635	0.777878
974.528	1.10966
977.421	1.10973
980.313	1.16079
983.206	0.76889
986.099	0.872711
988.991	0.07888
991.884	1.19713
994.777	0.520905
997.669	1.20385
1000.56	0.634056
1003.46	1.12095
1006.35	1.57977
1009.24	1.82838
1012.13	1.09821
1015.03	1.96358
1017.92	2.07167
1020.81	1.59492
1023.7	1.88301
1026.6	1.78094
1029.49	2.15435
1032.38	1.59297
1035.28	1.2818
1038.17	1.33586
1041.06	1.18798
1043.95	1.4415
1046.85	1.53942
1049.74	0.793144
1052.63	0.618244
1055.52	0.351555
1058.42	1.13315
1061.31	0.241245
1064.2	0.394051
1067.09	0.024578
1069.99	0.743935
1072.88	0.96888
1075.77	0.271675
1078.66	0.123009
1081.56	0.060471
1084.45	0.452396
1087.34	0.613342
1090.24	1.1224
1093.13	0.548084
1096.02	1.08428
1098.91	0.072472
1101.81	0.618977
1104.7	0.344551
1107.59	0.718838
1110.48	0.779232
1113.38	0.657154
1116.27	0.282734
1119.16	0.619816
1122.06	0.576859
1124.95	0.723061
1127.84	0.259579
1130.73	1.17479
1133.63	0.950783
1136.52	0.838871
1139.41	1.01783
1142.3	1.11438
1145.2	0.911846
1148.09	1.37779
1150.98	1.07509
1153.88	0.608772
1156.77	1.86342
1159.66	0.743065
1162.55	1.1769
1165.45	1.10686
1168.34	0.937428
1171.23	0.629513
1174.12	1.43787
1177.02	1.69199
1179.91	0.658642
1182.8	1.38709
1185.69	1.26905
1188.59	0.602982
1191.48	0.674828
1194.37	0.696182
1197.27	0.178562
1200.16	1.68023
1203.05	0.907074
1205.94	0.809181
1208.84	0.627998
1211.73	0.423321
1214.62	1.03608
1217.52	0.774151
1220.41	0.296211
1223.3	2.68418
1226.19	0.430801
1229.09	0.534153
1231.98	0.089951
1234.87	0.127899
1237.76	0.470627
1240.66	0.058651
1243.55	0.431129
1246.44	0.069473
1249.33	0.584095
1252.23	0.741161
1255.12	0.406712
1258.01	0.460564
1260.9	1.09681
1263.8	1.14698
1266.69	0.782101
1269.58	1.17853
1272.48	0.40741
1275.37	0.735596
1278.26	0.085224
1281.15	1.05354
1284.05	0.717991
1286.94	1.4763
1289.83	0.140026
1292.72	0.486252
1295.62	0.460823
1298.51	0.052505
1301.4	0.109329
