Measurement: Raman, 780 nm, unoriented, Raman Data Processed
Mineral: Finnemanite
Rruff sample: R140329
Ideal chemistry: Pb^2+^_5_(As^3+^O_3_)_3_Cl
Locality: LÃ¥ngban, Varmland, Sweden
Source: Benjamin N. Schumer
Description: Dark grey prismatic crystals, associated with hematite
Raman shift (cm-1)	intensity
173.159	0
176.052	18.8744
178.945	21.2416
181.838	17.9224
184.73	9.1366
187.623	1.74896
190.516	1.48639
193.408	1.04474
196.301	2.8007
199.194	1.25334
202.086	1.91759
204.979	2.15923
207.872	1.29233
210.764	1.7774
213.657	0.688904
216.55	0.607071
219.442	1.5318
222.335	7.29423
225.228	13.6934
228.121	24.0333
231.013	34.6454
233.906	50.232
236.799	61.8949
239.691	72.5333
242.584	79.8338
245.477	82.8483
248.369	77.7313
251.262	70.1678
254.155	56.7247
257.048	41.6651
259.94	28.7891
262.833	19.567
265.726	12.04
268.618	8.09123
271.511	3.09268
274.404	0.836578
277.296	1.44313
280.189	1.87738
283.082	2.63898
285.975	1.69069
288.867	0.191574
291.76	0.629395
294.653	3.86696
297.545	5.74588
300.438	10.0371
303.331	13.7738
306.224	18.4899
309.116	23.2413
312.009	27.7276
314.902	30.8826
317.794	36.9749
320.687	39.6078
323.58	39.9303
326.472	41.9697
329.365	44.4637
332.258	45.6377
335.151	48.0673
338.043	49.3076
340.936	48.6204
343.829	52.033
346.721	55.0008
349.614	59.795
352.507	64.4783
355.399	63.8157
358.292	61.8415
361.185	59.8846
364.077	57.213
366.97	58.713
369.863	59.4812
372.755	58.9887
375.648	56.2036
378.541	51.5936
381.434	44.3688
384.326	37.5991
387.219	34.0541
390.112	28.698
393.004	25.5642
395.897	22.9084
398.79	19.1993
401.683	19.3889
404.575	12.7298
407.468	11.4802
410.361	8.87532
413.253	7.52779
416.146	3.28185
419.039	2.31912
421.931	0.088043
424.824	0.611206
427.717	1.61951
430.61	0.130463
433.502	1.09357
436.395	3.31984
439.288	7.13828
442.18	11.8057
445.073	18.4416
447.966	28.1488
450.858	36.8184
453.751	31.2171
456.644	20.7388
459.536	11.1558
462.429	5.39004
465.322	1.33504
468.215	1.72977
471.107	0.062332
474	1.26268
476.893	1.52353
479.785	2.51053
482.678	2.24307
485.571	2.50731
488.463	2.0927
491.356	2.11906
494.249	1.82651
497.142	2.11382
500.034	0.073288
502.927	0.645691
505.82	0.48732
508.712	0.407013
511.605	0.649246
514.498	0.232552
517.39	0.670212
520.283	0.627083
523.176	0.153488
526.068	1.17538
528.961	0.649467
531.854	0.364265
534.747	0.320778
537.639	1.34051
540.532	2.37629
543.425	1.86746
546.317	2.33842
549.21	4.18307
552.103	4.8892
554.995	6.87296
557.888	7.9441
560.781	11.2436
563.674	13.9505
566.566	18.4398
569.459	23.3298
572.352	27.7521
575.244	28.7245
578.137	27.461
581.03	22.5911
583.923	15.7725
586.815	10.591
589.708	6.88231
592.601	3.67093
595.493	2.34808
598.386	2.16258
601.279	0.591667
604.171	0.169853
607.064	0.702995
609.957	0.848846
612.85	1.69066
615.742	3.1249
618.635	4.22556
621.528	5.78515
624.42	7.54601
627.313	10.0417
630.206	12.729
633.098	16.3785
635.991	16.4678
638.884	18.8214
641.776	17.0051
644.669	14.4822
647.562	9.64052
650.455	7.00853
653.347	5.63607
656.24	3.66589
659.133	2.99771
662.025	1.06534
664.918	0.928993
667.811	0.401878
670.703	0.240196
673.596	0.247215
676.489	0.052635
679.381	0.124657
682.274	0.198921
685.167	0.911255
688.06	0.433388
690.952	0.982773
693.845	1.77747
696.738	3.9139
699.63	6.49392
702.523	9.98212
705.416	14.4591
708.308	20.534
711.201	29.2224
714.094	41.242
716.987	55.4586
719.879	75.3169
722.772	96.2911
725.665	118.737
728.557	141.673
731.45	156.97
734.343	156.207
737.236	128.786
740.128	90.6646
743.021	58.0433
745.914	35.97
748.806	22.5529
751.699	13.0525
754.592	8.19346
757.484	4.32108
760.377	2.82034
763.27	0.989529
766.163	0.475342
769.055	0.501957
771.948	0.961449
774.841	0.594921
777.733	1.09861
780.626	1.41736
783.519	2.90343
786.411	5.20937
789.304	7.27983
792.197	9.7027
795.089	14.6313
797.982	19.982
800.875	27.2162
803.768	37.3628
806.66	49.1315
809.553	58.942
812.446	66.5496
815.338	66.6321
818.231	60.0132
821.124	47.1614
824.016	34.6963
826.909	24.5575
829.802	17.4743
832.694	12.7006
835.587	9.43584
838.48	7.00809
841.373	5.62103
844.265	4.30146
847.158	3.42339
850.051	2.17374
852.943	1.26747
855.836	0.225962
858.729	0.597738
861.621	0.417654
864.514	0.527763
867.407	0.676561
870.3	0.315493
873.192	0.578522
876.085	0.001539
878.978	0.121559
881.87	0.164824
884.763	0.775835
887.656	0.165398
890.548	0.627888
893.441	0.453321
896.334	0.585873
899.227	0.546988
902.119	0.429461
905.012	0.891628
907.905	0.43075
910.797	0.401676
913.69	0.428638
916.583	0.429041
919.476	1.15924
922.368	0.771658
925.261	0.596773
928.154	0.584538
931.046	0.551874
933.939	0.641347
936.832	0.660526
939.724	0.504264
942.617	0.676378
945.51	0.500699
948.403	0.287134
951.295	0.276909
954.188	0.582833
957.081	0.619659
959.973	0.653718
962.866	0.42693
965.759	0.789547
968.651	0.500648
971.544	0.357774
974.437	0.370916
977.329	0.385255
980.222	0.024825
983.115	0.133063
986.008	0.286769
988.9	0.452929
991.793	0.135109
994.686	0.433512
997.578	0.088397
1000.47	0.216353
1003.36	0.10825
1006.26	0.28904
1009.15	0.007027
1012.04	0.020336
1014.93	0.263651
1017.83	0.782688
1020.72	0.187811
1023.61	0.105347
1026.51	0.037378
1029.4	0.388952
1032.29	0.113815
1035.18	0.372517
1038.08	0.09107
1040.97	0.060751
1043.86	0.305658
1046.75	0.246176
1049.65	0.023106
1052.54	0.095757
1055.43	0.527451
1058.33	0.503651
1061.22	0.098925
1064.11	0.140406
1067	0.474485
1069.9	0.152172
1072.79	0.015463
1075.68	0.154264
1078.57	0.448685
1081.47	0.672934
1084.36	0.784294
1087.25	0.451353
1090.14	0.885471
1093.04	1.40034
1095.93	1.1713
1098.82	1.57026
1101.71	1.80267
1104.61	1.55623
1107.5	1.84103
1110.39	2.04617
1113.29	2.38798
1116.18	3.32483
1119.07	2.94056
1121.96	2.84089
1124.86	3.35332
1127.75	4.70646
1130.64	4.25767
1133.54	3.47391
1136.43	5.34244
1139.32	5.07786
1142.21	5.3541
1145.11	6.08481
1148	5.63676
1150.89	6.43259
1153.78	6.03937
1156.68	6.68195
1159.57	6.32775
1162.46	7.13708
1165.36	7.29285
1168.25	7.47928
1171.14	8.65751
1174.03	9.4045
1176.93	10.131
1179.82	11.1337
1182.71	11.4998
1185.6	12.3779
1188.5	13.2588
1191.39	13.1654
1194.28	14.1595
1197.17	13.6154
1200.07	14.381
1202.96	14.619
1205.85	12.7971
1208.74	11.8218
1211.64	9.31604
1214.53	7.97014
1217.42	6.80454
1220.32	3.85983
1223.21	1.02895
1226.1	0.200027
1228.99	1.9792
1231.89	1.30826
1234.78	1.18195
1237.67	0.774719
1240.57	2.25935
1243.46	3.25781
1246.35	6.07536
1249.24	7.71416
1252.14	7.07339
1255.03	8.8618
1257.92	5.35092
1260.81	5.72084
1263.71	5.66121
1266.6	4.63118
1269.49	5.12328
1272.38	3.73276
1275.28	2.21399
1278.17	0.557556
1281.06	1.20904
1283.95	0
