Measurement: Raman, 780 nm, unoriented, Raman Data Processed
Mineral: Fizelyite
Rruff sample: R060175
Ideal chemistry: Ag_5_Pb_14_Sb_21_S_48_
Locality: Van Silver mine, Squamish, British Columbia, Canada
Source: Ty Balacko
Description: Dark gray deeply-striated single crystals
Measured chemistry: Pb_13.74_Ag_5.94_Sb_20.87_S_48.00_
Raman shift (cm-1)	intensity
130.113	0
133.005	4.46689
135.898	14.7441
138.791	23.4909
141.683	29.0549
144.576	37.6939
147.469	42.3294
150.362	49.6369
153.254	44.7484
156.147	31.7219
159.04	19.0188
161.932	9.13489
164.825	2.44013
167.718	2.40347
170.61	6.586
173.503	6.15454
176.396	7.53412
179.288	2.15955
182.181	1.20416
185.074	0.743622
187.966	1.62637
190.859	3.05109
193.752	7.91071
196.645	8.3472
199.537	17.2102
202.43	24.8597
205.323	34.005
208.215	46.9579
211.108	57.6779
214.001	70.6312
216.893	85.6263
219.786	94.7887
222.679	100.827
225.572	103.547
228.464	100.921
231.357	90.3756
234.25	74.9892
237.142	60.6296
240.035	50.1189
242.928	46.786
245.821	53.7384
248.713	73.8354
251.606	102.418
254.499	142.133
257.391	195.85
260.284	255.126
263.177	309.889
266.069	348.035
268.962	361.887
271.855	364.993
274.748	370.83
277.64	381.429
280.533	389.545
283.426	387.523
286.318	370.588
289.211	335.9
292.104	295.447
294.996	239.934
297.889	190.858
300.782	161.394
303.675	148.606
306.567	137.141
309.46	139.543
312.353	155.703
315.245	192.579
318.138	230.961
321.031	248.345
323.923	262.753
326.816	290.024
329.709	329.334
332.601	354.396
335.494	337.184
338.387	297.106
341.279	250.52
344.172	203.299
347.065	144.093
349.958	82.1783
352.85	35.5275
355.743	8.2684
358.636	4.79542
361.528	9.40239
364.421	9.70504
367.314	9.44466
370.207	7.44879
373.099	4.90058
375.992	2.90488
378.885	2.08337
381.777	3.85561
384.67	6.53389
387.563	9.78041
390.455	13.3157
393.348	17.0302
396.241	22.4057
399.134	23.224
402.026	26.0741
404.919	28.8874
407.812	31.2987
410.704	34.3538
413.597	36.4526
416.49	37.6115
419.382	37.5325
422.275	36.6535
425.168	32.8014
428.06	30.9021
430.953	28.5545
433.846	24.5052
436.739	23.4051
439.631	21.4646
442.524	19.6205
445.417	19.8144
448.309	18.7652
451.202	17.5327
454.095	18.0627
456.988	16.8091
459.88	15.6945
462.773	15.3069
465.666	13.8477
468.558	14.176
471.451	12.3894
474.344	11.8652
477.236	10.6828
480.129	9.11997
483.022	8.1702
485.914	7.55679
488.807	6.78348
491.7	5.99584
494.592	5.06946
497.485	5.15911
500.378	4.13309
503.271	4.4181
506.163	3.25896
509.056	2.76853
511.949	2.52374
514.841	2.59405
517.734	2.62583
520.627	2.73951
523.519	1.80961
526.412	1.09006
529.305	1.56035
532.198	0.482014
535.09	1.09386
537.983	0.312077
540.876	0.926922
543.768	0.590851
546.661	1.13432
549.554	0.472256
552.447	0.034672
555.339	0.35882
558.232	0.599865
561.125	0.247419
564.017	0.058729
566.91	0.106361
569.803	0.35232
572.695	0.38299
575.588	0.336206
578.481	0.18656
581.374	0.376968
584.266	0.621546
587.159	0.402561
590.052	0.31587
592.944	0.060934
595.837	0.971594
598.73	0.365187
601.622	2.01465
604.515	1.02693
607.408	0.495945
610.301	0.849306
613.193	1.07407
616.086	1.59378
618.979	0.906729
621.871	0.75569
624.764	1.21895
627.657	1.33875
630.549	1.76923
633.442	0.709707
636.335	0.793865
639.227	1.18749
642.12	1.17707
645.013	1.42572
647.905	1.04052
650.798	0.967428
653.691	1.31428
656.584	0.299713
659.476	1.32573
662.369	1.35973
665.262	0.652527
668.154	0.519159
671.047	0.176315
673.94	0.662066
676.832	1.40936
679.725	0.273476
682.618	0.795614
685.511	0.286745
688.403	0.345961
691.296	0.591272
694.189	0.188643
697.081	0.131104
699.974	0.315137
702.867	0.730757
705.76	0.424232
708.652	0.074434
711.545	0.396159
714.438	1.11669
717.33	0.348825
720.223	0.729158
723.116	0.947057
726.008	1.16642
728.901	0.781682
731.794	1.16762
734.687	0.493525
737.579	0.930069
740.472	1.03418
743.365	0.998457
746.257	1.37477
749.15	0.832174
752.043	0.78275
754.935	1.02687
757.828	0.421724
760.721	0.761799
763.614	0.736485
766.506	0.284249
769.399	0.705432
772.292	0.954166
775.184	1.16941
778.077	0.309157
780.97	0.353741
783.862	0.496717
786.755	0.86877
789.648	0.404006
792.54	0.537822
795.433	0.92506
798.326	0.297527
801.218	0.316477
804.111	0.615332
807.004	0.754985
809.897	0.813911
812.789	1.28401
815.682	0.358274
818.575	0.337781
821.467	0.182431
824.36	0.012298
827.253	1.17792
830.145	0.327205
833.038	0.461947
835.931	0.122113
838.824	0.426605
841.716	0.877022
844.609	0.69591
847.502	0.231325
850.394	0.367486
853.287	0.39152
856.18	0.084464
859.072	0.362796
861.965	0.267503
864.858	0.375009
867.751	0.939342
870.643	0.654162
873.536	0.560499
876.429	0.765708
879.321	0.85125
882.214	0.350059
885.107	0.51551
888	0.117297
890.892	0.511895
893.785	0.105697
896.678	0.079667
899.57	0.16097
902.463	0.414065
905.356	0.388086
908.248	0.555556
911.141	0.042133
914.034	0.63114
916.927	0.060169
919.819	0.817307
922.712	0.324733
925.605	0.448934
928.497	0.768582
931.39	0.691151
934.283	0.409058
937.175	0.850519
940.068	1.05188
942.961	0.035036
945.854	0.554537
948.746	1.79906
951.639	0.663315
954.532	1.22992
957.424	0.577489
960.317	1.02939
963.21	0.869937
966.102	0.499049
968.995	0.923413
971.888	0.042439
974.78	0.887327
977.673	1.14298
980.566	1.02669
983.458	0.073221
986.351	0.642218
989.244	0.444125
992.137	0.493482
995.029	0.720243
997.922	0.210757
1000.82	0.946617
1003.71	0.946745
1006.6	1.16826
1009.49	1.066
1012.38	0.887652
1015.28	0.543419
1018.17	0.987947
1021.06	0.783614
1023.96	1.10096
1026.85	1.23052
1029.74	0.58074
1032.63	0.043561
1035.53	0.304053
1038.42	0.254404
1041.31	0.290637
1044.2	0.83648
1047.1	0.87788
1049.99	0.207461
1052.88	0.137138
1055.78	0.689497
1058.67	0.421911
1061.56	0.651246
1064.45	0.000818
1067.35	0.864097
1070.24	0.361315
1073.13	0.383397
1076.03	0.110066
1078.92	0.74129
1081.81	0.360849
1084.7	0.889511
1087.6	0.025801
1090.49	0.180802
1093.38	0.495295
1096.27	2.13827
1099.17	0.380051
1102.06	1.08374
1104.95	0.863822
1107.84	1.10921
1110.74	0.224303
1113.63	0.184092
1116.52	0.559333
1119.41	0.088975
1122.31	0.844102
1125.2	0.998001
1128.09	0.585411
1130.99	1.30397
1133.88	0.739978
1136.77	0.672727
1139.66	0.296652
1142.56	2.31402
1145.45	0.199713
1148.34	1.15783
1151.23	0.571412
1154.13	1.25621
1157.02	1.07744
1159.91	0.505736
1162.81	0.572997
1165.7	1.22312
1168.59	1.34833
1171.48	0.869649
1174.38	0.665244
1177.27	0.70077
1180.16	1.39745
1183.06	0.980287
1185.95	1.09314
1188.84	0.450557
1191.73	0.719019
1194.62	0.502308
1197.52	0.130415
1200.41	0.568597
1203.3	0.949422
1206.2	0.343447
1209.09	1.15993
1211.98	1.27316
1214.87	1.51536
1217.77	0.850961
1220.66	0.566804
1223.55	0.510486
1226.44	0.173467
1229.34	0.360508
1232.23	0.638233
1235.12	0.705118
1238.02	0.237457
1240.91	0.679857
1243.8	0.502779
1246.69	0.554101
1249.59	0.618976
1252.48	0.762669
1255.37	0.445092
1258.27	0.721302
1261.16	0.271745
1264.05	0.608247
1266.94	0.986188
1269.84	0.069372
1272.73	0.379223
1275.62	0.617239
1278.51	1.04399
1281.41	0.815762
1284.3	0.788563
