Measurement: Raman, 785 nm, unoriented, Raman Data Processed
Mineral: Fizelyite
Rruff sample: R060175
Ideal chemistry: Ag_5_Pb_14_Sb_21_S_48_
Locality: Van Silver mine, Squamish, British Columbia, Canada
Source: Ty Balacko
Description: Dark gray deeply-striated single crystals
Measured chemistry: Pb_13.74_Ag_5.94_Sb_20.87_S_48.00_
Raman shift (cm-1)	intensity
144.669	0
147.562	1416.22
150.455	1942.57
153.347	1477.09
156.24	681.313
159.133	432.607
162.025	570.446
164.918	1017.89
167.811	1290.99
170.704	1561.1
173.596	1719.75
176.489	1978.02
179.382	2493.15
182.274	3168.9
185.167	3689.23
188.06	4071.08
190.952	4150.3
193.845	4155.27
196.738	4139.54
199.631	4391.31
202.523	4639.78
205.416	4937.04
208.309	5367.07
211.201	5988.07
214.094	6878.94
216.987	7736.71
219.88	8653.91
222.772	9494.81
225.665	10103.6
228.558	10397.5
231.45	10322.1
234.343	9921.67
237.236	9359.45
240.128	8728.88
243.021	8350.63
245.914	8298.17
248.807	8717.89
251.699	10080
254.592	12296.2
257.485	15582.5
260.377	19082.8
263.27	22073.8
266.163	23711.7
269.056	23745.9
271.948	23194.9
274.841	23046.6
277.734	23860.9
280.626	25183.8
283.519	26601.9
286.412	27119.7
289.304	25975.8
292.197	23837.4
295.09	20236.5
297.983	16692.4
300.875	14287.6
303.768	12510.3
306.661	10881.7
309.553	9430.07
312.446	8777.77
315.339	9238.76
318.231	10138.3
321.124	10269.2
324.017	10214.6
326.909	11134.2
329.802	13023
332.695	14607.2
335.588	14642
338.48	13859
341.373	13211
344.266	11785.6
347.158	9089.6
350.051	5763.02
352.944	3087.28
355.836	1389.13
358.729	515.12
361.622	106.389
364.515	155.391
367.407	305.884
370.3	415.712
373.193	524.482
376.085	575.571
378.978	662.03
381.871	654.001
384.763	625.702
387.656	630.799
390.549	596.742
393.442	520.957
396.334	518.923
399.227	451.792
402.12	429.327
405.012	410.323
407.905	352.987
410.798	316.102
413.69	261.531
416.583	232.877
419.476	174.554
422.369	148.141
425.261	114.586
428.154	83.154
431.047	87.165
433.939	57.384
436.832	38.003
439.725	33.401
442.617	17.684
445.51	15.429
448.403	11.65
451.296	12.227
454.188	0.336
457.081	18.819
459.974	2.63
462.866	13.965
465.759	16.29
468.652	42.873
471.544	31.808
474.437	22.528
477.33	14.755
480.223	9.221
483.115	19.597
486.008	38.1
488.901	11.823
491.793	24.487
494.686	7.781
497.579	7.864
500.471	13.925
503.364	28.376
506.257	0.57
509.15	10.572
512.042	22.931
514.935	14.98
517.828	13.735
520.72	32.436
523.613	20.101
526.506	30.251
529.398	18.264
532.291	2.181
535.184	10.003
538.077	15.783
540.969	9.095
543.862	2.425
546.755	9.734
549.647	1.912
552.54	1.174
555.433	2.754
558.326	10.66
561.218	17.412
564.111	0.765
567.004	16.651
569.896	15.513
572.789	3.548
575.682	0.027
578.574	4.076
581.467	3.204
584.36	10.911
587.253	1.768
590.145	4.151
593.038	14.353
595.931	0.216
598.823	8.558
601.716	25.108
604.609	38.125
607.501	16.378
610.394	46.005
613.287	2.426
616.18	24.432
619.072	42.308
621.965	30.624
624.858	14.466
627.75	21.547
630.643	2.733
633.536	18.799
636.428	14.549
639.321	14.893
642.214	18.119
645.107	20.92
647.999	3.975
650.892	2.994
653.785	18.477
656.677	16.266
659.57	4.68
662.463	17.536
665.355	12.995
668.248	14.723
671.141	8.76
674.034	18.692
676.926	9.324
679.819	21.411
682.712	17.119
685.604	25.194
688.497	26.821
691.39	25.36
694.282	24.299
697.175	21.156
700.068	33.256
702.961	36.617
705.853	23.058
708.746	20.068
711.639	10.261
714.531	20.867
717.424	24.869
720.317	11.272
723.209	14.208
726.102	5.081
728.995	1.425
731.888	7.996
734.78	12.692
737.673	11.683
740.566	9.789
743.458	3.434
746.351	24.734
749.244	3.39
752.136	20.593
755.029	4.794
757.922	5.533
760.815	3.925
763.707	5.67
766.6	1.756
769.493	10.545
772.385	11.768
775.278	7.042
778.171	8.916
781.063	7.816
783.956	0.45
786.849	7.403
789.742	11.475
792.634	0.281
795.527	18.343
798.42	1.32
801.312	4.689
804.205	1.578
807.098	2.956
809.99	0.031
812.883	13.656
815.776	3.303
818.669	4.27
821.561	13.12
824.454	6.027
827.347	9.424
830.239	7.261
833.132	11.698
836.025	1.56
838.917	5.845
841.81	7.902
844.703	8.095
847.596	23.568
850.488	19.8
853.381	12.403
856.274	11.577
859.166	0.572
862.059	14.422
864.952	0.826
867.844	18.083
870.737	7.137
873.63	3.269
876.523	11.751
879.415	22.692
882.308	9.648
885.201	6.04
888.093	9.014
890.986	4.014
893.879	8.296
896.771	19.178
899.664	7.778
902.557	0.58
905.45	9.829
908.342	8.398
911.235	0.587
914.128	1.297
917.02	1.704
919.913	17.845
922.806	12.542
925.698	22.09
928.591	7.4
931.484	0.927
934.377	7.214
937.269	2.189
940.162	14.226
943.055	9.397
945.947	12.396
948.84	9.533
951.733	16.739
954.625	4.376
957.518	26.943
960.411	14.798
963.304	16.347
966.196	3.077
969.089	14.039
971.982	20.964
974.874	3.732
977.767	7.115
980.66	11.36
983.552	12.815
986.445	6.333
989.338	1.928
992.231	1.15
995.123	1.618
998.016	7.303
1000.91	16.955
1003.8	15.927
1006.69	8.017
1009.59	19.897
1012.48	8.538
1015.37	4.035
1018.26	18.917
1021.16	10.712
1024.05	13.9
1026.94	6.31
1029.84	2.291
1032.73	17.08
1035.62	14.014
1038.51	23.288
1041.41	16.652
1044.3	18.031
1047.19	14.472
1050.09	4.292
1052.98	15.506
1055.87	10.538
1058.76	13.008
1061.65	3.215
1064.55	19.855
1067.44	6.545
1070.33	21.941
1073.23	9.89
1076.12	14.657
1079.01	20.113
1081.9	13.986
1084.8	14.658
1087.69	0.904
1090.58	12.687
1093.47	19.156
1096.37	13.651
1099.26	8.353
1102.15	0.238
1105.05	12.255
1107.94	2.308
1110.83	13.23
1113.72	20.355
1116.62	14.433
1119.51	16.951
1122.4	23.13
1125.3	7.177
1128.19	2.418
1131.08	17.415
1133.97	9.575
1136.87	10.808
1139.76	4.677
1142.65	14.177
1145.54	10.376
1148.44	24.925
1151.33	13.499
1154.22	6.544
1157.12	15.377
1160.01	15.262
1162.9	21.52
1165.79	4.431
1168.68	16.564
1171.58	5.101
1174.47	9.579
1177.36	7.748
1180.26	19.155
1183.15	11.391
1186.04	8.487
1188.93	6.737
1191.83	24.786
1194.72	11.851
1197.61	8.979
1200.51	8.335
1203.4	0.147
1206.29	1.826
1209.18	1.096
1212.08	4.687
1214.97	12.513
1217.86	5.987
1220.75	19.278
1223.65	18.742
1226.54	10.583
1229.43	1.532
1232.33	9.908
1235.22	5.251
1238.11	7.412
1241	0.649
1243.9	8.626
1246.79	1.871
1249.68	1.393
1252.57	11.005
1255.47	11.643
1258.36	4.268
1261.25	15.588
1264.14	13.962
1267.04	15.187
1269.93	4.234
1272.82	0
