Measurement: Raman, 785 nm, unoriented, Raman Data Processed
Mineral: Fizelyite
Rruff sample: R060175
Ideal chemistry: Ag_5_Pb_14_Sb_21_S_48_
Locality: Van Silver mine, Squamish, British Columbia, Canada
Source: Ty Balacko
Description: Dark gray deeply-striated single crystals
Measured chemistry: Pb_13.74_Ag_5.94_Sb_20.87_S_48.00_
Raman shift (cm-1)	intensity
178.9	0
181.792	359.73
184.685	1555.66
187.578	3709.02
190.47	1678.18
193.363	655.939
196.256	610.766
199.148	756.061
202.041	884.76
204.934	802.959
207.827	560.736
210.719	481.314
213.612	469.793
216.505	531.521
219.397	539.967
222.29	662.527
225.183	708.67
228.076	503.705
230.968	565.924
233.861	778.082
236.754	909.65
239.646	1171.28
242.539	1697.37
245.432	3358.64
248.324	6194.28
251.217	5578.68
254.11	2639.81
257.003	1568.89
259.895	1030.64
262.788	868.605
265.681	616.047
268.573	586.656
271.466	464.816
274.359	429.191
277.251	481.438
280.144	643.344
283.037	698.66
285.93	756.922
288.822	772.02
291.715	689.113
294.608	607.719
297.5	582.074
300.393	777.699
303.286	1172.19
306.178	1048.36
309.071	947.742
311.964	697.379
314.857	311.816
317.749	337.969
320.642	160.438
323.535	157.641
326.427	453.254
329.32	526.512
332.213	638.539
335.105	349.414
337.998	183.125
340.891	120.035
343.784	199.199
346.676	358.867
349.569	456.492
352.462	524.387
355.354	431.25
358.247	320.113
361.14	185.191
364.032	15.234
366.925	73.059
369.818	361.691
372.711	382.973
375.603	447.852
378.496	364.84
381.389	40.734
384.281	190.715
387.174	23.871
390.067	71.391
392.959	139.238
395.852	372.812
398.745	419.156
401.638	343.715
404.53	275.629
407.423	74.68
410.316	105.562
413.208	115.594
416.101	471.406
418.994	612.938
421.886	685.684
424.779	746.543
427.672	919.859
430.565	1035.72
433.457	1340.26
436.35	1427.57
439.243	1800.85
442.135	1980.34
445.028	2211.91
447.921	2373.57
450.813	1808.68
453.706	1369.85
456.599	1118.06
459.492	845.633
462.384	888.863
465.277	863.715
468.17	843.074
471.062	855.816
473.955	798.633
476.848	559.051
479.741	439.754
482.633	484.223
485.526	632.523
488.419	788.523
491.311	847.633
494.204	891.922
497.097	628.539
499.989	540.34
502.882	770.652
505.775	520.645
508.668	814.684
511.56	752.461
514.453	977.555
517.346	833.004
520.238	759.66
523.131	732.48
526.024	376.359
528.916	349.184
531.809	34.277
534.702	51.988
537.594	154.184
540.487	162.891
543.38	100.168
546.273	71.949
549.165	68.672
552.058	20.844
554.951	115.91
557.843	89.91
560.736	21.332
563.629	92.445
566.521	2.344
569.414	129.293
572.307	98.469
575.2	173.645
578.092	55.09
580.985	30.23
583.878	46.617
586.77	112.895
589.663	99.434
592.556	157.219
595.448	126.141
598.341	151.828
601.234	303.359
604.127	446.059
607.019	439.895
609.912	386.902
612.805	379.953
615.697	423.551
618.59	325.312
621.483	346.988
624.375	377.594
627.268	320.648
630.161	425.457
633.054	437.449
635.946	290.355
638.839	373.719
641.732	480.855
644.624	328.668
647.517	156.371
650.41	274.293
653.302	308.707
656.195	210.828
659.088	142.43
661.981	211.336
664.873	116.965
667.766	2.41
670.659	51.062
673.551	188.238
676.444	227.352
679.337	301.832
682.229	320
685.122	39.199
688.015	148.047
690.908	111.461
693.8	190.98
696.693	341.773
699.586	400.188
702.478	343.574
705.371	317.988
708.264	112.926
711.156	27.141
714.049	139.926
716.942	210.75
719.835	162.309
722.727	96.008
725.62	126.477
728.513	221.449
731.405	53.668
734.298	127.145
737.191	25.961
740.083	103.48
742.976	28.41
745.869	138.992
748.762	243.055
751.654	3.652
754.547	299.523
757.44	27.234
760.332	103.348
763.225	30.555
766.118	43.402
769.01	37.484
771.903	72.449
774.796	60.77
777.689	16.77
780.581	71.742
783.474	168.082
786.367	70.695
789.259	306.422
792.152	106.102
795.045	91.668
797.938	95.469
800.83	108.523
803.723	77.684
806.616	76.355
809.508	43.113
812.401	224.957
815.294	15.758
818.186	88.559
821.079	171.246
823.972	79.121
826.865	2.773
829.757	126.508
832.65	12.34
835.543	123.129
838.435	29.867
841.328	11.684
844.221	46.379
847.114	105.945
850.006	194.121
852.899	74.539
855.792	40.906
858.684	119.566
861.577	198.27
864.47	0.57
867.362	78.34
870.255	161.172
873.148	85.355
876.041	15.758
878.933	62.625
881.826	72.469
884.719	35.355
887.611	65.344
890.504	245.465
893.397	43.215
896.289	96.879
899.182	113.531
902.075	112.262
904.968	234.879
907.86	210.051
910.753	339.828
913.646	131.859
916.538	49.383
919.431	181.695
922.324	14.008
925.216	146.879
928.109	224.656
931.002	335.41
933.894	511.746
936.787	463.906
939.68	446.906
942.573	410.422
945.465	607.285
948.358	676.973
951.251	1137.85
954.143	1227.11
957.036	1471.41
959.929	1713.24
962.821	1974.14
965.714	1725.84
968.607	1656.4
971.5	1243.65
974.392	810.199
977.285	789.477
980.178	645.531
983.07	675.742
985.963	542.344
988.856	247.055
991.748	129.941
994.641	4.879
997.534	269.957
1000.43	429.547
1003.32	444.309
1006.21	485.086
1009.11	287.469
1012	65.199
1014.89	157.301
1017.78	176.809
1020.67	137.078
1023.57	55.574
1026.46	88.328
1029.35	165.68
1032.25	144.23
1035.14	544.668
1038.03	535.355
1040.92	382.477
1043.82	244.012
1046.71	351.84
1049.6	168.727
1052.49	128.883
1055.39	245.59
1058.28	242.383
1061.17	182.496
1064.07	232.238
1066.96	140.422
1069.85	160.344
1072.74	5.773
1075.64	64.617
1078.53	55.168
1081.42	211.391
1084.32	127.992
1087.21	71.359
1090.1	147.125
1092.99	343.914
1095.89	302.668
1098.78	444.504
1101.67	238.82
1104.56	217.383
1107.46	146.527
1110.35	281.465
1113.24	317.434
1116.13	198.957
1119.03	201.836
1121.92	270.648
1124.81	371.766
1127.7	346.652
1130.6	291.926
1133.49	127.258
1136.38	93.367
1139.28	245.797
1142.17	178.246
1145.06	228.406
1147.95	465.844
1150.85	211.82
1153.74	54.285
1156.63	77.094
1159.53	109.098
1162.42	341.508
1165.31	92.723
1168.2	17.906
1171.1	157.391
1173.99	118.094
1176.88	45.43
1179.77	69.781
1182.67	77.797
1185.56	285.625
1188.45	30.742
1191.35	209.219
1194.24	68.727
1197.13	114.102
1200.02	196.406
1202.92	190.859
1205.81	2.961
1208.7	296.867
1211.59	194.023
1214.49	167.945
1217.38	342.477
1220.27	94.734
1223.16	288.867
1226.06	214.273
1228.95	91.195
1231.84	108.922
1234.73	119.469
1237.63	0.664
1240.52	236.516
1243.41	208.898
1246.31	118.781
1249.2	58.961
1252.09	186.984
1254.98	146.75
1257.88	101.203
1260.77	90.359
1263.66	87.664
1266.56	134.797
1269.45	80.539
1272.34	22.742
