Measurement: Raman, 532 nm, unoriented, Raman Data Processed
Mineral: Fizelyite
Rruff sample: R060175
Ideal chemistry: Ag_5_Pb_14_Sb_21_S_48_
Locality: Van Silver mine, Squamish, British Columbia, Canada
Source: Ty Balacko
Description: Dark gray deeply-striated single crystals
Measured chemistry: Pb_13.74_Ag_5.94_Sb_20.87_S_48.00_
Raman shift (cm-1)	intensity
160.574	0
163.467	335.246
166.36	112.024
169.253	44.401
172.145	52.37
175.038	30.075
177.931	95.217
180.823	45.342
183.716	70.447
186.609	94.734
189.501	59.264
192.394	236.405
195.287	235.929
198.18	121.189
201.072	24.393
203.965	211.075
206.858	152.262
209.75	247.245
212.643	145.024
215.536	11.317
218.428	53.778
221.321	195.884
224.214	250.749
227.107	387.562
229.999	599.059
232.892	553.319
235.785	506.563
238.677	571.102
241.57	580.302
244.463	860.744
247.355	1055.54
250.248	1076.1
253.141	1274.9
256.033	1260.68
258.926	1386.76
261.819	1607.04
264.711	1807.16
267.604	2070.53
270.497	2249.75
273.39	2340.32
276.282	2578.82
279.175	2663.95
282.068	2943.77
284.96	3089.15
287.853	3345.75
290.746	3657.38
293.638	3803.58
296.531	3868.42
299.424	4168.35
302.317	4193.45
305.209	4236.97
308.102	3799.44
310.995	3064.59
313.887	2538.35
316.78	2190.33
319.673	1594.62
322.565	1412.05
325.458	1504.7
328.351	1266.74
331.244	1123.96
334.136	1135.37
337.029	1140.68
339.922	1146.97
342.814	1149.43
345.707	1065.26
348.6	853.181
351.492	864.73
354.385	880.153
357.278	594.793
360.171	496.656
363.063	230.749
365.956	174.601
368.849	73.402
371.741	137.968
374.634	321.429
377.527	47.269
380.419	315.523
383.312	330.639
386.205	326.823
389.098	200.868
391.99	241.887
394.883	236.79
397.776	348.581
400.668	142.364
403.561	176.012
406.454	301.892
409.346	82.668
412.239	115.072
415.132	317.078
418.025	553.42
420.917	765.44
423.81	972.85
426.703	1262.2
429.595	1691.07
432.488	1939.5
435.381	2150.5
438.273	2340.76
441.166	2469.03
444.059	2397.3
446.952	2371.69
449.844	2378.8
452.737	2233.99
455.63	2094.48
458.522	1871.54
461.415	1666.3
464.308	1578.77
467.2	1493.92
470.093	1395.99
472.986	1286.79
475.878	1349.82
478.771	1227.04
481.664	1241.37
484.556	1082.14
487.449	1109.85
490.342	1226.97
493.235	1033.02
496.127	1018.54
499.02	1101.63
501.913	1294.39
504.805	1312.66
507.698	1446.66
510.591	1271.46
513.484	1429.7
516.376	1202.03
519.269	1110.96
522.162	746.188
525.054	502.325
527.947	235.558
530.84	75.666
533.732	173.272
536.625	242.813
539.518	355.739
542.411	83.799
545.303	6.668
548.196	49.979
551.089	40.574
553.981	251.488
556.874	286.863
559.767	453.672
562.659	561.866
565.552	690.688
568.445	877.695
571.338	1077.16
574.23	1567.71
577.123	1697.04
580.016	1942.71
582.908	2374.67
585.801	2860.09
588.694	3297.75
591.586	3957.55
594.479	4469.64
597.372	5312.1
600.265	5911.17
603.157	6639.28
606.05	7258.28
608.943	8860.77
611.835	8928.05
614.728	9566.03
617.621	10034.9
620.513	10680.5
623.406	10854.1
626.299	10825
629.191	10858.1
632.084	10524.2
634.977	10113.9
637.87	9646.21
640.762	9477.31
643.655	9170.56
646.548	8849.65
649.44	8250.69
652.333	7228.58
655.226	6046.14
658.118	5284.68
661.011	4572.32
663.904	3888.55
666.797	3629.7
669.689	3206.54
672.582	2791.57
675.474	2455.31
678.367	2284.2
681.26	2109.83
684.153	2107.36
687.045	2001.72
689.938	1600.78
692.831	1796.33
695.723	1597.77
698.616	1401.31
701.509	1261.79
704.402	1246.34
707.294	1103.57
710.187	947.139
713.08	830.044
715.972	815.239
718.865	768.246
721.758	646.357
724.651	725.978
727.543	493.39
730.436	647.095
733.328	461.834
736.221	372.571
739.114	162.782
742.007	307.701
744.899	9.18
747.792	0.346
750.685	94.965
753.577	55.573
756.47	109.449
759.363	104.527
762.255	82.272
765.148	27.322
768.041	227.532
770.934	36.304
773.826	23.006
776.719	30.443
779.612	41.353
782.504	153.131
785.397	168.739
788.29	72.605
791.182	58.292
794.075	62.672
796.968	46.955
799.86	0.572
802.753	87.743
805.646	78.317
808.539	97.553
811.431	101.634
814.324	99.615
817.217	40.707
820.109	93.257
823.002	8.183
825.895	58.415
828.787	94.446
831.68	82.335
834.573	42.84
837.466	47.114
840.358	145.838
843.251	109.835
846.144	29.125
849.036	84.193
851.929	122.876
854.822	98.124
857.714	63.813
860.607	92.741
863.5	31.186
866.393	247.07
869.285	110.003
872.178	134.316
875.071	129.761
877.963	20.08
880.856	81.23
883.749	120.354
886.641	7.086
889.534	26.645
892.427	107.1
895.32	63.416
898.212	182.11
901.105	233.304
903.998	62.225
906.89	38.344
909.783	3.693
912.676	84.802
915.568	62.217
918.461	36.403
921.354	150.904
924.247	253.362
927.139	300.915
930.032	416.663
932.925	376.062
935.817	457.234
938.71	613.481
941.603	730.769
944.495	862.933
947.388	1136.58
950.281	1538.47
953.174	1732.18
956.066	2201.26
958.959	2807.22
961.852	3100.18
964.744	3246.78
967.637	2942.71
970.53	2672.26
973.422	2017.73
976.315	1617.01
979.208	1111.91
982.101	861.915
984.993	534.364
987.886	471.012
990.779	425.685
993.671	144.247
996.564	286.04
999.457	312.837
1002.35	147.598
1005.24	247.313
1008.13	183.82
1011.03	207.667
1013.92	175.808
1016.81	232.023
1019.71	141.719
1022.6	9.518
1025.49	85.807
1028.38	166.652
1031.28	156.189
1034.17	10.623
1037.06	64.146
1039.95	131.213
1042.85	203.292
1045.74	205.979
1048.63	169.097
1051.53	288.605
1054.42	289.251
1057.31	254.793
1060.2	57.011
1063.1	64.029
1065.99	76.524
1068.88	7.432
1071.77	7.709
1074.67	198.943
1077.56	58.123
1080.45	79.283
1083.35	241.508
1086.24	125.835
1089.13	252.182
1092.02	164.377
1094.92	134.527
1097.81	1.982
1100.7	85.234
1103.59	67.823
1106.49	108.951
1109.38	70.561
1112.27	72.599
1115.16	109.549
1118.06	96.233
1120.95	273.235
1123.84	256.607
1126.73	163.193
1129.63	433.582
1132.52	354.787
1135.41	364.958
1138.31	271.226
1141.2	179.59
1144.09	135.811
1146.98	37.523
1149.88	138.668
1152.77	63.903
1155.66	69.761
1158.56	268.671
1161.45	234.129
1164.34	132.25
1167.23	295.831
1170.13	286.727
1173.02	121.253
1175.91	182.975
1178.8	113.982
1181.7	74.215
1184.59	69.561
1187.48	82.527
1190.38	34.953
1193.27	161.315
1196.16	354.469
1199.05	175.455
1201.94	183.994
1204.84	208.022
1207.73	150.506
1210.62	349.405
1213.52	181.342
1216.41	88.309
1219.3	108.42
1222.19	116.258
1225.09	21.106
1227.98	40.197
1230.87	75.821
1233.77	20.673
1236.66	26.883
1239.55	67.853
1242.44	199.934
1245.34	154.104
1248.23	270.958
1251.12	74.809
1254.01	103.514
1256.91	186.795
1259.8	25.16
1262.69	77.4
1265.59	31.166
1268.48	155.837
1271.37	144.923
1274.26	271.84
1277.16	125.844
1280.05	217.403
1282.94	224.414
1285.83	106.826
1288.73	155.522
1291.62	79.296
1294.51	160.158
1297.4	28.937
1300.3	36.515
