Measurement: Raman, 780 nm, unoriented, Raman Data Processed
Mineral: Fizelyite
Rruff sample: R090068
Ideal chemistry: Ag_5_Pb_14_Sb_21_S_48_
Locality: Herja(Kisbanya), Romania
Source: Mark N. Feinglos
Description: Dark grey metallic striated prismatic crystals, associated with galena and sphalerite.
Raman shift (cm-1)	intensity
108.701	0
112.076	1.98042
115.451	2.93684
118.826	5.7329
122.201	8.96495
125.575	8.03102
128.95	8.47357
132.325	8.75507
135.7	10.9744
139.075	9.28337
142.449	7.12007
145.824	5.70125
149.199	1.21124
152.574	0.730804
155.949	1.19203
159.323	1.0231
162.698	2.44589
166.073	2.55139
169.448	0.488907
172.823	0.427307
176.198	2.61754
179.572	2.76358
182.947	6.45862
186.322	5.99124
189.697	7.64232
193.072	8.63272
196.446	9.72041
199.821	11.2841
203.196	16.2527
206.571	16.5879
209.946	21.6039
213.321	24.5673
216.695	26.2657
220.07	29.5999
223.445	28.7762
226.82	30.1435
230.195	29.2674
233.569	29.2708
236.944	28.5761
240.319	30.6633
243.694	33.0828
247.069	36.2393
250.444	40.5177
253.818	44.6197
257.193	48.8699
260.568	54.0071
263.943	56.2292
267.318	56.1021
270.692	54.1248
274.067	54.8778
277.442	49.8105
280.817	47.9694
284.192	40.3325
287.567	34.5275
290.941	25.9162
294.316	16.9285
297.691	9.65881
301.066	6.49259
304.441	7.16263
307.815	7.72602
311.19	10.3191
314.565	13.4897
317.94	16.726
321.315	18.477
324.69	20.307
328.064	21.9977
331.439	22.263
334.814	19.759
338.189	16.7023
341.564	11.7071
344.938	7.69337
348.313	3.48723
351.688	1.65429
355.063	1.84781
358.438	1.6395
361.812	3.19149
365.187	1.3723
368.562	1.15266
371.937	0.004852
375.312	2.37786
378.687	1.13669
382.061	2.01421
385.436	4.84933
388.811	4.61208
392.186	5.78013
395.561	6.79126
398.935	7.4795
402.31	8.11535
405.685	8.64863
409.06	10.7932
412.435	8.05667
415.81	7.5798
419.184	6.20289
422.559	5.74385
425.934	5.30514
429.309	6.05641
432.684	6.03904
436.058	4.66684
439.433	4.25371
442.808	5.15107
446.183	4.17093
449.558	3.7696
452.933	3.68691
456.307	3.733
459.682	3.9929
463.057	4.18949
466.432	3.30478
469.807	3.86985
473.181	3.17204
476.556	1.90643
479.931	1.73867
483.306	2.66481
486.681	2.27255
490.055	1.0115
493.43	1.30829
496.805	0.82329
500.18	1.13771
503.555	0.993578
506.93	1.61452
510.304	2.43783
513.679	0.629915
517.054	0.864058
520.429	1.17838
523.804	1.15809
527.178	0.300667
530.553	1.50927
533.928	0.044624
537.303	0.534838
540.678	0.367096
544.053	1.58391
547.427	0.593365
550.802	1.13446
554.177	0.883457
557.552	0.064915
560.927	0.419617
564.302	0.73625
567.676	0.880157
571.051	0.385836
574.426	1.49214
577.801	0.674906
581.176	1.94683
584.55	0.491819
587.925	0.342541
591.3	0.737724
594.675	0.069231
598.05	0.723944
601.424	1.1933
604.799	0.968969
608.174	0.993168
611.549	0.715033
614.924	0.571413
618.298	1.53736
621.673	1.39196
625.048	1.69853
628.423	1.23919
631.798	0.677168
635.173	0.09453
638.547	1.96777
641.922	1.89977
645.297	1.23813
648.672	1.58479
652.047	1.22823
655.422	0.946255
658.796	0.948229
662.171	0.646582
665.546	1.39128
668.921	0.860258
672.296	1.41459
675.67	1.36762
679.045	0.616268
682.42	1.17814
685.795	1.02679
689.17	0.463169
692.544	1.61776
695.919	0.318121
699.294	0.519442
702.669	1.1779
706.044	1.16893
709.419	0.131464
712.793	0.708633
716.168	0.449511
719.543	0.719835
722.918	0.461552
726.293	1.82913
729.668	2.36023
733.042	0.725096
736.417	1.34994
739.792	0.390118
743.167	0.96435
746.542	1.79356
749.916	0.900068
753.291	1.32124
756.666	1.22721
760.041	0.79394
763.416	2.64334
766.79	1.27676
770.165	0.483938
773.54	0.419165
776.915	0.111586
780.29	0.633636
783.665	0.00779
787.039	0.563995
790.414	0.700188
793.789	1.33913
797.164	2.19193
800.539	0.51638
803.913	1.42385
807.288	0.880362
810.663	0.676308
814.038	0.772146
817.413	1.17438
820.788	0.721098
824.162	1.31481
827.537	1.53337
830.912	1.59097
834.287	0.387489
837.662	0.420578
841.036	0.080544
844.411	1.13368
847.786	0.460011
851.161	0.941158
854.536	0.742468
857.91	2.37042
861.285	1.28029
864.66	1.21215
868.035	0.570726
871.41	0.24642
874.784	1.51164
878.159	0.874058
881.534	0.359486
884.909	1.25949
888.284	0.361521
891.659	0.222025
895.033	0.93084
898.408	0.392874
901.783	0.124918
905.158	0.485514
908.533	0.202074
911.908	1.11174
915.282	1.55028
918.657	1.10816
922.032	0.852318
925.407	0.01133
928.782	1.6735
932.156	0.182919
935.531	1.09483
938.906	0.091726
942.281	0.807644
945.656	0.827425
949.03	0.467163
952.405	2.0659
955.78	0.810192
959.155	0.587454
962.53	1.15025
965.905	1.14529
969.279	0.592274
972.654	0.145082
976.029	1.69202
979.404	0.144743
982.779	0.280489
986.154	0.847277
989.528	0.903242
992.903	0.162907
996.278	0.496857
999.653	0.886082
1003.03	1.36796
1006.4	0.618406
1009.78	1.11427
1013.15	0.914656
1016.53	0.405752
1019.9	1.1378
1023.28	0.083488
1026.65	0.265142
1030.03	0.91732
1033.4	1.48786
1036.78	0.858234
1040.15	1.22087
1043.53	1.3647
1046.9	1.02781
1050.28	0.467628
1053.65	0.916826
1057.03	1.78564
1060.4	1.1203
1063.77	1.25575
1067.15	1.11136
1070.52	1.41753
1073.9	1.17643
1077.27	0.57266
1080.65	2.24088
1084.02	2.05245
1087.4	2.0696
1090.77	1.5066
1094.15	0.969717
1097.52	0.049164
1100.9	0.467291
1104.27	0.629173
1107.65	2.31487
1111.02	0.204138
1114.4	0.240009
1117.77	1.39544
1121.15	0.893705
1124.52	1.29326
1127.9	1.30498
1131.27	1.7301
1134.64	1.29028
1138.02	1.72171
1141.39	0.707514
1144.77	1.98193
1148.14	1.21612
1151.52	0.209335
1154.89	2.35998
1158.27	1.81811
1161.64	1.22544
1165.02	1.56257
1168.39	0.388517
1171.77	0.895428
1175.14	1.01009
1178.52	0.954744
1181.89	0.892797
1185.27	0.914122
1188.64	0.07708
1192.02	1.1281
1195.39	1.12593
1198.77	0.748075
1202.14	0.490961
1205.52	0.192127
1208.89	1.51225
1212.27	1.66881
1215.64	0.912596
1219.02	1.68978
1222.39	1.39954
1225.77	1.14575
1229.14	0.781912
1232.52	0.241753
1235.89	0.77009
1239.27	1.31462
1242.64	1.61478
1246.01	0.704241
1249.39	0.66609
1252.76	1.64171
1256.14	1.13516
1259.51	1.60943
1262.89	1.24235
1266.26	1.0212
1269.64	1.25604
1273.01	1.29502
1276.39	1.4371
1279.76	0.050266
1283.14	1.27075
