Measurement: Raman, 532 nm, unoriented, Raman Data Processed
Mineral: Fizelyite
Rruff sample: R060175
Ideal chemistry: Ag_5_Pb_14_Sb_21_S_48_
Locality: Van Silver mine, Squamish, British Columbia, Canada
Source: Ty Balacko
Description: Dark gray deeply-striated single crystals
Measured chemistry: Pb_13.74_Ag_5.94_Sb_20.87_S_48.00_
Raman shift (cm-1)	intensity
110.916	0
114.291	26.794
117.666	81.318
121.041	171.104
124.416	202.786
127.79	210.301
131.165	217.519
134.54	242.381
137.915	245.21
141.29	254.126
144.665	250.777
148.039	227.253
151.414	261.137
154.789	263.438
158.164	237.128
161.539	251.08
164.913	260.311
168.288	251.042
171.663	247.448
175.038	262.809
178.413	241.562
181.788	250.13
185.162	255.619
188.537	195.488
191.912	235.499
195.287	218.999
198.662	219.426
202.036	207.26
205.411	258.996
208.786	271.171
212.161	268.535
215.536	221.325
218.911	274.02
222.285	282.325
225.66	249.513
229.035	294.173
232.41	267.902
235.785	252.125
239.159	219.432
242.534	250.981
245.909	257.682
249.284	250.171
252.659	295.943
256.033	288.088
259.408	306.473
262.783	337.227
266.158	303.33
269.533	323.578
272.908	282.08
276.282	272.125
279.657	255.879
283.032	241.934
286.407	242.622
289.782	223.366
293.156	187.992
296.531	155.511
299.906	151.081
303.281	179.646
306.656	120.001
310.03	109.582
313.405	141.806
316.78	114.148
320.155	110.429
323.53	103.273
326.905	77.94
330.279	92.597
333.654	89.24
337.029	87.331
340.404	81.289
343.779	78.999
347.153	76.967
350.528	44.57
353.903	55.81
357.278	24.813
360.653	17.807
364.027	13.53
367.402	30.121
370.777	0.375
374.152	32.642
377.527	7.612
380.902	15.61
384.276	30.773
387.651	0.646
391.026	16.435
394.401	29.922
397.776	11.951
401.151	39.959
404.525	3.756
407.9	25.051
411.275	9.649
414.65	9.721
418.025	1.094
421.399	21.465
424.774	8.825
428.149	2.28
431.524	26.181
434.899	27.753
438.273	34.049
441.648	30.719
445.023	34.396
448.398	11.113
451.773	10.112
455.147	0.521
458.522	19.106
461.897	21.636
465.272	20.404
468.647	3.521
472.022	41.18
475.396	6.289
478.771	22.823
482.146	31.446
485.521	51.516
488.896	21.728
492.27	29.031
495.645	23.474
499.02	8.503
502.395	23.451
505.77	3.147
509.145	22.555
512.519	13.045
515.894	24.786
519.269	56.019
522.644	58.073
526.019	36.393
529.393	40.486
532.768	24.634
536.143	1.671
539.518	46.006
542.893	12.691
546.268	18.619
549.642	5.647
553.017	4.373
556.392	15.332
559.767	8.849
563.141	20.511
566.516	54.342
569.891	54.041
573.266	38.248
576.641	39.09
580.016	33.943
583.39	19.099
586.765	30.655
590.14	23.079
593.515	8.995
596.89	36.551
600.265	46.232
603.639	60.452
607.014	47.478
610.389	14.237
613.764	57.562
617.138	35.671
620.513	27.566
623.888	40.673
627.263	21.644
630.638	17.498
634.013	10.542
637.387	22.425
640.762	10.846
644.137	13.188
647.512	33.986
650.887	32.111
654.261	58.671
657.636	51.185
661.011	40.292
664.386	16.474
667.761	23.745
671.135	36.227
674.51	3.007
677.885	27.338
681.26	28.98
684.635	13.927
688.01	52.761
691.384	33.188
694.759	28.704
698.134	18.084
701.509	50.033
704.884	4.724
708.258	31.523
711.633	37.617
715.008	4.593
718.383	1.323
721.758	13.975
725.133	27.537
728.507	10.104
731.882	37.489
735.257	61.064
738.632	60.807
742.007	43.687
745.381	35.917
748.756	2.446
752.131	31.281
755.506	25.192
758.881	3.996
762.255	22.386
765.63	29.381
769.005	35.748
772.38	50.435
775.755	31.637
779.13	30.927
782.504	57.851
785.879	27.267
789.254	14.301
792.629	8.385
796.004	32.521
799.378	25.846
802.753	26.688
806.128	1.301
809.503	18.245
812.878	39.447
816.253	47.083
819.627	16.841
823.002	28.924
826.377	53.071
829.752	58.919
833.127	2.892
836.501	24.58
839.876	7.969
843.251	44.801
846.626	11.482
850.001	39.978
853.375	35.099
856.75	47.855
860.125	56.901
863.5	23.882
866.875	48.073
870.25	45.811
873.624	32.225
876.999	22.034
880.374	16.923
883.749	38.872
887.124	11.058
890.498	23.742
893.873	68.254
897.248	26.546
900.623	48.821
903.998	59.406
907.372	30.794
910.747	23.724
914.122	2.485
917.497	24.21
920.872	4.884
924.247	22.46
927.621	23.901
930.996	41.196
934.371	38.653
937.746	56.839
941.121	33.91
944.495	3.025
947.87	23.224
951.245	17.882
954.62	24.659
957.995	24.652
961.37	18.51
964.744	15.476
968.119	14.172
971.494	62.532
974.869	58.029
978.244	40.24
981.618	27.967
984.993	38.534
988.368	43.389
991.743	2.392
995.118	22.782
998.492	20.58
1001.87	26.583
1005.24	17.083
1008.62	70.876
1011.99	47.424
1015.37	39.381
1018.74	37.622
1022.12	29.209
1025.49	48.838
1028.87	54.222
1032.24	12.622
1035.62	31.497
1038.99	9.192
1042.37	6.025
1045.74	47.674
1049.12	29.431
1052.49	53.723
1055.86	66.388
1059.24	46.173
1062.61	41.581
1065.99	8.468
1069.36	26.252
1072.74	33.299
1076.11	9.525
1079.49	1.938
1082.86	43.171
1086.24	2.23
1089.61	44.106
1092.99	28.953
1096.36	64.508
1099.74	66.538
1103.11	38.195
1106.49	42.086
1109.86	16.966
1113.24	17.318
1116.61	42.724
1119.99	12.051
1123.36	2.381
1126.73	40.108
1130.11	50.422
1133.48	43.079
1136.86	37.761
1140.23	64.728
1143.61	52.933
1146.98	7.625
1150.36	0.977
1153.73	22.595
1157.11	10.141
1160.48	7.587
1163.86	46.979
1167.23	58.142
1170.61	43.111
1173.98	63.477
1177.36	46.705
1180.73	38.055
1184.11	16.923
1187.48	12.804
1190.86	16.556
1194.23	2.164
1197.61	30.544
1200.98	32.069
1204.36	26.122
1207.73	50.172
1211.11	61.305
1214.48	81.268
1217.86	59.408
1221.23	35.489
1224.61	7.524
1227.98	16.802
1231.36	0.454
1234.73	9.899
1238.1	15.733
1241.48	39.923
1244.85	30.062
1248.23	61.504
1251.6	21.651
1254.98	18.722
1258.35	25.966
1261.73	2.129
1265.1	24.069
1268.48	3.329
1271.85	29.385
1275.23	17.397
1278.6	22.61
1281.98	39
1285.35	37.787
1288.73	23.268
1292.1	54.043
1295.48	25.827
1298.85	18.203
