Measurement: Raman, 780 nm, unoriented, Raman Data Processed
Mineral: Fleischerite
Rruff sample: R120043
Ideal chemistry: Pb_3_Ge(SO_4_)_2_(OH)_6_3H_2_O
Locality: Tsumeb, Namibia
Source: William W. Pinch
Description: Bundled aggregate of tan colored acicular crystals
Raman shift (cm-1)	intensity
92.5678	0
95.9426	14.3156
99.3174	28.2459
102.692	49.6847
106.067	51.3776
109.442	25.8458
112.817	24.1825
116.192	70.6521
119.566	141.99
122.941	188.751
126.316	174.012
129.691	156.628
133.066	165.756
136.44	198.603
139.815	216.918
143.19	187.454
146.565	139.183
149.94	84.7652
153.315	40.7674
156.689	18.4334
160.064	7.07773
163.439	0.338226
166.814	2.87347
170.189	5.61624
173.563	7.34518
176.938	0.212555
180.313	7.25699
183.688	18.6341
187.063	34.9731
190.437	52.6186
193.812	75.8221
197.187	98.6431
200.562	117.206
203.937	128.696
207.311	142.326
210.686	150.454
214.061	160.66
217.436	162.024
220.811	145.278
224.186	118.489
227.56	97.6933
230.935	92.4383
234.31	93.9768
237.685	101.598
241.06	100.864
244.435	91.1333
247.809	80.5656
251.184	66.6099
254.559	54.1975
257.934	40.1075
261.309	29.3573
264.683	19.3277
268.058	11.5117
271.433	6.77132
274.808	3.61047
278.183	0.76535
281.558	0.92186
284.932	2.06348
288.307	1.37135
291.682	2.82497
295.057	2.50168
298.432	6.28908
301.806	8.30168
305.181	14.6057
308.556	22.1099
311.931	30.0594
315.306	43.456
318.68	60.5588
322.055	86.7475
325.43	117.248
328.805	145.571
332.18	133.196
335.555	88.9663
338.929	53.4482
342.304	29.7183
345.679	15.6771
349.054	9.50995
352.429	6.89252
355.803	4.41093
359.178	3.21536
362.553	3.32216
365.928	1.39351
369.303	2.31021
372.678	0.68956
376.052	1.11584
379.427	0.650436
382.802	0.670609
386.177	0.122208
389.552	0.202667
392.926	1.75891
396.301	0.423843
399.676	1.95689
403.051	3.94464
406.426	6.31457
409.8	10.9497
413.175	17.3473
416.55	30.8474
419.925	45.2247
423.3	53.2665
426.675	57.1397
430.049	70.6504
433.424	94.5962
436.799	112.302
440.174	121.659
443.549	144.057
446.923	166.941
450.298	152.264
453.673	109.406
457.048	83.7434
460.423	69.5278
463.798	46.8903
467.172	28.5117
470.547	16.4747
473.922	11.1375
477.297	6.67569
480.672	3.23915
484.046	3.81418
487.421	1.45009
490.796	0.58345
494.171	0.918976
497.546	0.234665
500.921	0.685013
504.295	0.246521
507.67	0.232742
511.045	0.323227
514.42	0.088676
517.795	0.796661
521.169	0.09687
524.544	0.517593
527.919	1.07507
531.294	1.69363
534.669	0.051895
538.044	1.20262
541.418	2.24967
544.793	1.07017
548.168	2.57031
551.543	4.32037
554.918	4.04237
558.293	6.98705
561.667	10.9582
565.042	16.161
568.417	23.2318
571.792	36.431
575.167	57.4182
578.541	89.2249
581.916	139.23
585.291	203.489
588.666	244.267
592.041	202.729
595.415	126.336
598.79	76.6589
602.165	59.6654
605.54	58.9539
608.915	62.2046
612.29	69.6957
615.664	77.179
619.039	77.924
622.414	74.4104
625.789	69.1986
629.164	56.0507
632.538	52.3806
635.913	44.1867
639.288	25.4685
642.663	13.7488
646.038	7.90894
649.413	4.49332
652.787	3.91117
656.162	2.53727
659.537	0.957825
662.912	0.059402
666.287	0.193314
669.661	0.454185
673.036	0.531502
676.411	1.16888
679.786	0.572098
683.161	0.677071
686.535	1.53656
689.91	0.368645
693.285	0.490341
696.66	0.24073
700.035	0.764633
703.41	0.202782
706.784	3.28961
710.159	2.36997
713.534	3.30479
716.909	5.44173
720.284	6.59326
723.659	8.35967
727.033	7.39684
730.408	8.72472
733.783	9.64899
737.158	9.43147
740.533	9.35501
743.907	10.7145
747.282	11.2661
750.657	11.9815
754.032	11.9256
757.407	14.144
760.782	14.9988
764.156	16.0527
767.531	18.3171
770.906	18.632
774.281	20.7635
777.656	22.6422
781.03	23.7657
784.405	21.468
787.78	19.8552
791.155	21.4796
794.53	18.1197
797.904	15.3166
801.279	13.2378
804.654	10.0536
808.029	10.0124
811.404	8.15549
814.779	5.45711
818.153	5.21777
821.528	4.65037
824.903	2.43688
828.278	2.44384
831.653	2.13448
835.028	1.00852
838.402	0.264412
841.777	0.191971
845.152	0.31736
848.527	0.901993
851.902	0.28772
855.276	0.497177
858.651	0.347687
862.026	0.367973
865.401	1.05946
868.776	1.5331
872.15	1.09304
875.525	2.3414
878.9	1.76638
882.275	1.22887
885.65	3.74187
889.024	2.3698
892.399	4.18013
895.774	3.03998
899.149	2.47977
902.524	2.37844
905.899	2.75731
909.273	1.47455
912.648	1.31392
916.023	0.592438
919.398	0.061729
922.773	0.899139
926.148	0.237923
929.522	0.441399
932.897	0.835022
936.272	0.004593
939.647	0.49115
943.022	1.02739
946.396	0.629944
949.771	0.735069
953.146	1.14613
956.521	2.21172
959.896	4.2751
963.27	8.28858
966.645	14.1505
970.02	24.0264
973.395	44.0812
976.77	94.9435
980.145	227.562
983.519	599.253
986.894	1129.74
990.269	940.852
993.644	267.866
997.019	85.5636
1000.39	39.9628
1003.77	21.2213
1007.14	11.852
1010.52	6.51883
1013.89	3.11492
1017.27	2.47263
1020.64	0.363815
1024.02	0.297928
1027.39	0.187943
1030.77	1.62556
1034.14	0.406357
1037.52	1.40106
1040.89	0.478134
1044.27	0.510078
1047.64	1.06118
1051.02	0.214813
1054.39	0.131973
1057.77	1.07665
1061.14	1.75092
1064.52	2.90092
1067.89	4.55021
1071.27	7.513
1074.64	10.8905
1078.01	15.3812
1081.39	19.734
1084.76	23.8881
1088.14	25.4444
1091.51	25.6164
1094.89	33.118
1098.26	38.7301
1101.64	49.3199
1105.01	53.3376
1108.39	58.6854
1111.76	55.8936
1115.14	49.9066
1118.51	41.5204
1121.89	31.5811
1125.26	19.1566
1128.64	13.8406
1132.01	7.76043
1135.39	3.04748
1138.76	2.45475
1142.14	0.60994
1145.51	0.563232
1148.88	0.367851
1152.26	0.051971
1155.63	0.000412
1159.01	1.2544
1162.38	2.4912
1165.76	3.20504
1169.13	5.08694
1172.51	4.23099
1175.88	3.06047
1179.26	2.27919
1182.63	1.45467
1186.01	1.33135
1189.38	0.476646
1192.76	0.524261
1196.13	0.079964
1199.51	0.283379
1202.88	0.018829
1206.26	0.738266
1209.63	0.061203
1213.01	0.242188
1216.38	0.989906
1219.76	0.331161
1223.13	0.325653
1226.51	5.29439
1229.88	1.5596
1233.26	2.69885
1236.63	2.89526
1240.01	2.72743
1243.38	2.16125
1246.76	1.65919
1250.13	1.42848
1253.51	0.534149
1256.88	1.57442
1260.25	1.20145
1263.63	0.959785
1267	1.01655
1270.38	0.78846
1273.75	0.913841
1277.13	0.540619
1280.5	0.041901
1283.88	1.21658
