Measurement: Raman, 532 nm, unoriented, Raman Data Processed
Mineral: Fleischerite
Rruff sample: R120043
Ideal chemistry: Pb_3_Ge(SO_4_)_2_(OH)_6_3H_2_O
Locality: Tsumeb, Namibia
Source: William W. Pinch
Description: Bundled aggregate of tan colored acicular crystals
Raman shift (cm-1)	intensity
210.057	0
212.95	61.9268
215.843	112.334
218.735	91.4502
221.628	33.7334
224.521	9.13574
227.413	13.6621
230.306	47.4795
233.199	53.5547
236.091	102.797
238.984	116.705
241.877	77.0928
244.769	88.9111
247.662	114.931
250.555	182.306
253.448	117.031
256.34	149.383
259.233	147.272
262.126	84.7519
265.018	94.0703
267.911	85.6768
270.804	63.1816
273.697	96.1758
276.589	96.085
279.482	91.4727
282.375	44.3935
285.267	5.77734
288.16	13.7041
291.053	5.22461
293.945	40.8809
296.838	43.7656
299.731	57.8672
302.623	91.4746
305.516	101.509
308.409	103.195
311.302	143.867
314.194	175.147
317.087	242.597
319.98	250.816
322.872	347.69
325.765	413.209
328.658	481.646
331.55	475.65
334.443	397.87
337.336	318.329
340.229	236.662
343.121	120.004
346.014	45.541
348.907	13.7607
351.799	51.1143
354.692	54.7022
357.585	50.624
360.478	66.2041
363.37	18.8721
366.263	42.6143
369.156	32.2031
372.048	27.9951
374.941	23.5137
377.834	0.068359
380.726	13.9609
383.619	5.16699
386.512	28.9219
389.404	41.1484
392.297	23.8477
395.19	10.7617
398.083	16.3516
400.975	54.8145
403.868	65.083
406.761	136.26
409.653	183.392
412.546	243.661
415.439	330.295
418.332	377.136
421.224	448.552
424.117	468.084
427.01	375.401
429.902	398.009
432.795	397.028
435.688	453.247
438.58	441.258
441.473	472.636
444.366	540.528
447.259	600.058
450.151	590.231
453.044	445.374
455.937	336.193
458.829	309.673
461.722	257.246
464.615	154.383
467.507	84.251
470.4	49.2207
473.293	35.8447
476.185	4.74805
479.078	9.85938
481.971	7.71191
484.864	7.91894
487.756	11.4805
490.649	6.51856
493.542	11.0801
496.434	44.9346
499.327	38.4551
502.22	20.1367
505.113	12.543
508.005	6.75391
510.898	4.27148
513.791	7.60742
516.683	0.970703
519.576	3.30762
522.469	19.9814
525.361	40.0801
528.254	85.4678
531.147	29.165
534.04	49.3516
536.932	33.9336
539.825	34.5801
542.718	42.3555
545.61	56.7783
548.503	84.9141
551.396	103.644
554.288	130.569
557.181	109.681
560.074	133.202
562.967	157.487
565.859	208.778
568.752	312.413
571.645	422.598
574.537	655.036
577.43	966.963
580.323	1407.5
583.216	1932.42
586.108	2555.97
589.001	2892.43
591.894	2557.95
594.786	1740.02
597.679	1033.79
600.572	653.588
603.464	421.175
606.357	309.225
609.25	276.216
612.142	302.914
615.035	301.989
617.928	330.713
620.821	262.735
623.713	273.148
626.606	225.964
629.499	136.593
632.391	84.7627
635.284	128.17
638.177	58.6787
641.069	50.0469
643.962	1.32422
646.855	7.00293
649.747	11.8281
652.64	2.27148
655.533	21.6768
658.426	25.4443
661.318	9.61328
664.211	22.5928
667.104	18.0459
669.996	14.9648
672.889	11.5146
675.782	4.56934
678.674	9.76074
681.567	55.9395
684.46	47.335
687.353	29.5664
690.245	48.249
693.138	78.8848
696.031	55.2881
698.923	63.3057
701.816	30.4912
704.709	2.86523
707.601	63.6943
710.494	52.9883
713.387	21.417
716.28	30.2148
719.172	4.80469
722.065	3.07812
724.958	60.375
727.85	77.832
730.743	95.2734
733.636	87.2324
736.529	30.8838
739.421	28.3799
742.314	7.39453
745.207	10.6982
748.099	18.5342
750.992	83.5732
753.885	87.7031
756.777	126.35
759.67	95.4238
762.563	77.4326
765.456	91.5098
768.348	98.8223
771.241	115.335
774.134	111.548
777.026	112.935
779.919	158.332
782.812	138.603
785.704	110.725
788.597	91.2148
791.49	131.668
794.383	129.176
797.275	105.333
800.168	40.2871
803.061	35.2676
805.953	50.1045
808.846	103.064
811.739	46.6123
814.631	66.6377
817.524	76.8125
820.417	85.3506
823.309	57.9619
826.202	19.0781
829.095	2.0918
831.988	26.8232
834.88	9.08594
837.773	10.6904
840.666	1.62695
843.558	4.86816
846.451	6.71387
849.344	29.8818
852.236	4.94043
855.129	11.0215
858.022	26.7471
860.915	34.1865
863.807	55.3105
866.7	39.5693
869.593	11.3867
872.485	62.6621
875.378	71.6885
878.271	77.0732
881.163	16.3037
884.056	74.3535
886.949	83.707
889.842	145.213
892.734	66.6436
895.627	90.1377
898.52	79.8359
901.412	48.7168
904.305	92.7705
907.198	95.6973
910.091	136.248
912.983	116.343
915.876	128.609
918.769	123.995
921.661	83.168
924.554	78.8711
927.447	67.9688
930.339	76.5019
933.232	16.0391
936.125	37.0352
939.018	4.46777
941.91	16.8809
944.803	59.6435
947.696	28.7695
950.588	28.625
953.481	76.1592
956.374	34.7246
959.266	45.6621
962.159	82.0781
965.052	178.3
967.944	226.611
970.837	367.821
973.73	592.628
976.623	1214.42
979.515	2264.17
982.408	4237.38
985.301	8632.48
988.193	12374
991.086	9941.76
993.979	3340.65
996.871	1232.64
999.764	559.432
1002.66	332.88
1005.55	200.32
1008.44	170.913
1011.34	114.523
1014.23	43.7275
1017.12	11.9043
1020.01	36.1553
1022.91	47.0293
1025.8	9.5166
1028.69	21.2363
1031.58	17.375
1034.48	46.3857
1037.37	37.419
1040.26	18.875
1043.15	4.50977
1046.05	24.3174
1048.94	36.0781
1051.83	9.67578
1054.73	49.2256
1057.62	67.7227
1060.51	76.3398
1063.4	82.5459
1066.3	59.0176
1069.19	62.9922
1072.08	94.75
1074.97	107.391
1077.87	140.443
1080.76	211.697
1083.65	264.742
1086.55	258.357
1089.44	235.213
1092.33	187.416
1095.22	216.506
1098.12	252.098
1101.01	320.772
1103.9	273.404
1106.79	323.742
1109.69	326.756
1112.58	351.164
1115.47	321.996
1118.37	264.631
1121.26	248.984
1124.15	161.447
1127.04	138.688
1129.94	50.9102
1132.83	8.49023
1135.72	9.14648
1138.61	46.707
1141.51	2.42578
1144.4	7.28711
1147.29	17.5469
1150.18	33.3164
1153.08	16.5078
1155.97	26.1035
1158.86	18.3984
1161.76	0.90625
1164.65	70.0332
1167.54	46.7422
1170.43	28.0254
1173.33	52.3066
1176.22	55.3906
1179.11	52.5879
1182	93.3125
1184.9	99.0508
1187.79	74.4512
1190.68	42.0703
1193.58	41.6016
1196.47	74.7246
1199.36	64.3125
1202.25	59.3652
1205.15	86.0195
1208.04	126.172
1210.93	144.789
1213.82	178.113
1216.72	84.0977
1219.61	32.043
1222.5	58.3594
1225.39	112.647
1228.29	68.4023
1231.18	72.666
1234.07	27.0938
1236.97	37.9082
1239.86	6.79492
1242.75	95.7402
1245.64	81.3965
1248.54	13.3945
1251.43	34.9805
1254.32	60.2988
1257.21	37.5312
1260.11	52.3535
1263	84.6602
1265.89	78.3535
1268.79	111.152
1271.68	17.6328
1274.57	61.7461
1277.46	48.8047
1280.36	19.5078
1283.25	70.5332
1286.14	21.8848
1289.03	59.8633
1291.93	75.6856
1294.82	22.7656
1297.71	55.9375
1300.61	46.125
