Measurement: Raman, 532 nm, unoriented, Raman Data Processed
Mineral: Fluellite
Rruff sample: R070473
Ideal chemistry: Al_2_(PO_4_)F_2_(OH)7H_2_O
Locality: Gold Quarry mine (Maggie claims), Maggie Creek District, Eureka County, Nevada, USA
Source: Michael Scott
Description: Colorless to pale green blocky prismatic crystals
Raman shift (cm-1)	intensity
142.441	0
145.816	133.227
149.191	96.9043
152.566	86.2075
155.941	184.639
159.316	476.613
162.69	714.403
166.065	1197.65
169.44	1902.4
172.815	2290.05
176.19	1897.11
179.565	1605.97
182.939	1412.61
186.314	1286.43
189.689	1192.48
193.064	1097.24
196.439	1046.86
199.813	990.046
203.188	914.754
206.563	1021.01
209.938	1186.58
213.313	1213.39
216.687	1103.95
220.062	861.688
223.437	707.788
226.812	492.846
230.187	285.608
233.561	122.318
236.936	0.967773
240.311	25.552
243.686	11.2864
247.061	16.2378
250.436	51.9001
253.81	0.476074
257.185	61.1538
260.56	153.477
263.935	306.328
267.31	503.937
270.685	951.055
274.059	1471.92
277.434	2022.36
280.809	1310.37
284.184	762.83
287.559	605.721
290.933	633.529
294.308	752.998
297.683	838.289
301.058	887.372
304.433	847.377
307.808	885.202
311.182	874.033
314.557	876.082
317.932	661.77
321.307	615.213
324.682	747.115
328.056	753.233
331.431	689.54
334.806	584.908
338.181	610.324
341.556	529.558
344.93	460.84
348.305	331.216
351.68	244.186
355.055	225.141
358.43	169.74
361.805	102.402
365.179	66.9009
368.554	64.7148
371.929	45.044
375.304	4.90967
378.679	6.96777
382.053	11.0688
385.428	23.4963
388.803	32.0669
392.178	97.3425
395.553	97.9126
398.928	142.406
402.302	236.835
405.677	282.991
409.052	330.703
412.427	260.15
415.802	162.722
419.176	134.039
422.551	80.3821
425.926	117.329
429.301	71.665
432.676	81.1975
436.05	35.6448
439.425	94.2412
442.8	31.0044
446.175	25.8105
449.55	50.4277
452.925	174.316
456.299	300.36
459.674	457.018
463.049	502.218
466.424	413.627
469.799	189.784
473.173	69.1177
476.548	34.1208
479.923	83.3005
483.298	2.88647
486.673	18.5537
490.048	106.604
493.422	196.788
496.797	463.987
500.172	654.782
503.547	863.59
506.922	1171.99
510.296	1457.54
513.671	1921.74
517.046	2474.82
520.421	3000.49
523.796	3141.46
527.171	2660.14
530.545	1821.12
533.92	1159.68
537.295	796.182
540.67	611.466
544.045	513.94
547.419	403.014
550.794	422.576
554.169	341.503
557.544	414.446
560.919	386.235
564.294	397.121
567.668	449.802
571.043	483.61
574.418	586.303
577.793	699.116
581.168	859.006
584.543	963.628
587.917	1001.37
591.292	839.611
594.667	675.548
598.042	572.875
601.417	318.635
604.791	208.029
608.166	113.159
611.541	81.0974
614.916	17.179
618.291	3.33691
621.665	47.2437
625.04	24.6238
628.415	10.2549
631.79	62.562
635.165	52.0266
638.54	110.874
641.914	129.314
645.289	197.163
648.664	225.063
652.039	247.668
655.414	272.707
658.788	252.237
662.163	239.329
665.538	141.382
668.913	144.581
672.288	128.652
675.663	85.3931
679.037	94.6179
682.412	41.4883
685.787	37.3699
689.162	22.0723
692.537	43.4136
695.911	6.93262
699.286	21.3916
702.661	15.9731
706.036	31.3572
709.411	54.0203
712.785	78.0732
716.16	57.8008
719.535	78.28
722.91	55.4424
726.285	40.9365
729.66	83.8716
733.034	89.7444
736.409	55.291
739.784	59.9419
743.159	42.0786
746.534	60.7715
749.909	50.6577
753.283	3.14941
756.658	18.4123
760.033	30.0593
763.408	10.6067
766.783	16.2161
770.157	10.5496
773.532	10.0383
776.907	34.6245
780.282	12.9314
783.657	8.56348
787.032	3.68115
790.406	32.5747
793.781	0.957275
797.156	5.79224
800.531	39.7742
803.906	50.178
807.28	95.2947
810.655	67.6042
814.03	49.9797
817.405	85.6206
820.78	110.135
824.154	172.863
827.529	223.682
830.904	240.385
834.279	279.881
837.654	308.294
841.029	318.759
844.403	432.084
847.778	470.134
851.153	470.643
854.528	535.984
857.903	528.782
861.278	566.785
864.652	565.245
868.027	584.885
871.402	573.96
874.777	623.342
878.152	711.19
881.526	631.158
884.901	738.638
888.276	731.419
891.651	839.764
895.026	950.554
898.4	1007.37
901.775	1127.47
905.15	1282.9
908.525	1440.21
911.9	1506.66
915.274	1522.45
918.649	1349.53
922.024	1212.47
925.399	1041.63
928.774	865.048
932.149	618.076
935.523	484.974
938.898	298.437
942.273	201.278
945.648	159.64
949.023	81.6416
952.398	63.8674
955.772	2.82031
959.147	18.1545
962.522	24.1069
965.897	30.1426
969.272	42.0667
972.646	13.4895
976.021	14.2468
979.396	0.289795
982.771	9.57251
986.146	31.1824
989.52	52.0813
992.895	40.97
996.27	94.9287
999.645	98.5684
1003.02	173.614
1006.39	188.858
1009.77	335.647
1013.14	417.611
1016.52	503.435
1019.89	646.021
1023.27	909.3
1026.64	1347.71
1030.02	1986.32
1033.39	2601.59
1036.77	2923.96
1040.14	2459.62
1043.52	1626.47
1046.89	967.521
1050.27	629.985
1053.64	366.064
1057.02	210.018
1060.39	169.121
1063.77	171.532
1067.14	152.119
1070.52	146.55
1073.89	143.363
1077.27	152.162
1080.64	166.554
1084.02	292.628
1087.39	327.081
1090.77	450.477
1094.14	621.087
1097.52	709.422
1100.89	707.539
1104.26	523.649
1107.64	471.705
1111.01	434.681
1114.39	513.839
1117.76	524.51
1121.14	492.721
1124.51	472.665
1127.89	339.857
1131.26	250.606
1134.64	130.07
1138.01	107.595
1141.39	61.9868
1144.76	33.6052
1148.14	0.447998
1151.51	12.7981
1154.89	35.0024
1158.26	24.8896
1161.64	3.56348
1165.01	33.6494
1168.39	7.48706
1171.76	26.5378
1175.13	14.2515
1178.51	2.08838
1181.88	50.5122
1185.26	48.7517
1188.63	72.7568
1192.01	112.756
1195.38	66.3018
1198.76	79.0469
1202.13	73.1421
1205.51	151.68
1208.88	140.646
1212.26	48.9875
1215.63	50.2451
1219.01	81.1829
1222.38	70.5286
1225.76	60.4226
1229.13	60.2415
1232.51	39.6553
1235.88	54.1433
1239.26	105.282
1242.63	52.0601
1246.01	2.03955
1249.38	64.0476
1252.76	4.02832
1256.13	39.6462
1259.51	38.4543
1262.88	9.3335
1266.26	90.1682
1269.63	78.0591
1273.01	85.1838
1276.38	34.7224
1279.76	35.9556
1283.13	48.186
1286.5	3.37891
1289.88	62.4934
1293.25	45.4692
1296.63	57.4419
1300	63.99
