Measurement: Raman, 785 nm, unoriented, Raman Data Processed
Mineral: Fluellite
Rruff sample: R070473
Ideal chemistry: Al_2_(PO_4_)F_2_(OH)7H_2_O
Locality: Gold Quarry mine (Maggie claims), Maggie Creek District, Eureka County, Nevada, USA
Source: Michael Scott
Description: Colorless to pale green blocky prismatic crystals
Raman shift (cm-1)	intensity
143.095	0
145.987	230.884
148.88	1067.13
151.773	1414.61
154.665	1221.51
157.558	1048.59
160.451	1322.67
163.344	1720.84
166.236	2547.33
169.129	3453.88
172.022	4352.35
174.914	4184.86
177.807	3302.08
180.7	3062.34
183.592	3173.41
186.485	3382.51
189.378	3506.39
192.27	3322.39
195.163	3411.03
198.056	3562.83
200.949	2827.01
203.841	2241.14
206.734	2103.82
209.627	2224.9
212.519	2271.49
215.412	2060.13
218.305	1786.35
221.197	1366.29
224.09	1021.32
226.983	632.993
229.876	443.698
232.768	157.864
235.661	21.3701
238.554	0.522461
241.446	137.894
244.339	84.4414
247.232	159.404
250.125	71.5742
253.017	56.5205
255.91	88.2559
258.803	398.932
261.695	651.753
264.588	1184.66
267.481	1674.11
270.373	2320.7
273.266	3796
276.159	5416.79
279.051	5507
281.944	3246.26
284.837	1921.87
287.73	1435.8
290.622	1536.93
293.515	1590.85
296.408	1747.8
299.3	1827.76
302.193	1786.31
305.086	1601.9
307.978	1489.59
310.871	1392.85
313.764	1229.09
316.657	904.058
319.549	827.213
322.442	825.169
325.335	941.222
328.227	988.485
331.12	947.752
334.013	772.59
336.906	716.767
339.798	698.993
342.691	684.023
345.584	619.553
348.476	496.666
351.369	368.385
354.262	358.237
357.154	279.522
360.047	177.847
362.94	94.7744
365.832	7.38769
368.725	4.90479
371.618	0.687988
374.511	39.8145
377.403	11.7271
380.296	36.7515
383.189	14.8032
386.081	29.9575
388.974	81.3062
391.867	177.943
394.76	338.449
397.652	370.193
400.545	571.471
403.438	599.093
406.33	895.729
409.223	995.118
412.116	914.273
415.008	572.063
417.901	278.986
420.794	225.173
423.687	173.598
426.579	114.616
429.472	9.78223
432.365	88.8872
435.257	79.2344
438.15	19.1265
441.043	35.5962
443.935	4.92725
446.828	58.3584
449.721	191.18
452.613	294.605
455.506	541.519
458.399	706.154
461.292	1130.04
464.184	1331.34
467.077	970.212
469.97	462.723
472.862	218.61
475.755	35.7144
478.648	61.8008
481.541	91.6856
484.433	85.6343
487.326	76.6768
490.219	305.87
493.111	596.361
496.004	1059.58
498.897	1632.17
501.789	2267.71
504.682	3161.65
507.575	4016.88
510.467	5160.77
513.36	6575.65
516.253	7950.95
519.146	9602.97
522.038	10757.5
524.931	10488.8
527.824	8577.61
530.716	5972.9
533.609	3908.79
536.502	2627.61
539.394	1667.12
542.287	1254.67
545.18	883.734
548.073	713.648
550.965	616.773
553.858	625.393
556.751	588.612
559.643	548.261
562.536	560.439
565.429	632.925
568.322	762.201
571.214	1056.39
574.107	1411.19
577	1810.74
579.892	2218.94
582.785	2649.5
585.678	2970.74
588.57	2729.74
591.463	2390.32
594.356	2036.09
597.249	1467.2
600.141	1106.92
603.034	798.221
605.927	474.647
608.819	294.371
611.712	173.105
614.605	4.05176
617.497	12.6982
620.39	53.292
623.283	138.392
626.176	33.0732
629.068	29.041
631.961	95.8057
634.854	113.067
637.746	180.071
640.639	230.281
643.532	251.101
646.424	272.735
649.317	167.994
652.21	224.273
655.102	213.071
657.995	263.491
660.888	221.624
663.781	208.492
666.673	170.191
669.566	171.999
672.459	94.6646
675.351	91.8472
678.244	90.1572
681.137	25.2627
684.029	1.6958
686.922	21.9717
689.815	22.5278
692.708	5.89795
695.6	53.5923
698.493	106.588
701.386	99.1108
704.278	53.2261
707.171	58.7876
710.064	131.706
712.957	130.524
715.849	109.246
718.742	146.431
721.635	213.736
724.527	257.072
727.42	199.029
730.313	175.107
733.205	224.206
736.098	198.37
738.991	243.663
741.884	239.524
744.776	123.439
747.669	154.081
750.562	100.415
753.454	143.41
756.347	58.7881
759.24	74.8511
762.132	78.6411
765.025	35.9815
767.918	28.9971
770.811	11.793
773.703	7.56104
776.596	31.562
779.489	51.3442
782.381	56.4019
785.274	24.4092
788.167	36.752
791.059	47.2944
793.952	17.3535
796.845	27.7246
799.737	37.5513
802.63	70.5635
805.523	60.0366
808.416	149.86
811.308	148.445
814.201	172.509
817.094	219.189
819.986	307.988
822.879	396.472
825.772	433.578
828.664	516.934
831.557	526.748
834.45	607.979
837.343	632.152
840.235	641.134
843.128	762.262
846.021	798.252
848.913	984.475
851.806	898.712
854.699	964.087
857.591	935.489
860.484	1022.4
863.377	963.985
866.27	982.915
869.162	1025.91
872.055	1069.75
874.948	1037.12
877.84	1038.9
880.733	1042.86
883.626	1107.79
886.519	1143.26
889.411	1236.4
892.304	1410.74
895.197	1540.29
898.089	1673.58
900.982	1985.18
903.875	2109.02
906.767	2319.76
909.66	2495.88
912.553	2647.75
915.446	2641.31
918.338	2511.67
921.231	2245.89
924.124	1938.56
927.016	1660.4
929.909	1418.83
932.802	1122.37
935.694	952.24
938.587	793.125
941.48	661.07
944.372	459.777
947.265	361.728
950.158	262.531
953.051	174.839
955.943	153.337
958.836	86.5972
961.729	96.5234
964.621	31.8271
967.514	28.7607
970.407	69.1802
973.299	103.621
976.192	122.568
979.085	38.9302
981.978	18.0005
984.87	11.6021
987.763	30.6265
990.656	82.1367
993.548	131.615
996.441	175.407
999.334	242.722
1002.23	371.666
1005.12	481.912
1008.01	634.173
1010.9	852.394
1013.8	1172.41
1016.69	1532.72
1019.58	1944.54
1022.48	2564.1
1025.37	3517.96
1028.26	4788.09
1031.15	6396.49
1034.05	7743.95
1036.94	8343.84
1039.83	7336.11
1042.72	5485.71
1045.62	3646.98
1048.51	2344.53
1051.4	1627.29
1054.3	1098.42
1057.19	777.279
1060.08	549.694
1062.97	363.143
1065.87	331.189
1068.76	274.594
1071.65	310.947
1074.54	246.136
1077.44	312.139
1080.33	349.85
1083.22	402.927
1086.12	495.763
1089.01	677.366
1091.9	841.188
1094.79	932.144
1097.69	1070.9
1100.58	1148.91
1103.47	1058.66
1106.36	1014.42
1109.26	1068.26
1112.15	1130.35
1115.04	1263.95
1117.93	1316.79
1120.83	1417.95
1123.72	1283.49
1126.61	1104.81
1129.51	881.043
1132.4	608.375
1135.29	388.002
1138.18	235.757
1141.08	119.361
1143.97	102.66
1146.86	67.6311
1149.75	1.4729
1152.65	49.6721
1155.54	12.3713
1158.43	76.9863
1161.33	5.23731
1164.22	22.5298
1167.11	1.88403
1170	34.3503
1172.9	11.8896
1175.79	13.7668
1178.68	71.1011
1181.57	72.0862
1184.47	55.1645
1187.36	74.717
1190.25	73.3389
1193.14	138.025
1196.04	184.99
1198.93	153.917
1201.82	112.976
1204.71	59.7656
1207.61	111.321
1210.5	92.9321
1213.39	94.0225
1216.29	67.2866
1219.18	19.4458
1222.07	90.2949
1224.96	62.6143
1227.86	85.9214
1230.75	115.94
1233.64	62.0957
1236.54	36.0405
1239.43	71.4248
1242.32	67.3748
1245.21	16.1028
