Measurement: Raman, 532 nm, unoriented, Raman Data Processed
Mineral: Fluor-uvite
Rruff sample: R050172
Ideal chemistry: CaMg_3_(Al_5_Mg)(Si_6_O_18_)(BO_3_)_3_(OH)_3_F
Locality: Pierrepont, New York, USA
Source: Marcus Origlieri
Description: Black prismatic crystal
Measured chemistry: (Ca_0.64_Na_0.36_)(Mg_0.56_Fe^2+^_0.34_Al_0.08_Ti_0.02_)_3_(Mg_1.00_Al_5.00_)(BO_3_)_3_Si_6.00_O_18_((OH)_3.45_F_0.55_)
Raman shift (cm-1)	intensity
172.331	0
175.224	0.06205
178.117	0.383514
181.009	1.25913
183.902	2.64369
186.795	5.32393
189.687	7.35751
192.58	9.43362
195.473	13.338
198.365	15.6483
201.258	17.9992
204.151	21.4629
207.043	24.5774
209.936	24.9252
212.829	21.7054
215.722	18.3336
218.614	15.1737
221.507	14.6735
224.4	15.6821
227.292	18.4378
230.185	23.964
233.078	29.1393
235.97	34.919
238.863	38.5259
241.756	33.1004
244.649	23.2399
247.541	14.5565
250.434	8.42807
253.327	5.10268
256.219	2.8736
259.112	2.43802
262.005	2.26173
264.897	2.29291
267.79	1.5347
270.683	1.19823
273.576	0.337193
276.468	0.254585
279.361	0.525558
282.254	1.19638
285.146	0.791805
288.039	0.577892
290.932	0.32513
293.825	0.473209
296.717	1.27175
299.61	0.659779
302.503	3.3594
305.395	4.07321
308.288	5.88255
311.181	6.84251
314.073	8.29837
316.966	8.77611
319.859	8.1022
322.752	9.98769
325.644	10.8998
328.537	12.5914
331.43	12.5759
334.322	14.7023
337.215	15.9684
340.108	19.2965
343	21.37
345.893	25.3501
348.786	30.3251
351.678	36.2413
354.571	44.5169
357.464	51.7052
360.356	59.1423
363.249	64.4596
366.142	64.1404
369.035	58.2327
371.927	49.0665
374.82	38.0316
377.713	30.755
380.605	24.6066
383.498	20.2453
386.391	16.5685
389.284	14.2465
392.176	11.7922
395.069	10.5778
397.962	9.55667
400.854	7.9047
403.747	7.47475
406.64	6.77678
409.532	5.71651
412.425	4.51476
415.318	3.23904
418.211	2.7216
421.103	1.61122
423.996	1.16593
426.889	0.205894
429.781	0.41531
432.674	0.403446
435.567	0.653538
438.459	0.187622
441.352	0.25029
444.245	0.272282
447.137	0.730961
450.03	0.091087
452.923	1.16526
455.816	1.09011
458.708	0.912548
461.601	1.60194
464.494	3.53654
467.386	3.9636
470.279	5.24625
473.172	6.8015
476.065	8.79123
478.957	9.42641
481.85	10.0429
484.743	11.0555
487.635	11.7031
490.528	10.9072
493.421	11.5807
496.313	10.0991
499.206	8.96851
502.099	8.51438
504.991	7.52464
507.884	6.25151
510.777	5.26233
513.67	5.08682
516.562	4.79564
519.455	4.40823
522.348	4.97445
525.24	5.70136
528.133	5.50611
531.026	4.98282
533.918	4.52068
536.811	4.3707
539.704	4.30257
542.597	3.88179
545.489	3.09657
548.382	2.00193
551.275	1.84164
554.167	1.31638
557.06	0.912025
559.953	1.73256
562.846	0.334209
565.738	0.874474
568.631	1.08382
571.524	0.506371
574.416	0.485249
577.309	1.01305
580.202	1.00113
583.094	0.438263
585.987	0.771206
588.88	0.444386
591.773	0.079575
594.665	0.05167
597.558	0.256001
600.451	0.192085
603.343	0.080017
606.236	0.301521
609.129	0.346085
612.021	0.349297
614.914	0.124107
617.807	0.048668
620.699	0.309544
623.592	0.117943
626.485	0.140587
629.378	0.836292
632.27	1.14331
635.163	2.1652
638.056	2.32249
640.948	4.51405
643.841	6.10487
646.734	7.36305
649.626	8.4133
652.519	10.0087
655.412	11.3891
658.305	12.4848
661.197	12.7991
664.09	12.6474
666.983	10.2399
669.875	8.09333
672.768	5.55894
675.661	3.51467
678.553	3.06321
681.446	2.37686
684.339	2.57814
687.232	4.58532
690.124	5.80265
693.017	8.17788
695.91	11.3405
698.802	14.1301
701.695	16.0597
704.588	15.0186
707.481	12.2377
710.373	7.62626
713.266	4.03229
716.159	1.58332
719.051	0.381332
721.944	0.746124
724.837	0.798069
727.729	1.11937
730.622	1.26458
733.515	1.85252
736.408	2.34388
739.3	2.59324
742.193	2.92557
745.086	4.01102
747.978	4.56556
750.871	5.30423
753.764	6.20131
756.656	6.14122
759.549	6.34457
762.442	6.17122
765.335	7.00254
768.227	7.50061
771.12	7.75031
774.013	8.02831
776.905	7.85677
779.798	6.42534
782.691	6.42851
785.583	4.65147
788.476	4.23585
791.369	4.50741
794.261	3.91597
797.154	3.864
800.047	2.39401
802.939	1.93218
805.832	1.40664
808.725	0.541241
811.618	0.475861
814.51	0.06518
817.403	0.017689
820.296	0.138775
823.188	0.16198
826.081	0.353533
828.974	0.553894
831.866	0.45557
834.759	0.14518
837.652	0.016264
840.545	0.046312
843.437	0.622425
846.33	0.403788
849.223	0.830185
852.115	0.539289
855.008	1.31649
857.901	1.86354
860.793	1.44925
863.686	2.0221
866.579	2.01704
869.472	1.99109
872.364	2.00674
875.257	2.12299
878.15	2.37263
881.042	2.17595
883.935	1.88011
886.828	1.98849
889.721	2.02419
892.613	0.940948
895.506	1.12048
898.399	0.710529
901.291	0.258835
904.184	0.163332
907.077	0.871401
909.969	0.113155
912.862	0.151588
915.755	0.277325
918.648	0.146503
921.54	0.104965
924.433	0.125885
927.326	0.271534
930.218	0.123125
933.111	0.395916
936.004	0.643885
938.896	0.335735
941.789	0.948139
944.682	1.3838
947.574	1.08671
950.467	1.66608
953.36	1.7045
956.253	2.09492
959.145	2.77011
962.038	2.98351
964.931	2.4654
967.823	2.82879
970.716	2.15612
973.609	2.17911
976.501	1.47974
979.394	1.30274
982.287	1.32263
985.18	0.609884
988.072	0.309822
990.965	0.314751
993.858	0.021549
996.75	0.0466
999.643	0.253632
1002.54	0.189156
1005.43	0.104586
1008.32	0.317469
1011.21	1.42171
1014.11	2.38109
1017	3.08059
1019.89	4.31644
1022.78	4.48125
1025.68	5.66104
1028.57	6.08106
1031.46	7.24962
1034.36	7.56535
1037.25	8.72269
1040.14	9.01447
1043.03	9.83231
1045.93	10.8555
1048.82	10.0062
1051.71	10.9078
1054.6	10.0989
1057.5	10.6488
1060.39	10.975
1063.28	9.90889
1066.17	9.24381
1069.07	8.9432
1071.96	7.17304
1074.85	5.9366
1077.75	5.23825
1080.64	5.00972
1083.53	3.73256
1086.42	4.2769
1089.32	3.73049
1092.21	3.67695
1095.1	3.82905
1097.99	4.08608
1100.89	3.91966
1103.78	3.74395
1106.67	3.5559
1109.57	3.46036
1112.46	3.16728
1115.35	1.84082
1118.24	1.04675
1121.14	1.16808
1124.03	0.548994
1126.92	0.040375
1129.82	0.156918
1132.71	0.199116
1135.6	0.288246
1138.49	0.137541
1141.38	0.0236
1144.28	0.331972
1147.17	0.276363
1150.06	0.338562
1152.96	0.083138
1155.85	0.24749
1158.74	0.411699
1161.63	0.258741
1164.53	0.704866
1167.42	0.426121
1170.31	0.911831
1173.2	0.851583
1176.1	0.873497
1178.99	0.811859
1181.88	1.14729
1184.78	1.12912
1187.67	1.3868
1190.56	0.934093
1193.45	1.30507
1196.35	1.40483
1199.24	1.51485
1202.13	0.904119
1205.03	0.869585
1207.92	1.82213
1210.81	1.79212
1213.7	2.06771
1216.6	1.51252
1219.49	1.9615
1222.38	2.22853
1225.27	2.18662
1228.17	1.88299
1231.06	2.20345
1233.95	2.09052
1236.84	1.99537
1239.74	2.06674
1242.63	2.07348
1245.52	1.44467
1248.41	1.40181
1251.31	1.59172
1254.2	1.3267
1257.09	1.25115
1259.99	0.763523
1262.88	0.81868
1265.77	1.13161
1268.66	0.375673
1271.56	0.836941
1274.45	0.748402
1277.34	0.653723
1280.23	0.200758
1283.13	0.091322
1286.02	0.428238
1288.91	0.403507
1291.81	0.060528
1294.7	0.025864
