Measurement: Raman, 780 nm, unoriented, Raman Data Processed
Mineral: Fluor-buergerite
Rruff sample: R060132
Ideal chemistry: NaFe^3+^_3_Al_6_(Si_6_O_18_)(BO_3_)_3_O_3_F
Locality: 20 km. south of San Luis Potasi, Mexico
Source: University of Arizona Mineral Museum
Description: Brown short prismatic
Measured chemistry: (Na_0.87_Ca_0.03_[box]_0.10_)(Fe^3+^_0.82_Al_0.12_Mg_0.04_Ti_0.02_)_3_Al_6_(BO_3_)_3_(Si_0.98_Al_0.02_)_6_O_18_(O_0.66_F_0.19_(OH)_0.15_)_4_
Raman shift (cm-1)	intensity
145.058	0
147.951	0.362378
150.844	2.06766
153.736	2.69232
156.629	2.70773
159.522	1.05646
162.414	0.057419
165.307	0.570251
168.2	0.761282
171.093	1.12806
173.985	0.669228
176.878	0.240809
179.771	0.772271
182.663	0.124755
185.556	0.047833
188.449	0.428518
191.341	0.340398
194.234	0.08028
197.127	0.138328
200.019	0.323505
202.912	1.97367
205.805	2.21881
208.697	3.31118
211.59	4.10366
214.483	5.0958
217.376	8.65486
220.268	9.48571
223.161	11.6198
226.054	13.8484
228.946	18.3782
231.839	21.0161
234.732	21.8936
237.625	18.9634
240.517	16.4637
243.41	14.4709
246.303	13.4121
249.195	10.6514
252.088	9.02558
254.981	8.35953
257.873	7.49732
260.766	7.73111
263.659	5.90479
266.551	5.10753
269.444	2.84278
272.337	2.64338
275.23	2.83268
278.122	2.46185
281.015	2.88998
283.908	1.99977
286.8	0.932173
289.693	0.97528
292.586	0.702085
295.478	1.46652
298.371	2.1609
301.264	2.29849
304.157	0.519227
307.049	0.124682
309.942	0.246783
312.835	0.527794
315.727	0.540154
318.62	0.095385
321.513	0.997384
324.406	2.68857
327.298	3.84565
330.191	4.34673
333.084	3.93083
335.976	4.55197
338.869	3.93006
341.762	5.33829
344.654	5.98941
347.547	6.74313
350.44	7.21286
353.332	9.53552
356.225	11.6423
359.118	12.5474
362.01	15.2643
364.903	16.7913
367.796	18.4873
370.689	21.5298
373.581	21.6063
376.474	20.1499
379.367	18.2128
382.259	13.6961
385.152	11.1948
388.045	9.27609
390.938	7.68835
393.83	7.30131
396.723	7.66979
399.616	7.36424
402.508	6.01643
405.401	4.80641
408.294	3.7191
411.186	2.36491
414.079	1.47236
416.972	1.40433
419.865	0.127811
422.757	0.27719
425.65	0.102302
428.543	0.061409
431.435	0.024762
434.328	0.254225
437.221	0.654363
440.113	1.13848
443.006	2.18059
445.899	1.91624
448.791	3.13626
451.684	3.79223
454.577	3.63771
457.47	3.77398
460.362	3.57833
463.255	3.12264
466.148	2.01309
469.04	1.32237
471.933	1.24805
474.826	1.7322
477.719	0.199268
480.611	0.169975
483.504	0.259006
486.397	0.41473
489.289	0.32812
492.182	0.097191
495.075	0.023088
497.967	0.174864
500.86	0.844248
503.753	1.19463
506.645	1.70665
509.538	2.38788
512.431	4.43135
515.323	5.00949
518.216	5.59779
521.109	5.52344
524.002	5.89246
526.894	5.21286
529.787	4.58358
532.68	3.93798
535.572	3.25234
538.465	1.84803
541.358	1.63641
544.25	1.24454
547.143	1.29451
550.036	1.02395
552.929	0.103127
555.821	0.282083
558.714	0.08204
561.607	0.20332
564.499	0.054368
567.392	0.147918
570.285	0.170766
573.178	0.83904
576.07	0.71817
578.963	2.71069
581.856	2.48942
584.748	2.87026
587.641	3.51096
590.534	4.17163
593.426	4.01708
596.319	4.86384
599.212	6.87093
602.105	6.38831
604.997	7.06578
607.89	8.4737
610.783	7.59638
613.675	9.06098
616.568	11.0615
619.461	12.4532
622.353	14.9888
625.246	17.7714
628.139	21.4043
631.031	26.0666
633.924	30.0791
636.817	37.6182
639.71	36.8488
642.602	32.1755
645.495	27.4893
648.388	26.8953
651.28	17.6984
654.173	15.2047
657.066	12.8222
659.958	10.636
662.851	8.56151
665.744	6.244
668.636	4.47173
671.529	1.85011
674.422	1.86623
677.315	1.11674
680.207	0.287821
683.1	0.056449
685.993	0.100532
688.885	0.274772
691.778	0.186801
694.671	2.15356
697.563	2.67695
700.456	3.37043
703.349	4.83739
706.242	5.18946
709.134	5.6622
712.027	5.31564
714.92	5.6439
717.812	5.45645
720.705	4.04436
723.598	4.91611
726.49	3.75194
729.383	4.02306
732.276	3.23678
735.169	3.18674
738.061	2.38645
740.954	2.60368
743.847	1.05665
746.739	0.881005
749.632	0.317089
752.525	0.185498
755.418	0.248697
758.31	0.181873
761.203	0.119372
764.096	0.151702
766.988	0.060087
769.881	0.054174
772.774	0.357165
775.666	0.325981
778.559	0.258038
781.452	0.149894
784.345	0.061717
787.237	1.25253
790.13	0.082654
793.023	0.307157
795.915	0.008585
798.808	0.358731
801.701	0.286112
804.593	0.682715
807.486	0.612216
810.379	0.450938
813.271	0.918714
816.164	0.417641
819.057	0.965112
821.949	0.075859
824.842	0.162398
827.735	0.228726
830.628	0.186899
833.52	0.35365
836.413	0.558394
839.306	0.894671
842.198	1.21897
845.091	0.482894
847.984	1.16805
850.876	0.937362
853.769	0.590769
856.662	1.58006
859.555	0.979538
862.447	0.358752
865.34	0.481922
868.233	1.24427
871.125	0.397567
874.018	0.930117
876.911	0.96248
879.803	1.10535
882.696	1.11253
885.589	0.947682
888.482	0.301445
891.374	0.163466
894.267	0.545772
897.16	0.013863
900.052	0.260612
902.945	0.005955
905.838	0.036992
908.731	0.062008
911.623	0.245404
914.516	0.641001
917.409	0.210258
920.301	0.519805
923.194	0.393562
926.087	0.588069
928.979	0.047209
931.872	0.109678
934.765	0.020132
937.658	0.154484
940.55	0.05482
943.443	0.413066
946.336	0.246723
949.228	0.245627
952.121	1.45743
955.014	1.24101
957.906	0.543633
960.799	1.23347
963.692	1.12462
966.584	0.446815
969.477	0.787845
972.37	1.07512
975.263	0.964939
978.155	0.41019
981.048	0.789765
983.941	0.870247
986.833	1.49456
989.726	1.38337
992.619	1.57751
995.511	1.51866
998.404	1.97516
1001.3	1.97737
1004.19	1.92219
1007.08	2.08078
1009.98	2.43391
1012.87	2.10568
1015.76	1.30258
1018.65	1.56491
1021.55	1.48347
1024.44	1.64267
1027.33	0.090684
1030.22	1.11638
1033.12	0.048371
1036.01	0.16122
1038.9	0.193286
1041.8	0.816044
1044.69	1.3042
1047.58	1.65667
1050.47	1.9209
1053.37	2.98703
1056.26	3.02119
1059.15	3.03898
1062.04	3.3463
1064.94	1.74057
1067.83	1.93914
1070.72	2.36146
1073.61	1.62194
1076.51	1.3895
1079.4	0.063149
1082.29	0.073434
1085.18	0.245217
1088.08	0.278659
1090.97	0.220294
1093.86	0.168303
1096.76	0.195176
1099.65	0.03626
1102.54	0.184557
1105.43	0.3459
1108.33	0.33134
1111.22	0.942242
1114.11	0.453469
1117.01	0.418268
1119.9	0.688054
1122.79	1.33092
1125.68	0.598874
1128.58	0.693537
1131.47	0.576507
1134.36	0.012477
1137.25	0.703553
1140.15	0.18516
1143.04	0.247863
1145.93	0.24433
1148.82	0.222441
1151.72	0.114635
1154.61	0.089741
1157.5	0.033511
1160.39	0.041076
1163.29	0.57506
1166.18	0.153246
1169.07	0.352408
1171.97	0.42688
1174.86	0.783582
1177.75	0.461652
1180.64	0.923875
1183.54	0.339566
1186.43	1.03271
1189.32	0.109572
1192.21	0.669169
1195.11	0.28446
1198	0.413244
1200.89	0.226777
1203.79	0.228828
1206.68	0.917693
1209.57	0.044261
1212.46	0.094164
1215.36	0.008124
1218.25	0.575452
1221.14	0.113898
1224.04	0.719327
1226.93	0.185544
1229.82	0.977071
1232.71	0.435697
1235.61	0.234901
1238.5	0.911663
1241.39	0.699842
1244.28	1.03966
1247.18	1.64169
1250.07	0.017988
1252.96	1.77551
1255.85	0.412583
1258.75	1.05544
1261.64	0.965727
1264.53	0.389865
1267.42	0.782835
1270.32	0.223177
1273.21	0.815462
1276.1	1.08817
1279	1.08648
1281.89	0.435463
1284.78	0.126437
