Measurement: Raman, 532 nm, unoriented, Raman Data Processed
Mineral: Fluorapatite
Rruff sample: R040098
Ideal chemistry: Ca_5_(PO_4_)_3_F
Locality: Cerro de Mercado mine, Durango, Mexico
Source: Marcus Origlieri
Description: Pale yellow short hexagonal prism
Measured chemistry: Ca_5.00_((P_0.98_Si_0.01_S_0.01_)O_4_)_3_F_1.00_
Raman shift (cm-1)	intensity
178.937	0
181.829	15.9336
184.722	88.9453
187.615	128.347
190.507	93.1143
193.4	9.10645
196.293	45.3613
199.185	108.582
202.078	179.904
204.971	243.423
207.864	306.025
210.756	350.999
213.649	279.242
216.542	163.124
219.434	129.419
222.327	158.725
225.22	256.019
228.113	545.284
231.005	640.827
233.898	617.207
236.791	505.756
239.683	223.756
242.576	120.194
245.469	36.1133
248.361	12.4531
251.254	65.751
254.147	291.796
257.039	515.443
259.932	941.706
262.825	1181.2
265.718	1300.12
268.61	1071.53
271.503	853.703
274.396	565.849
277.288	379.676
280.181	201.684
283.074	203.237
285.966	241.576
288.859	289.681
291.752	281.82
294.645	407.274
297.537	750.551
300.43	1060.37
303.323	1403.02
306.215	1699.65
309.108	1740.39
312.001	1551.98
314.893	1317.59
317.786	1147.53
320.679	1247.89
323.572	1231.46
326.464	1406.31
329.357	1377.56
332.25	1413.65
335.142	1373.97
338.035	1359.61
340.928	1290.41
343.82	1009.22
346.713	676.973
349.606	395.756
352.498	316.065
355.391	155.162
358.284	54.7451
361.177	17.6074
364.069	99.543
366.962	107.677
369.855	6.79102
372.747	95.6748
375.64	36.4346
378.533	44.0518
381.425	120.46
384.318	209.824
387.211	346.945
390.104	378.28
392.996	347.475
395.889	338.773
398.782	265.382
401.674	236.657
404.567	383.571
407.46	371.408
410.353	575.591
413.245	874.16
416.138	947.003
419.031	1217.05
421.923	1533.43
424.816	1753.46
427.709	1952.46
430.601	2294.41
433.494	2741.51
436.387	3510.34
439.279	4370.07
442.172	4963.96
445.065	5117.64
447.958	4471.36
450.85	3341.6
453.743	2496.98
456.636	1778.95
459.528	1295.24
462.421	1085.23
465.314	945.707
468.207	946.975
471.099	900.885
473.992	923.443
476.885	1005.89
479.777	1069.97
482.67	972.873
485.563	854.484
488.455	560.836
491.348	658.85
494.241	566.07
497.133	634.668
500.026	668.586
502.919	797.84
505.812	871.189
508.704	887.551
511.597	720.881
514.49	590.045
517.382	493.428
520.275	395.731
523.168	209.834
526.06	114.852
528.953	9.86914
531.846	85.0059
534.739	86.5332
537.631	34.75
540.524	13.752
543.417	61.6074
546.309	140.994
549.202	31.3125
552.095	218.893
554.987	368.982
557.88	351.246
560.773	476.248
563.665	763.805
566.558	1399.14
569.451	2222.74
572.344	3393.69
575.236	4891.34
578.129	6880.31
581.022	7840.64
583.914	3996.73
586.807	2035.36
589.7	1699.19
592.592	1536.51
595.485	1432.7
598.378	1548.52
601.271	2022.49
604.163	2725.45
607.056	3041.77
609.949	2202.85
612.841	2073.96
615.734	2192.15
618.627	1412.24
621.519	807.769
624.412	411.478
627.305	511.766
630.197	415.643
633.09	318.43
635.983	164.85
638.876	79.4629
641.768	26.041
644.661	127.834
647.554	318.416
650.446	453.082
653.339	501.215
656.232	669.092
659.125	710.68
662.017	699.523
664.91	913.762
667.803	913.568
670.695	832.088
673.588	912.363
676.481	922.461
679.373	900.299
682.266	857.932
685.159	777.879
688.052	707.994
690.944	753.291
693.837	565.848
696.73	722.293
699.622	593.232
702.515	591.041
705.408	646.549
708.3	519.896
711.193	329.326
714.086	227.461
716.979	224.641
719.871	148.08
722.764	163.088
725.657	218.682
728.549	223.018
731.442	91.2871
734.335	71.8984
737.227	115.268
740.12	38.1504
743.013	61.5469
745.905	57.2578
748.798	207.578
751.691	332.188
754.584	294.367
757.476	304.455
760.369	564.664
763.262	707.566
766.154	796.689
769.047	712.568
771.94	700.539
774.832	750.506
777.725	706.113
780.618	679.693
783.51	530.963
786.403	437.174
789.296	546.496
792.189	541.953
795.081	463.06
797.974	472.057
800.867	190.438
803.759	222.125
806.652	95.7871
809.545	143.578
812.438	7.84375
815.33	121.266
818.223	54.5938
821.116	278.281
824.008	792.324
826.901	879.848
829.794	985.32
832.686	898.973
835.579	868.856
838.472	819.715
841.365	882.754
844.257	950.238
847.15	874.613
850.043	828.016
852.935	893.484
855.828	1177.64
858.721	1399.81
861.613	1110.06
864.506	1240.28
867.399	1162.07
870.291	1108.11
873.184	1063.91
876.077	1044.87
878.97	1008.46
881.862	1137.88
884.755	1115.4
887.648	990.144
890.54	708.332
893.433	578.945
896.326	676.789
899.218	677.234
902.111	702.918
905.004	402.18
907.896	355.492
910.789	349.805
913.682	273.805
916.575	108.531
919.467	140.098
922.36	21.75
925.253	85.75
928.145	53
931.038	104.852
933.931	88.1641
936.823	59.582
939.716	390.434
942.609	636.766
945.502	1545.66
948.394	3213.43
951.287	7310.57
954.18	13956.1
957.072	23780.1
959.965	37426.9
962.858	51600.7
965.75	40595
968.643	15181.9
971.536	5984.32
974.429	2397.82
977.321	871.801
980.214	31.7383
983.107	68.3125
985.999	230.996
988.892	75.8945
991.785	238.672
994.678	707.269
997.57	995.918
1000.46	1154.37
1003.36	1639.89
1006.25	2255.45
1009.14	2903.12
1012.03	3481.09
1014.93	3983.54
1017.82	4225.11
1020.71	5316.15
1023.6	6740
1026.5	8045.56
1029.39	9609.9
1032.28	10567.6
1035.17	9966.59
1038.07	8947.64
1040.96	8761.82
1043.85	8819.73
1046.75	9360.72
1049.64	9644.87
1052.53	9655.87
1055.42	9477.62
1058.32	9451.9
1061.21	8209.68
1064.1	5868.93
1066.99	4434.25
1069.89	3422.36
1072.78	2742.91
1075.67	2296.63
1078.57	1991.21
1081.46	1500.54
1084.35	778.598
1087.24	262.894
1090.14	82.1758
1093.03	159.234
1095.92	406.164
1098.82	187.137
1101.71	130.637
1104.6	265.086
1107.49	467.621
1110.38	896.945
1113.28	1637.19
1116.17	2425.08
1119.06	2721.27
1121.96	3171.11
1124.85	3737.61
1127.74	4388.31
1130.63	4908.8
1133.53	5530.82
1136.42	6278.78
1139.31	6293.26
1142.2	6494.49
1145.1	6092.98
1147.99	6157.37
1150.88	6142.78
1153.78	5775.41
1156.67	5385.23
1159.56	4814.07
1162.45	4351.41
1165.35	4376.05
1168.24	3489.35
1171.13	3104.5
1174.03	2978.42
1176.92	2532.35
1179.81	1990.33
1182.7	1687.15
1185.6	1610.71
1188.49	1713.1
1191.38	1209.37
1194.27	1185.14
1197.17	987.516
1200.06	703.969
1202.95	689.098
1205.84	674.301
1208.74	731.961
1211.63	349.703
1214.52	164.387
1217.41	2.71094
1220.31	102.574
1223.2	148.602
1226.09	202.91
1228.99	56.9844
1231.88	157.008
1234.77	12.7305
1237.66	2.12891
1240.56	8.40234
1243.45	11.6328
1246.34	135.504
1249.23	47.0469
1252.13	407.695
1255.02	738.981
1257.91	687.168
1260.81	792.543
1263.7	645.945
1266.59	526.277
1269.48	615.93
1272.38	594.641
1275.27	458.852
1278.16	573.297
1281.06	524.477
1283.95	410.609
1286.84	418.375
1289.73	508.535
1292.62	145.894
1295.52	130.504
