Measurement: Raman, 780 nm, unoriented, Raman Data Processed
Mineral: Fluor-elbaite
Rruff sample: R130035
Ideal chemistry: Na(Li_1.5_Al_1.5_)Al_6_(Si_6_O_18_)(BO_3_)_3_(OH)_3_F
Locality: Aqueana pegmatite, Aracuai, Minas Gerais, Brazil
Source: William W. Pinch
Description: Green prismatic crystal; holotype specimen
Raman shift (cm-1)	intensity
91.1996	0
94.5744	6.58932
97.9492	1.63896
101.324	0.287781
104.699	0.752274
108.074	0.817413
111.448	0.56134
114.823	3.23914
118.198	3.95186
121.573	8.46376
124.948	8.33747
128.322	6.47842
131.697	6.34381
135.072	4.03947
138.447	2.97395
141.822	0.663605
145.197	2.03055
148.571	2.70155
151.946	2.56847
155.321	5.84064
158.696	6.08006
162.071	7.2727
165.446	7.53236
168.82	8.4597
172.195	8.08629
175.57	8.18448
178.945	10.0467
182.32	9.50604
185.694	10.2802
189.069	9.71019
192.444	10.0167
195.819	11.6427
199.194	13.3997
202.569	16.3558
205.943	20.3856
209.318	24.945
212.693	33.4781
216.068	46.909
219.442	63.4704
222.817	69.4734
226.192	60.9855
229.567	49.1193
232.942	45.027
236.317	43.2259
239.691	43.7396
243.066	41.6789
246.441	37.2173
249.816	34.8664
253.191	31.566
256.565	27.3654
259.94	24.1262
263.315	21.8117
266.69	21.0113
270.065	18.5676
273.44	15.6997
276.814	12.4769
280.189	8.64032
283.564	4.7836
286.939	2.48912
290.314	0.618584
293.688	0.28075
297.063	1.45534
300.438	1.89421
303.813	0.052296
307.188	0.129436
310.562	1.82036
313.937	4.61792
317.312	3.70339
320.687	1.4349
324.062	1.58431
327.437	2.84802
330.811	3.85583
334.186	6.06667
337.561	6.22402
340.936	8.60502
344.311	11.0332
347.685	10.4309
351.06	11.8178
354.435	14.6499
357.81	19.9916
361.185	30.5397
364.56	50.7863
367.934	80.2355
371.309	90.5518
374.684	65.7699
378.059	39.1717
381.434	25.5593
384.808	18.3177
388.183	15.0487
391.558	12.9627
394.933	12.9163
398.308	15.7249
401.683	18.7307
405.057	24.4332
408.432	26.1045
411.807	22.0399
415.182	13.9736
418.557	7.94309
421.931	3.22293
425.306	2.44762
428.681	0.416729
432.056	0.454208
435.431	0.226513
438.805	0.310204
442.18	0.316948
445.555	0.406483
448.93	0.512276
452.305	0.147827
455.68	0.440075
459.054	0.045933
462.429	0.849243
465.804	0.759075
469.179	1.68755
472.554	1.17646
475.928	1.56173
479.303	1.35131
482.678	2.00272
486.053	3.68005
489.428	5.09435
492.803	5.47731
496.177	6.86343
499.552	6.67497
502.927	7.5011
506.302	6.88985
509.677	7.22023
513.051	6.57655
516.426	5.34792
519.801	5.0429
523.176	3.73159
526.551	2.24508
529.926	3.16264
533.3	2.51724
536.675	2.89856
540.05	2.93377
543.425	2.17851
546.799	2.34822
550.174	1.60584
553.549	2.43021
556.924	2.02948
560.299	1.84271
563.674	1.70071
567.048	0.602753
570.423	1.04263
573.798	0.471382
577.173	0.17012
580.548	0.305843
583.923	0.401661
587.297	0.467785
590.672	0.043865
594.047	0.00708
597.422	0.332592
600.797	0.297131
604.171	0.040382
607.546	0.382664
610.921	0.143501
614.296	0.715637
617.671	1.38452
621.045	3.19521
624.42	6.00103
627.795	10.5798
631.17	13.194
634.545	13.4046
637.919	11.7568
641.294	9.67672
644.669	8.72527
648.044	6.95473
651.419	6.24949
654.794	5.66401
658.168	5.77037
661.543	4.60913
664.918	2.47399
668.293	2.06364
671.668	1.35112
675.043	1.13101
678.417	1.46829
681.792	0.672874
685.167	2.62168
688.542	3.70763
691.917	7.48688
695.291	13.5881
698.666	18.2337
702.041	21.6169
705.416	19.374
708.791	13.6251
712.165	8.87054
715.54	6.69494
718.915	4.32589
722.29	3.59262
725.665	2.21009
729.039	0.963493
732.414	1.41226
735.789	0.724915
739.164	0.622208
742.539	0.748112
745.914	2.96571
749.288	4.48096
752.663	4.01848
756.038	2.35134
759.413	1.36858
762.788	1.28818
766.163	0.999592
769.537	1.11837
772.912	0.190777
776.287	0.34845
779.662	0.092983
783.037	0.130341
786.411	0.274921
789.786	0.762283
793.161	0.424076
796.536	0.282734
799.911	0.307938
803.285	0.077766
806.66	0.312447
810.035	0.54224
813.41	0.518532
816.785	0.134789
820.159	0.781216
823.534	0.389046
826.909	1.17231
830.284	1.82752
833.659	1.91099
837.034	2.52319
840.408	1.81607
843.783	1.84155
847.158	1.46104
850.533	1.8612
853.908	1.1948
857.283	2.48454
860.657	1.79992
864.032	1.13966
867.407	1.70227
870.782	0.560638
874.157	0.2155
877.531	0.066803
880.906	0.657146
884.281	0.131683
887.656	0.454277
891.031	0.954132
894.405	0.797665
897.78	0.058067
901.155	0.190735
904.53	0.35466
907.905	0.511169
911.279	0.167881
914.654	0.568703
918.029	0.598106
921.404	0.250652
924.779	0.603516
928.154	0.906921
931.528	0.347412
934.903	0.150772
938.278	0.358898
941.653	0.647781
945.028	0.043724
948.403	0.640072
951.777	1.02856
955.152	0.984013
958.527	0.493942
961.902	0.476936
965.277	1.43293
968.651	0.703678
972.026	0.85527
975.401	0.619633
978.776	0.65052
982.151	0.385235
985.525	0.549431
988.9	0.46962
992.275	0.684372
995.65	0.97224
999.025	0.65266
1002.4	0.967594
1005.77	1.78443
1009.15	0.366901
1012.52	0.909954
1015.9	1.25959
1019.27	1.41649
1022.65	1.46802
1026.02	0.969254
1029.4	1.00105
1032.77	0.64661
1036.15	0.94978
1039.52	1.52408
1042.9	1.98008
1046.27	3.15381
1049.65	5.04708
1053.02	6.20017
1056.4	5.97691
1059.77	5.83587
1063.15	4.70681
1066.52	2.8631
1069.9	1.81728
1073.27	2.1105
1076.64	1.81953
1080.02	2.53032
1083.39	3.8566
1086.77	4.155
1090.14	2.98973
1093.52	1.35455
1096.89	1.6176
1100.27	0.780602
1103.64	1.12087
1107.02	0.376957
1110.39	0.605473
1113.77	0.290329
1117.14	0.724167
1120.52	0.015728
1123.89	0.559261
1127.27	0.863953
1130.64	1.46654
1134.02	0.816883
1137.39	0.362305
1140.77	0.659359
1144.14	0.418003
1147.52	0.339188
1150.89	0.164833
1154.27	0.247511
1157.64	0.388802
1161.02	0.174194
1164.39	0.900997
1167.77	0.693295
1171.14	1.72317
1174.52	1.38367
1177.89	0.855963
1181.27	1.35206
1184.64	0.568338
1188.01	1.56282
1191.39	2.17838
1194.76	1.59656
1198.14	1.52127
1201.51	0.697983
1204.89	1.30153
1208.26	0.750179
1211.64	0.925293
1215.01	0.195145
1218.39	0.815159
1221.76	0.591328
1225.14	0.37907
1228.51	0.709805
1231.89	1.46781
1235.26	0.645222
1238.64	0.914314
1242.01	0.531219
1245.39	1.00632
1248.76	0.708031
1252.14	0.380253
1255.51	0.504658
1258.88	0.470997
1262.26	0.098068
1265.63	0.666576
1269.01	0.63118
1272.38	0.297718
1275.76	0.655777
1279.13	0.411724
1282.51	0.528255
