Measurement: Raman, 780 nm, unoriented, Raman Data Processed
Mineral: Fluorlamprophyllite
Rruff sample: R130421
Ideal chemistry: Na_3_(SrNa)Ti_3_(Si_2_O_7_)_2_O_2_F_2_
Locality: Pocos de Caldas Plateau, Minas Gerais, Brazil
Source: Gunnar Farber
Description: Aggregates of bladed brownish-orange crystals, associated with natrolite, aegerine, analcime, nepheline, and microcline.
Measured chemistry: (Na_2.30_Mn_0.54_Mg_0.16_)_Σ3.00_(Sr_1.35_Na_0.33_Ca_0.15_K_0.08_)_Σ1.91_(Ti_2.63_Fe_0.24_Al_0.03_)_Σ2.90_Si_3.89_O_16_[F_1.15_(OH)_0.85_]_Σ2.00_
Raman shift (cm-1)	intensity
93.6102	0
96.985	2.70111
100.36	0.195892
103.735	0.358276
107.109	1.06027
110.484	2.28194
113.859	14.399
117.234	29.6992
120.609	51.6585
123.984	67.9904
127.358	75.4665
130.733	70.7064
134.108	48.6618
137.483	24.2964
140.858	10.7369
144.232	7.44194
147.607	8.88547
150.982	15.3574
154.357	25.2459
157.732	36.8581
161.107	52.3609
164.481	71.2105
167.856	91.3462
171.231	81.5033
174.606	42.2046
177.981	16.4961
181.355	2.76257
184.73	0.772194
188.105	2.78639
191.48	1.04032
194.855	2.45581
198.229	6.44722
201.604	10.9432
204.979	15.9206
208.354	22.2498
211.729	26.6928
215.103	29.1694
218.478	26.7402
221.853	18.6494
225.228	11.2582
228.603	5.194
231.978	7.02745
235.352	11.6072
238.727	18.2887
242.102	24.6988
245.477	32.5257
248.852	34.2109
252.226	30.4549
255.601	25.182
258.976	16.2137
262.351	11.9931
265.726	11.1291
269.101	11.0476
272.475	10.1919
275.85	10.4391
279.225	7.22887
282.6	3.85906
285.975	0.666794
289.349	5.06216
292.724	3.39578
296.099	1.11764
299.474	4.9762
302.849	13.8993
306.224	20.3806
309.598	29.6112
312.973	37.3451
316.348	48.3345
319.723	55.89
323.098	60.6469
326.472	63.4858
329.847	69.8185
333.222	78.9776
336.597	90.1671
339.972	93.9933
343.346	93.8952
346.721	86.5084
350.096	80.0131
353.471	80.9778
356.846	85.2568
360.221	95.1722
363.595	105.242
366.97	117.831
370.345	125.225
373.72	116.73
377.095	87.6484
380.469	51.6311
383.844	29.4618
387.219	21.3843
390.594	23.4016
393.969	28.2128
397.344	27.222
400.718	27.3445
404.093	31.5438
407.468	39.5204
410.843	47.0025
414.217	51.2091
417.592	51.9802
420.967	46.4833
424.342	36.8375
427.717	21.0212
431.092	6.05674
434.466	4.23954
437.841	6.50177
441.216	3.14902
444.591	5.23488
447.966	16.0438
451.341	28.7631
454.715	37.5907
458.09	39.6429
461.465	32.747
464.84	24.7082
468.215	19.0289
471.589	16.4434
474.964	14.8112
478.339	12.5411
481.714	12.7161
485.089	14.8713
488.463	16.7678
491.838	19.7913
495.213	18.1951
498.588	14.2326
501.963	8.64877
505.337	6.74839
508.712	6.70439
512.087	6.67377
515.462	4.57312
518.837	1.52882
522.212	2.07348
525.586	1.0299
528.961	1.04308
532.336	0.443336
535.711	0.27306
539.086	0.429493
542.46	0.330387
545.835	0.590191
549.21	1.19498
552.585	0.074028
555.96	4.6423
559.335	11.3736
562.709	21.2565
566.084	36.4036
569.459	58.1078
572.834	83.9451
576.209	115.691
579.583	152.185
582.958	179.308
586.333	169.555
589.708	134.187
593.083	101.694
596.457	77.0444
599.832	56.703
603.207	43.3622
606.582	31.2894
609.957	20.5719
613.332	12.2622
616.706	6.93662
620.081	3.11586
623.456	0.906921
626.831	0.388741
630.206	0.565178
633.58	0.409214
636.955	0.302032
640.33	1.83409
643.705	4.20588
647.08	5.83683
650.455	9.29576
653.829	14.3883
657.204	20.444
660.579	28.1276
663.954	37.3523
667.329	49.4309
670.703	64.2725
674.078	86.0188
677.453	109.175
680.828	135.372
684.203	158.064
687.577	172.167
690.952	164.809
694.327	138.262
697.702	101.301
701.077	72.1017
704.452	49.7007
707.826	33.8596
711.201	24.7445
714.576	17.4484
717.951	13.5715
721.326	10.6359
724.7	8.35889
728.075	6.21443
731.45	3.79447
734.825	2.85412
738.2	1.88174
741.574	1.36911
744.949	0.654911
748.324	0.434628
751.699	0.44231
755.074	0.92651
758.449	0.266953
761.823	0.800983
765.198	1.67403
768.573	4.12903
771.948	5.84415
775.323	7.24344
778.697	11.29
782.072	15.3074
785.447	21.4158
788.822	28.0605
792.197	30.111
795.572	32.7612
798.946	29.4767
802.321	25.9359
805.696	19.1733
809.071	10.9575
812.446	2.48383
815.82	2.16642
819.195	4.03981
822.57	5.19052
825.945	3.54048
829.32	1.58113
832.694	5.61824
836.069	13.7869
839.444	28.3674
842.819	43.5563
846.194	56.0708
849.569	61.0997
852.943	57.6714
856.318	55.1697
859.693	53.1465
863.068	56.7374
866.443	61.5566
869.817	81.6994
873.192	129.225
876.567	199.522
879.942	290.078
883.317	393.291
886.692	483.522
890.066	538.222
893.441	540.935
896.816	490.737
900.191	420.522
903.566	351.748
906.94	292.505
910.315	236.708
913.69	188.203
917.065	147.902
920.44	119.884
923.814	107.76
927.189	101.774
930.564	104.01
933.939	112.081
937.314	121.537
940.689	135.733
944.063	145.654
947.438	147.456
950.813	127.223
954.188	87.4278
957.563	46.8965
960.937	21.0452
964.312	6.60149
967.687	0.395466
971.062	3.11001
974.437	4.74218
977.812	3.96703
981.186	3.06796
984.561	1.2422
987.936	0.917049
991.311	2.23438
994.686	4.10649
998.06	6.25701
1001.43	8.01646
1004.81	9.52026
1008.18	10.5786
1011.56	12.9097
1014.93	14.2588
1018.31	15.9875
1021.68	17.336
1025.06	18.4708
1028.43	19.5715
1031.81	19.4149
1035.18	18.7036
1038.56	17.6745
1041.93	18.2342
1045.31	18.5684
1048.68	19.5635
1052.06	22.0802
1055.43	24.8956
1058.81	29.7257
1062.18	31.135
1065.56	34.1769
1068.93	35.0576
1072.31	35.9886
1075.68	29.0193
1079.06	22.9728
1082.43	16.7637
1085.81	12.3536
1089.18	8.09769
1092.56	5.12844
1095.93	2.82715
1099.31	1.62101
1102.68	0.612457
1106.05	0.714516
1109.43	0.288488
1112.8	0.192905
1116.18	0.253433
1119.55	0.320562
1122.93	0.314177
1126.3	0.666153
1129.68	0.311481
1133.05	0.171698
1136.43	0.676586
1139.8	0.472355
1143.18	0.292135
1146.55	0.147503
1149.93	0.0502
1153.3	0.202017
1156.68	0.039648
1160.05	0.310646
1163.43	0.161119
1166.8	0.174536
1170.18	0.379278
1173.55	0.112894
1176.93	0.681715
1180.3	0.416397
1183.67	0.088871
1187.05	0.274055
1190.42	0.040369
1193.8	0.222084
1197.17	0.775146
1200.55	0.25709
1203.92	0.348963
1207.3	0.13575
1210.67	2.431
1214.05	0.397505
1217.42	0.364296
1220.8	1.81254
1224.17	0.126904
1227.55	0.111423
1230.92	0.014395
1234.3	0.271273
1237.67	0.149738
1241.05	0.413382
1244.42	0.130529
1247.8	0.719353
1251.17	0.772889
1254.55	0.695087
1257.92	0.395899
1261.3	0.570533
1264.67	0.711453
1268.05	0.366115
1271.42	0.427094
1274.8	0.778358
1278.17	0.898819
1281.55	0.779974
