Measurement: Raman, 780 nm, unoriented, Raman Data Processed
Mineral: Fluornatromicrolite
Rruff sample: R090008
Ideal chemistry: (Na,Ca,Bi)_2_Ta_2_O_6_F
Locality: Shigar Valley, Skardu District, Baltistan, Northern areas, Pakistan
Source: Herb Obodda
Description: Dark yellowish brown octahedra on orthoclase
Raman shift (cm-1)	intensity
92.3769	0
95.7518	80.1351
99.1266	68.2228
102.501	40.0575
105.876	29.6094
109.251	8.84827
112.626	2.21936
116.001	1.58801
119.376	10.0902
122.75	34.02
126.125	17.8158
129.5	17.3105
132.875	12.0624
136.25	6.69141
139.624	8.8595
142.999	8.30359
146.374	3.17029
149.749	4.45447
153.124	1.48071
156.499	11.928
159.873	22.701
163.248	30.8369
166.623	42.0828
169.998	42.3086
173.373	52.5465
176.747	63.8499
180.122	78.2141
183.497	96.8929
186.872	107.401
190.247	138.367
193.621	156.491
196.996	186.862
200.371	205.723
203.746	214.543
207.121	202.885
210.495	171.466
213.87	122.012
217.245	93.265
220.62	70.202
223.995	48.8635
227.37	38.3646
230.744	18.5763
234.119	13.4912
237.494	10.1813
240.869	8.27441
244.244	4.24292
247.619	4.96509
250.993	4.87146
254.368	3.6355
257.743	2.0581
261.118	9.60535
264.493	31.2521
267.867	66.0614
271.242	98.5194
274.617	144.599
277.992	197.402
281.367	234.708
284.741	255.704
288.116	277.204
291.491	294.515
294.866	288.281
298.241	281.683
301.616	255.662
304.99	216.623
308.365	157.367
311.74	93.201
315.115	38.5802
318.49	6.88623
321.865	9.05402
325.239	3.40124
328.614	34.4028
331.989	70.2856
335.364	118.454
338.739	149.155
342.113	147.718
345.488	131.046
348.863	117.186
352.238	117.045
355.613	122.115
358.987	135.993
362.362	136.567
365.737	134.161
369.112	124.028
372.487	111.071
375.861	84.3417
379.236	65.0979
382.611	47.7222
385.986	30.2681
389.361	22.9365
392.736	7.07617
396.11	6.46979
399.485	7.01672
402.86	11.1882
406.235	12.3729
409.61	16.9367
412.985	21.147
416.359	32.234
419.734	39.7188
423.109	59.5331
426.484	68.4654
429.859	73.7289
433.233	80.501
436.608	80.6733
439.983	79.4433
443.358	83.8185
446.733	80.5156
450.108	77.6404
453.482	69.1514
456.857	51.5358
460.232	39.9532
463.607	31.5024
466.982	15.948
470.356	7.23731
473.731	0.219116
477.106	7.21936
480.481	7.81201
483.856	4.38367
487.231	4.77362
490.605	29.6594
493.98	75.7508
497.355	154.95
500.73	245.728
504.104	374.719
507.479	488.685
510.854	540.112
514.229	491.815
517.604	408.535
520.979	327.086
524.354	269.403
527.728	239.303
531.103	214.878
534.478	193.431
537.853	173.203
541.227	157.466
544.602	139.949
547.977	124.292
551.352	104.996
554.727	86.2487
558.102	64.2957
561.476	47.2853
564.851	26.3961
568.226	12.6785
571.601	2.19525
574.976	2.24805
578.351	3.17999
581.725	2.91479
585.1	6.34222
588.475	15.3744
591.85	28.8267
595.225	42.1061
598.599	60.8868
601.974	71.6605
605.349	80.2723
608.724	85.8272
612.099	90.0918
615.473	90.5435
618.848	89.3447
622.223	85.7518
625.598	83.118
628.973	80.434
632.347	78.4561
635.722	73.0219
639.097	74.0318
642.472	71.5911
645.847	74.7299
649.222	76.9313
652.596	76.3144
655.971	74.4641
659.346	75.0332
662.721	72.4123
666.096	74.999
669.471	75.656
672.845	68.5838
676.22	69.2679
679.595	61.9412
682.97	56.6121
686.345	51.4703
689.719	43.9385
693.094	40.0785
696.469	27.9828
699.844	22.7824
703.219	13.5714
706.593	10.3343
709.968	4.36694
713.343	1.11404
716.718	1.35895
720.093	2.02332
723.468	3.92596
726.842	4.28165
730.217	2.62085
733.592	1.03336
736.967	0.723175
740.342	5.67596
743.716	7.59177
747.091	6.35266
750.466	9.76157
753.841	10.4365
757.216	10.8079
760.591	10.5913
763.965	12.3246
767.34	14.566
770.715	16.9526
774.09	16.2153
777.465	15.708
780.84	13.9467
784.214	13.4075
787.589	9.9939
790.964	15.1787
794.339	21.1185
797.714	24.2695
801.088	29.8671
804.463	35.075
807.838	39.8659
811.213	43.3254
814.588	43.2519
817.962	46.2535
821.337	42.1838
824.712	40.3263
828.087	33.0872
831.462	30.0223
834.837	28.6619
838.211	23.6821
841.586	18.4299
844.961	14.3652
848.336	9.03354
851.711	4.59369
855.085	1.87518
858.46	0.190155
861.835	1.35165
865.21	0.887939
868.585	0.728912
871.96	2.44916
875.334	4.94092
878.709	7.05463
882.084	6.52396
885.459	10.2247
888.834	15.793
892.208	18.083
895.583	25.1406
898.958	27.8917
902.333	33.2767
905.708	36.0938
909.082	42.6842
912.457	42.521
915.832	46.3696
919.207	49.2273
922.582	50.0755
925.957	44.7803
929.331	41.9488
932.706	38.502
936.081	29.5902
939.456	23.6854
942.831	15.9594
946.205	4.14551
949.58	1.12427
952.955	2.35852
956.33	2.45093
959.705	1.54303
963.08	5.38727
966.454	12.7358
969.829	27.4811
973.204	33.0092
976.579	36.7217
979.954	46.8197
983.328	54.4976
986.703	57.1124
990.078	58.0912
993.453	55.9455
996.828	53.1611
1000.2	48.7552
1003.58	38.1877
1006.95	28.5295
1010.33	22.0689
1013.7	10.7082
1017.08	4.29285
1020.45	3.79987
1023.83	2.53662
1027.2	2.23889
1030.58	11.1078
1033.95	0.159729
1037.33	1.26276
1040.7	5.12878
1044.08	3.09314
1047.45	9.67096
1050.83	17.7564
1054.2	28.6216
1057.57	38.491
1060.95	52.0434
1064.32	50.5593
1067.7	49.4585
1071.07	56.2642
1074.45	54.3752
1077.82	51.0797
1081.2	44.1318
1084.57	42.269
1087.95	30.5902
1091.32	18.689
1094.7	15.7036
1098.07	6.99023
1101.45	8.57837
1104.82	17.7963
1108.2	49.6035
1111.57	76.7856
1114.95	98.2706
1118.32	126.737
1121.7	148.565
1125.07	160.965
1128.45	185.675
1131.82	195.305
1135.19	226.291
1138.57	262.257
1141.94	312.313
1145.32	359.34
1148.69	424.781
1152.07	463.51
1155.44	472.523
1158.82	451.91
1162.19	413.691
1165.57	353.454
1168.94	298.409
1172.32	237.388
1175.69	187.075
1179.07	139.664
1182.44	100.4
1185.82	64.9385
1189.19	40.9995
1192.57	34.3426
1195.94	14.6716
1199.32	6.35474
1202.69	7.1333
1206.07	6.12622
1209.44	7.82739
1212.82	69.1016
1216.19	172.214
1219.57	319.485
1222.94	498.441
1226.32	672.037
1229.69	719.705
1233.07	617.311
1236.44	433.482
1239.81	242.939
1243.19	100.713
1246.56	19.9419
1249.94	3.625
1253.31	29.1519
1256.69	22.3738
1260.06	7.80566
