Measurement: Raman, 532 nm, unoriented, Raman Data Processed
Mineral: Fluorcalciomicrolite
Rruff sample: R130019
Ideal chemistry: (Ca,Na)_2_Ta_2_(O,OH)_6_F
Locality: Virgem da Lapa, Minas Gerais, Brazil
Source: Royal Ontario Museum
Description: Yellow outer zone of 1.5 cm zoned octahedron
Measured chemistry: (Ca_0.96_Na_0.91_Pb_0.03_)_Σ=1.90_(Ta_1.69_Nb_0.31_)_Σ=2_O_6_[F_0.81_(OH)_0.08_]_Σ=0.89_
Raman shift (cm-1)	intensity
212.784	0
215.676	5.43262
218.569	2.58826
221.462	13.3204
224.354	41.98
227.247	50.2647
230.14	50.2404
233.032	42.4856
235.925	40.3331
238.818	56.5554
241.71	79.4515
244.603	92.1484
247.496	103.693
250.389	106.555
253.281	110.885
256.174	117.433
259.067	129.467
261.959	139.692
264.852	159.776
267.745	173.166
270.637	192.974
273.53	207.302
276.423	218.561
279.316	230.286
282.208	245.998
285.101	262.92
287.994	274.289
290.886	278.801
293.779	286.4
296.672	280.844
299.565	277.942
302.457	261.305
305.35	247.129
308.243	224.457
311.135	205.587
314.028	181.705
316.921	162.386
319.813	140.148
322.706	129.328
325.599	126.589
328.491	123.527
331.384	121.646
334.277	123.215
337.17	125.626
340.062	124.709
342.955	127.716
345.848	121.104
348.74	104.5
351.633	93.7573
354.526	78.0917
357.418	59.9031
360.311	52.4784
363.204	45.384
366.097	34.6412
368.989	28.6322
371.882	25.2076
374.775	20.1903
377.667	15.5889
380.56	11.418
383.453	6.15784
386.346	1.42944
389.238	1.05298
392.131	1.33545
395.024	5.6593
397.916	3.5072
400.809	9.04089
403.702	6.50867
406.594	5.33801
409.487	4.91443
412.38	1.24048
415.272	2.29712
418.165	1.95117
421.058	0.973022
423.951	0.628906
426.843	0.761475
429.736	0.219727
432.629	1.02136
435.521	5.16186
438.414	7.56305
441.307	7.35571
444.2	13.1974
447.092	11.5416
449.985	6.5755
452.878	7.80823
455.77	5.8031
458.663	1.6507
461.556	0.020569
464.448	1.91473
467.341	1.1795
470.234	1.03143
473.127	4.01917
476.019	9.50586
478.912	17.9777
481.805	20.5117
484.697	29.9551
487.59	50.7678
490.483	74.3113
493.375	97.4111
496.268	122.411
499.161	151.864
502.053	165.699
504.946	166.651
507.839	155.048
510.732	135.455
513.624	110.853
516.517	88.1014
519.41	70.7941
522.302	58.4377
525.195	56.267
528.088	58.0394
530.981	59.5944
533.873	72.3789
536.766	79.7156
539.659	87.6245
542.551	87.1763
545.444	91.6318
548.337	98.2871
551.229	99.9078
554.122	95.3347
557.015	87.7393
559.908	78.8254
562.8	66.9685
565.693	50.4503
568.586	40.4513
571.478	26.5226
574.371	12.8326
577.264	1.35547
580.156	7.05835
583.049	8.71716
585.942	7.00964
588.835	4.01001
591.727	0.047119
594.62	18.1074
597.513	32.6529
600.405	52.5227
603.298	78.4595
606.191	103.209
609.083	136.275
611.976	165.166
614.869	198.528
617.761	235.349
620.654	268.253
623.547	295.97
626.44	313.189
629.332	332.113
632.225	354.84
635.118	373.098
638.01	383.464
640.903	387.446
643.796	398.122
646.688	412.072
649.581	416.016
652.474	417.548
655.367	425.63
658.259	421.834
661.152	418.195
664.045	417.224
666.937	406.448
669.83	412.145
672.723	400.693
675.615	395.999
678.508	378.188
681.401	359.718
684.294	339.877
687.186	306.067
690.079	286.594
692.972	251.837
695.864	213.796
698.757	177.934
701.65	144.097
704.543	121.119
707.435	88.7388
710.328	65.0019
713.221	40.9788
716.113	23.3827
719.006	12.338
721.899	0.738037
724.791	5.82983
727.684	11.9584
730.577	17.3689
733.47	16.477
736.362	15.3768
739.255	11.6261
742.148	9.75781
745.04	2.4989
747.933	13.6387
750.826	29.1401
753.718	43.5953
756.611	64.8728
759.504	95.535
762.396	122.642
765.289	156.747
768.182	197.414
771.075	242.92
773.967	287.415
776.86	337.099
779.753	384.238
782.645	431.169
785.538	473.224
788.431	524.04
791.323	572.592
794.216	616.037
797.109	642.827
800.002	667.687
802.894	687.817
805.787	706.102
808.68	717.127
811.572	703.817
814.465	690.823
817.358	667.906
820.25	651.755
823.143	627.741
826.036	592.889
828.929	551.529
831.821	521.446
834.714	489.432
837.607	452.779
840.5	427.617
843.392	391.383
846.285	362.053
849.178	323.765
852.07	289.869
854.963	256.665
857.856	230.269
860.748	200.914
863.641	169.907
866.534	142.892
869.427	117.665
872.319	94.4298
875.212	77.2621
878.105	57.6831
880.997	42.4764
883.89	30.6908
886.783	22.4696
889.675	23.0778
892.568	16.1249
895.461	14.8674
898.354	17.7504
901.246	19.7963
904.139	18.0958
907.032	17.9009
909.924	15.0328
912.817	15.8362
915.71	11.8278
918.602	12.3175
921.495	6.43713
924.388	4.91736
927.28	2.7132
930.173	0.100281
933.066	3.94489
935.959	6.11932
938.851	7.92978
941.744	10.4858
944.637	12.691
947.529	9.57373
950.422	8.13046
953.315	6.66507
956.207	4.51837
959.1	0.677734
961.993	7.57446
964.886	12.3219
967.778	19.6472
970.671	24.6135
973.564	31.5645
976.456	38.5308
979.349	43.9321
982.242	49.8379
985.135	55.6746
988.027	62.7952
990.92	68.4598
993.813	72.0605
996.705	76.6518
999.598	77.6831
1002.49	78.3482
1005.38	73.8206
1008.28	74.6064
1011.17	70.2293
1014.06	65.2096
1016.95	60.6091
1019.85	59.8268
1022.74	55.0844
1025.63	53.9699
1028.53	50.2523
1031.42	48.49
1034.31	46.0936
1037.2	46.0683
1040.1	42.5507
1042.99	40.2727
1045.88	41.3222
1048.77	37.1685
1051.67	37.355
1054.56	36.2195
1057.45	30.57
1060.35	29.0021
1063.24	26.2106
1066.13	24.7936
1069.02	22.0847
1071.92	20.0085
1074.81	21.6427
1077.7	18.7036
1080.59	17.4692
1083.49	16.6672
1086.38	15.3668
1089.27	13.7217
1092.16	13.6734
1095.06	11.0238
1097.95	9.45128
1100.84	9.28995
1103.73	8.0602
1106.63	6.63435
1109.52	6.11328
1112.41	4.70154
1115.31	5.06799
1118.2	4.22888
1121.09	3.4585
1123.98	3.62765
1126.88	2.68054
1129.77	2.85104
1132.66	1.95209
1135.56	0.687485
1138.45	2.00098
1141.34	1.62424
1144.23	3.30133
1147.13	0.106262
1150.02	0.465439
1152.91	1.3508
1155.8	1.21565
1158.7	0.486237
1161.59	1.49741
1164.48	0.434631
1167.38	0.264786
1170.27	0.720337
1173.16	0.608582
1176.05	0.583832
1178.94	1.07439
1181.84	0.891098
1184.73	0.209045
1187.62	0.604767
1190.52	0.562592
1193.41	0.754211
1196.3	0.694931
1199.19	0.796814
1202.09	0.632477
1204.98	2.2258
1207.87	1.17738
1210.77	1.45387
1213.66	3.06358
1216.55	0.458572
1219.44	4.3241
1222.34	2.01192
1225.23	5.26883
1228.12	1.82823
1231.01	1.16034
1233.91	5.55037
1236.8	1.66554
1239.69	1.45046
1242.59	1.79089
1245.48	1.43697
1248.37	1.91132
1251.26	0.873993
1254.16	1.50406
1257.05	1.58131
1259.94	0.157867
1262.83	1.54843
1265.73	1.43671
1268.62	1.15344
1271.51	1.45984
1274.4	2.08902
1277.3	0.437332
1280.19	2.16316
1283.08	1.17932
1285.97	2.50485
1288.87	0.005707
1291.76	1.21765
1294.65	1.34729
1297.55	1.02357
1300.44	3.71336
