Measurement: Raman, 514 nm, unoriented, Raman Data Processed
Mineral: Fluorapatite
Rruff sample: R050192
Ideal chemistry: Ca_5_(PO_4_)_3_F
Locality: Fulford, Eagle County, Colorado, USA
Source: Dave Bunk Minerals
Description: Pale green hexagonal prism
Measured chemistry: Ca_5.00_(P_1.00_O_4_)_3_(F_0.86_Cl_0.13_)
Raman shift (cm-1)	intensity
90.587	0
94.768	5.228
98.947	27.647
103.124	39.243
107.3	47.214
111.473	68.934
115.644	83.511
119.813	59.446
123.981	111.471
128.146	193.314
132.309	271.74
136.47	418.509
140.63	350.758
144.787	285.901
148.942	289.179
153.096	279.764
157.247	237.365
161.396	163.349
165.544	127.097
169.689	143.939
173.833	90.751
177.974	47.942
182.114	63.734
186.251	26.573
190.387	63.092
194.52	28.16
198.652	49.475
202.782	74.254
206.909	64.646
211.035	36.497
215.159	10.895
219.281	43.469
223.4	42.154
227.518	31.327
231.634	46.496
235.748	130.933
239.86	103.951
243.97	73.175
248.079	65.072
252.185	107.573
256.289	149.008
260.391	131.42
264.492	175.846
268.59	197.364
272.687	122.832
276.781	52.122
280.874	80.205
284.964	91.114
289.053	86.795
293.14	77.228
297.225	46.68
301.308	56.697
305.389	100.101
309.468	105.463
313.545	50.146
317.62	34.273
321.693	11.368
325.765	24.695
329.834	21.92
333.902	30.693
337.967	21.586
342.031	44.923
346.093	12.549
350.153	22.973
354.21	25.29
358.267	94.653
362.321	76.662
366.373	19.558
370.423	24.172
374.471	24.473
378.518	73.738
382.563	28.111
386.605	1.454
390.646	24.427
394.685	5.089
398.722	31.922
402.757	51.286
406.79	23.176
410.821	72.237
414.851	143.896
418.878	123.853
422.904	111.343
426.927	235.465
430.949	231.269
434.969	325.246
438.987	606.565
443.003	633.699
447.018	672.06
451.03	493.665
455.041	341.979
459.049	247.151
463.056	188.258
467.061	150.506
471.064	164.904
475.065	47.34
479.064	143.668
483.062	89.544
487.057	33.828
491.051	62.061
495.043	13.542
499.032	67.066
503.02	29.091
507.007	0.387
510.991	60.158
514.973	14.811
518.954	120.201
522.933	1.463
526.91	19.784
530.885	74.288
534.858	105.213
538.829	39.054
542.799	91.335
546.766	43.316
550.732	135.879
554.696	3.257
558.658	49.629
562.618	106.278
566.576	200.116
570.533	211.689
574.488	444.132
578.44	881.862
582.391	571.078
586.341	331.857
590.288	426.622
594.233	248.117
598.177	105.949
602.119	325.437
606.059	622.838
609.997	519.616
613.933	325.351
617.868	328.313
621.801	119.366
625.731	289.72
629.66	104.062
633.588	88.753
637.513	239.247
641.437	301.354
645.358	197.604
649.278	179.093
653.196	317.369
657.113	110.433
661.027	185.943
664.94	283.246
668.851	83.745
672.76	100.981
676.667	65.718
680.572	160.637
684.476	171.877
688.378	88.434
692.278	39.199
696.176	58.563
700.072	50.94
703.967	123.115
707.86	112.738
711.751	46.001
715.64	163.452
719.527	199.302
723.413	50.84
727.297	237.103
731.179	137.845
735.059	98.051
738.937	64.051
742.814	98.122
746.689	127.913
750.562	12.228
754.433	208.848
758.303	145.907
762.17	102.097
766.036	110.358
769.901	183.141
773.763	284.278
777.624	176.255
781.482	188.62
785.339	118.186
789.195	162.501
793.048	219.275
796.9	74.553
800.75	108.222
804.598	219.092
808.445	75.503
812.289	120.509
816.132	161.514
819.973	71.229
823.813	158.671
827.65	81.413
831.486	126.606
835.32	196.72
839.152	98.151
842.983	54.748
846.812	27.315
850.639	101.062
854.464	188.822
858.288	150.746
862.11	104.837
865.93	75.315
869.748	180.928
873.564	85.215
877.379	108.057
881.192	107.949
885.004	21.372
888.813	265.393
892.621	154.742
896.427	35.373
900.232	71.816
904.034	122.666
907.835	149.043
911.634	75.112
915.432	143.023
919.227	167.998
923.021	99.766
926.813	217.34
930.604	188.984
934.393	150.008
938.18	207.363
941.965	278.555
945.749	408.664
949.53	677.055
953.311	1456.86
957.089	4375.43
960.866	12898.9
964.641	12075.6
968.414	5115.36
972.185	2072.71
975.955	781.049
979.723	536.717
983.49	568.596
987.254	288.457
991.017	79.529
994.779	163.188
998.538	164.393
1002.3	85.703
1006.05	243.912
1009.81	107.092
1013.56	182.625
1017.31	404.494
1021.06	417.189
1024.81	535.52
1028.55	585.221
1032.3	461.676
1036.04	237.23
1039.78	276.627
1043.52	311.586
1047.26	235.408
1050.99	217.047
1054.73	391.131
1058.46	621.545
1062.19	460.92
1065.92	153.354
1069.65	106.504
1073.37	122.564
1077.1	223.195
1080.82	274.969
1084.54	267.27
1088.26	250.436
1091.97	200.252
1095.69	232.16
1099.4	143.033
1103.12	250.881
1106.83	18.705
1110.54	211.912
1114.24	73.158
1117.95	219.219
1121.65	143.08
1125.35	361.719
1129.06	36.215
1132.75	323.555
1136.45	544.396
1140.15	128.381
1143.84	120.438
1147.53	426.584
1151.22	378.586
1154.91	416.768
1158.6	305.23
1162.28	448.949
1165.97	650.471
1169.65	410.555
1173.33	302.689
1177.01	422.152
1180.69	18.191
1184.36	550.68
1188.04	373.35
1191.71	440.707
1195.38	203.396
1199.05	15.232
1202.71	416.023
1206.38	193.348
1210.04	0
