Measurement: Raman, 532 nm, unoriented, Raman Data Processed
Mineral: Fluorapatite
Rruff sample: R060184
Ideal chemistry: Ca_5_(PO_4_)_3_F
Locality: Yates mine, Otter Lake, Quebec, Canada
Source: Lloyd Twaites
Description: Green colored fragment of a hexagonal prism
Measured chemistry: (Ca_0.99_Ce_0.01_)_5.00_((P_0.98_Si_0.01_S_0.01_)O_4_)_3_F_1.00_
Raman shift (cm-1)	intensity
150.046	0
152.939	66.0233
155.832	72.7859
158.724	37.0583
161.617	10.8985
164.51	2.00688
167.402	44.3677
170.295	59.7772
173.188	69.0229
176.081	66.5683
178.973	36.9069
181.866	10.4913
184.759	12.0352
187.651	1.47891
190.544	0.355912
193.437	1.5791
196.329	3.04198
199.222	0.80514
202.115	0.302993
205.008	0.27492
207.9	5.08479
210.793	4.67862
213.686	14.2685
216.578	26.2601
219.471	29.9261
222.364	32.3542
225.256	44.0838
228.149	59.1499
231.042	52.4535
233.935	56.707
236.827	48.1436
239.72	34.7933
242.613	24.8356
245.505	16.7138
248.398	10.7536
251.291	18.9379
254.184	26.8177
257.076	43.8486
259.969	62.2291
262.862	82.5795
265.754	89.8876
268.647	79.0697
271.54	56.127
274.433	39.5739
277.325	31.1524
280.218	21.2884
283.111	13.8433
286.003	18.322
288.896	31.0605
291.789	26.9415
294.681	37.289
297.574	40.7644
300.467	56.7695
303.36	78.2409
306.252	84.3029
309.145	99.8439
312.038	97.617
314.93	95.9808
317.823	74.4726
320.716	66.8163
323.608	56.9387
326.501	63.8254
329.394	63.511
332.287	73.9234
335.179	76.8912
338.072	57.3071
340.965	42.6362
343.857	33.6122
346.75	35.3344
349.643	24.4177
352.536	13.8023
355.428	0.932798
358.321	2.08868
361.214	4.89305
364.106	0.763278
366.999	0.333003
369.892	2.00408
372.784	4.74662
375.677	3.83699
378.57	2.35462
381.462	3.80618
384.355	0.239174
387.248	13.4026
390.141	14.6283
393.033	17.2009
395.926	21.741
398.819	19.1953
401.712	23.3455
404.604	40.7906
407.497	52.3486
410.39	83.9973
413.282	112.516
416.175	150.725
419.068	200.053
421.96	255.603
424.853	317.723
427.746	355.111
430.639	383.215
433.531	364.953
436.424	352.756
439.317	380.999
442.209	391.042
445.102	369.392
447.995	318.209
450.887	239.133
453.78	181.102
456.673	126.604
459.565	88.0964
462.458	53.7705
465.351	42.6662
468.244	30.0347
471.136	28.0392
474.029	38.0938
476.922	40.623
479.815	51.4823
482.707	46.1471
485.6	34.9178
488.493	32.8793
491.385	24.0035
494.278	37.6324
497.171	42.3356
500.063	57.3155
502.956	53.8035
505.849	43.639
508.741	39.0565
511.634	36.2101
514.527	23.3727
517.42	14.1864
520.312	6.43438
523.205	5.5229
526.098	2.19169
528.99	2.0354
531.883	2.97229
534.776	3.70202
537.668	1.3236
540.561	2.62509
543.454	4.2454
546.347	3.3301
549.239	14.6844
552.132	2.19238
555.025	0.942086
557.917	6.11216
560.81	10.6101
563.703	47.7141
566.596	105.1
569.488	153.627
572.381	235.893
575.274	343.224
578.166	466.403
581.059	477.016
583.952	286.987
586.845	205.232
589.737	183.334
592.63	155.413
595.523	123.919
598.415	126.847
601.308	161.568
604.201	206.899
607.093	201.832
609.986	132.945
612.879	91.9264
615.771	61.9691
618.664	14.8181
621.557	1.75556
624.45	2.89695
627.342	2.47291
630.235	10.982
633.128	15.003
636.02	25.9407
638.913	27.8836
641.806	28.1396
644.698	52.6806
647.591	62.6409
650.484	58.5586
653.377	71.0261
656.269	56.2648
659.162	68.4604
662.055	55.8449
664.947	47.9646
667.84	36.7284
670.733	33.0251
673.626	38.346
676.518	31.4339
679.411	24.0184
682.304	29.6172
685.196	19.2773
688.089	19.2561
690.982	10.6369
693.875	16.6027
696.767	17.3636
699.66	13.0515
702.553	15.8636
705.445	10.5988
708.338	15.5181
711.231	13.2368
714.124	13.7193
717.016	21.8635
719.909	8.95138
722.802	2.91805
725.694	3.16266
728.587	2.18975
731.48	0.981019
734.372	1.87975
737.265	9.32826
740.158	1.12142
743.051	6.54446
745.943	5.92103
748.836	2.43075
751.729	1.85579
754.621	4.86841
757.514	4.68347
760.407	14.6339
763.299	22.0954
766.192	11.5002
769.085	20.7437
771.977	20.5226
774.87	30.5223
777.763	23.2208
780.656	45.9173
783.548	47.8727
786.441	51.3726
789.334	36.6794
792.226	34.998
795.119	35.576
798.012	31.6044
800.904	32.2866
803.797	34.2897
806.69	23.4392
809.583	27.7005
812.475	22.4729
815.368	6.29331
818.261	2.8999
821.154	0.502751
824.046	0.824885
826.939	12.503
829.832	16.5993
832.724	10.3031
835.617	3.60605
838.51	0.413193
841.402	23.9237
844.295	14.4097
847.188	1.10745
850.081	19.2142
852.973	24.7502
855.866	35.5493
858.759	31.017
861.651	20.5183
864.544	26.767
867.437	30.9598
870.33	41.213
873.222	46.9961
876.115	37.6203
879.008	30.2933
881.9	35.8236
884.793	42.4453
887.686	38.0255
890.578	35.7645
893.471	23.5188
896.364	26.3438
899.256	47.5395
902.149	44.2884
905.042	56.2649
907.935	40.9378
910.827	27.8562
913.72	24.6693
916.613	26.4543
919.505	7.96173
922.398	4.79268
925.291	6.20066
928.183	1.13201
931.076	0.72917
933.969	14.7276
936.862	35.6084
939.754	57.9867
942.647	144.071
945.54	356.96
948.432	722.923
951.325	1361.32
954.218	2207.47
957.111	3242.7
960.003	4443.75
962.896	4973.52
965.789	3412.2
968.681	1595.05
971.574	695.925
974.467	315.069
977.36	141.29
980.252	45.1241
983.145	9.90785
986.038	2.44196
988.93	2.65028
991.823	10.1939
994.716	2.90973
997.608	41.9297
1000.5	91.5943
1003.39	113.271
1006.29	149.879
1009.18	181.031
1012.07	182.791
1014.97	197.413
1017.86	223.3
1020.75	299.357
1023.64	355.321
1026.54	417.088
1029.43	470.186
1032.32	505.772
1035.21	508.011
1038.11	496.618
1041	486.863
1043.89	498.577
1046.78	509.142
1049.68	529.729
1052.57	529.27
1055.46	521.627
1058.36	518.262
1061.25	457.73
1064.14	421.828
1067.03	408.563
1069.93	418.174
1072.82	342.48
1075.71	270.235
1078.6	203.196
1081.5	131.434
1084.39	102.241
1087.28	71.4352
1090.17	53.5506
1093.07	29.284
1095.96	5.80542
1098.85	0.147754
1101.75	11.7927
1104.64	1.05024
1107.53	9.5915
1110.42	7.03389
1113.32	10.8521
1116.21	5.96263
1119.1	19.8278
1121.99	36.7856
1124.89	48.6174
1127.78	77.5641
1130.67	93.6171
1133.57	117.278
1136.46	119.788
1139.35	124.052
1142.24	142.906
1145.14	153.355
1148.03	167.413
1150.92	144.978
1153.81	145.405
1156.71	125.771
1159.6	114.499
1162.49	115.29
1165.38	99.7304
1168.28	91.4609
1171.17	69.1289
1174.06	51.7469
1176.96	48.6001
1179.85	50.1259
1182.74	52.706
1185.63	55.4096
1188.53	69.9615
1191.42	92.3625
1194.31	99.6279
1197.2	102.068
1200.1	106.694
1202.99	93.6598
1205.88	92.3562
1208.78	83.4526
1211.67	79.0017
1214.56	62.6611
1217.45	58.1111
1220.35	53.0115
1223.24	43.6706
1226.13	21.7685
1229.03	15.4855
1231.92	3.57434
1234.81	8.07214
1237.7	11.6815
1240.6	1.23459
1243.49	5.15925
1246.38	6.40709
1249.27	6.6412
1252.17	20.2395
1255.06	35.7736
1257.95	56.4026
1260.84	80.013
1263.74	96.1624
1266.63	129.762
1269.52	146.935
1272.41	117.341
1275.31	80.7312
1278.2	57.0751
1281.09	41.5693
1283.99	23.5708
1286.88	18.4441
1289.77	13.0458
1292.66	3.2179
1295.56	14.4425
1298.45	9.88922
1301.34	3.58199
