Measurement: Raman, 532 nm, unoriented, Raman Data Processed
Mineral: Fluorcalciomicrolite
Rruff sample: R120127
Ideal chemistry: (Ca,Na)_2_Ta_2_(O,OH)_6_F
Locality: Volta Grande pegmatites (Volta Grande mine), Nazareno, Minas Gerais, Brazil
Source: Marcelo Barbosa de Andrade
Description: Colorless octahedra
Measured chemistry: (Ca_1.05_Na_0.83_)(Ta_1.83_Nb_0.14_Sn_0.03_)O_6_[F_0.83_(OH)_0.07_]
Raman shift (cm-1)	intensity
197.838	0
200.731	6.19186
203.623	9.98364
206.516	12.5287
209.409	16.3207
212.301	11.2925
215.194	3.76623
218.087	2.51773
220.98	1.14093
223.872	0.586487
226.765	3.11133
229.658	0.183197
232.55	4.62573
235.443	11.3666
238.336	20.903
241.228	29.9905
244.121	37.2617
247.014	39.0622
249.906	40.2323
252.799	40.7403
255.692	40.4783
258.585	42.5823
261.477	46.9005
264.37	53.9429
267.263	65.3631
270.155	84.519
273.048	104.962
275.941	130.949
278.834	163.267
281.726	195.605
284.619	223.19
287.512	248.872
290.404	273.122
293.297	291.202
296.19	310.599
299.082	319.237
301.975	319.816
304.868	308.096
307.76	281.269
310.653	242.305
313.546	198.747
316.439	163.606
319.331	134.972
322.224	121.749
325.117	126.319
328.009	144.021
330.902	174.964
333.795	210.718
336.688	236.709
339.58	246.842
342.473	228.532
345.366	185.8
348.258	140.501
351.151	104.281
354.044	75.0239
356.936	51.4539
359.829	35.8715
362.722	21.9846
365.615	13.2103
368.507	7.03009
371.4	0.545197
374.293	1.71634
377.185	0.969391
380.078	2.41367
382.971	3.28876
385.863	3.50925
388.756	2.50641
391.649	1.40805
394.541	1.741
397.434	0.595581
400.327	3.2113
403.22	3.96097
406.112	5.60843
409.005	7.44916
411.898	11.5395
414.79	13.9308
417.683	15.1515
420.576	15.5198
423.469	17.4082
426.361	20.1814
429.254	17.5179
432.147	19.5099
435.039	18.0902
437.932	18.5036
440.825	18.9162
443.717	17.48
446.61	18.1788
449.503	19.3902
452.396	16.7587
455.288	11.7708
458.181	8.1591
461.074	3.94515
463.966	0.480881
466.859	0.677567
469.752	3.16379
472.644	1.78088
475.537	0.604935
478.43	1.80264
481.322	5.02031
484.215	10.654
487.108	19.4614
490.001	33.8469
492.893	60.9707
495.786	97.7651
498.679	155.336
501.571	238.408
504.464	343.438
507.357	462.41
510.25	575.933
513.142	622.426
516.035	569.207
518.928	473.406
521.82	379.714
524.713	314.531
527.606	268.738
530.498	237.195
533.391	221.741
536.284	210.161
539.177	203.487
542.069	193.406
544.962	183.787
547.855	170.85
550.747	150.964
553.64	131.35
556.533	106.881
559.425	89.9599
562.318	71.6921
565.211	54.109
568.104	40.9336
570.996	30.7531
573.889	20.8469
576.782	12.0435
579.674	5.40832
582.567	0.819122
585.46	1.82282
588.352	2.99204
591.245	5.50977
594.138	1.88409
597.03	0.867767
599.923	5.94983
602.816	13.0196
605.709	17.2444
608.601	25.0284
611.494	29.0433
614.387	33.0732
617.279	39.4853
620.172	43.0493
623.065	46.0038
625.957	48.1768
628.85	49.5648
631.743	51.2901
634.636	55.0431
637.528	56.1053
640.421	58.9426
643.314	61.4428
646.206	68.5034
649.099	69.5731
651.992	74.0235
654.885	81.0391
657.777	85.8521
660.67	88.364
663.563	93.5053
666.455	92.2336
669.348	96.2539
672.241	96.7085
675.133	95.5005
678.026	95.0584
680.919	93.3964
683.812	88.8721
686.704	84.5405
689.597	81.5988
692.49	74.6429
695.382	64.9029
698.275	55.9664
701.168	46.4527
704.06	40.4348
706.953	32.8167
709.846	23.5804
712.739	17.6844
715.631	12.4851
718.524	8.5607
721.417	6.16554
724.309	2.63666
727.202	0.598831
730.095	1.53508
732.987	2.00682
735.88	3.17169
738.773	2.87363
741.665	2.97321
744.558	1.01976
747.451	0.117477
750.344	2.54738
753.236	4.06453
756.129	5.30176
759.022	8.65695
761.914	11.3103
764.807	13.59
767.7	18.1651
770.592	21.7754
773.485	25.3768
776.378	30.1324
779.271	34.8451
782.163	37.1399
785.056	40.7522
787.949	45.7677
790.841	49.8469
793.734	53.6774
796.627	56.5539
799.519	57.0789
802.412	58.8668
805.305	57.4072
808.198	54.4973
811.09	51.4295
813.983	46.9551
816.876	42.9205
819.768	36.8457
822.661	34.1183
825.554	30.134
828.447	24.8219
831.339	20.5497
834.232	16.0462
837.125	13.653
840.017	10.8484
842.91	8.23978
845.803	5.16956
848.695	2.9939
851.588	1.32454
854.481	0.322617
857.374	0.050995
860.266	0.603989
863.159	1.07526
866.052	3.88019
868.944	5.74587
871.837	8.55849
874.73	11.0806
877.622	14.1218
880.515	17.5279
883.408	20.1225
886.301	23.1615
889.193	25.5817
892.086	28.0677
894.979	28.5867
897.871	28.6665
900.764	29.8864
903.657	30.0921
906.549	28.6867
909.442	29.0137
912.335	27.7559
915.227	26.7951
918.12	26.1735
921.013	23.0919
923.906	21.0228
926.798	18.5265
929.691	15.728
932.584	14.8101
935.476	10.8786
938.369	8.66223
941.262	6.85191
944.154	3.39348
947.047	4.95583
949.94	2.89397
952.833	1.25705
955.725	0.41481
958.618	0.320389
961.511	1.0424
964.403	0.954437
967.296	1.24225
970.189	0.633453
973.082	0.119965
975.974	0.573425
978.867	0.018906
981.76	0.00766
984.652	0.480019
987.545	0.99836
990.438	0.86129
993.33	2.80688
996.223	2.21957
999.116	2.93047
1002.01	3.61374
1004.9	4.66193
1007.79	6.3731
1010.69	6.85747
1013.58	7.39565
1016.47	8.57316
1019.37	8.9665
1022.26	8.79012
1025.15	8.55936
1028.04	9.03001
1030.94	9.5519
1033.83	9.17973
1036.72	9.26035
1039.61	8.16047
1042.51	7.77471
1045.4	7.2286
1048.29	8.23238
1051.18	7.05865
1054.08	8.03796
1056.97	7.15758
1059.86	7.88012
1062.76	6.4538
1065.65	6.02226
1068.54	6.79562
1071.43	7.42764
1074.33	5.94265
1077.22	6.13498
1080.11	5.34169
1083	5.3272
1085.9	3.65958
1088.79	3.839
1091.68	3.46967
1094.58	3.88782
1097.47	2.21461
1100.36	2.77735
1103.25	2.64567
1106.15	1.23988
1109.04	0.529327
1111.93	0.976357
1114.82	0.572769
1117.72	0.247711
1120.61	1.47102
1123.5	1.44492
1126.39	0.401901
1129.29	0.398125
1132.18	0.104454
1135.07	0.769035
1137.96	0.725128
1140.86	0.784691
1143.75	0.399437
1146.64	0.409012
1149.54	0.764961
1152.43	0.788734
1155.32	0.161339
1158.21	0.651253
1161.11	2.58929
1164	2.69467
1166.89	0.431023
1169.79	0.428802
1172.68	0.12603
1175.57	0.966156
1178.46	0.800797
1181.36	0.301773
1184.25	0.672028
1187.14	0.271111
1190.03	0.059227
1192.93	1.02884
1195.82	0.338745
1198.71	1.29673
1201.61	1.31915
1204.5	2.37168
1207.39	2.33329
1210.28	2.04864
1213.18	2.65411
1216.07	1.844
1218.96	2.07958
1221.85	2.75811
1224.75	2.19386
1227.64	3.10304
1230.53	1.88269
1233.42	1.77804
1236.32	1.69459
1239.21	1.61105
1242.1	1.51958
1244.99	7.41492
1247.89	2.86229
1250.78	2.02564
1253.67	1.73762
1256.57	0.929207
1259.46	1.78558
1262.35	2.20857
1265.24	1.45807
1268.14	0.837746
1271.03	0.593529
1273.92	1.97922
1276.82	1.27112
1279.71	0.483757
1282.6	0.665703
1285.49	0.516975
1288.39	1.11879
1291.28	1.78946
1294.17	0.173012
1297.06	0.35434
1299.96	0.009659
