Measurement: Raman, 532 nm, unoriented, Raman Data Processed
Mineral: Fluornatromicrolite
Rruff sample: R060589
Ideal chemistry: (Na,Ca,Bi)_2_Ta_2_O_6_F
Locality: Quixaba mine, Frei Martinho, Paraíba, Northeast Region, Brazil
Source: Michael Scott
Description: Dark green octahedron embedded in white albite matrix
Measured chemistry: (Na_1.04_Ca_0.71_Bi_0.18_[box]_0.07_)_Σ=2_Ta_2.00_O_6_(F_0.93_(OH)_0.07_)_Σ=1_ ; OH estimated by difference and charge balance
Raman shift (cm-1)	intensity
208.445	0
211.337	6.01791
214.23	9.56323
217.123	10.0135
220.015	4.22034
222.908	0.315643
225.801	1.66095
228.693	1.14172
231.586	3.63583
234.479	11.0349
237.371	16.3059
240.264	24.8122
243.157	25.9888
246.05	26.9997
248.942	27.6066
251.835	25.3104
254.728	24.9212
257.62	23.9363
260.513	27.0051
263.406	27.949
266.298	34.7593
269.191	42.0673
272.084	55.0239
274.977	65.0077
277.869	79.0823
280.762	93.0088
283.655	106.755
286.547	121.104
289.44	132.645
292.333	149.594
295.226	161.925
298.118	170.956
301.011	173.043
303.904	168.071
306.796	152.925
309.689	133.976
312.582	107.783
315.474	81.8053
318.367	62.1204
321.26	46.6964
324.152	39.8725
327.045	43.0484
329.938	50.1761
332.831	62.524
335.723	74.5988
338.616	86.777
341.509	91.6204
344.401	86.6474
347.294	77.5597
350.187	65.4241
353.079	49.9563
355.972	39.8845
358.865	29.7006
361.758	20.9293
364.65	16.6168
367.543	11.5613
370.436	7.59988
373.328	4.60822
376.221	3.59793
379.114	2.52389
382.007	1.8587
384.899	0.792725
387.792	1.31613
390.685	1.18872
393.577	2.36438
396.47	1.32855
399.363	0.057159
402.255	2.55078
405.148	2.30505
408.041	0.335236
410.933	0.062042
413.826	3.11536
416.719	0.521042
419.612	0.893295
422.504	2.70403
425.397	3.33
428.29	3.83586
431.182	6.40984
434.075	6.36911
436.968	7.92481
439.861	9.60777
442.753	10.2828
445.646	11.6656
448.539	12.6669
451.431	11.8265
454.324	9.94815
457.217	8.43019
460.109	5.02614
463.002	1.98744
465.895	0.403656
468.788	1.98875
471.68	0.364059
474.573	0.323822
477.466	1.16168
480.358	4.03143
483.251	9.3815
486.144	17.8759
489.036	26.5275
491.929	33.2721
494.822	46.7155
497.714	72.1404
500.607	104.578
503.5	150.053
506.393	202.967
509.285	256.361
512.178	280.109
515.071	265.282
517.963	226.768
520.856	187.604
523.749	159.913
526.641	136.09
529.534	122.721
532.427	116.106
535.32	114.492
538.212	111.666
541.105	109.575
543.998	107.264
546.89	100.652
549.783	95.2617
552.676	86.4719
555.568	74.5857
558.461	63.4241
561.354	50.5906
564.247	39.6811
567.139	31.1074
570.032	24.2289
572.925	16.4657
575.817	10.6233
578.71	7.59427
581.603	1.95828
584.495	0.204041
587.388	1.68665
590.281	2.84979
593.174	2.47168
596.066	0.258942
598.959	2.80954
601.852	6.77246
604.744	11.5212
607.637	17.5556
610.53	21.6542
613.423	26.206
616.315	30.2701
619.208	34.1765
622.101	38.0631
624.993	39.8505
627.886	39.3882
630.779	40.4427
633.671	42.4163
636.564	43.233
639.457	40.7398
642.35	41.4374
645.242	41.3823
648.135	41.8628
651.028	42.997
653.92	46.2356
656.813	49.3717
659.706	50.303
662.598	51.4871
665.491	52.0969
668.384	52.0886
671.277	51.5374
674.169	52.6861
677.062	53.7707
679.955	51.5961
682.847	49.9937
685.74	47.2213
688.633	45.9386
691.525	40.5806
694.418	36.2122
697.311	31.1547
700.203	27.2038
703.096	20.7528
705.989	17.2609
708.882	13.9358
711.774	11.6574
714.667	9.56735
717.56	7.55424
720.452	5.19592
723.345	2.1457
726.238	0.941513
729.13	0.893784
732.023	2.04604
734.916	0.390991
737.809	0.974152
740.701	0.896027
743.594	1.16798
746.487	1.19885
749.379	3.07942
752.272	3.49733
755.165	5.3412
758.058	6.95395
760.95	7.85516
763.843	12.0437
766.736	13.7936
769.628	17.8717
772.521	21.4752
775.414	24.8826
778.306	29.5584
781.199	34.8325
784.092	37.3528
786.985	40.5575
789.877	43.2649
792.77	45.366
795.663	46.3284
798.555	47.9674
801.448	47.6464
804.341	47.6842
807.233	46.87
810.126	45.6403
813.019	44.1293
815.912	43.1744
818.804	41.3265
821.697	39.7446
824.59	37.664
827.482	35.051
830.375	30.8095
833.268	27.535
836.16	25.928
839.053	22.468
841.946	20.0043
844.838	17.2373
847.731	12.4395
850.624	9.92828
853.517	7.58765
856.409	6.4101
859.302	2.59197
862.195	2.22661
865.087	1.45909
867.98	0.463593
870.873	0.20961
873.765	0.071732
876.658	0.01442
879.551	0.513748
882.444	0.943649
885.336	1.58316
888.229	2.87025
891.122	3.51602
894.014	3.68762
896.907	4.80366
899.8	5.80376
902.692	6.83171
905.585	6.74748
908.478	6.09764
911.371	5.83055
914.263	6.52023
917.156	5.81569
920.049	7.14679
922.941	5.40688
925.834	6.27854
928.727	6.06634
931.62	4.65378
934.512	4.16832
937.405	4.04366
940.298	2.51749
943.19	0.561256
946.083	0.17321
948.976	0.587021
951.868	0.287521
954.761	0.157181
957.654	0.004814
960.547	0.221817
963.439	0.323822
966.332	0.009544
969.225	0.293396
972.117	0.078941
975.01	0.672073
977.903	0.096039
980.795	0.378761
983.688	0.501793
986.581	1.08782
989.473	1.41322
992.366	1.89042
995.259	2.25936
998.152	2.7198
1001.04	3.59217
1003.94	3.76295
1006.83	3.79536
1009.72	4.74161
1012.62	4.37575
1015.51	4.81113
1018.4	4.81004
1021.29	4.69203
1024.19	4.74844
1027.08	5.41283
1029.97	4.9732
1032.86	4.76318
1035.76	5.59163
1038.65	4.21626
1041.54	4.97522
1044.43	4.25633
1047.33	4.49863
1050.22	4.89735
1053.11	5.00056
1056.01	4.89712
1058.9	4.07458
1061.79	4.152
1064.68	4.00832
1067.58	3.70293
1070.47	4.52538
1073.36	4.00558
1076.26	3.89154
1079.15	3.48199
1082.04	3.63858
1084.93	3.6527
1087.83	3.79045
1090.72	3.29602
1093.61	2.20963
1096.5	2.3572
1099.4	2.29507
1102.29	1.63454
1105.18	1.30428
1108.07	0.695663
1110.97	2.15205
1113.86	0.785721
1116.75	1.086
1119.64	1.10143
1122.54	0.519409
1125.43	0.519363
1128.32	0.388802
1131.22	0.077637
1134.11	0.187874
1137	0.41745
1139.89	0.068176
1142.79	1.35201
1145.68	0.514969
1148.57	0.426147
1151.46	0.968452
1154.36	0.856964
1157.25	0.59214
1160.14	0.515099
1163.04	1.12795
1165.93	0.69191
1168.82	0.14019
1171.71	1.0457
1174.61	0.266838
1177.5	0.557808
1180.39	0.432701
1183.28	1.14846
1186.18	0.554314
1189.07	0.559891
1191.96	0.944809
1194.86	0.326202
1197.75	0.745781
1200.64	1.5349
1203.53	0.480667
1206.43	0.844421
1209.32	0.565498
1212.21	0.629585
1215.1	0.908302
1218	0.268684
1220.89	1.48221
1223.78	1.17027
1226.67	0.969513
1229.57	0.896034
1232.46	1.17308
1235.35	1.08545
1238.25	0.533394
1241.14	1.86185
1244.03	0.58387
1246.92	1.80684
1249.82	0.512573
1252.71	1.60371
1255.6	1.02584
1258.49	1.21658
1261.39	1.98708
1264.28	1.50425
1267.17	0.042084
1270.07	0.976181
1272.96	1.09186
1275.85	1.28716
1278.74	1.34913
1281.64	1.32163
1284.53	0.98008
1287.42	1.04353
1290.31	1.78507
1293.21	1.46642
1296.1	1.26698
1298.99	0.419518
1301.88	0
