Measurement: Raman, 532 nm, unoriented, Raman Data Processed
Mineral: Fluor-buergerite
Rruff sample: R060132
Ideal chemistry: NaFe^3+^_3_Al_6_(Si_6_O_18_)(BO_3_)_3_O_3_F
Locality: 20 km. south of San Luis Potasi, Mexico
Source: University of Arizona Mineral Museum
Description: Brown short prismatic
Measured chemistry: (Na_0.87_Ca_0.03_[box]_0.10_)(Fe^3+^_0.82_Al_0.12_Mg_0.04_Ti_0.02_)_3_Al_6_(BO_3_)_3_(Si_0.98_Al_0.02_)_6_O_18_(O_0.66_F_0.19_(OH)_0.15_)_4_
Raman shift (cm-1)	intensity
145.707	0
148.6	12.0031
151.493	32.5072
154.385	34.6726
157.278	22.6565
160.171	15.5205
163.063	9.29302
165.956	3.50365
168.849	1.97161
171.742	0.864738
174.634	1.63742
177.527	0.487953
180.42	0.994858
183.312	0.404778
186.205	0.50293
189.098	5.13284
191.99	7.68906
194.883	10.9007
197.776	17.6102
200.668	23.1707
203.561	32.1128
206.454	46.1907
209.347	62.807
212.239	87.0229
215.132	112.272
218.025	145.048
220.917	175.414
223.81	207.165
226.703	242.123
229.596	267.28
232.488	268.328
235.381	240.663
238.274	202.415
241.166	166.336
244.059	135.758
246.952	113.615
249.845	97.3923
252.737	86.1644
255.63	77.921
258.523	67.6262
261.415	57.5044
264.308	45.2121
267.201	33.5293
270.093	25.3105
272.986	18.8894
275.879	15.841
278.772	14.302
281.664	15.0727
284.557	17.2788
287.45	21.1282
290.342	26.1582
293.235	31.87
296.128	35.4609
299.021	34.0196
301.913	26.1599
304.806	11.2426
307.699	0.333923
310.591	5.01502
313.484	4.78013
316.377	1.47948
319.269	0.886086
322.162	6.98177
325.055	11.6617
327.947	19.1086
330.84	22.6577
333.733	29.3182
336.626	34.8392
339.518	43.4408
342.411	53.6795
345.304	65.8948
348.196	79.582
351.089	95.2389
353.982	115.418
356.875	137.206
359.767	160.729
362.66	184.518
365.553	205.493
368.445	223.908
371.338	227.412
374.231	214.468
377.123	184.021
380.016	147.842
382.909	115.675
385.802	93.8117
388.694	78.46
391.587	68.0855
394.48	59.6212
397.372	54.7942
400.265	46.3387
403.158	41.2792
406.05	34.9692
408.943	26.0099
411.836	19.6691
414.729	14.0787
417.621	8.4723
420.514	3.61201
423.407	0.680687
426.299	1.06963
429.192	0.388603
432.085	0.743645
434.978	1.02194
437.87	0.292496
440.763	0.710159
443.656	0.544495
446.548	1.21433
449.441	2.52943
452.334	2.50816
455.226	4.33459
458.119	3.7728
461.012	3.17027
463.905	3.02644
466.797	3.51001
469.69	2.85326
472.583	1.99677
475.475	2.14378
478.368	0.841942
481.261	0.867012
484.154	1.00095
487.046	0.592377
489.939	0.544029
492.832	0.481003
495.724	2.16604
498.617	3.30392
501.51	4.37087
504.402	8.20434
507.295	10.8879
510.188	14.3343
513.081	19.4813
515.973	23.2151
518.866	25.5198
521.759	25.3518
524.651	22.5519
527.544	20.5691
530.437	17.6579
533.33	14.8217
536.222	13.9508
539.115	10.4254
542.008	8.1833
544.9	6.18577
547.793	4.02209
550.686	2.37319
553.578	0.70359
556.471	0.360641
559.364	1.64942
562.256	0.820107
565.149	0.826782
568.042	2.10821
570.935	2.83558
573.827	5.33258
576.72	8.35803
579.613	11.0954
582.505	14.6402
585.398	17.6388
588.291	19.3162
591.184	23.1504
594.076	27.645
596.969	31.3326
599.862	37.0792
602.754	38.6668
605.647	41.5796
608.54	46.8336
611.433	49.4416
614.325	54.9447
617.218	65.6828
620.111	80.9414
623.003	104.212
625.896	129.648
628.789	158.394
631.682	185.438
634.574	203.484
637.467	197.352
640.36	175.341
643.252	150.901
646.145	128.021
649.038	106.602
651.93	89.2423
654.823	74.0525
657.716	60.7081
660.609	48.017
663.501	36.1985
666.394	25.8963
669.287	16.8383
672.179	9.06432
675.072	4.80398
677.965	0.455399
680.857	3.29469
683.75	1.81545
686.643	0.306488
689.535	5.57227
692.428	12.3913
695.321	20.7538
698.214	29.5229
701.106	34.6757
703.999	40.1002
706.892	39.9572
709.784	35.0356
712.677	26.751
715.57	19.3275
718.462	12.4193
721.355	9.48088
724.248	7.34549
727.141	4.37892
730.033	2.4349
732.926	2.45112
735.819	2.64745
738.712	1.9679
741.604	0.93589
744.497	0.295708
747.39	1.12898
750.282	1.74169
753.175	2.23048
756.068	1.63242
758.96	1.507
761.853	1.0741
764.746	0.647575
767.639	0.119331
770.531	0.385071
773.424	0.122635
776.317	0.821976
779.209	0.190475
782.102	0.856995
784.995	0.638214
787.888	0.837059
790.78	0.679607
793.673	0.658604
796.566	2.07937
799.458	0.724972
802.351	2.71173
805.244	2.67673
808.136	2.48067
811.029	2.54341
813.922	3.10404
816.814	3.43149
819.707	3.66662
822.6	3.50307
825.493	2.10552
828.385	2.28951
831.278	2.7424
834.171	2.44282
837.063	1.83093
839.956	1.64943
842.849	2.04451
845.741	2.02804
848.634	3.0152
851.527	3.51096
854.42	1.9922
857.312	1.77914
860.205	1.2373
863.098	1.72327
865.99	1.97258
868.883	1.06565
871.776	0.874069
874.669	1.80042
877.561	0.990341
880.454	0.265022
883.347	0.294472
886.239	0.877415
889.132	1.02521
892.025	0.844948
894.918	1.65568
897.81	0.626328
900.703	0.16428
903.596	0.352715
906.488	0.234047
909.381	0.07439
912.274	0.792179
915.166	0.255268
918.059	0.834541
920.952	0.217781
923.845	0.778202
926.737	0.31076
929.63	0.45768
932.523	0.941162
935.415	0.378738
938.308	0.931709
941.201	2.08366
944.093	2.23967
946.986	2.89037
949.879	3.367
952.771	3.80306
955.664	4.9451
958.557	4.45843
961.45	6.09139
964.342	5.69961
967.235	6.11927
970.128	6.09672
973.02	6.11845
975.913	7.34123
978.806	6.49789
981.699	6.60608
984.591	8.00039
987.484	9.14476
990.377	11.6163
993.269	13.0318
996.162	16.1771
999.055	19.2129
1001.95	20.2493
1004.84	20.2377
1007.73	18.934
1010.63	17.8012
1013.52	15.0605
1016.41	12.5854
1019.3	9.96027
1022.2	8.07809
1025.09	5.97063
1027.98	3.32292
1030.88	3.22563
1033.77	3.33604
1036.66	2.63
1039.55	3.06444
1042.44	3.68292
1045.34	5.39313
1048.23	6.72337
1051.12	10.3551
1054.02	12.0194
1056.91	13.5198
1059.8	12.7866
1062.69	10.4974
1065.59	7.15305
1068.48	5.18413
1071.37	4.01582
1074.27	2.04173
1077.16	1.94467
1080.05	1.40314
1082.94	0.327217
1085.84	0.896729
1088.73	0.398621
1091.62	0.515938
1094.51	1.78437
1097.41	0.299301
1100.3	0.260361
1103.19	0.96048
1106.09	1.81873
1108.98	1.85426
1111.87	2.03493
1114.76	1.88258
1117.66	1.6946
1120.55	1.15889
1123.44	0.129585
1126.33	0.035667
1129.23	0.265495
1132.12	0.564934
1135.01	0.131844
1137.9	0.041
1140.8	0.753117
1143.69	0.881947
1146.58	0.000908
1149.47	0.931622
1152.37	0.839638
1155.26	0.826031
1158.15	0.388279
1161.05	0.715538
1163.94	1.47313
1166.83	0.967953
1169.72	0.244835
1172.62	1.85978
1175.51	2.21416
1178.4	0.19305
1181.3	1.32564
1184.19	0.830631
1187.08	1.63576
1189.97	0.692822
1192.87	0.46471
1195.76	0.959621
1198.65	1.10276
1201.54	1.24096
1204.44	0.337002
1207.33	0.323902
1210.22	0.069061
1213.12	0.533714
1216.01	0.133537
1218.9	0.684418
1221.79	0.750237
1224.69	0.431381
1227.58	0.256287
1230.47	0.725441
1233.36	1.94036
1236.26	1.35156
1239.15	1.85217
1242.04	1.81709
1244.93	3.05748
1247.83	2.59547
1250.72	2.26837
1253.61	1.95502
1256.51	3.18761
1259.4	2.48978
1262.29	3.83002
1265.18	1.51583
1268.08	2.36865
1270.97	2.69985
1273.86	2.17493
1276.75	4.0264
1279.65	3.95261
1282.54	5.57533
1285.43	6.17094
1288.33	8.27441
1291.22	6.72076
1294.11	3.99416
1297	1.33139
1299.9	1.40195
