Measurement: Raman, 532 nm, unoriented, Raman Data Processed
Mineral: Fluornatromicrolite
Rruff sample: R090008
Ideal chemistry: (Na,Ca,Bi)_2_Ta_2_O_6_F
Locality: Shigar Valley, Skardu District, Baltistan, Northern areas, Pakistan
Source: Herb Obodda
Description: Dark yellowish brown octahedra on orthoclase
Raman shift (cm-1)	intensity
139.138	0
142.513	168.03
145.887	235.834
149.262	195.607
152.637	154.867
156.012	169.181
159.387	227.18
162.762	280.346
166.136	269.348
169.511	238.971
172.886	220.831
176.261	196.638
179.636	280.361
183.01	300.951
186.385	267.621
189.76	233.667
193.135	228.1
196.51	224.258
199.884	228.052
203.259	217.084
206.634	210.635
210.009	146.662
213.384	6.19971
216.758	63.2751
220.133	57.6067
223.508	33.5408
226.883	0.970947
230.258	58.0215
233.633	124.05
237.007	198.403
240.382	260.928
243.757	308.117
247.132	340.798
250.507	353.377
253.881	377.713
257.256	395.361
260.631	445.369
264.006	512.551
267.381	628.529
270.756	757.154
274.13	896.672
277.505	1055.21
280.88	1217.08
284.255	1333.64
287.63	1446.47
291.005	1541.32
294.379	1618.49
297.754	1636.27
301.129	1591.57
304.504	1447.67
307.878	1209.64
311.253	929.467
314.628	690.143
318.003	519.417
321.378	426.873
324.753	434.746
328.127	506.726
331.502	636.95
334.877	759.529
338.252	830.27
341.627	767.332
345.002	580.482
348.376	382.932
351.751	241.96
355.126	149.218
358.501	86.2958
361.876	44.7997
365.25	12.9073
368.625	11.8606
372	19.0107
375.375	18.4159
378.75	11.1187
382.125	3.91992
385.499	4.12585
388.874	7.09119
392.249	8.77856
395.624	23.4206
398.999	39.0488
402.373	67.2387
405.748	96.1504
409.123	121.858
412.498	156.357
415.873	189.975
419.248	225.979
422.622	271.608
425.997	289.155
429.372	289.41
432.747	283.579
436.122	279.195
439.496	264.083
442.871	248.691
446.246	219.243
449.621	188.169
452.996	145.42
456.37	100.953
459.745	60.4613
463.12	33.684
466.495	7.66675
469.87	4.82117
473.245	19.02
476.619	15.2457
479.994	11.9683
483.369	16.7487
486.744	85.0994
490.119	234.474
493.493	492.454
496.868	901.158
500.243	1464.1
503.618	2162.22
506.993	2885.16
510.368	3319.06
513.742	3248.48
517.117	2762.93
520.492	2260.05
523.867	1874.1
527.242	1614.88
530.616	1426.07
533.991	1313.79
537.366	1235.41
540.741	1163.57
544.116	1105.13
547.49	1013.53
550.865	904.848
554.24	770.61
557.615	617.893
560.99	472.491
564.365	341.017
567.739	232.096
571.114	142.504
574.489	65.2195
577.864	4.46484
581.239	16.2127
584.613	23.7371
587.988	2.96899
591.363	28.8091
594.738	77.1228
598.113	121.539
601.487	143.475
604.862	162.283
608.237	179.702
611.612	176.738
614.987	170.89
618.362	163.679
621.736	160.241
625.111	157.769
628.486	172.35
631.861	190.154
635.236	229.608
638.611	274.14
641.985	322.053
645.36	366.655
648.735	415.554
652.11	457.266
655.485	500.951
658.859	510.278
662.234	518.668
665.609	510.941
668.984	499.907
672.359	488.625
675.734	474.201
679.108	446.994
682.483	429.662
685.858	402.499
689.233	368.879
692.607	323.8
695.982	269.104
699.357	229.629
702.732	179.387
706.107	140.167
709.482	94.6168
712.856	59.5757
716.231	26.8919
719.606	12.0671
722.981	7.97424
726.356	17.6387
729.731	15.7064
733.105	15.5989
736.48	12.3015
739.855	9.10901
743.23	0.02301
746.605	8.71027
749.979	14.5374
753.354	18.0083
756.729	23.6923
760.104	33.6675
763.479	38.6456
766.854	36.8475
770.228	41.6975
773.603	40.2023
776.978	33.3912
780.353	35.7083
783.727	32.344
787.102	35.6232
790.477	47.3174
793.852	71.8503
797.227	100.099
800.602	137.426
803.976	172.959
807.351	196.592
810.726	210.121
814.101	212.697
817.476	208.286
820.851	201.546
824.225	188.503
827.6	169.182
830.975	143.554
834.35	128.202
837.725	94.4141
841.099	70.2478
844.474	50.0784
847.849	21.697
851.224	10.9044
854.599	5.95978
857.973	5.41962
861.348	20.8182
864.723	41.3232
868.098	73.6363
871.473	104.036
874.848	140.185
878.222	180.017
881.597	222.523
884.972	250.37
888.347	301.729
891.722	318.063
895.096	351.394
898.471	379.409
901.846	412.272
905.221	435.113
908.596	461.282
911.971	482.601
915.345	505.188
918.72	526.882
922.095	533.875
925.47	521.905
928.845	497.207
932.22	458.752
935.594	412.379
938.969	345.259
942.344	277.199
945.719	208.358
949.094	151.607
952.468	107.47
955.843	70.1239
959.218	42.563
962.593	24.8285
965.968	10.2978
969.342	1.06
972.717	8.1777
976.092	9.51245
979.467	10.6054
982.842	9.04227
986.216	2.35031
989.591	3.25473
992.966	11.0076
996.341	23.5387
999.716	34.5284
1003.09	47.3656
1006.47	54.5369
1009.84	60.8419
1013.22	68.6955
1016.59	65.9564
1019.97	68.5743
1023.34	68.7463
1026.71	66.6816
1030.09	64.9283
1033.46	62.1664
1036.84	57.1824
1040.21	46.9743
1043.59	41.5428
1046.96	39.0916
1050.34	33.1603
1053.71	34.6246
1057.09	39.3304
1060.46	38.3864
1063.84	45.6052
1067.21	43.5381
1070.59	47.9324
1073.96	46.8037
1077.34	48.4883
1080.71	45.0627
1084.09	45.2704
1087.46	41.8615
1090.84	40.2041
1094.21	35.5801
1097.59	32.7149
1100.96	36.5429
1104.34	25.8865
1107.71	22.1576
1111.09	15.8902
1114.46	14.8294
1117.83	10.6162
1121.21	6.97641
1124.58	4.67555
1127.96	5.41821
1131.33	2.33414
1134.71	1.02727
1138.08	0.048706
1141.46	0.13237
1144.83	1.71555
1148.21	1.43454
1151.58	1.49237
1154.96	0.648849
1158.33	0.545319
1161.71	1.92899
1165.08	5.49243
1168.46	5.00902
1171.83	7.11179
1175.21	6.82666
1178.58	7.96031
1181.96	11.5843
1185.33	12.8369
1188.7	13.6243
1192.08	16.0123
1195.45	16.6045
1198.83	17.0458
1202.2	19.3474
1205.58	21.3132
1208.95	19.8597
1212.33	20.7761
1215.7	24.9037
1219.08	26.0056
1222.45	27.6435
1225.83	29.5584
1229.2	31.2884
1232.58	31.5829
1235.95	32.9883
1239.33	31.3758
1242.7	32.4771
1246.08	31.4927
1249.45	30.7808
1252.83	30.4596
1256.2	25.1782
1259.58	24.7067
1262.95	21.6065
1266.33	18.0648
1269.7	17.2749
1273.08	13.8082
1276.45	11.918
1279.83	6.45912
1283.2	5.59598
1286.58	4.06012
1289.95	1.96791
1293.33	0.917175
1296.7	0.840439
1300.07	1.31644
1303.45	0
