Measurement: Raman, 780 nm, unoriented, Raman Data Processed
Mineral: Fluor-uvite
Rruff sample: R100151
Ideal chemistry: CaMg_3_(Al_5_Mg)(Si_6_O_18_)(BO_3_)_3_(OH)_3_F
Locality: Mozambique
Source: William W. Pinch
Description: Yellow cut gemstone
Raman shift (cm-1)	intensity
113.265	0
116.64	14.1801
120.015	31.8008
123.389	51.534
126.764	62.067
130.139	84.8293
133.514	92.5476
136.889	107.73
140.263	116.153
143.638	112.864
147.013	110.769
150.388	86.5244
153.763	61.1589
157.137	36.9832
160.512	14.568
163.887	3.17065
167.262	7.0224
170.637	2.18597
174.012	2.77042
177.386	6.60614
180.761	6.08664
184.136	15.7761
187.511	57.6052
190.886	125.487
194.261	204.753
197.635	235.222
201.01	280.264
204.385	397.143
207.76	630.838
211.135	991.39
214.509	1308.6
217.884	1289.43
221.259	999.472
224.634	771.355
228.009	725.628
231.383	769.65
234.758	835.578
238.133	940.852
241.508	1048.73
244.883	1044.12
248.257	879
251.632	658.864
255.007	462.494
258.382	337.774
261.757	283.027
265.132	271.196
268.506	272.508
271.881	282.773
275.256	254.019
278.631	195.214
282.006	142.143
285.38	81.3903
288.755	33.2534
292.13	1.72314
295.505	19.1648
298.88	13.4969
302.255	7.39587
305.629	0.691528
309.004	28.827
312.379	100.32
315.754	108.615
319.129	49.8199
322.503	30.1561
325.878	52.9201
329.253	99.0293
332.628	150.549
336.003	210.649
339.377	274.233
342.752	321.658
346.127	354.969
349.502	385.975
352.877	435.918
356.252	560.118
359.626	749.832
363.001	1082.09
366.376	1597.98
369.751	2182.6
373.126	2281.55
376.5	1759.19
379.875	1146.11
383.25	729.939
386.625	486.134
390	343.393
393.375	268.372
396.749	221.922
400.124	202.618
403.499	200.653
406.874	194.793
410.249	163.251
413.623	119.639
416.998	66.0985
420.373	24.1444
423.748	0.146667
427.123	9.77399
430.498	9.32941
433.872	0.871399
437.247	1.78455
440.622	3.12775
443.997	4.67453
447.372	13.9148
450.746	2.8299
454.121	1.38342
457.496	2.99866
460.871	6.53568
464.246	16.6349
467.62	32.1294
470.995	57.5282
474.37	88.2
477.745	118.203
481.12	145.111
484.495	173.514
487.869	208.013
491.244	227.37
494.619	239.494
497.994	247.069
501.369	258.069
504.743	280.385
508.118	268.647
511.493	242.506
514.868	212.147
518.243	160.171
521.617	133.323
524.992	114.866
528.367	125.535
531.742	150.618
535.117	169.367
538.492	164.576
541.866	152.079
545.241	117.561
548.616	100.737
551.991	74.6384
555.366	49.3972
558.74	33.1059
562.115	21.7755
565.49	14.0228
568.865	4.56696
572.24	2.10107
575.615	4.30423
578.989	5.96982
582.364	2.65384
585.739	4.78342
589.114	0.271881
592.489	3.04135
595.863	0.575989
599.238	4.50754
602.613	11.2073
605.988	14.1828
609.363	23.0613
612.737	32.1551
616.112	42.2819
619.487	45.3739
622.862	43.0532
626.237	29.4395
629.611	26.3357
632.986	36.2435
636.361	43.0518
639.736	44.7548
643.111	42.6229
646.486	61.2134
649.86	110.398
653.235	151.158
656.61	183.041
659.985	217.624
663.36	259.852
666.735	323.015
670.109	394.604
673.484	454.887
676.859	450.42
680.234	405.03
683.609	349.828
686.983	312.637
690.358	308.678
693.733	340.888
697.108	415.573
700.483	543.155
703.857	706.66
707.232	866.904
710.607	912.42
713.982	797.066
717.357	590.986
720.731	381.103
724.106	226.254
727.481	129.404
730.856	67.5235
734.231	30.0894
737.606	14.4831
740.98	2.26727
744.355	0.394684
747.73	3.80328
751.105	19.8685
754.48	40.859
757.855	58.6354
761.229	62.6236
764.604	39.2111
767.979	13.2453
771.354	0.808228
774.729	13.0439
778.103	8.57324
781.478	1.892
784.853	1.29935
788.228	15.3666
791.603	23.5468
794.977	22.9402
798.352	20.9714
801.727	29.4571
805.102	49.1121
808.477	76.3001
811.851	111.933
815.226	152.574
818.601	169.486
821.976	170.556
825.351	161.415
828.726	146.552
832.1	129.558
835.475	119.885
838.85	99.3386
842.225	72.5862
845.6	45.7481
848.975	30.999
852.349	15.0553
855.724	14.4362
859.099	8.2348
862.474	2.05223
865.849	6.13722
869.223	4.64415
872.598	2.46695
875.973	3.30681
879.348	5.3141
882.723	2.19856
886.097	0.06076
889.472	5.75502
892.847	1.63295
896.222	1.539
899.597	2.92181
902.971	0.511932
906.346	10.0221
909.721	6.93424
913.096	11.73
916.471	7.8085
919.846	8.66119
923.22	1.35117
926.595	4.99342
929.97	6.41141
933.345	3.20944
936.72	6.7897
940.095	4.80585
943.469	7.08504
946.844	5.8551
950.219	18.3318
953.594	21.0461
956.968	27.4501
960.343	38.0427
963.718	54.1589
967.093	60.3349
970.468	63.0627
973.843	65.8974
977.217	64.7483
980.592	63.5017
983.967	53.316
987.342	38.5092
990.717	25.22
994.091	9.90624
997.466	3.82115
1000.84	5.0444
1004.22	7.95659
1007.59	3.66435
1010.97	0.248535
1014.34	14.3877
1017.72	25.5614
1021.09	42.9478
1024.46	55.1129
1027.84	62.8503
1031.21	91.6973
1034.59	100.356
1037.96	125.838
1041.34	155.149
1044.71	176.2
1048.09	204.72
1051.46	230.23
1054.84	251.142
1058.21	278.763
1061.59	299.312
1064.96	327.372
1068.34	334.255
1071.71	315.279
1075.09	279.261
1078.46	229.872
1081.84	185.056
1085.21	139.368
1088.59	109.152
1091.96	85.6997
1095.34	65.5225
1098.71	58.3899
1102.09	56.1056
1105.46	57.2714
1108.84	62.4797
1112.21	69.1756
1115.59	80.8326
1118.96	81.269
1122.33	85.6489
1125.71	75.5105
1129.08	54.0221
1132.46	32.1564
1135.83	15.243
1139.21	8.14021
1142.58	3.18251
1145.96	3.00899
1149.33	8.08496
1152.71	2.94116
1156.08	5.53044
1159.46	12.4611
1162.83	12.1953
1166.21	23.4072
1169.58	26.7438
1172.96	37.9254
1176.33	44.5089
1179.71	64.454
1183.08	83.4135
1186.46	107.915
1189.83	134.515
1193.21	171.301
1196.58	208.421
1199.95	239.916
1203.33	260.521
1206.7	279.176
1210.08	298.352
1213.45	317.668
1216.83	320.251
1220.2	314.815
1223.58	292.77
1226.95	257.868
1230.33	225.364
1233.7	183.282
1237.08	133.585
1240.45	82.9887
1243.83	41.7563
1247.2	15.8554
1250.58	0.276489
1253.95	8.41596
1257.33	11.9043
1260.7	54.0449
1264.08	90.5596
1267.45	112.723
1270.83	90.8754
1274.2	87.8304
1277.58	58.7516
1280.95	30.4487
1284.33	0.726685
