Measurement: Raman, 532 nm, unoriented, Raman Data Processed
Mineral: Fluor-uvite
Rruff sample: R100154
Ideal chemistry: CaMg_3_(Al_5_Mg)(Si_6_O_18_)(BO_3_)_3_(OH)_3_F
Locality: Sri Lanka
Source: William W. Pinch
Description: Brown cut gemstone
Raman shift (cm-1)	intensity
131.051	0
134.426	3.74714
137.8	1.12563
141.175	5.12558
144.55	18.8286
147.925	22.581
151.3	30.7269
154.675	49.9008
158.049	60.7025
161.424	56.0609
164.799	52.4793
168.174	60.6538
171.549	65.2509
174.924	58.6114
178.298	47.2376
181.673	40.4678
185.048	47.1008
188.423	56.0504
191.798	68.8965
195.173	84.2492
198.547	95.815
201.922	107.486
205.297	124.749
208.672	143.995
212.047	172.458
215.421	182.033
218.796	150.306
222.171	109.066
225.546	86.3827
228.921	83.1631
232.296	84.6552
235.67	94.5554
239.045	105.907
242.42	114.773
245.795	102.171
249.17	75.3231
252.544	42.4594
255.919	21.5666
259.294	14.2512
262.669	13.198
266.044	17.1545
269.418	20.6595
272.793	21.772
276.168	20.301
279.543	13.3096
282.918	2.59055
286.293	2.09589
289.667	5.39569
293.042	2.29297
296.417	3.7355
299.792	0.637161
303.167	0.860901
306.541	2.27086
309.916	6.82605
313.291	15.2053
316.666	28.3538
320.041	36.1569
323.416	52.063
326.791	66.7548
330.165	85.3895
333.54	98.1377
336.915	108.915
340.29	112.499
343.665	113.717
347.039	106.336
350.414	105.358
353.789	117.23
357.164	142.205
360.539	174.889
363.913	229.004
367.288	279.116
370.663	323.054
374.038	294.699
377.413	225.587
380.788	155.005
384.162	108.451
387.537	75.0579
390.912	55.6646
394.287	40.1135
397.662	26.6283
401.036	22.6998
404.411	16.6408
407.786	14.6849
411.161	12.1625
414.536	8.58234
417.911	4.01143
421.285	0.887024
424.66	2.62326
428.035	3.12881
431.41	0.765579
434.785	0.22905
438.159	4.09039
441.534	4.31598
444.909	8.71887
448.284	6.90536
451.659	6.58632
455.034	4.4184
458.409	2.04929
461.783	1.19725
465.158	2.36137
468.533	7.66869
471.908	12.2498
475.283	17.995
478.657	20.9956
482.032	23.9246
485.407	23.1317
488.782	23.7786
492.157	26.9044
495.531	29.6061
498.906	30.0214
502.281	32.6818
505.656	29.297
509.031	21.7054
512.406	14.174
515.78	10.9001
519.155	10.8426
522.53	14.2255
525.905	20.8132
529.28	27.5025
532.654	28.9971
536.029	30.8466
539.404	28.022
542.779	23.0336
546.154	17.3379
549.529	12.3249
552.903	8.33284
556.278	5.18355
559.653	2.48997
563.028	1.22197
566.403	1.97324
569.778	0.001968
573.152	0.850433
576.527	0.476234
579.902	1.77606
583.277	6.1245
586.652	9.89687
590.027	13.461
593.401	13.304
596.776	16.6318
600.151	14.5321
603.526	15.1578
606.901	13.7754
610.275	12.5466
613.65	12.4075
617.025	9.72789
620.4	8.63874
623.775	4.10661
627.149	5.28473
630.524	4.06342
633.899	0.625107
637.274	4.32765
640.649	4.86624
644.024	2.95126
647.398	0.76799
650.773	7.53694
654.148	16.5969
657.523	21.8478
660.898	28.4656
664.273	32.7826
667.647	31.6911
671.022	29.2337
674.397	24.154
677.772	13.5506
681.147	4.4154
684.521	1.72858
687.896	0.708023
691.271	2.9512
694.646	8.66257
698.021	18.923
701.396	36.2545
704.77	58.7536
708.145	84.0347
711.52	103.387
714.895	105.788
718.27	88.3722
721.644	54.2545
725.019	32.6514
728.394	21.8211
731.769	22.5251
735.144	23.4593
738.519	29.7993
741.893	38.6086
745.268	54.1608
748.643	72.804
752.018	90.955
755.393	106.138
758.768	122.117
762.142	120.18
765.517	117.789
768.892	110.947
772.267	101.877
775.642	99.3497
779.016	87.6145
782.391	77.0833
785.766	67.6017
789.141	65.9102
792.516	62.0174
795.89	60.851
799.265	57.6993
802.64	56.1005
806.015	51.9219
809.39	53.1086
812.765	56.4417
816.139	53.3825
819.514	53.2257
822.889	43.867
826.264	34.1454
829.639	25.9798
833.014	15.3705
836.388	6.7103
839.763	1.46973
843.138	2.06118
846.513	2.9099
849.888	4.31521
853.263	2.83328
856.637	2.9441
860.012	0.670639
863.387	0.490036
866.762	1.8711
870.136	3.7766
873.511	6.4126
876.886	8.14031
880.261	9.26774
883.636	11.4694
887.011	10.54
890.385	13.8414
893.76	15.4528
897.135	13.6384
900.51	17.6336
903.885	15.2574
907.26	14.8085
910.634	12.0763
914.009	10.5473
917.384	9.18361
920.759	8.56768
924.134	8.8944
927.509	8.16434
930.883	8.7798
934.258	9.00429
937.633	9.6311
941.008	9.54761
944.383	11.4022
947.757	12.9709
951.132	16.7864
954.507	19.1959
957.882	19.4688
961.257	21.6631
964.631	25.1987
968.006	24.3687
971.381	22.6774
974.756	21.5777
978.131	21.3181
981.506	16.1606
984.88	13.8668
988.255	10.256
991.63	6.07736
995.005	3.12949
998.38	0.017326
1001.75	0.429878
1005.13	1.15662
1008.5	1.90395
1011.88	0.177429
1015.25	3.92207
1018.63	10.237
1022	15.2547
1025.38	20.7962
1028.75	28.9208
1032.13	34.2456
1035.5	41.9009
1038.88	48.6013
1042.25	55.7956
1045.63	63.6902
1049	68.3678
1052.38	69.7509
1055.75	71.9519
1059.13	77.3059
1062.5	83.9243
1065.88	91.8785
1069.25	96.7495
1072.63	99.7547
1076	90.5325
1079.38	82.1363
1082.75	70.0064
1086.12	55.832
1089.5	43.7613
1092.88	34.1136
1096.25	30.3866
1099.62	26.6264
1103	24.0082
1106.37	23.3499
1109.75	24.4725
1113.12	24.1076
1116.5	20.7703
1119.87	18.9459
1123.25	14.3848
1126.62	8.08515
1130	4.27502
1133.37	1.7039
1136.75	0.02668
1140.12	1.10387
1143.5	0.517784
1146.87	0.181389
1150.25	0.223701
1153.62	1.10065
1157	0.679977
1160.37	0.132545
1163.75	2.13753
1167.12	0.885681
1170.5	3.0074
1173.87	2.82703
1177.24	1.94052
1180.62	1.09213
1183.99	2.11476
1187.37	1.98808
1190.74	4.40565
1194.12	3.91238
1197.49	4.33047
1200.87	2.83621
1204.24	4.84594
1207.62	5.13756
1210.99	4.85159
1214.37	5.7767
1217.74	6.74036
1221.12	8.56696
1224.49	9.76538
1227.87	10.0107
1231.24	9.43519
1234.62	11.0488
1237.99	9.22285
1241.37	9.11802
1244.74	10.6281
1248.12	8.19516
1251.49	9.03258
1254.87	8.76536
1258.24	9.42515
1261.62	6.6927
1264.99	6.64461
1268.37	4.30642
1271.74	4.48283
1275.12	4.48057
1278.49	5.39783
1281.87	3.09189
1285.24	3.47863
1288.61	1.54892
1291.99	0.974144
1295.36	0.477562
1298.74	2.01501
1302.11	0.347939
