Measurement: Raman, 514 nm, unoriented, Raman Data Processed
Mineral: Fluorophlogopite
Rruff sample: R040039
Ideal chemistry: KMg_3_(Si_3_Al)O_10_F_2_
Locality: Franklin, Sussex County, New Jersey, USA
Source: University of Arizona Mineral Museum
Description: Brown hexagonal sheets
Measured chemistry: (K_0.92_Na_0.06_[box]_0.02_)_Σ=1_(Mg_2.94_Fe_0.04_Ti_0.02_)_Σ=3_(Si_2.98_Al_1.02_)O_10_(F_1.24_(OH)_0.76_)_Σ=2_; OH estimated by charge balance
Raman shift (cm-1)	intensity
157.247	0
161.396	62.978
165.544	237.395
169.689	338.768
173.833	517.287
177.974	968.797
182.114	2113.14
186.251	4885.68
190.387	9567.6
194.52	12641.6
198.652	10125
202.782	5297.58
206.909	3106.41
211.035	1541.24
215.159	854.109
219.281	567.732
223.4	207.93
227.518	206.095
231.634	121.684
235.748	32.85
239.86	45.316
243.97	19.01
248.079	49.907
252.185	99.292
256.289	20.588
260.391	349.533
264.492	667.352
268.59	1417.88
272.687	2864.1
276.781	3899.9
280.874	3115.79
284.964	1766.49
289.053	1238.68
293.14	1100.91
297.225	1275.67
301.308	1854.31
305.389	2989.14
309.468	4293.59
313.545	5010.81
317.62	5018.59
321.693	4746.53
325.765	3817.77
329.834	2515.78
333.902	1759.52
337.967	1162.33
342.031	873.244
346.093	717.999
350.153	539.514
354.21	666.03
358.267	699.56
362.321	870.251
366.373	1186.13
370.423	1313.33
374.471	909.443
378.518	682.003
382.563	533.666
386.605	501.63
390.646	545.689
394.685	390.028
398.722	458.368
402.757	266.934
406.79	211.257
410.821	218.759
414.851	30.333
418.878	279.02
422.904	104.298
426.927	179.679
430.949	7.647
434.969	282.566
438.987	92.482
443.003	230.326
447.018	335.952
451.03	384.443
455.041	479.332
459.049	815.695
463.056	818.842
467.061	476.813
471.064	49.614
475.065	60.18
479.064	36.729
483.062	1.494
487.057	90.267
491.051	273.658
495.043	329.707
499.032	402.432
503.02	578.842
507.007	800.95
510.991	772.772
514.973	492.32
518.954	344.608
522.933	244.641
526.91	185.427
530.885	97.986
534.858	88.422
538.829	122.553
542.799	200.732
546.766	246.839
550.732	177.869
554.696	124.953
558.658	218.73
562.618	33.521
566.576	118.205
570.533	179.417
574.488	209.843
578.44	105.679
582.391	158.203
586.341	70.729
590.288	3.554
594.233	41.966
598.177	35.277
602.119	93.938
606.059	142.855
609.997	119.708
613.933	292.385
617.868	507.903
621.801	856.263
625.731	1071.47
629.66	1753.58
633.588	2200.88
637.513	2217.33
641.437	2426.07
645.358	2341.74
649.278	2480.81
653.196	2692.9
657.113	3404.04
661.027	4169.07
664.94	5139
668.851	6747.15
672.76	9710.1
676.667	14038.9
680.572	17284.8
684.476	17108.6
688.378	13707.7
692.278	9976.6
696.176	6622.11
700.072	4231.5
703.967	2834.89
707.86	2173.21
711.751	1716.78
715.64	1287.91
719.527	978.49
723.413	1121.97
727.297	844.691
731.179	1005.89
735.059	901.163
738.937	1083.6
742.814	915.183
746.689	1086.19
750.562	838.549
754.433	706.717
758.303	658.32
762.17	723.82
766.036	626.87
769.901	524.597
773.763	690.163
777.624	769.663
781.482	765.095
785.339	762.475
789.195	673.911
793.048	832.564
796.9	883.5
800.75	629.248
804.598	390.962
808.445	460.622
812.289	235.266
816.132	265.814
819.973	36.312
823.813	103.747
827.65	90.127
831.486	141.451
835.32	81.147
839.152	47.973
842.983	234.18
846.812	269.398
850.639	28.281
854.464	143.032
858.288	133.376
862.11	23.395
865.93	167.39
869.748	108.938
873.564	91.347
877.379	78.623
881.192	148.883
885.004	247.181
888.813	3.442
892.621	57.941
896.427	171.365
900.232	176.955
904.034	90.609
907.835	251.339
911.634	186.078
915.432	208.834
919.227	83.587
923.021	283.32
926.813	288.026
930.604	122.751
934.393	220.465
938.18	174.143
941.965	123.801
945.749	157.42
949.53	233.988
953.311	343.51
957.089	379.004
960.866	213.443
964.641	119.883
968.414	308.348
972.185	288.434
975.955	181.75
979.723	247.787
983.49	293.049
987.254	542.684
991.017	718.004
994.779	658.027
998.538	692.086
1002.3	757.256
1006.05	746.871
1009.81	778.031
1013.56	795.893
1017.31	568.746
1021.06	470.463
1024.81	651.088
1028.55	1025.72
1032.3	1351.93
1036.04	1635.22
1039.78	1458.06
1043.52	1019.21
1047.26	904.879
1050.99	1058.4
1054.73	981.654
1058.46	1010.04
1062.19	1025.89
1065.92	967.447
1069.65	1095.16
1073.37	1382.22
1077.1	1516.95
1080.82	1852.25
1084.54	1874.52
1088.26	2227.32
1091.97	2288.19
1095.69	2151.8
1099.4	2334.52
1103.12	2036.72
1106.83	1963.62
1110.54	1405.68
1114.24	1129.18
1117.95	727.26
1121.65	715.738
1125.35	656.971
1129.06	341.24
1132.75	267.268
1136.45	21.205
1140.15	140.309
1143.84	94.936
1147.53	91.584
1151.22	34.285
1154.91	64.664
1158.6	62.465
1162.28	164.875
1165.97	89.252
1169.65	68.637
1173.33	23.754
1177.01	262.256
1180.69	231.549
1184.36	100.832
1188.04	100.941
1191.71	132.602
1195.38	38.184
1199.05	110.299
1202.71	146.967
1206.38	247.096
1210.04	119.555
1213.71	127.428
1217.37	120.711
1221.03	176.424
1224.68	62.488
1228.34	298.354
1231.99	307.328
1235.65	36.504
1239.3	305.715
1242.95	324.156
1246.59	46.379
1250.24	46.314
1253.88	199.148
1257.53	137.055
1261.17	237.48
1264.81	52.99
1268.45	252.176
1272.08	10.961
1275.72	253.496
1279.35	91.453
1282.98	154.92
1286.61	139.879
1290.24	103.57
1293.87	76.494
1297.49	143.17
1301.11	34.139
1304.73	14.217
1308.36	72.984
1311.97	21.17
1315.59	89.465
1319.2	45.957
1322.82	80.91
1326.43	84.033
1330.04	2.85
1333.65	194.18
1337.26	156.865
1340.86	69.549
1344.47	160.469
1348.07	87.709
1351.67	132.725
1355.27	204.277
1358.87	271.305
1362.46	415.053
1366.06	315.93
1369.65	376.625
1373.24	310.729
1376.83	253.875
1380.42	140.279
1384	222.301
1387.59	246.082
1391.17	235.131
1394.75	243.717
1398.33	350.318
1401.91	182.676
1405.49	332.963
1409.06	288.898
1412.64	263.309
1416.21	457.605
1419.78	202.207
1423.35	426.086
1426.91	396.785
1430.48	420.826
1434.05	330.035
1437.61	474.961
1441.17	325.98
1444.73	434.311
1448.29	513.941
1451.84	248.592
1455.4	667.266
1458.95	602.195
1462.5	666.834
1466.05	570.248
1469.6	334.32
1473.15	499.539
1476.69	307.992
1480.24	417.004
1483.78	453.053
1487.32	298.637
1490.86	276.086
1494.39	418.105
1497.93	434.535
1501.46	180.348
1505	98.305
1508.53	335.762
1512.06	356.146
1515.59	405.727
1519.11	11.947
1522.64	259.752
1526.16	105.602
