Measurement: Raman, 532 nm, unoriented, Raman Data Processed
Mineral: Fluorlamprophyllite
Rruff sample: R130421
Ideal chemistry: Na_3_(SrNa)Ti_3_(Si_2_O_7_)_2_O_2_F_2_
Locality: Pocos de Caldas Plateau, Minas Gerais, Brazil
Source: Gunnar Farber
Description: Aggregates of bladed brownish-orange crystals, associated with natrolite, aegerine, analcime, nepheline, and microcline.
Measured chemistry: (Na_2.30_Mn_0.54_Mg_0.16_)_Σ3.00_(Sr_1.35_Na_0.33_Ca_0.15_K_0.08_)_Σ1.91_(Ti_2.63_Fe_0.24_Al_0.03_)_Σ2.90_Si_3.89_O_16_[F_1.15_(OH)_0.85_]_Σ2.00_
Raman shift (cm-1)	intensity
192.535	0
195.427	0.387093
198.32	0.825371
201.213	2.15219
204.105	4.75666
206.998	8.81047
209.891	11.5721
212.784	12.504
215.676	14.0291
218.569	15.368
221.462	13.1595
224.354	10.3382
227.247	8.59625
230.14	5.67461
233.032	5.67635
235.925	7.18745
238.818	13.6577
241.71	23.0522
244.603	29.973
247.496	37.8585
250.389	45.506
253.281	37.9491
256.174	30.2753
259.067	22.5712
261.959	15.9923
264.852	11.4274
267.745	10.8205
270.637	11.2879
273.53	11.1779
276.423	9.90593
279.316	7.77274
282.208	6.6395
285.101	4.51221
287.994	0.308884
290.886	0.917435
293.779	3.36146
296.672	3.33344
299.565	1.46245
302.457	1.49069
305.35	6.73283
308.243	9.50105
311.135	14.7741
314.028	20.6834
316.921	27.8253
319.813	33.3231
322.706	39.4334
325.599	47.7094
328.491	57.8222
331.384	69.1518
334.277	83.1344
337.17	93.4273
340.062	101.552
342.955	101.558
345.848	94.3814
348.74	87.7438
351.633	77.993
354.526	70.4307
357.418	66.0153
360.311	66.9317
363.204	68.0553
366.097	73.5679
368.989	76.5322
371.882	77.1116
374.775	69.9907
377.667	53.1432
380.56	35.3766
383.453	20.5299
386.346	14.4099
389.238	13.1628
392.131	17.2775
395.024	18.0051
397.916	19.47
400.809	19.455
403.702	22.2148
406.594	29.4392
409.487	33.0176
412.38	37.6481
415.272	39.2537
418.165	40.9206
421.058	36.8856
423.951	31.0974
426.843	21.4387
429.736	11.5314
432.629	3.20664
435.521	2.35247
438.414	5.21386
441.307	3.14622
444.2	0.002846
447.092	6.80704
449.985	15.3128
452.878	23.2062
455.77	29.2072
458.663	32.7279
461.556	31.9598
464.448	26.8538
467.341	22.2485
470.234	18.3475
473.127	16.7906
476.019	13.161
478.912	11.8625
481.805	11.4694
484.697	11.3583
487.59	14.1809
490.483	16.4247
493.375	16.3633
496.268	15.0119
499.161	11.6757
502.053	9.08209
504.946	8.06227
507.839	6.33942
510.732	7.85642
513.624	8.62877
516.517	9.61543
519.41	10.5645
522.302	11.4521
525.195	11.928
528.088	10.0457
530.981	7.13033
533.873	4.7867
536.766	1.41703
539.659	0.763992
542.551	1.54715
545.444	2.0511
548.337	1.57472
551.229	0.030495
554.122	1.98745
557.015	7.58211
559.908	14.3693
562.8	24.0512
565.693	38.8578
568.586	61.0836
571.478	92.5927
574.371	128.562
577.264	174.053
580.156	226.599
583.049	263.418
585.942	260.272
588.835	215.331
591.727	165.04
594.62	126.459
597.513	98.0202
600.405	77.771
603.298	60.8553
606.191	47.3265
609.083	34.5657
611.976	25.401
614.869	16.5266
617.761	10.2873
620.654	7.44567
623.547	3.5431
626.44	1.67318
629.332	0.873596
632.225	0.927589
635.118	0.048782
638.01	3.2037
640.903	2.82792
643.796	4.66937
646.688	6.73719
649.581	9.12591
652.474	14.5494
655.367	20.0446
658.259	28.3316
661.152	35.6763
664.045	45.1879
666.937	56.7959
669.83	73.1163
672.723	92.9018
675.615	119.504
678.508	150.048
681.401	182.538
684.294	215.297
687.186	238.638
690.079	246.085
692.972	227.548
695.864	187.628
698.757	144.606
701.65	106.097
704.543	78.4605
707.435	57.2844
710.328	43.3977
713.221	33.4323
716.113	24.9391
719.006	21.1458
721.899	15.9606
724.791	12.6003
727.684	9.98508
730.577	7.00465
733.47	4.17481
736.362	1.1547
739.255	0.143913
742.148	2.71572
745.04	2.02032
747.933	2.19995
750.826	1.85118
753.718	1.69564
756.611	0.809799
759.504	2.08986
762.396	3.05312
765.289	6.39552
768.182	10.2946
771.075	12.6348
773.967	18.975
776.86	25.7576
779.753	32.574
782.645	42.1089
785.538	52.6429
788.431	64.3839
791.323	73.5059
794.216	79.7086
797.109	78.6814
800.002	74.0077
802.894	65.3104
805.787	52.977
808.68	37.9937
811.572	25.0192
814.465	13.8717
817.358	8.08661
820.25	3.81519
823.143	1.22403
826.036	1.06567
828.929	2.60565
831.821	5.03522
834.714	2.43906
837.607	7.34543
840.5	21.6973
843.392	37.4252
846.285	50.6878
849.178	58.4716
852.07	52.0259
854.963	40.2016
857.856	33.5847
860.748	28.3185
863.641	23.62
866.534	23.7845
869.427	39.6149
872.319	80.8899
875.212	148.194
878.105	249.054
880.997	372.606
883.89	513.216
886.783	640.288
889.675	730.694
892.568	756.324
895.461	720.475
898.354	640.256
901.246	549.712
904.139	465.49
907.032	398.068
909.924	333.504
912.817	276.244
915.71	218.118
918.602	175.663
921.495	147.742
924.388	131.922
927.28	127.639
930.173	129.897
933.066	139.581
935.959	156.94
938.851	177.667
941.744	204.689
944.637	225.159
947.529	237.75
950.422	221.108
953.315	172.339
956.207	111.141
959.1	59.551
961.993	26.7874
964.886	8.35091
967.778	1.56929
970.671	5.70934
973.564	5.77902
976.456	5.84307
979.349	4.90975
982.242	1.32522
985.135	2.33094
988.027	5.04232
990.92	7.37113
993.813	10.5337
996.705	13.83
999.598	19.0122
1002.49	19.7196
1005.38	20.2619
1008.28	21.5502
1011.17	24.5528
1014.06	26.2031
1016.95	27.9815
1019.85	29.8577
1022.74	31.7119
1025.63	32.3232
1028.53	33.2022
1031.42	30.4112
1034.31	28.2448
1037.2	26.9419
1040.1	25.1971
1042.99	25.2716
1045.88	27.0415
1048.77	27.6236
1051.67	29.2647
1054.56	32.2173
1057.45	36.157
1060.35	39.7221
1063.24	43.4227
1066.13	46.167
1069.02	47.4789
1071.92	45.8608
1074.81	42.107
1077.7	34.5374
1080.59	27.5105
1083.49	21.301
1086.38	14.0553
1089.27	10.885
1092.16	7.0358
1095.06	3.50571
1097.95	1.59608
1100.84	1.6774
1103.73	0.585594
1106.63	3.60467
1109.52	5.31683
1112.41	0.328224
1115.31	0.370438
1118.2	0.079712
1121.09	0.554077
1123.98	0.079384
1126.88	0.929565
1129.77	0.245499
1132.66	0.536392
1135.56	0.564301
1138.45	0.098236
1141.34	0.552498
1144.23	0.329613
1147.13	0.121544
1150.02	0.061958
1152.91	0.146355
1155.8	1.24049
1158.7	0.020866
1161.59	0.287422
1164.48	0.199921
1167.38	0.630829
1170.27	0.019089
1173.16	0.09333
1176.05	0.187576
1178.94	0.581429
1181.84	0.240913
1184.73	0.297562
1187.62	0.084267
1190.52	0.749275
1193.41	0.452042
1196.3	0.035538
1199.19	1.19039
1202.09	0.79084
1204.98	1.16833
1207.87	0.644554
1210.77	0.935822
1213.66	1.21457
1216.55	0.008362
1219.44	0.818138
1222.34	0.044067
1225.23	0.606323
1228.12	0.678612
1231.01	0.542641
1233.91	0.27076
1236.8	0.236328
1239.69	0.093971
1242.59	1.01056
1245.48	1.23305
1248.37	0.219231
1251.26	1.1796
1254.16	0.526138
1257.05	0.906967
1259.94	1.50298
1262.83	0.807495
1265.73	0.881775
1268.62	1.3111
1271.51	0.933937
1274.4	0.231911
1277.3	1.66672
1280.19	1.62929
1283.08	1.02635
1285.97	2.26022
1288.87	1.15148
1291.76	1.20049
1294.65	1.00739
1297.55	0.593102
1300.44	0.006363
