Measurement: Raman, 532 nm, unoriented, Raman Data Processed
Mineral: Fluorcalciomicrolite
Rruff sample: R080146
Ideal chemistry: (Ca,Na)_2_Ta_2_(O,OH)_6_F
Locality: Ip√© mine, Governador, Valadares, Minas Gerias, Brazil
Source: Luiz Menezes
Description: Small transparent orange octahedrons on muscovite and albite matrix.
Measured chemistry: (Ca_1.32_Na_0.37_Mn_0.02_Fe_0.01_)(Ta_1.51_Nb_0.33_Ti_0.15_Sn_0.01_)_2_O_6_[F_0.50_(OH)_0.41_]
Raman shift (cm-1)	intensity
131.988	0
135.363	36.1118
138.737	316.994
142.112	698.329
145.487	987.347
148.862	1145.44
152.237	1341.9
155.612	1560.48
158.986	1645.38
162.361	1654.97
165.736	1559.29
169.111	1408.37
172.486	1332.46
175.86	1245.21
179.235	1093.5
182.61	903.239
185.985	738.495
189.36	563.561
192.734	411.153
196.109	281.532
199.484	178.415
202.859	80.7036
206.234	10.1758
209.608	71.7656
212.983	96.2793
216.358	89.396
219.733	61.8086
223.108	7.82568
226.483	48.3643
229.857	148.014
233.232	269.198
236.607	412.634
239.982	563.395
243.357	698.585
246.732	800.677
250.106	896.495
253.481	996.395
256.856	1125.03
260.231	1260.03
263.606	1391.63
266.98	1544.07
270.355	1649.47
273.73	1814.1
277.105	2024.54
280.48	2229.82
283.854	2481.21
287.229	2704.66
290.604	2902.38
293.979	3023.18
297.354	3076.66
300.729	3079.08
304.103	3022.6
307.478	2925.51
310.853	2805.03
314.228	2672.26
317.603	2559.33
320.978	2479.72
324.352	2481.59
327.727	2517.17
331.102	2541.55
334.477	2465.84
337.851	2296.72
341.226	2029.97
344.601	1693.19
347.976	1351.31
351.351	1044.84
354.726	772.621
358.1	549.349
361.475	359.498
364.85	201.519
368.225	91.3603
371.6	11.3164
374.974	19.686
378.349	48.748
381.724	52.7358
385.099	38.5684
388.474	45.0488
391.849	18.0176
395.223	1.29785
398.598	14.9202
401.973	18.9023
405.348	39.782
408.723	79.293
412.098	104.885
415.472	126.337
418.847	143.12
422.222	140.992
425.597	126.602
428.972	119.876
432.346	105.107
435.721	77.2764
439.096	73.3272
442.471	52.2437
445.846	47.0322
449.221	51.9121
452.595	32.0508
455.97	33.8125
459.345	19.6081
462.72	7.70996
466.095	5.86597
469.469	33.7856
472.844	30.4941
476.219	15.2466
479.594	72.9116
482.969	176.235
486.344	360.445
489.718	635.827
493.093	1065.59
496.468	1644.8
499.843	2373.57
503.218	3216.6
506.592	4025.68
509.967	4655.45
513.342	4923.46
516.717	4847.39
520.092	4532.78
523.466	4140.58
526.841	3827.45
530.216	3546.96
533.591	3307.55
536.966	3139.33
540.341	2973.6
543.715	2811.61
547.09	2524.69
550.465	2233.01
553.84	1880.74
557.215	1531.07
560.59	1201.27
563.964	878.588
567.339	586.524
570.714	363.216
574.089	180.339
577.464	21.103
580.838	51.1074
584.213	81.2212
587.588	52.1572
590.963	32.6187
594.338	150.231
597.712	318.322
601.087	543.923
604.462	786.792
607.837	1020.8
611.212	1273.58
614.587	1451.88
617.961	1626.53
621.336	1742.19
624.711	1856.96
628.086	1957.45
631.461	2023.39
634.835	2063.92
638.21	2081.07
641.585	2027.7
644.96	1993.15
648.335	1942.05
651.71	1910.41
655.084	1893.14
658.459	1831.11
661.834	1765.47
665.209	1703.94
668.584	1620.7
671.958	1540.53
675.333	1447.98
678.708	1347.56
682.083	1216.23
685.458	1076.96
688.832	916.184
692.207	773.448
695.582	620.349
698.957	498.093
702.332	366.955
705.707	272.915
709.081	192.721
712.456	100.487
715.831	39.7617
719.206	2.91699
722.581	43.0879
725.955	61.8008
729.33	61.1704
732.705	61.0659
736.08	43.957
739.455	20.9653
742.83	43.7651
746.204	103.704
749.579	231.933
752.954	355.568
756.329	530.225
759.704	731.789
763.078	970.671
766.453	1239.6
769.828	1560.5
773.203	1930.78
776.578	2335.82
779.952	2771.95
783.327	3173.15
786.702	3538.57
790.077	3800.45
793.452	4001.11
796.827	4052.75
800.201	3958.22
803.576	3803.42
806.951	3589.01
810.326	3326.04
813.701	3025.81
817.076	2757.47
820.45	2478.59
823.825	2220.74
827.2	1973.48
830.575	1757.48
833.95	1571.95
837.324	1380.71
840.699	1199.6
844.074	1027.49
847.449	860.699
850.824	715.02
854.198	593.707
857.573	476.67
860.948	381.754
864.323	280.018
867.698	196.715
871.073	126.874
874.447	73.7651
877.822	38.7734
881.197	2.11597
884.572	5.28516
887.947	6.6626
891.322	3.24194
894.696	4.86719
898.071	26.3494
901.446	34.4793
904.821	29.6331
908.196	49.502
911.57	38.6917
914.945	35.7205
918.32	35.3872
921.695	26.1304
925.07	21.4653
928.444	4.09082
931.819	3.90332
935.194	16.236
938.569	24.0294
941.944	34.2272
945.318	31.7401
948.693	28.7164
952.068	15.4233
955.443	0.171875
958.818	19.7578
962.193	31.7057
965.567	51.2819
968.942	75.7482
972.317	94.5763
975.692	106.152
979.067	136.684
982.442	155.556
985.816	176.114
989.191	199.765
992.566	213.759
995.941	225.394
999.316	237.615
1002.69	245.463
1006.07	240.934
1009.44	233.547
1012.82	218.325
1016.19	211.514
1019.57	210.702
1022.94	206.163
1026.31	199.974
1029.69	194.578
1033.06	189.106
1036.44	180.529
1039.81	174.725
1043.19	168.494
1046.56	166.602
1049.94	151.075
1053.31	145.572
1056.69	137.985
1060.06	128.786
1063.44	121.911
1066.81	109.097
1070.19	107.484
1073.56	91.3438
1076.94	85.1257
1080.31	79.1218
1083.69	70.7143
1087.06	66.5224
1090.44	56.0866
1093.81	47.051
1097.18	51.0687
1100.56	41.8328
1103.93	34.0808
1107.31	27.7161
1110.68	23.7785
1114.06	18.6151
1117.43	13.2201
1120.81	15.665
1124.18	13.6898
1127.56	6.90222
1130.93	0.615967
1134.31	0.890991
1137.68	4.53168
1141.06	2.70898
1144.43	0.800476
1147.81	3.3764
1151.18	5.92102
1154.56	1.78674
1157.93	3.39557
1161.31	5.48614
1164.68	2.83881
1168.06	0.045593
1171.43	5.11676
1174.81	0.213806
1178.18	5.43543
1181.56	8.53406
1184.93	2.97571
1188.31	8.84521
1191.68	2.24768
1195.06	9.95007
1198.43	12.5128
1201.81	15.4069
1205.18	14.3409
1208.55	18.9257
1211.93	19.2466
1215.3	23.5779
1218.68	20.1602
1222.05	20.2581
1225.43	21.4229
1228.8	24.3597
1232.18	17.7108
1235.55	21.1567
1238.93	32.4373
1242.3	26.4388
1245.68	24.2991
1249.05	26.4113
1252.43	24.0289
1255.8	30.8307
1259.18	28.4188
1262.55	21.752
1265.93	21.0563
1269.3	29.5566
1272.68	21.7639
1276.05	23.9542
1279.42	23.6536
1282.8	16.5875
1286.17	13.8285
1289.55	7.45776
1292.92	8.09589
1296.3	3.8197
1299.67	5.61798
1303.05	1.39703
