Measurement: Raman, 780 nm, unoriented, Raman Data Processed
Mineral: Fluor-uvite
Rruff sample: R100154
Ideal chemistry: CaMg_3_(Al_5_Mg)(Si_6_O_18_)(BO_3_)_3_(OH)_3_F
Locality: Sri Lanka
Source: William W. Pinch
Description: Brown cut gemstone
Raman shift (cm-1)	intensity
130.139	0
133.032	1.22705
135.924	20.7058
138.817	43.8999
141.71	62.0125
144.602	58.5979
147.495	58.6262
150.388	71.7717
153.281	60.4031
156.173	41.6199
159.066	28.5698
161.959	10.7905
164.851	1.60034
167.744	3.31494
170.637	7.00464
173.53	4.90869
176.422	2.63574
179.315	0.192871
182.208	6.66455
185.1	19.6416
187.993	47.6492
190.886	82.4194
193.778	119.328
196.671	156.12
199.564	193.27
202.457	238.011
205.349	309.017
208.242	410.122
211.135	545.708
214.027	639.103
216.92	565.4
219.813	416.181
222.705	322.55
225.598	281.222
228.491	271.654
231.383	284.955
234.276	328.603
237.169	401.476
240.061	465.954
242.954	489.013
245.847	431.758
248.74	327.839
251.632	220.649
254.525	149.98
257.418	116.205
260.31	94.9575
263.203	84.0708
266.096	82.0339
268.988	90.3606
271.881	92.2512
274.774	88.9946
277.667	74.0335
280.559	41.7432
283.452	28.7085
286.345	5.23218
289.237	7.08447
292.13	0.733398
295.023	7.62305
297.916	0.239746
300.808	4.47754
303.701	0.986816
306.594	9.38403
309.486	30.0615
312.379	53.6331
315.272	73.7109
318.164	83.4177
321.057	92.4409
323.95	104.816
326.842	133.987
329.735	148.679
332.628	156.598
335.521	163.042
338.413	173.432
341.306	165.428
344.199	175.577
347.091	201.825
349.984	209.821
352.877	252.356
355.769	298.699
358.662	383.908
361.555	521.821
364.447	690.73
367.34	871.102
370.233	969.784
373.126	879.454
376.018	687.208
378.911	490.116
381.804	342.918
384.696	241.653
387.589	170.236
390.482	126.191
393.375	110.519
396.267	88.3801
399.16	66.6321
402.053	57.5781
404.945	58.0383
407.838	62.1968
410.731	46.2861
413.623	31.7214
416.516	22.6794
419.409	6.95703
422.301	8.03833
425.194	6.42847
428.087	12.2153
430.98	1.95508
433.872	2.88721
436.765	1.96533
439.658	6.61231
442.55	2.18042
445.443	5.67481
448.336	3.2959
451.228	8.77441
454.121	15.6157
457.014	18.4641
459.907	28.9341
462.799	28.1206
465.692	31.7273
468.585	44.2546
471.477	49.2493
474.37	68.3513
477.263	75.0769
480.156	76.2268
483.048	87.9551
485.941	86.5154
488.834	91.9263
491.726	93.3709
494.619	98.8513
497.512	111.143
500.404	97.6694
503.297	102.779
506.19	91.6697
509.082	80.8401
511.975	63.1641
514.868	60.9639
517.761	43.5898
520.653	40.3276
523.546	37.241
526.439	50.1499
529.331	49.4727
532.224	44.9072
535.117	58.7876
538.01	55.9172
540.902	49.4268
543.795	28.3418
546.688	31.7183
549.58	19.3765
552.473	26.0395
555.366	7.44165
558.258	10.5144
561.151	8.81299
564.044	1.76343
566.936	3.62891
569.829	7.35693
572.722	6.53809
575.615	0.133301
578.507	3.15137
581.4	7.81494
584.293	0.138428
587.185	1.97241
590.078	4.12988
592.971	7.88501
595.863	5.69287
598.756	15.4375
601.649	1.62647
604.542	13.1621
607.434	3.33325
610.327	8.52539
613.22	13.5117
616.112	7.01587
619.005	4.39673
621.898	9.03613
624.79	20.0041
627.683	25.2988
630.576	23.1116
633.468	39.2249
636.361	34.4346
639.254	26.9355
642.146	31.415
645.039	37.5442
647.932	53.1082
650.825	79.5837
653.717	87.6133
656.61	103.035
659.503	131.249
662.395	150.509
665.288	166.088
668.181	193.109
671.073	197.937
673.966	165.664
676.859	135.785
679.752	115.731
682.644	96.6255
685.537	77.1602
688.43	78.8408
691.322	92.4758
694.215	111.695
697.108	129.325
700	180.806
702.893	217.543
705.786	278.875
708.679	320.726
711.571	349.282
714.464	331.382
717.357	269.211
720.249	185.087
723.142	118.472
726.035	70.7466
728.928	35.6997
731.82	23.1858
734.713	7.89697
737.606	2.70459
740.498	4.53931
743.391	0.14917
746.284	0.849121
749.176	18.9663
752.069	13.4482
754.962	13.2798
757.855	26.5203
760.747	26.7305
763.64	25.1943
766.533	15.3594
769.425	6.30518
772.318	6.70215
775.211	2.80176
778.103	3.77856
780.996	0.713135
783.889	4.7085
786.782	2.94092
789.674	12.831
792.567	27.5811
795.46	27.2371
798.352	17.7019
801.245	26.4627
804.138	31.3464
807.03	34.0693
809.923	38.3247
812.816	35.1831
815.708	55.3787
818.601	58.3269
821.494	61.9849
824.386	53.8357
827.279	50.4448
830.172	30.5373
833.065	21.7449
835.957	16.6882
838.85	5.30615
841.743	2.8938
844.635	5.37598
847.528	11.6196
850.421	0.036133
853.313	0.991699
856.206	2.08838
859.099	8.34937
861.992	14.0632
864.884	7.24439
867.777	10.248
870.67	17.1858
873.562	23.5356
876.455	28.3723
879.348	23.2932
882.24	25.0488
885.133	32.6411
888.026	15.0469
890.919	12.5591
893.811	19.9138
896.704	6.73267
899.597	4.66675
902.489	5.14356
905.382	12.231
908.275	11.8081
911.168	9.00977
914.06	11.3689
916.953	11.6655
919.846	7.44043
922.738	2.66577
925.631	1.77441
928.524	6.93286
931.416	21.4976
934.309	11.5649
937.202	19.1809
940.095	15.9287
942.987	29.8694
945.88	28.3926
948.773	19.48
951.665	29.9431
954.558	31.1677
957.451	22.9148
960.343	34.3394
963.236	31.6145
966.129	31.3855
969.021	34.9241
971.914	19.9395
974.807	21.2876
977.699	14.4912
980.592	15.5864
983.485	10.5605
986.378	8.65283
989.27	6.21631
992.163	0.381104
995.056	13.4246
997.948	0.701904
1000.84	5.9646
1003.73	1.43677
1006.63	3.03296
1009.52	4.69653
1012.41	5.82422
1015.3	16.7061
1018.2	21.04
1021.09	20.7371
1023.98	27.1072
1026.88	44.7837
1029.77	57.708
1032.66	65.7588
1035.55	80.1599
1038.45	77.6006
1041.34	87.7541
1044.23	104.378
1047.12	116.817
1050.02	108.848
1052.91	113.508
1055.8	122.108
1058.69	136.664
1061.59	156.707
1064.48	155.95
1067.37	163.82
1070.27	153.704
1073.16	143.109
1076.05	118.99
1078.94	111.847
1081.84	102.757
1084.73	85.5259
1087.62	79.7869
1090.52	64.2039
1093.41	71.2034
1096.3	51.5056
1099.19	43.221
1102.09	51.9702
1104.98	54.4919
1107.87	76.3049
1110.76	76.4434
1113.66	53.9724
1116.55	76.4927
1119.44	55.8975
1122.33	44.5679
1125.23	24.8884
1128.12	23.8845
1131.01	2.46655
1133.9	2.36865
1136.8	6.18652
1139.69	3.28149
1142.58	5.47144
1145.48	5.64429
1148.37	3.67163
1151.26	0.211182
1154.15	14.7759
1157.05	3.25244
1159.94	3.21728
1162.83	15.6855
1165.72	2.83423
1168.62	6.96191
1171.51	3.5686
1174.4	12.8235
1177.3	18.1858
1180.19	38.4929
1183.08	9.51538
1185.97	9.55835
1188.87	19.7842
1191.76	32.0476
1194.65	37.6155
1197.55	35.6375
1200.44	26.2307
1203.33	28.6235
1206.22	29.333
1209.12	33.717
1212.01	32.5222
1214.9	36.386
1217.79	29.4021
1220.69	22.5117
1223.58	29.3816
1226.47	28.7583
1229.36	26.6655
1232.26	23.3723
1235.15	24.5779
1238.04	24.3674
1240.93	13.2268
1243.83	14.8403
1246.72	12.2034
1249.61	0.257568
1252.51	0.598877
1255.4	6.17822
1258.29	18.7253
1261.18	22.7983
1264.08	24.1074
1266.97	27.1414
1269.86	11.8015
1272.76	22.0066
1275.65	10.6799
1278.54	10.6289
1281.43	3.89673
1284.33	2.82104
