Measurement: Raman, 780 nm, unoriented, Raman Data Processed
Mineral: Fluorapatite
Rruff sample: R050122
Ideal chemistry: Ca_5_(PO_4_)_3_F
Locality: Cruziero mine, San Jose, Minas Gerais, Brazil
Source: Carlos and Paulo Vasconcelos
Description: Green fragment
Measured chemistry: (Ca_4.99_Mn_0.01_)_Î£=5_(P_1.00_O_4_)_3_F_1.00_; trace amounts of Fe
Raman shift (cm-1)	intensity
114.349	0
117.242	15.5341
120.134	41.7618
123.027	37.7136
125.92	74.8582
128.812	114.832
131.705	172.273
134.598	315.479
137.49	548.137
140.383	551.285
143.276	212.988
146.168	108.743
149.061	74.4845
151.954	99.3188
154.847	146.717
157.739	182.62
160.632	82.505
163.525	65.5303
166.417	28.9747
169.31	58.5561
172.203	37.5352
175.095	15.4308
177.988	21.4997
180.881	8.07159
183.774	8.84424
186.666	36.0024
189.559	15.6923
192.452	26.5706
195.344	44.6358
198.237	41.1691
201.13	60.7647
204.022	42.9939
206.915	77.9495
209.808	74.1843
212.701	105.935
215.593	94.0421
218.486	143.047
221.379	129.67
224.271	142.774
227.164	180.883
230.057	180.631
232.949	174.338
235.842	209.901
238.735	231.636
241.627	195.518
244.52	202.197
247.413	185.216
250.306	192.996
253.198	188.26
256.091	146.661
258.984	103.063
261.876	77.8495
264.769	61.6991
267.662	5.80945
270.555	71.1819
273.447	104.187
276.34	66.7758
279.233	67.6445
282.125	15.6204
285.018	47.3518
287.911	152.276
290.803	200.049
293.696	377.915
296.589	481.406
299.481	620.22
302.374	786.388
305.267	982.508
308.16	1204.42
311.052	1397.72
313.945	1649.72
316.838	1928.33
319.73	2255.72
322.623	2411.85
325.516	2527.53
328.408	2472.1
331.301	2304.66
334.194	2084.04
337.087	1827.18
339.979	1562.18
342.872	1390.06
345.765	1250.29
348.657	1135.63
351.55	1071.99
354.443	1010.69
357.335	1029.12
360.228	970.278
363.121	992.867
366.014	992.264
368.906	928.055
371.799	879.645
374.692	732.64
377.584	601.861
380.477	486.938
383.37	399.117
386.262	301.637
389.155	213.268
392.048	184.363
394.94	151.925
397.833	193.901
400.726	297.522
403.619	307.812
406.511	408.032
409.404	495.15
412.297	511.877
415.189	563.593
418.082	584.416
420.975	590.376
423.868	688.112
426.76	750.665
429.653	837.474
432.546	861.572
435.438	897.12
438.331	806.008
441.224	870.841
444.116	842.192
447.009	778.861
449.902	654.867
452.795	509.896
455.687	367.824
458.58	205.69
461.473	146.082
464.365	69.6655
467.258	31.8105
470.151	20.6841
473.043	4.46753
475.936	20.4945
478.829	43.0293
481.721	40.9081
484.614	54.7585
487.507	43.0549
490.399	22.6271
493.292	22.9051
496.185	37.1932
499.078	21.1444
501.97	16.5812
504.863	47.5677
507.756	74.9228
510.648	87.3734
513.541	103.874
516.434	131.722
519.327	154.474
522.219	189.73
525.112	180.838
528.005	166.476
530.897	198.356
533.79	202.164
536.683	210.647
539.575	191.914
542.468	174.19
545.361	146.464
548.254	151.341
551.146	136.254
554.039	129.124
556.932	122.202
559.824	164.096
562.717	199.383
565.61	228.02
568.502	243.519
571.395	314.108
574.288	397.299
577.181	654.681
580.073	916.054
582.966	608.171
585.859	293.62
588.751	275.189
591.644	316.742
594.537	228.649
597.429	221.51
600.322	207.475
603.215	304.219
606.107	448.603
609	389.985
611.893	239.046
614.786	291.093
617.678	227.766
620.571	118.861
623.464	61.3495
626.356	38.0496
629.249	30.3396
632.142	28.3871
635.034	34.7655
637.927	8.43799
640.82	25.2347
643.712	2.07397
646.605	4.45471
649.498	13.8848
652.391	2.82959
655.283	0.519043
658.176	1.65723
661.069	21.3645
663.961	11.1022
666.854	5.92456
669.747	5.76257
672.639	38.3625
675.532	15.1246
678.425	36.1779
681.318	66.1886
684.21	85.4672
687.103	94.5812
689.996	124.597
692.888	101.717
695.781	143.584
698.674	140.991
701.567	133.109
704.459	138.812
707.352	105.543
710.245	104.476
713.137	105.407
716.03	78.038
718.923	88.4322
721.815	68.3279
724.708	77.7889
727.601	90.9332
730.494	109.493
733.386	122.909
736.279	99.8988
739.172	113.955
742.064	117.97
744.957	119.519
747.85	113.414
750.742	114.11
753.635	85.2788
756.528	81.2147
759.42	67.0915
762.313	79.9263
765.206	96.6819
768.099	82.9532
770.991	99.654
773.884	69.5941
776.777	77.4363
779.669	69.9111
782.562	41.4778
785.455	51.1203
788.347	60.0082
791.24	50.6922
794.133	41.7003
797.025	22.5082
799.918	31.8418
802.811	8.18365
805.704	11.5249
808.596	4.04535
811.489	5.84168
814.382	4.07996
817.274	9.85449
820.167	5.41705
823.06	40.9726
825.952	17.5675
828.845	27.1069
831.738	40.6663
834.631	65.0046
837.523	75.0977
840.416	71.4495
843.309	70.6179
846.201	80.225
849.094	78.7675
851.987	55.3093
854.88	42.5902
857.772	18.7272
860.665	23.746
863.558	21.12
866.45	16.0256
869.343	16.0645
872.236	20.9713
875.128	21.1736
878.021	16.6551
880.914	0.636871
883.807	8.68475
886.699	28.1296
889.592	14.738
892.485	13.2585
895.377	10.044
898.27	2.83765
901.163	2.97122
904.055	17.4276
906.948	32.1672
909.841	27.2904
912.734	30.2043
915.626	57.9822
918.519	73.1446
921.412	44.11
924.304	46.3546
927.197	52.6179
930.09	63.049
932.982	95.2648
935.875	94.0424
938.768	121.135
941.66	167.661
944.553	282.309
947.446	506.471
950.339	1042.75
953.231	1401.15
956.124	2011.58
959.017	3207.54
961.909	6251.93
964.802	7516.05
967.695	2356.32
970.587	712.376
973.48	276.183
976.373	126.538
979.265	77.4677
982.158	40.4137
985.051	13.0614
987.944	7.79627
990.836	14.2414
993.729	17.1084
996.622	24.4613
999.514	12.7524
1002.41	0.784668
1005.3	2.74921
1008.19	17.0699
1011.09	5.79748
1013.98	5.27606
1016.87	20.6885
1019.76	40.1199
1022.66	60.7255
1025.55	134.64
1028.44	243.878
1031.33	352.516
1034.23	221.738
1037.12	116.18
1040.01	111.578
1042.9	126.816
1045.8	116.983
1048.69	141.429
1051.58	164.687
1054.48	222.307
1057.37	335.23
1060.26	300.962
1063.15	166.054
1066.05	134.605
1068.94	95.0671
1071.83	118.157
1074.72	122.219
1077.62	187.826
1080.51	199.444
1083.4	122.736
1086.3	99.397
1089.19	106.538
1092.08	99.7097
1094.97	141.392
1097.87	148.437
1100.76	96.7001
1103.65	123.407
1106.54	181.528
1109.44	171.355
1112.33	200.335
1115.22	143.094
1118.12	212.523
1121.01	263.768
1123.9	266.619
1126.79	297.264
1129.69	402.831
1132.58	475.33
1135.47	596.597
1138.36	685.572
1141.26	670.609
1144.15	537.659
1147.04	322.654
1149.93	194.143
1152.83	128.046
1155.72	0.543701
1158.61	7.07568
1161.51	20.0601
1164.4	25.0256
1167.29	19.7895
1170.18	7.2915
1173.08	35.6101
1175.97	80.3682
1178.86	157.56
1181.75	197.961
1184.65	203.498
1187.54	248.283
1190.43	171.508
1193.33	197.494
1196.22	162.768
1199.11	135.619
1202	82.6269
1204.9	116.16
1207.79	87.291
1210.68	69.4551
1213.57	20.3315
1216.47	32.5625
