Measurement: Raman, 780 nm, unoriented, Raman Data Processed
Mineral: Fluor-liddicoatite
Rruff sample: R060635
Ideal chemistry: Ca(Li_2_Al)Al_6_(Si_6_O_18_)(BO_3_)_3_(OH)_3_F
Locality: unknown
Source: Gemological Institute of America
Description: Rootbeer brown cut gemstone
Measured chemistry: (Li_1.84_Al_1.05_Mn_0.11_)_Σ=3_(Ca_0.82_Na_0.15_[box]_0.03_)_Σ=1_Al_6.00_(BO_3_)_3_[Si_6.00_O_18_]((OH)_3.16_F_0.84_)_Σ=4_
Raman shift (cm-1)	intensity
94.1345	0
97.0272	0.411243
99.9199	0.745758
102.813	1.76449
105.705	1.03098
108.598	0.663509
111.491	0.171513
114.383	1.19524
117.276	0.238255
120.169	0.855438
123.061	3.25309
125.954	4.62471
128.847	7.79362
131.74	11.6252
134.632	16.0928
137.525	20.2105
140.418	25.7583
143.31	32.1094
146.203	37.6134
149.096	41.7197
151.988	38.4153
154.881	32.6108
157.774	21.9575
160.667	13.8108
163.559	5.75005
166.452	0.34771
169.345	1.38063
172.237	0.567394
175.13	0.836494
178.023	2.76512
180.916	2.79866
183.808	0.629456
186.701	0.195831
189.594	3.08392
192.486	8.97432
195.379	15.2335
198.272	26.3519
201.164	33.0817
204.057	39.8219
206.95	44.8328
209.842	45.3337
212.735	48.421
215.628	54.2491
218.52	64.1188
221.413	76.7247
224.306	91.5336
227.199	97.8473
230.091	98.909
232.984	102.686
235.877	108.139
238.769	108.036
241.662	89.9967
244.555	66.5651
247.447	45.1471
250.34	26.6804
253.233	15.2267
256.126	8.1802
259.018	4.02959
261.911	2.45445
264.804	0.629745
267.696	2.28896
270.589	2.08524
273.482	3.4148
276.375	6.44191
279.267	9.07114
282.16	10.8805
285.053	10.4169
287.945	7.50433
290.838	3.22575
293.731	0.135323
296.623	2.47401
299.516	1.42137
302.409	0.431671
305.301	1.77077
308.194	1.88598
311.087	4.87872
313.98	7.38176
316.872	9.96649
319.765	9.62208
322.658	8.25602
325.55	6.94981
328.443	2.80972
331.336	1.24129
334.228	0.487755
337.121	0.432121
340.014	1.26002
342.907	3.85564
345.799	5.94961
348.692	9.33887
351.585	10.7215
354.477	12.0321
357.37	16.8364
360.263	24.636
363.155	38.3789
366.048	56.8579
368.941	86.8627
371.834	131.807
374.726	176.663
377.619	184.306
380.512	155.799
383.404	111.497
386.297	75.2373
389.19	55.2471
392.082	47.2668
394.975	43.3205
397.868	45.5935
400.76	50.6898
403.653	61.9566
406.546	72.5846
409.439	74.7917
412.331	62.1495
415.224	43.2588
418.117	27.2123
421.009	16.7142
423.902	9.85384
426.795	5.51204
429.688	3.50113
432.58	1.88512
435.473	0.343334
438.366	0.347973
441.258	0.767731
444.151	0.666641
447.044	0.370888
449.936	0.201797
452.829	0.016956
455.722	1.3246
458.615	2.1831
461.507	4.24789
464.4	4.61491
467.293	5.41026
470.185	5.1585
473.078	4.65626
475.971	4.92482
478.863	3.49998
481.756	5.56517
484.649	6.09377
487.541	6.92684
490.434	9.23404
493.327	9.94986
496.219	11.8418
499.112	14.2592
502.005	14.5003
504.898	15.9559
507.79	17.2394
510.683	17.8147
513.576	18.1169
516.468	15.7847
519.361	13.6524
522.254	9.54514
525.146	7.54909
528.039	5.9632
530.932	6.05924
533.825	5.48856
536.717	5.25112
539.61	4.6594
542.503	4.73961
545.395	4.50901
548.288	4.12885
551.181	4.0039
554.073	4.5806
556.966	3.03146
559.859	3.03154
562.752	2.16565
565.644	0.306046
568.537	0.487991
571.43	0.457451
574.322	0.591778
577.215	0.684566
580.108	0.605083
583	0.403557
585.893	0.455433
588.786	0.605976
591.679	1.23367
594.571	0.140667
597.464	0.41441
600.357	0.172199
603.249	0.411217
606.142	0.105824
609.035	0.933926
611.928	0.057785
614.82	1.43028
617.713	1.83
620.606	3.34909
623.498	6.78636
626.391	11.3477
629.284	18.6284
632.176	25.2255
635.069	28.0311
637.962	23.9518
640.854	17.3489
643.747	12.0159
646.64	6.83857
649.533	4.75774
652.425	3.35421
655.318	3.7304
658.211	2.7352
661.103	2.71766
663.996	1.94487
666.889	2.47495
669.781	1.94693
672.674	2.18941
675.567	1.76556
678.46	0.182575
681.352	0.781925
684.245	0.797943
687.138	0.17548
690.03	2.69617
692.923	6.00041
695.816	11.0239
698.708	18.7681
701.601	27.0458
704.494	36.5581
707.386	48.0538
710.279	62.0649
713.172	65.9128
716.065	53.895
718.957	35.3082
721.85	23.3718
724.743	18.2766
727.635	16.8844
730.528	16.3803
733.421	20.5239
736.313	24.3928
739.206	24.7817
742.099	21.5737
744.992	15.3531
747.884	11.1483
750.777	8.96822
753.67	9.268
756.562	10.378
759.455	10.6638
762.348	13.3546
765.24	14.6983
768.133	16.6492
771.026	16.6657
773.919	15.762
776.811	13.75
779.704	9.94437
782.597	6.64396
785.489	3.67755
788.382	2.64563
791.275	1.80773
794.167	0.369434
797.06	0.181852
799.953	0.442162
802.846	0.257095
805.738	0.082136
808.631	0.370165
811.524	0.047478
814.416	0.277935
817.309	0.742765
820.202	1.2341
823.094	1.35322
825.987	2.21359
828.88	3.0002
831.773	4.85501
834.665	4.54859
837.558	5.76062
840.451	5.95968
843.343	5.48944
846.236	5.56093
849.129	4.99418
852.021	4.25706
854.914	3.87175
857.807	3.06921
860.699	3.47209
863.592	3.39881
866.485	3.76393
869.378	4.1198
872.27	4.02286
875.163	4.49109
878.056	3.86016
880.948	3.26818
883.841	2.8508
886.734	3.25321
889.626	2.27112
892.519	1.85017
895.412	1.29898
898.305	1.3825
901.197	1.0108
904.09	0.122081
906.983	0.808221
909.875	0.179093
912.768	0.160365
915.661	0.223818
918.553	0.495758
921.446	0.437563
924.339	0.051525
927.232	0.294704
930.124	0.445583
933.017	0.364439
935.91	0.578442
938.802	1.09465
941.695	1.13668
944.588	1.05921
947.481	2.01266
950.373	0.849491
953.266	1.53075
956.159	1.65229
959.051	3.21292
961.944	3.71984
964.837	4.61598
967.729	5.63082
970.622	5.55382
973.515	5.64499
976.407	3.93304
979.3	3.44175
982.193	2.11299
985.086	0.111406
987.978	0.090452
990.871	0.483568
993.764	0.039707
996.656	1.23102
999.549	2.45027
1002.44	3.33891
1005.33	5.46922
1008.23	5.67668
1011.12	6.27865
1014.01	5.71505
1016.9	5.52038
1019.8	5.38369
1022.69	3.33544
1025.58	3.37463
1028.48	2.1194
1031.37	1.71214
1034.26	2.5785
1037.15	3.68124
1040.05	5.64078
1042.94	8.3269
1045.83	9.54903
1048.72	13.116
1051.62	18.6486
1054.51	23.1452
1057.4	27.3296
1060.3	31.1246
1063.19	30.8421
1066.08	28.8184
1068.97	27.0429
1071.87	24.0268
1074.76	24.3469
1077.65	25.2324
1080.55	23.9109
1083.44	26.8569
1086.33	29.102
1089.22	29.3922
1092.12	29.3732
1095.01	29.3972
1097.9	26.8997
1100.79	23.6335
1103.69	19.0579
1106.58	14.0705
1109.47	9.9953
1112.36	5.96654
1115.26	1.88227
1118.15	0.11446
1121.04	0.054394
1123.93	0.09977
1126.83	0.682796
1129.72	0.275936
1132.61	0.775917
1135.51	0.038307
1138.4	1.04135
1141.29	2.32916
1144.18	3.89641
1147.08	4.32192
1149.97	5.39526
1152.86	5.30362
1155.76	3.63998
1158.65	5.14882
1161.54	4.84734
1164.43	4.03035
1167.33	4.07285
1170.22	2.04019
1173.11	0.045563
