Measurement: Raman, 532 nm, unoriented, Raman Data Processed
Mineral: Fluoborite
Rruff sample: R061042
Ideal chemistry: Mg_3_(BO_3_)F_3_
Locality: Kinmount, Ontario, Canada
Source: Royal Ontario Museum
Description: Off white massive bleb, fluorescent under short wave ultraviolet light, embedded in white calcite
Measured chemistry: (Mg_0.99_Fe_0.01_)_Σ=3_(BO_3_)(F_1.96_(OH)_1.04_)_Σ=3_ ;  B assumed by stoichiometry; OH estimated by difference and stoichiometry
Raman shift (cm-1)	intensity
166.054	0
168.946	228.887
171.839	648.307
174.732	980.847
177.625	732.73
180.517	1056.8
183.41	2168.04
186.303	1794.42
189.195	319.076
192.088	144.116
194.981	11.9072
197.874	32.749
200.766	24.6738
203.659	57.3467
206.552	41.1094
209.444	73.0352
212.337	156.066
215.23	279.4
218.122	537.534
221.015	1156.72
223.908	2260.93
226.8	3767.41
229.693	6609.96
232.586	10870.8
235.479	16758.7
238.371	19519.7
241.264	15206
244.157	9976.04
247.049	6643.55
249.942	4629.44
252.835	3496.98
255.727	2816.82
258.62	2428.96
261.513	2459.66
264.406	2389.75
267.298	2395.31
270.191	2307.61
273.084	2270.15
275.976	1987.95
278.869	1735.21
281.762	1382.44
284.655	1043.95
287.547	764.709
290.44	554.243
293.333	436.176
296.225	249.234
299.118	241.86
302.011	261.743
304.904	330.463
307.796	134.932
310.689	132.864
313.582	49.6143
316.474	0.326172
319.367	4.54492
322.26	50.1699
325.152	59.4414
328.045	17.374
330.938	38.0605
333.83	34.625
336.723	31.5137
339.616	143.997
342.509	256.659
345.401	410.867
348.294	551.286
351.187	612.641
354.079	1016.29
356.972	782.41
359.865	387.619
362.757	368.842
365.65	128.375
368.543	98.5352
371.436	199.576
374.328	138.742
377.221	141.537
380.114	71.3477
383.006	303.787
385.899	116.893
388.792	139.715
391.685	112.787
394.577	37.9961
397.47	128.328
400.363	26.9766
403.255	1.21875
406.148	25.8906
409.041	32.8945
411.933	159.672
414.826	103.125
417.719	83.5664
420.611	35.75
423.504	59.9746
426.397	155.383
429.29	194.926
432.182	261.789
435.075	384.334
437.968	510.307
440.86	640.975
443.753	534.646
446.646	535.566
449.538	435.986
452.431	318.881
455.324	196.232
458.217	107.496
461.109	38.3418
464.002	7.08008
466.895	63.7266
469.787	60.4102
472.68	21.1699
475.573	138.185
478.466	21.707
481.358	89.6152
484.251	26.2031
487.144	27.7852
490.036	127.738
492.929	102.254
495.822	91.0547
498.714	141.875
501.607	56.8828
504.5	112.719
507.393	135.512
510.285	196.262
513.178	212.926
516.071	288.363
518.963	406.5
521.856	353.496
524.749	584.949
527.641	440.6
530.534	533.451
533.427	483.897
536.32	592.006
539.212	397.674
542.105	331.035
544.998	342.875
547.89	351.268
550.783	218.93
553.676	152.225
556.568	129.574
559.461	137.096
562.354	131.703
565.247	86.4121
568.139	6.49609
571.032	58.3965
573.925	7.17383
576.817	43.4941
579.71	92.2578
582.603	18.3125
585.495	29.6758
588.388	93.2637
591.281	73.3691
594.174	44.0078
597.066	76.2246
599.959	115.393
602.852	37.5781
605.744	36.9238
608.637	26.5684
611.53	98.9961
614.423	126.881
617.315	127.406
620.208	158.623
623.101	227.879
625.993	172.203
628.886	322.342
631.779	286.32
634.671	498.316
637.564	706.598
640.457	892.023
643.35	901.633
646.242	769.871
649.135	570.731
652.028	464.607
654.92	379.147
657.813	315.592
660.706	157.877
663.598	127.832
666.491	168.248
669.384	150.881
672.277	224.348
675.169	184.055
678.062	191.422
680.955	114.461
683.847	169.072
686.74	24.2109
689.633	120.338
692.525	209.305
695.418	123.637
698.311	187.486
701.204	122.242
704.096	111.598
706.989	180.394
709.882	117.486
712.774	282.812
715.667	163.346
718.56	139.535
721.452	139.394
724.345	319.475
727.238	278.469
730.131	301.832
733.023	391.191
735.916	284.699
738.809	179.865
741.701	57.7559
744.594	29.9453
747.487	47.0801
750.38	79.5195
753.272	27.3145
756.165	108.156
759.058	44.3965
761.95	33.7012
764.843	88.0527
767.736	98.791
770.628	46.7402
773.521	8.28125
776.414	27.7617
779.307	105.68
782.199	33.6973
785.092	5.00586
787.985	207.053
790.877	147.625
793.77	94.0254
796.663	129.285
799.555	80.8398
802.448	309.693
805.341	190.816
808.234	316.393
811.126	318.065
814.019	253.824
816.912	409.143
819.804	417.156
822.697	342.742
825.59	152.996
828.482	222.738
831.375	248.988
834.268	291.758
837.16	313.949
840.053	411.898
842.946	609.832
845.839	647.756
848.731	643.391
851.624	752.154
854.517	761.668
857.409	535.41
860.302	582.18
863.195	229.424
866.087	142.56
868.98	32.3926
871.873	87.4356
874.766	67.1289
877.658	221.748
880.551	0.074219
883.444	95.2168
886.337	10.1523
889.229	162.986
892.122	22.9219
895.015	21.543
897.907	16.873
900.8	25.9434
903.693	119.273
906.585	32.2988
909.478	159.434
912.371	178.504
915.264	231.299
918.156	218.088
921.049	366.539
923.942	333.273
926.834	610.906
929.727	700.648
932.62	1181.26
935.512	1409.81
938.405	2182.09
941.298	3461.79
944.191	6527.84
947.083	12111.2
949.976	20551.5
952.869	31411.3
955.761	36170.4
958.654	19961.3
961.547	7848.29
964.439	3582.9
967.332	1874.36
970.225	1230.1
973.117	788.393
976.01	510.85
978.903	384.533
981.796	483.545
984.688	271.496
987.581	280.592
990.474	131.635
993.366	197.084
996.259	90.7852
999.152	0.990234
1002.04	67.6914
1004.94	19.5605
1007.83	97.7539
1010.72	7.20898
1013.62	109.889
1016.51	97.3809
1019.4	62.5645
1022.29	1.79688
1025.19	33.6133
1028.08	0.605469
1030.97	121.522
1033.86	18.9883
1036.76	129.731
1039.65	20.3164
1042.54	95.959
1045.43	88.6191
1048.33	58.084
1051.22	53.9648
1054.11	127.82
1057.01	87.3301
1059.9	212.264
1062.79	158.865
1065.68	127.285
1068.58	128.9
1071.47	82.7617
1074.36	236.891
1077.26	315.732
1080.15	292.916
1083.04	290.195
1085.93	257.34
1088.83	177.44
1091.72	219.223
1094.61	281.455
1097.5	138.012
1100.4	126.106
1103.29	96.5449
1106.18	69.9629
1109.07	20.7402
1111.97	71.5527
1114.86	42.5312
1117.75	144.924
1120.64	15.6797
1123.54	75.9863
1126.43	164.272
1129.32	74.4121
1132.22	215.709
1135.11	49.9434
1138	70.4785
1140.89	208.879
1143.79	18.3906
1146.68	98.4141
1149.57	256.971
1152.46	146.748
1155.36	226.062
1158.25	75.0039
1161.14	97.0332
1164.04	110.154
1166.93	170.223
1169.82	94.1856
1172.71	104.769
1175.61	15.7324
1178.5	109.908
1181.39	167.973
1184.29	43.2383
1187.18	103.652
1190.07	45.9023
1192.96	182.391
1195.86	134.305
1198.75	38.4375
1201.64	94.7422
1204.53	56.7539
1207.43	69.9375
1210.32	47.332
1213.21	74.1914
1216.1	119.641
1219	138.84
1221.89	190.074
1224.78	53.6641
1227.67	147.242
1230.57	72.8867
1233.46	102.551
1236.35	105.531
1239.25	153.387
1242.14	43.9648
1245.03	95.7266
1247.92	236.305
1250.82	81.582
1253.71	175.359
1256.6	219.387
1259.49	332.816
1262.39	193.301
1265.28	213.769
1268.17	141.984
1271.07	248.137
1273.96	155.969
1276.85	324.266
1279.74	137.301
1282.64	156.414
1285.53	202.625
1288.42	184.379
1291.32	215.387
1294.21	246.109
1297.1	196.082
1299.99	155.898
1302.88	75.3398
1305.78	250.484
1308.67	241.199
1311.56	91.8555
1314.46	20.4141
