Measurement: Raman, 532 nm, unoriented, Raman Data Processed
Mineral: Fluorite
Rruff sample: R060548
Ideal chemistry: CaF_2_
Locality: unknown
Source: Gemological Institute of America
Description: Pale blue fragment
Measured chemistry: Ca_1.00_F_2.00_
Raman shift (cm-1)	intensity
163.466	0
166.359	9.682
169.251	4.057
172.144	44.629
175.037	143.246
177.929	346.752
180.822	563.463
183.715	850.362
186.607	958.434
189.5	1301.27
192.393	1422.83
195.286	1505.34
198.178	1604.41
201.071	1729.81
203.964	1727.94
206.857	1562.88
209.749	1444.77
212.642	1232.26
215.535	949.825
218.427	775.715
221.32	639.307
224.213	508.597
227.105	296.708
229.998	273.772
232.891	99.642
235.783	10.901
238.676	57.188
241.569	55.35
244.462	109.35
247.354	1.699
250.247	81.592
253.14	81.334
256.032	165.066
258.925	213.822
261.818	203.756
264.711	588.377
267.603	674.541
270.496	956.082
273.389	1379.32
276.281	1297.08
279.174	1819.77
282.067	2213.65
284.959	2186.83
287.852	2394.57
290.745	2273.05
293.638	1984.12
296.53	1834.66
299.423	2227.52
302.316	2332.06
305.208	3326.15
308.101	5526.87
310.994	8150.77
313.886	12652.3
316.779	20709.6
319.672	33936.1
322.565	37832.7
325.457	23037.7
328.35	12121.7
331.243	7035.02
334.135	4405.19
337.028	3006.9
339.921	2036.28
342.813	1506.81
345.706	986.365
348.599	658.064
351.491	477.416
354.384	336.281
357.277	170.596
360.17	55.104
363.062	23.855
365.955	28.219
368.848	179.576
371.741	23.508
374.633	146.729
377.526	153.551
380.419	163.211
383.311	206.588
386.204	258.084
389.097	361.25
391.989	536.795
394.882	331.227
397.775	282.062
400.668	288.373
403.56	379.838
406.453	295.742
409.346	554.369
412.238	469.852
415.131	606.309
418.024	615.92
420.916	596.768
423.809	599.625
426.702	401.236
429.595	410.848
432.487	398.16
435.38	473.801
438.273	583.104
441.165	566.602
444.058	552.689
446.951	542.5
449.843	521.65
452.736	319.646
455.629	304.467
458.522	195.627
461.414	173.686
464.307	42.502
467.2	18.555
470.092	63.732
472.985	118.002
475.878	57.561
478.77	70.764
481.663	77.512
484.556	31.723
487.448	190.211
490.341	276.865
493.234	385.846
496.127	558.223
499.019	846.016
501.912	1180.81
504.805	1376.85
507.698	1761.93
510.59	2210.91
513.483	2251.45
516.375	2324.44
519.268	2072.66
522.161	1785.88
525.054	1608.89
527.946	1329.19
530.839	985.447
533.732	735.738
536.625	565.395
539.517	395.686
542.41	293.064
545.303	368.139
548.195	407.541
551.088	311.582
553.981	358.932
556.873	277.543
559.766	366.979
562.659	508.738
565.552	515.617
568.444	639.281
571.337	642.312
574.23	570.486
577.122	262.682
580.015	59.318
582.908	114.918
585.8	49.508
588.693	139.562
591.586	68.865
594.479	60.822
597.371	103.305
600.264	307.639
603.157	301.771
606.049	428.602
608.942	741.859
611.835	862.211
614.727	971.887
617.62	954.27
620.513	994.053
623.406	1268.38
626.298	1380.61
629.191	1276.48
632.084	1232.15
634.976	1352.83
637.869	1603.36
640.762	1738.18
643.654	1558.49
646.547	2043.96
649.44	2414.32
652.333	2876.91
655.225	2744.39
658.118	2223.23
661.011	1935.55
663.903	1560.4
666.796	1310.7
669.689	1126.07
672.581	1051.38
675.474	674.166
678.367	565.146
681.26	437.791
684.152	576.367
687.045	288.463
689.938	244.51
692.83	269.352
695.723	221.18
698.616	232.404
701.508	60.832
704.401	87.367
707.294	56.395
710.187	34.924
713.079	18.775
715.972	110.123
718.865	172.547
721.757	405.193
724.65	496.721
727.543	441.193
730.435	306.471
733.328	405.357
736.221	587.686
739.114	746.336
742.006	720.029
744.899	1059.82
747.792	1201.56
750.684	1072.53
753.577	732.221
756.47	589.551
759.362	530.721
762.255	205.254
765.148	90.391
768.041	110.666
770.933	111.508
773.826	161.121
776.719	49.945
779.612	94.85
782.504	74.23
785.397	35.492
788.29	71.377
791.182	27.605
794.075	69.855
796.968	22.547
799.86	9.307
802.753	56.705
805.646	220.688
808.539	311.652
811.431	318.953
814.324	153.406
817.217	97.607
820.109	300.701
823.002	200.605
825.895	427.52
828.787	500.875
831.68	527.352
834.573	457.771
837.466	302.135
840.358	349.281
843.251	286.086
846.144	307.242
849.036	319.232
851.929	218.537
854.822	188.361
857.714	136.244
860.607	235.777
863.5	353.686
866.393	384.871
869.285	356.381
872.178	357.211
875.071	439.146
877.963	437.826
880.856	252.258
883.749	79.453
886.641	173.377
889.534	163.754
892.427	182.248
895.32	249.768
898.212	390.531
901.105	64.277
903.998	16.314
906.89	81.475
909.783	56.697
912.676	38.301
915.568	183.82
918.461	250.824
921.354	447.824
924.247	680.904
927.139	746.246
930.032	813.365
932.925	942.275
935.817	794.316
938.71	826.926
941.603	655.865
944.495	548.354
947.388	301.125
950.281	591.881
953.174	246.42
956.066	365.914
958.959	420.096
961.852	603.262
964.744	616.09
967.637	450.182
970.53	464.029
973.422	346.357
976.315	230.332
979.208	282.662
982.101	379.006
984.993	180.529
987.886	119.248
990.779	140.408
993.671	17.127
996.564	60.01
999.457	125.748
1002.35	102.586
1005.24	73
1008.13	22.564
1011.03	72.479
1013.92	86.254
1016.81	190.047
1019.71	34.855
1022.6	255.025
1025.49	306.674
1028.38	354.051
1031.28	235.576
1034.17	301.336
1037.06	227.455
1039.95	444.67
1042.85	246.316
1045.74	264.615
1048.63	159.182
1051.53	34.863
1054.42	114.393
1057.31	220.182
1060.2	345.137
1063.1	142.143
1065.99	67.945
1068.88	69.053
1071.77	93.252
1074.67	204.006
1077.56	105.039
1080.45	33.939
1083.35	37.867
1086.24	26.232
1089.13	116.635
1092.02	209.555
1094.92	228.166
1097.81	93.57
1100.7	346.393
1103.59	410.891
1106.49	171.105
1109.38	338.482
1112.27	182.828
1115.16	108.994
1118.06	221.062
1120.95	135.139
1123.84	69.857
1126.74	138.062
1129.63	259.627
1132.52	347.186
1135.41	365.242
1138.31	298.377
1141.2	265.389
1144.09	354.229
1146.98	261.74
1149.88	168.158
1152.77	202.48
1155.66	398.172
1158.56	401.1
1161.45	308.348
1164.34	277.824
1167.23	181.055
1170.13	196.678
1173.02	148.834
1175.91	236.477
1178.8	79.289
1181.7	257.855
1184.59	187.854
1187.48	213.188
1190.38	85.582
1193.27	85.289
1196.16	180.355
1199.05	14.213
1201.95	69.453
1204.84	11.248
1207.73	156.875
1210.62	109.215
1213.52	54.422
1216.41	19.471
1219.3	88.703
1222.19	68.049
1225.09	6.379
1227.98	58.457
1230.87	56.812
1233.77	177.949
1236.66	227.4
1239.55	284.006
1242.44	170.119
1245.34	207.984
1248.23	215.346
1251.12	173.074
1254.02	85.363
1256.91	199.061
1259.8	242.701
1262.69	38.602
1265.59	3.705
1268.48	38.426
1271.37	264.016
1274.26	377.129
1277.16	147.775
1280.05	0.418
