Measurement: Raman, 532 nm, unoriented, Raman Data Processed
Mineral: Fluornatromicrolite
Rruff sample: R130021
Ideal chemistry: (Na,Ca,Bi)_2_Ta_2_O_6_F
Locality: Fisher’s Ledge, Topsham, Maine, USA.
Source: Royal Ontario Museum
Description: Transparent green octahedra on albite
Measured chemistry: (Na_1.01_Ca_0.94_Bi_0.02_Mn_0.01_)_Σ=1.99_(Ta_1.96_Nb_0.02_Sb_0.01_Sn_0.01_)_Σ=2_O_6_[F_0.85_(OH)_0.11_]_Σ=0.96_
Raman shift (cm-1)	intensity
212.301	0
215.194	1.61112
218.087	0.75116
220.98	4.10586
223.872	7.44571
226.765	11.519
229.658	12.3779
232.55	11.8139
235.443	14.8627
238.336	21.7953
241.228	29.7768
244.121	31.8599
247.014	31.1162
249.906	29.9929
252.799	26.0035
255.692	23.1892
258.585	23.4547
261.477	24.0726
264.37	27.807
267.263	33.8042
270.155	42.715
273.048	51.3959
275.941	64.4463
278.834	77.3359
281.726	92.6788
284.619	105.243
287.512	115.117
290.404	132.621
293.297	142.965
296.19	156.076
299.082	163.37
301.975	165.38
304.868	156.5
307.76	141.107
310.653	119.481
313.546	92.2796
316.439	70.7036
319.331	50.0063
322.224	36.9906
325.117	35.2711
328.009	39.1744
330.902	44.4827
333.795	53.971
336.688	64.8821
339.58	70.9196
342.473	69.1049
345.366	57.0984
348.258	45.4605
351.151	33.3688
354.044	24.9976
356.936	15.3086
359.829	9.57352
362.722	5.61853
365.615	1.84436
368.507	0.836182
371.4	1.83713
374.293	1.75702
377.185	0.701752
380.078	1.92111
382.971	0.539185
385.863	0.641266
388.756	0.816925
391.649	0.031586
394.541	1.11984
397.434	0.569977
400.327	0.021912
403.22	2.29657
406.112	3.93131
409.005	2.13034
411.898	4.86578
414.79	4.074
417.683	4.63763
420.576	5.88492
423.469	4.89105
426.361	5.97107
429.254	7.47015
432.147	7.38239
435.039	8.51709
437.932	8.75421
440.825	7.91003
443.717	8.42007
446.61	10.6707
449.503	9.68646
452.396	8.94025
455.288	4.52814
458.181	4.2081
461.074	0.812469
463.966	0.096649
466.859	1.11905
469.752	1.66882
472.644	0.870575
475.537	0.966156
478.43	2.43457
481.322	3.45285
484.215	3.04587
487.108	8.53461
490.001	14.941
492.893	26.5416
495.786	42.6224
498.679	68.9692
501.571	106.278
504.464	156.454
507.357	217.164
510.25	282.009
513.142	313.034
516.035	288.074
518.928	236.382
521.82	188.497
524.713	153.904
527.606	131.733
530.498	116.054
533.391	109.236
536.284	106.036
539.177	103.053
542.069	100.507
544.962	95.4112
547.855	88.8707
550.747	82.6033
553.64	69.8299
556.533	59.4369
559.425	50.2637
562.318	39.5939
565.211	30.5287
568.104	24.2885
570.996	18.2257
573.889	14.3723
576.782	9.39587
579.674	4.58588
582.567	3.02017
585.46	0.92572
588.352	0.557678
591.245	1.87915
594.138	3.71494
597.03	1.7103
599.923	2.45499
602.816	1.57812
605.709	10.1296
608.601	8.86627
611.494	9.03979
614.387	12.837
617.279	17.2772
620.172	20.4227
623.065	21.3933
625.957	20.6098
628.85	19.9439
631.743	24.072
634.636	25.2532
637.528	25.3411
640.421	26.6004
643.314	25.2716
646.206	26.5853
649.099	26.5507
651.992	26.5472
654.885	30.8102
657.777	33.6544
660.67	36.9901
663.563	38.4182
666.455	38.7297
669.348	41.9809
672.241	40.405
675.133	41.444
678.026	39.4718
680.919	37.3045
683.812	39.766
686.704	40.0725
689.597	37.3899
692.49	33.8499
695.382	30.6377
698.275	24.5448
701.168	21.6866
704.06	18.468
706.953	17.5435
709.846	12.7808
712.739	8.94461
715.631	6.01581
718.524	3.48733
721.417	2.9075
724.309	1.33121
727.202	0.629822
730.095	0.638
732.987	0.149475
735.88	0.730804
738.773	1.17545
741.665	2.41025
744.558	0.052246
747.451	0.115234
750.344	0.271912
753.236	1.57126
756.129	2.09161
759.022	2.18442
761.914	2.97409
764.807	5.5144
767.7	5.72922
770.592	7.96396
773.485	8.31516
776.378	12.7966
779.271	14.2927
782.163	15.7985
785.056	17.484
787.949	21.214
790.841	22.8114
793.734	26.2373
796.627	27.1983
799.519	28.9623
802.412	31.2879
805.305	29.661
808.198	30.9041
811.09	29.5598
813.983	29.7307
816.876	28.4457
819.768	28.2306
822.661	25.7889
825.554	25.0294
828.447	18.4688
831.339	16.7992
834.232	15.25
837.125	13.7005
840.017	13.1116
842.91	10.4892
845.803	9.13736
848.695	5.70367
851.588	1.58087
854.481	1.64554
857.374	1.3512
860.266	1.48703
863.159	1.94656
866.052	0.200165
868.944	0.009918
871.837	0.860962
874.73	1.05978
877.622	2.90326
880.515	4.96176
883.408	5.47928
886.301	7.03247
889.193	8.70462
892.086	8.44534
894.979	11.0516
897.871	9.8707
900.764	12.1325
903.657	10.659
906.549	11.7427
909.442	10.536
912.335	10.1839
915.227	11.9139
918.12	11.634
921.013	10.7388
923.906	9.59442
926.798	8.28918
929.691	7.61877
932.584	7.35001
935.476	7.2839
938.369	6.203
941.262	2.47943
944.154	3.0011
947.047	2.40698
949.94	0.281494
952.833	0.363403
955.725	2.40793
958.618	0.471954
961.511	0.67514
964.403	2.59125
967.296	0.191925
970.189	0.307068
973.082	0.095947
975.974	0.398071
978.867	1.57095
981.76	3.45334
984.652	1.52939
987.545	1.01868
990.438	0.271912
993.33	0.570923
996.223	2.09049
999.116	4.47656
1002.01	3.29462
1004.9	4.07742
1007.79	3.65384
1010.69	3.056
1013.58	4.11993
1016.47	3.66925
1019.37	2.84738
1022.26	3.17694
1025.15	1.02032
1028.04	3.7836
1030.94	4.45801
1033.83	2.68066
1036.72	3.22513
1039.61	2.09601
1042.51	2.92447
1045.4	4.54077
1048.29	4.49567
1051.18	2.92361
1054.08	4.33817
1056.97	0.894165
1059.86	3.27963
1062.76	2.31885
1065.65	1.61218
1068.54	1.15607
1071.43	2.5639
1074.33	1.71442
1077.22	1.88119
1080.11	4.207
1083	3.99338
1085.9	3.94492
1088.79	2.69791
1091.68	2.74554
1094.58	3.62787
1097.47	2.25381
1100.36	3.54156
1103.25	3.83643
1106.15	4.98666
1109.04	7.11639
1111.93	7.74164
1114.82	6.67258
1117.72	5.05884
1120.61	3.11197
1123.5	2.67606
1126.39	1.69748
1129.29	1.25632
1132.18	1.40048
1135.07	0.888031
1137.96	0.765045
1140.86	0.497833
1143.75	2.00232
1146.64	1.22382
1149.54	0.795441
1152.43	1.24759
1155.32	0.207947
1158.21	0.31427
1161.11	0.643524
1164	1.10483
1166.89	0.59082
1169.79	1.28
1172.68	0.914032
1175.57	3.12924
1178.46	4.52026
1181.36	4.42691
1184.25	4.96988
1187.14	4.38486
1190.03	2.89392
1192.93	4.05597
1195.82	0.751007
1198.71	2.05924
1201.61	0.761719
1204.5	2.16244
1207.39	0.971619
1210.28	3.68274
1213.18	3.85919
1216.07	2.71399
1218.96	0.751251
1221.85	2.35788
1224.75	4.23126
1227.64	3.98978
1230.53	2.48679
1233.42	2.0878
1236.32	1.45407
1239.21	2.97031
1242.1	2.7113
1244.99	2.46603
1247.89	2.26147
1250.78	2.6376
1253.67	2.22385
1256.57	1.52179
1259.46	3.45941
1262.35	2.69904
1265.24	1.39136
1268.14	1.3801
1271.03	1.80884
1273.92	0.939545
1276.82	1.19253
1279.71	0.245911
1282.6	1.43311
1285.49	0.345703
1288.39	1.98337
1291.28	1.90155
1294.17	1.07523
1297.06	0.937042
1299.96	0.735382
