Measurement: Raman, 785 nm, unoriented, Raman Data Processed
Mineral: Fluoro-potassic-magnesio-arfvedsonite
Rruff sample: R060915
Ideal chemistry: KNa_2_(Mg_4_Fe^3+^)Si_8_O_22_F_2_
Locality: Kipawa, Quebec, Canada
Source: Royal Ontario Museum
Description: Dark blue-green amphibole with pronounced cleavage, associated with white albite and red eudialyte
Measured chemistry: (K_0.44_Na_0.41_[box]_0.15_)_Σ=1_(Na_1.79_Ca_0.21_)_Σ=2_(Mg_3.10_Fe^3+^_0.82_Fe^2+^_0.54_Ca_0.27_Mn_0.15_Al_0.11_Ti_0.01_)_Σ=5_Si_8.00_O_22_(F_1.52_(OH)_0.48_)_Σ=2_
Raman shift (cm-1)	intensity
159.132	0
162.025	5.59741
164.918	95.3513
167.811	237.978
170.703	254.665
173.596	235.005
176.489	139.035
179.381	96.445
182.274	59.1476
185.167	87.1237
188.06	77.3431
190.952	158.277
193.845	180.388
196.738	256.577
199.63	332.264
202.523	315.836
205.416	375.686
208.308	386.099
211.201	402.864
214.094	451.767
216.987	519.521
219.879	621.402
222.772	599.351
225.665	638.554
228.557	606.408
231.45	616.286
234.343	566.293
237.235	536.98
240.128	479.847
243.021	448.216
245.913	417.304
248.806	422.778
251.699	371.606
254.592	331.864
257.484	282.025
260.377	243.575
263.27	152.078
266.162	98.8555
269.055	66.3013
271.948	6.34314
274.841	38.3334
277.733	28.9421
280.626	17.2002
283.519	26.0913
286.411	10.3997
289.304	17.3143
292.197	74.0586
295.089	99.2847
297.982	162.498
300.875	229.118
303.767	255.852
306.66	290.605
309.553	322.545
312.446	324.251
315.338	339.163
318.231	346.384
321.124	404.155
324.016	401.361
326.909	434.842
329.802	424.515
332.695	365.88
335.587	313.096
338.48	304.248
341.373	277.701
344.265	296.236
347.158	319.676
350.051	362.758
352.943	398.478
355.836	469.799
358.729	461.145
361.622	480.411
364.514	476.345
367.407	534.675
370.3	545.891
373.192	578.999
376.085	604.662
378.978	606.064
381.87	546.912
384.763	481.213
387.656	445.804
390.549	375.275
393.441	385.03
396.334	377.643
399.227	373.512
402.119	314.977
405.012	291.982
407.905	262.99
410.798	250.059
413.69	286.028
416.583	287.865
419.476	318.234
422.368	312.608
425.261	288.78
428.154	194.897
431.046	117.368
433.939	69.1228
436.832	66.0128
439.724	21.7986
442.617	9.20508
445.51	31.366
448.403	20.3464
451.295	11.8842
454.188	34.7299
457.081	2.75488
459.973	15.2766
462.866	8.67798
465.759	15.8509
468.651	17.2577
471.544	34.9085
474.437	72.7195
477.33	69.2203
480.222	109.334
483.115	104.366
486.008	89.4978
488.9	46.8038
491.793	49.9789
494.686	47.3558
497.579	92.1699
500.471	130.49
503.364	156.449
506.257	172.72
509.149	190.746
512.042	230.434
514.935	257.935
517.827	292.394
520.72	327.365
523.613	373.154
526.505	436.27
529.398	456.927
532.291	519.839
535.184	564.45
538.076	688.126
540.969	719.816
543.862	701.748
546.754	694.378
549.647	682.57
552.54	699.459
555.433	647.968
558.325	651.798
561.218	653.708
564.111	560.605
567.003	526.286
569.896	466.996
572.789	470.657
575.681	435.922
578.574	398.368
581.467	317.659
584.36	266.516
587.252	221.69
590.145	108.402
593.038	56.9817
595.93	14.4925
598.823	10.7304
601.716	9.95483
604.609	13.1379
607.501	1.50134
610.394	15.0095
613.287	12.2344
616.179	1.38294
619.072	1.8523
621.965	3.72772
624.857	9.9704
627.75	2.875
630.643	6.75964
633.535	42.3604
636.428	34.4998
639.321	54.6672
642.214	43.0812
645.106	76.6884
647.999	92.5521
650.892	99.228
653.784	142.043
656.677	188.982
659.57	266.324
662.462	312.494
665.355	432.538
668.248	587.038
671.141	902.17
674.033	1419.72
676.926	2165.99
679.819	3172.61
682.711	3957.9
685.604	3820.64
688.497	2635.92
691.389	1537.07
694.282	929.657
697.175	593.912
700.068	418.696
702.96	312.449
705.853	223.428
708.746	177.076
711.638	143.556
714.531	130.887
717.424	116.882
720.317	110.948
723.209	104.175
726.102	113.227
728.995	79.6612
731.887	88.0199
734.78	94.8411
737.673	127.91
740.565	102.495
743.458	64.7411
746.351	75.3138
749.244	60.7861
752.136	34.7396
755.029	42.359
757.922	40.2863
760.814	24.2457
763.707	20.3452
766.6	4.28625
769.492	3.46466
772.385	0.779175
775.278	6.48438
778.17	15.5942
781.063	11.6146
783.956	7.32752
786.849	5.35822
789.741	9.05994
792.634	23.8261
795.527	4.24725
798.419	0.700684
801.312	2.4715
804.205	12.5432
807.097	10.8331
809.99	24.1549
812.883	36.3322
815.776	49.5434
818.668	30.6444
821.561	46.3871
824.454	36.2251
827.346	15.0422
830.239	26.9676
833.132	55.155
836.024	8.56555
838.917	36.2175
841.81	25.993
844.703	13.7746
847.595	6.1969
850.488	14.4772
853.381	0.531433
856.273	16.5285
859.166	15.0996
862.059	17.7861
864.952	3.86127
867.844	7.85095
870.737	25.3949
873.63	5.11035
876.522	17.5747
879.415	44.4218
882.308	47.1239
885.2	64.7875
888.093	75.5097
890.986	101.724
893.879	128.732
896.771	153.654
899.664	135.685
902.557	187.194
905.449	153.223
908.342	173.895
911.235	196.16
914.127	197.975
917.02	210.971
919.913	192.218
922.806	202.569
925.698	194.089
928.591	180.067
931.484	187.53
934.376	179.111
937.269	150.361
940.162	122.941
943.054	69.1438
945.947	43.8597
948.84	18.9807
951.732	41.7832
954.625	12.105
957.518	66.9917
960.411	57.4369
963.303	131.88
966.196	124.121
969.089	210.839
971.981	256.024
974.874	291.553
977.767	326.369
980.659	370.278
983.552	362.053
986.445	330.823
989.338	294.353
992.23	245.191
995.123	191.582
998.016	167.501
1000.91	142.791
1003.8	140.222
1006.69	148.939
1009.59	114.751
1012.48	106.427
1015.37	94.5759
1018.26	77.3278
1021.16	30.5129
1024.05	39.9367
1026.94	5.87781
1029.84	6.24085
1032.73	20.2472
1035.62	19.9528
1038.51	1.36462
1041.41	18.3133
1044.3	16.6379
1047.19	1.94019
1050.08	36.4023
1052.98	70.5769
1055.87	41.1937
1058.76	80.6052
1061.65	101.178
1064.55	134.878
1067.44	198.774
1070.33	234.55
1073.23	302.86
1076.12	334.603
1079.01	375.141
1081.9	321.704
1084.8	302.968
1087.69	224.993
1090.58	147.895
1093.47	149.193
1096.37	102.528
1099.26	84.0757
1102.15	79.4862
1105.05	57.3571
1107.94	28.14
1110.83	10.4375
1113.72	31.8823
1116.62	19.9702
1119.51	7.28357
1122.4	13.1963
1125.3	3.49121
1128.19	2.77893
1131.08	10.9243
1133.97	18.6957
1136.87	34.5438
1139.76	33.511
1142.65	38.3229
1145.54	55.0418
1148.44	57.7629
1151.33	63.5823
1154.22	73.62
1157.11	75.2615
1160.01	70.906
1162.9	115.444
1165.79	73.951
1168.68	90.4563
1171.58	105.195
1174.47	125.42
1177.36	128.464
1180.26	155.569
1183.15	138.413
1186.04	130.42
1188.93	153.756
1191.83	130.2
1194.72	100.218
1197.61	112.639
1200.51	97.4652
1203.4	54.254
1206.29	37.4528
1209.18	49.7297
1212.08	40.2794
1214.97	50.6052
1217.86	33.5726
1220.75	4.07483
1223.65	28.5671
1226.54	21.6366
1229.43	49.4293
1232.32	33.1874
1235.22	19.5449
1238.11	42.1969
1241	12.6232
1243.89	58.9686
1246.79	72.0389
1249.68	18.4303
1252.57	34.947
1255.47	2.12524
1258.36	0.115845
