Measurement: Raman, 532 nm, unoriented, Raman Data Processed
Mineral: Fluorcalcioromeite
Rruff sample: R120140
Ideal chemistry: (Ca,Na)_2_Sb^5+^_2_O_6_F
Locality: Starlera mine, Starlera Valley, Ferrera, Hinterrhein district, Grishun, Switzerland
Source: Marcelo Andrade
Description: Brownish-yellow octahedra, associated with hematite, calcite and quartz. Type specimen (Atencio et al (2013))
Measured chemistry: (Ca_1.16_Na_0.56_Fe_0.03_Mn_0.03_)(Sb_1.98_Al_0.01_W_0.01_)_2_O_6_[F_0.62_(OH)_0.35_]
Raman shift (cm-1)	intensity
150.108	0
153.001	3.58479
155.894	7.17145
158.786	8.99918
161.679	2.41662
164.572	1.66526
167.464	0.773602
170.357	6.95988
173.25	22.784
176.143	37.3528
179.035	47.7879
181.928	58.7305
184.821	72.3842
187.713	88.1055
190.606	112.524
193.499	128.952
196.392	129.574
199.284	134.225
202.177	114.856
205.07	106.978
207.962	103.597
210.855	99.5894
213.748	94.5178
216.64	84.7319
219.533	74.7824
222.426	63.5265
225.319	51.9879
228.211	41.4047
231.104	30.9377
233.997	20.7574
236.889	13.7221
239.782	6.99622
242.675	2.78381
245.567	1.4816
248.46	1.19212
251.353	6.24432
254.245	8.45616
257.138	12.3316
260.031	12.6608
262.924	11.5164
265.816	17.1408
268.709	13.3162
271.602	16.2601
274.494	22.5586
277.387	28.133
280.28	34.2853
283.173	40.7584
286.065	49.2736
288.958	58.3063
291.851	64.5572
294.743	73.1124
297.636	80.8343
300.529	81.7013
303.421	83.1435
306.314	79.9351
309.207	65.9636
312.099	52.2856
314.992	40.1974
317.885	29.9105
320.778	21.3058
323.67	15.126
326.563	13.9916
329.456	10.9808
332.348	11.6903
335.241	12.1062
338.134	11.0127
341.027	14.2613
343.919	18.2456
346.812	19.635
349.705	21.2266
352.597	23.3052
355.49	22.1369
358.383	20.8038
361.276	16.0671
364.168	16.1099
367.061	19.6196
369.954	21.6923
372.846	16.3183
375.739	7.54001
378.632	5.19746
381.524	2.08951
384.417	0.846344
387.31	1.07194
390.202	1.35648
393.095	0.756714
395.988	5.52402
398.881	7.22115
401.773	5.2381
404.666	5.09229
407.559	3.29604
410.451	1.879
413.344	3.41092
416.237	8.56297
419.13	0.074051
422.022	0.516235
424.915	0.067581
427.808	1.80827
430.7	2.27231
433.593	2.37068
436.486	4.61
439.378	9.5401
442.271	20.0246
445.164	33.0109
448.057	57.1364
450.949	92.36
453.842	137.122
456.735	196.786
459.627	253.663
462.52	290.079
465.413	302.579
468.305	297.966
471.198	291.33
474.091	284.984
476.983	282.592
479.876	283.693
482.769	301.379
485.662	345.418
488.554	420.054
491.447	546.007
494.34	749.635
497.232	1067.97
500.125	1563.4
503.018	2254.72
505.911	3108.04
508.803	4206.67
511.696	5641.19
514.589	7051.84
517.481	7326.53
520.374	5706.6
523.267	3625.62
526.159	2306.97
529.052	1531.74
531.945	1042.42
534.837	724.746
537.73	494.476
540.623	316.231
543.516	197.231
546.408	122.2
549.301	76.438
552.194	49.4847
555.086	26.0788
557.979	13.1226
560.872	5.41101
563.764	1.51886
566.657	2.42731
569.55	0.525421
572.443	6.18732
575.335	4.13562
578.228	5.57199
581.121	4.3324
584.013	5.33762
586.906	2.0975
589.799	11.614
592.692	3.55972
595.584	0.648239
598.477	2.3392
601.37	2.80173
604.262	4.55658
607.155	5.40982
610.048	6.50961
612.94	3.96869
615.833	6.68196
618.726	7.32828
621.619	6.41013
624.511	7.78435
627.404	6.5311
630.297	6.82045
633.189	6.61197
636.082	6.24776
638.975	6.88661
641.867	6.20151
644.76	7.34322
647.653	6.93182
650.545	8.39905
653.438	7.09766
656.331	7.87871
659.224	7.67076
662.116	7.10405
665.009	5.96004
667.902	6.50385
670.794	4.78726
673.687	4.75653
676.58	5.78618
679.472	5.28178
682.365	6.45367
685.258	3.47345
688.151	3.43597
691.043	2.06523
693.936	0.170471
696.829	0.063461
699.721	2.27911
702.614	3.71286
705.507	1.93451
708.399	0.6008
711.292	1.50551
714.185	5.19325
717.078	6.35059
719.97	7.81247
722.863	10.891
725.756	11.4835
728.648	11.3447
731.541	11.7625
734.434	11.7893
737.327	11.95
740.219	8.72153
743.112	8.91361
746.005	11.7854
748.897	9.57784
751.79	11.0061
754.683	10.8503
757.575	11.6458
760.468	12.4628
763.361	13.1213
766.254	13.7621
769.146	15.3301
772.039	21.207
774.932	34.9071
777.824	50.4488
780.717	69.79
783.61	82.1662
786.502	86.7243
789.395	86.0989
792.288	78.3992
795.181	70.0458
798.073	63.9664
800.966	57.974
803.859	56.7672
806.751	58.2239
809.644	62.9322
812.537	71.8399
815.429	88.0078
818.322	112.8
821.215	144.137
824.107	173.472
827	192.374
829.893	178.607
832.786	143.027
835.678	107.881
838.571	80.7502
841.464	66.1818
844.356	52.7708
847.249	43.2156
850.142	32.8698
853.034	26.614
855.927	18.2739
858.82	11.6118
861.713	6.74005
864.605	2.78487
867.498	0.586212
870.391	0.427353
873.283	2.11874
876.176	2.22493
879.069	1.48853
881.962	1.50871
884.854	0.16185
887.747	0.042816
890.64	1.94368
893.532	4.21971
896.425	6.51523
899.318	9.46962
902.21	11.2179
905.103	13.6178
907.996	15.1082
910.889	17.7806
913.781	19.7307
916.674	20.7878
919.567	23.7057
922.459	22.9852
925.352	22.5343
928.245	22.0611
931.137	18.0104
934.03	15.9711
936.923	12.5552
939.816	8.92627
942.708	8.34105
945.601	6.17416
948.494	4.01076
951.386	1.71382
954.279	1.30003
957.172	1.72436
960.064	0.972656
962.957	1.755
965.85	1.78664
968.742	1.48843
971.635	0.288132
974.528	0.825607
977.421	0.069305
980.313	0.519409
983.206	0.816513
986.099	1.45268
988.991	0.894165
991.884	3.1821
994.777	2.68485
997.669	3.173
1000.56	4.10463
1003.46	4.00763
1006.35	5.09187
1009.24	4.6084
1012.13	4.34941
1015.03	4.70406
1017.92	3.18442
1020.81	4.44324
1023.7	4.51024
1026.6	4.51025
1029.49	5.3179
1032.38	5.41319
1035.28	5.06905
1038.17	4.40398
1041.06	4.16518
1043.95	4.69569
1046.85	5.38155
1049.74	6.25951
1052.63	7.19382
1055.52	6.52718
1058.42	6.40749
1061.31	6.27635
1064.2	6.25996
1067.09	5.22734
1069.99	4.91638
1072.88	3.09724
1075.77	1.92797
1078.66	0.994987
1081.56	0.766182
1084.45	2.25044
1087.34	1.6162
1090.24	0.694443
1093.13	0.288162
1096.02	0.148788
1098.91	0.288338
1101.81	0.234993
1104.7	0.590324
1107.59	0.453865
1110.48	0.823738
1113.38	1.52726
1116.27	2.77857
1119.16	2.33158
1122.06	3.23832
1124.95	4.30606
1127.84	3.48141
1130.73	2.6103
1133.63	3.81979
1136.52	2.95143
1139.41	2.36413
1142.3	3.31435
1145.2	4.31473
1148.09	2.07716
1150.98	2.97917
1153.88	3.62934
1156.77	7.82005
1159.66	1.75431
1162.55	0.992149
1165.45	1.76882
1168.34	2.34982
1171.23	1.16491
1174.12	0.948288
1177.02	1.86978
1179.91	1.93514
1182.8	1.02802
1185.69	1.22713
1188.59	4.39935
1191.48	0.58551
1194.37	0.770996
1197.27	0.380798
1200.16	1.31509
1203.05	0.81308
1205.94	1.59508
1208.84	0.689148
1211.73	0.789406
1214.62	1.38382
1217.52	2.37076
1220.41	0.526314
1223.3	0.315163
1226.19	1.17728
1229.09	0.230072
1231.98	0.377724
1234.87	0.290276
1237.76	0.0065
1240.66	0.537216
1243.55	1.01259
1246.44	2.75507
1249.33	1.61785
1252.23	2.21246
1255.12	2.90882
1258.01	3.07549
1260.9	2.22666
1263.8	2.97916
1266.69	2.24455
1269.58	1.91062
1272.48	1.39698
1275.37	1.83759
1278.26	3.39845
1281.15	3.09142
1284.05	2.24081
1286.94	0.917152
1289.83	0.513893
1292.72	3.09509
1295.62	1.28911
1298.51	0.280998
1301.4	0.40979
