Measurement: Raman, 532 nm, unoriented, Raman Data Processed
Mineral: Fluorapatite
Rruff sample: R050617
Ideal chemistry: Ca_5_(PO_4_)_3_F
Locality: Santa Cruz, Sonora, Mexico
Source: University of Arizona Mineral Museum
Description: Tan colored hexagonal prism
Measured chemistry: Ca_5.00_(P_1.00_O_4_)_3_(F_0.99_Cl_0.01_)
Raman shift (cm-1)	intensity
154.635	0
157.528	39.9607
160.421	16.3491
163.313	15.6587
166.206	51.697
169.099	51.7231
171.991	54.7339
174.884	55.8047
177.777	38.8167
180.669	37.9077
183.562	12.8213
186.455	0.672852
189.347	4.08545
192.24	5.56348
195.133	2.34595
198.025	7.3916
200.918	15.3618
203.811	16.1907
206.704	15.0166
209.596	26.9321
212.489	27.602
215.382	22.6377
218.274	15.4815
221.167	7.56714
224.06	2.28784
226.952	36.3206
229.845	57.9219
232.738	50.918
235.631	51.6824
238.523	37.0645
241.416	15.2439
244.309	11.9878
247.201	10.2007
250.094	2.93897
252.987	5.12549
255.88	5.10205
258.772	20.5525
261.665	49.0796
264.558	91.9915
267.45	105.605
270.343	93.7422
273.236	60.4624
276.128	53.3867
279.021	40.0039
281.914	42.5403
284.807	38.248
287.699	35.7307
290.592	52.4443
293.485	49.6543
296.377	47.9827
299.27	60.2371
302.163	80.0076
305.055	96.0195
307.948	126.083
310.841	141.661
313.733	95.3335
316.626	68.2227
319.519	57.001
322.412	36.175
325.304	23.7637
328.197	1.35693
331.09	10.8706
333.982	23.53
336.875	18.5242
339.768	16.5195
342.661	20.1907
345.553	22.4092
348.446	14.2459
351.339	9.74146
354.231	6.40112
357.124	18.4919
360.017	7.59839
362.909	2.46289
365.802	10.2402
368.695	7.81543
371.587	1.1543
374.48	1.52344
377.373	22.6094
380.266	1.23877
383.158	10.043
386.051	12.3149
388.944	17.3345
391.836	5.97559
394.729	10.5576
397.622	16.1738
400.514	9.46094
403.407	34.5454
406.3	28.2168
409.193	26.1577
412.085	25.7783
414.978	56.9946
417.871	85.8394
420.763	129.251
423.656	151.076
426.549	222.03
429.442	238.967
432.334	241.754
435.227	241.143
438.12	280.805
441.012	342.178
443.905	349.968
446.798	331.147
449.69	263.748
452.583	213.716
455.476	140.104
458.368	89.7241
461.261	46.2192
464.154	47.8594
467.047	35.4346
469.939	26.5386
472.832	39.1333
475.725	22.7139
478.617	24.5107
481.51	30.3438
484.403	28.4731
487.296	20.2192
490.188	22.0068
493.081	19.8633
495.974	39.0601
498.866	19.0855
501.759	39.5234
504.652	32.6777
507.544	19.9731
510.437	17.1455
513.33	11.1123
516.222	9.25781
519.115	0.015137
522.008	18.1694
524.901	15.8574
527.793	2.68701
530.686	1.6709
533.579	17.4629
536.471	14.1943
539.364	13.8359
542.257	10.1963
545.149	5.09326
548.042	8.80322
550.935	7.02344
553.828	7.48584
556.72	15.165
559.613	11.1318
562.506	39.6753
565.398	94.4194
568.291	120.282
571.184	164.393
574.077	225.547
576.969	352.557
579.862	480.661
582.755	342.389
585.647	144.28
588.54	154.625
591.433	163.434
594.325	115.717
597.218	86.8652
600.111	91.0376
603.003	149.257
605.896	192.24
608.789	172.288
611.682	86.3486
614.574	105.34
617.467	63.8477
620.36	22.4819
623.252	10.103
626.145	5.64746
629.038	10.4263
631.93	2.64941
634.823	10.6631
637.716	0.95459
640.609	22.4062
643.501	14.6646
646.394	14.5459
649.287	20.0869
652.179	2.00635
655.072	28.3975
657.965	11.5464
660.857	22.6426
663.75	20.3115
666.643	24.7256
669.535	17.3032
672.428	34.9712
675.321	20.7222
678.214	20.9658
681.106	9.11182
683.999	4.81055
686.892	9.2998
689.784	11.2602
692.677	36.0552
695.57	30.7559
698.462	6.34033
701.355	6.72314
704.248	26.6279
707.141	28.2617
710.033	33.8442
712.926	6.71289
715.819	9.16943
718.711	12.4536
721.604	8.96387
724.497	31.8311
727.389	17.8389
730.282	20.1235
733.175	10.5254
736.068	22.6348
738.96	24.9565
741.853	6.6792
744.746	17.8101
747.638	1.63232
750.531	8.30322
753.424	11.8613
756.317	13.3945
759.209	0.984863
762.102	24.0796
764.995	32.2568
767.887	26.0337
770.78	29.7031
773.673	8.51367
776.565	26.3848
779.458	26.8027
782.351	44.9058
785.244	56.9727
788.136	48.0102
791.029	1.9541
793.922	9.39258
796.814	28.5732
799.707	15.4277
802.6	12.96
805.492	25.209
808.385	13.1655
811.278	41.3198
814.17	25.3516
817.063	6.05225
819.956	23.9302
822.849	21.4453
825.741	10.394
828.634	28.3794
831.527	4.50098
834.419	23.0835
837.312	19.5161
840.205	19.9917
843.097	46.0537
845.99	39.812
848.883	2.06201
851.776	1.27637
854.668	24.0981
857.561	35.2451
860.454	16.0454
863.346	42.0454
866.239	37.8462
869.132	46.749
872.024	46.7842
874.917	20.4209
877.81	2.36768
880.703	9.3169
883.595	29.5908
886.488	24.3145
889.381	4.08154
892.273	13.4028
895.166	6.61182
898.059	20.6841
900.952	37.2153
903.844	27.7432
906.737	24.2441
909.63	1.02881
912.522	5.5874
915.415	0.091309
918.308	21.8213
921.2	4.02881
924.093	8.3291
926.986	1.49512
929.879	7.9751
932.771	11.8926
935.664	18.1489
938.557	14.0547
941.449	41.7427
944.342	83.2852
947.235	152.314
950.127	341.127
953.02	798.76
955.913	1082.62
958.806	1619.77
961.698	3011.97
964.591	4876.29
967.484	2440.33
970.376	594.412
973.269	201.598
976.162	79.5576
979.054	31.8364
981.947	53.8726
984.84	24.0747
987.732	18.9102
990.625	1.46973
993.518	0.678711
996.41	7.63721
999.303	12.2646
1002.2	7.87109
1005.09	3.34668
1007.98	23.0347
1010.87	6.21875
1013.77	31.4194
1016.66	26.853
1019.55	52.335
1022.45	97.5039
1025.34	160.903
1028.23	170.284
1031.12	232.085
1034.02	333.919
1036.91	245.909
1039.8	159.955
1042.69	161.09
1045.59	138.75
1048.48	159.725
1051.37	189.112
1054.27	164.648
1057.16	228.534
1060.05	276.612
1062.94	133.748
1065.84	56.6914
1068.73	36.6084
1071.62	47.1426
1074.51	54.9648
1077.41	84.3916
1080.3	135.711
1083.19	85.5762
1086.08	41.2471
1088.98	23.2119
1091.87	11.6143
1094.76	34.2637
1097.65	15.3174
1100.55	1.26465
1103.44	17.8545
1106.33	9.83789
1109.23	28.9854
1112.12	54.2559
1115.01	31.6865
1117.9	31.2051
1120.8	55.9795
1123.69	67.2598
1126.58	58.5381
1129.47	96.3857
1132.37	101.141
1135.26	92.5352
1138.15	95.5732
1141.05	111.162
1143.94	112.901
1146.83	113.224
1149.72	123.115
1152.62	110.909
1155.51	120.053
1158.4	95.6924
1161.29	74.5625
1164.19	81.0508
1167.08	78.9199
1169.97	67.1318
1172.87	45.1748
1175.76	34.7471
1178.65	34.794
1181.54	41.082
1184.44	22.6797
1187.33	0.148438
1190.22	25.8906
1193.11	9.2793
1196.01	40.3438
1198.9	28.1406
1201.79	18.3418
1204.68	1.56934
1207.58	18.1055
1210.47	4.39356
1213.36	6.90625
1216.26	42.0859
1219.15	68.1592
1222.04	53.7051
1224.93	36.1914
1227.83	29.2637
1230.72	15.3154
1233.61	24.4131
1236.51	25.8193
1239.4	3.36816
1242.29	10.8291
1245.18	24.7803
1248.08	19.7891
1250.97	50.0762
1253.86	21.9082
1256.75	26.5156
1259.65	4.68359
1262.54	14.0752
1265.43	41.9902
1268.32	46.7627
1271.22	46.0742
1274.11	26.8652
1277	0.158203
1279.89	40.4248
1282.79	38.6885
1285.68	59.4307
1288.57	50.8203
1291.47	13.3662
1294.36	6.63867
1297.25	8.99316
