Measurement: Raman, 780 nm, unoriented, Raman Data Processed
Mineral: Fluorcalciomicrolite
Rruff sample: R120127
Ideal chemistry: (Ca,Na)_2_Ta_2_(O,OH)_6_F
Locality: Volta Grande pegmatites (Volta Grande mine), Nazareno, Minas Gerais, Brazil
Source: Marcelo Barbosa de Andrade
Description: Colorless octahedra
Measured chemistry: (Ca_1.05_Na_0.83_)(Ta_1.83_Nb_0.14_Sn_0.03_)O_6_[F_0.83_(OH)_0.07_]
Raman shift (cm-1)	intensity
109.038	0
112.413	5.14764
115.787	18.5149
119.162	23.2967
122.537	26.2866
125.912	24.9341
129.287	15.3163
132.662	1.91809
136.036	1.06604
139.411	5.57306
142.786	17.0872
146.161	20.5551
149.536	28.2112
152.911	36.8505
156.285	44.2382
159.66	46.6078
163.035	39.2221
166.41	30.5377
169.785	26.2667
173.159	27.6581
176.534	29.4872
179.909	26.9221
183.284	24.6612
186.659	20.193
190.033	20.6495
193.408	25.3171
196.783	29.847
200.158	37.6284
203.533	43.9448
206.907	41.8829
210.282	20.0402
213.657	4.34302
217.032	12.3283
220.407	8.12775
223.782	4.94434
227.156	0.767334
230.531	13.4717
233.906	26.4192
237.281	44.5873
240.656	63.7024
244.03	75.4968
247.405	85.3049
250.78	90.7619
254.155	87.7244
257.53	90.8733
260.904	92.3257
264.279	113.282
267.654	140.89
271.029	176.104
274.404	219.685
277.779	273.923
281.153	336.509
284.528	383.088
287.903	431.978
291.278	479.077
294.653	523.436
298.027	551.95
301.402	560.957
304.777	536.622
308.152	473.904
311.527	386.04
314.902	300.028
318.276	225.856
321.651	193.24
325.026	186.984
328.401	215.506
331.776	270.156
335.151	332.202
338.525	358.057
341.9	321.992
345.275	255.841
348.65	187.201
352.024	125.419
355.399	82.6883
358.774	55.5033
362.149	36.7532
365.524	17.7371
368.899	8.17151
372.273	0.28775
375.648	5.16998
379.023	3.6792
382.398	0.644104
385.773	4.68167
389.147	4.56433
392.522	4.40869
395.897	0.007385
399.272	1.74515
402.647	3.98453
406.022	8.84937
409.396	12.5724
412.771	13.6519
416.146	20.3616
419.521	28.1238
422.896	29.8298
426.27	34.8186
429.645	36.0717
433.02	34.5752
436.395	38.709
439.77	39.2597
443.144	43.0284
446.519	40.8172
449.894	37.4935
453.269	33.2861
456.644	24.1174
460.019	15.8731
463.393	5.42331
466.768	0.264099
470.143	1.49307
473.518	3.54172
476.893	3.29889
480.267	1.62485
483.642	9.89447
487.017	22.5147
490.392	47.5014
493.767	91.5438
497.142	168.889
500.516	285.798
503.891	468.596
507.266	683.88
510.641	861.94
514.016	873.576
517.39	730.517
520.765	567.172
524.14	454.476
527.515	381.698
530.89	339.308
534.264	311.216
537.639	295.866
541.014	284.852
544.389	271.713
547.764	244.316
551.139	210.866
554.513	177.722
557.888	140.511
561.263	105.253
564.638	85.2565
568.013	58.8674
571.388	39.3762
574.762	23.4477
578.137	11.4407
581.512	3.96735
584.887	2.28982
588.261	5.35617
591.636	6.07812
595.011	1.33865
598.386	3.54385
601.761	14.1588
605.136	24.2567
608.51	36.9625
611.885	45.7322
615.26	53.8852
618.635	60.5849
622.01	69.406
625.385	74.1108
628.759	77.1602
632.134	78.0297
635.509	82.6322
638.884	86.4481
642.259	88.5341
645.633	93.9593
649.008	100.659
652.383	107.037
655.758	114.747
659.133	117.659
662.507	124.93
665.882	122.282
669.257	122.009
672.632	123.858
676.007	123.921
679.381	117.514
682.756	114.143
686.131	106.466
689.506	96.645
692.881	84.9964
696.256	73.6935
699.63	61.7411
703.005	45.5212
706.38	37.4634
709.755	27.6986
713.13	19.2676
716.505	10.7707
719.879	7.66583
723.254	1.62283
726.629	1.9328
730.004	1.08389
733.379	3.71901
736.753	2.92569
740.128	3.98497
743.503	0.552872
746.878	1.33615
750.253	4.40277
753.627	7.17194
757.002	10.4821
760.377	15.31
763.752	18.476
767.127	26.0443
770.501	30.906
773.876	39.4468
777.251	45.3929
780.626	49.6247
784.001	57.7469
787.376	64.0066
790.75	66.1515
794.125	70.6954
797.5	74.9892
800.875	75.6458
804.25	72.3312
807.625	71.295
810.999	63.7669
814.374	56.0262
817.749	48.839
821.124	43.1315
824.499	38.975
827.873	29.9575
831.248	26.0252
834.623	21.6945
837.998	16.7252
841.373	11.1867
844.747	7.67046
848.122	4.00423
851.497	1.9519
854.872	1.42188
858.247	0.434464
861.621	1.15482
864.996	3.24713
868.371	5.3349
871.746	7.13272
875.121	13.0496
878.495	15.3452
881.87	19.8565
885.245	21.8669
888.62	28.2545
891.995	29.7315
895.37	28.7355
898.744	31.3768
902.119	31.4237
905.494	30.3553
908.869	29.6426
912.244	26.9085
915.619	25.921
918.993	25.2701
922.368	23.3166
925.743	19.9579
929.118	17.2133
932.493	14.1645
935.867	10.1355
939.242	7.10255
942.617	5.73349
945.992	3.74471
949.367	2.23718
952.741	0.619812
956.116	0.016388
959.491	1.03558
962.866	0.375229
966.241	0.749283
969.615	0.108299
972.99	1.12782
976.365	0.391647
979.74	0.083199
983.115	2.04186
986.49	2.12457
989.864	2.86326
993.239	4.99252
996.614	5.67337
999.989	6.69976
1003.36	7.37724
1006.74	8.39742
1010.11	9.37431
1013.49	11.7937
1016.86	12.5929
1020.24	11.9604
1023.61	13.0702
1026.99	13.7351
1030.36	13.5445
1033.74	13.7212
1037.11	13.5343
1040.49	15.189
1043.86	14.4973
1047.24	14.7479
1050.61	15.9366
1053.99	16.1701
1057.36	16.8094
1060.74	17.7339
1064.11	16.7473
1067.48	15.4119
1070.86	14.2758
1074.23	14.591
1077.61	12.8088
1080.98	8.49628
1084.36	8.11783
1087.73	5.03024
1091.11	4.47551
1094.48	1.618
1097.86	1.00901
1101.23	1.93776
1104.61	0.374481
1107.98	0.878059
1111.36	0.165504
1114.73	1.51699
1118.11	3.41007
1121.48	4.8029
1124.86	8.07501
1128.23	8.9369
1131.61	12.3215
1134.98	13.3422
1138.36	13.7718
1141.73	14.0132
1145.11	15.0252
1148.48	14.881
1151.86	13.8718
1155.23	13.4967
1158.61	10.6621
1161.98	7.16785
1165.36	5.10239
1168.73	3.30812
1172.1	0.227051
1175.48	1.9397
1178.85	0.061951
1182.23	0.756927
1185.6	0.842804
1188.98	0.677597
1192.35	1.31848
1195.73	2.98862
1199.1	6.18213
1202.48	6.86908
1205.85	11.0537
1209.23	13.1514
1212.6	19.5123
1215.98	23.6534
1219.35	27.6914
1222.73	31.1923
1226.1	33.8197
1229.48	34.896
1232.85	31.5434
1236.23	30.8985
1239.6	27.4469
1242.97	23.227
1246.35	18.4185
1249.72	16.0233
1253.1	11.6867
1256.47	7.66019
1259.85	3.33867
1263.22	2.44319
1266.6	1.15445
1269.97	0.603897
1273.35	1.74512
1276.72	0.335724
1280.1	0.699631
1283.47	0.430908
