Measurement: Raman, 780 nm, unoriented, Raman Data Processed
Mineral: Fluorapatite
Rruff sample: R060070
Ideal chemistry: Ca_5_(PO_4_)_3_F
Locality: Panasqueira, Portugal
Source: Dave Bunk
Description: Green hexagonal tablet
Measured chemistry: (Ca_0.99_Mn_0.01_)_5_(P_1.00_O_4_)_3_F_1.00_
Raman shift (cm-1)	intensity
98.8707	0
101.763	2.19289
104.656	2.94673
107.549	3.9812
110.442	8.16325
113.334	4.10764
116.227	0.041016
119.12	0.885925
122.012	0.205048
124.905	1.1138
127.798	4.64487
130.69	13.8556
133.583	28.9582
136.476	27.0922
139.369	29.1064
142.261	19.1203
145.154	12.9321
148.047	14.9257
150.939	15.0994
153.832	18.9632
156.725	22.1059
159.617	26.5734
162.51	20.3091
165.403	17.7128
168.296	18.9232
171.188	19.0947
174.081	15.1382
176.974	22.7701
179.866	27.9244
182.759	30.6147
185.652	23.5604
188.544	12.2953
191.437	7.11365
194.33	8.15036
197.222	11.9175
200.115	17.0202
203.008	23.877
205.901	37.3986
208.793	60.3038
211.686	72.0874
214.579	66.9678
217.471	61.1174
220.364	65.2573
223.257	80.7508
226.149	98.6026
229.042	117.423
231.935	133.721
234.828	137.513
237.72	134.643
240.613	127.574
243.506	125.504
246.398	117.014
249.291	103.913
252.184	84.1613
255.077	64.9757
257.969	44.9905
260.862	26.0345
263.755	19.8172
266.647	13.2465
269.54	5.9812
272.433	4.70471
275.325	9.93646
278.218	9.98035
281.111	2.29901
284.003	11.2178
286.896	21.2991
289.789	35.078
292.682	49.6927
295.574	60.5054
298.467	84.2398
301.36	111.561
304.252	144.045
307.145	182.103
310.038	224.498
312.93	266.565
315.823	308.813
318.716	344.799
321.609	376.986
324.501	393.557
327.394	389.242
330.287	362.654
333.179	327.406
336.072	283.025
338.965	240.32
341.858	199.52
344.75	167.586
347.643	135.455
350.536	113.925
353.428	92.5582
356.321	75.9283
359.214	64.7693
362.106	54.5046
364.999	43.9547
367.892	35.1086
370.784	30.3261
373.677	25.4888
376.57	16.8453
379.463	10.0475
382.355	6.7561
385.248	4.81195
388.141	2.71295
391.033	4.06226
393.926	0.845459
396.819	1.65009
399.712	9.70429
402.604	18.1513
405.497	27.0851
408.39	46.2727
411.282	62.8525
414.175	87.0651
417.068	117.98
419.96	156.367
422.853	212.533
425.746	288.526
428.639	356.965
431.531	359.539
434.424	272.281
437.317	189.507
440.209	145.641
443.102	124.102
445.995	112.686
448.887	100.448
451.78	82.6636
454.673	63.2949
457.565	45.9163
460.458	28.06
463.351	19.2192
466.243	15.868
469.136	8.72968
472.029	6.34485
474.922	3.64203
477.814	2.05609
480.707	4.68036
483.6	0.210266
486.492	2.24597
489.385	1.6814
492.278	0.055176
495.171	1.08203
498.063	1.9982
500.956	0.618652
503.849	0.23172
506.741	0.480438
509.634	0.295105
512.527	1.92273
515.419	0.808746
518.312	1.25616
521.205	3.49191
524.097	4.69421
526.99	5.23016
529.883	6.36777
532.776	6.30881
535.668	10.0741
538.561	13.0774
541.454	9.71259
544.346	12.2171
547.239	17.7654
550.132	19.2791
553.024	22.9988
555.917	26.7295
558.81	29.7172
561.703	32.8229
564.595	35.0823
567.488	39.2652
570.381	43.66
573.273	55.2863
576.166	76.483
579.059	107.306
581.952	123.027
584.844	119.648
587.737	187.067
590.63	272.987
593.522	178.346
596.415	76.0274
599.308	58.606
602.2	70.6865
605.093	114.811
607.986	105.052
610.879	39.2654
613.771	24.6894
616.664	19.9747
619.557	7.84857
622.449	3.39145
625.342	0.417328
628.235	1.77564
631.127	1.66363
634.02	1.68158
636.913	0.568756
639.806	6.60168
642.698	5.89221
645.591	3.45538
648.484	6.22116
651.376	9.59033
654.269	8.24417
657.162	9.50195
660.054	10.4422
662.947	11.7864
665.84	14.0565
668.732	12.8489
671.625	14.9192
674.518	16.0555
677.411	12.4129
680.303	14.1816
683.196	16.1237
686.089	14.0689
688.981	12.9666
691.874	12.8522
694.767	14.991
697.659	15.1242
700.552	10.657
703.445	9.43399
706.338	5.75558
709.23	4.25467
712.123	3.12826
715.016	2.70071
717.908	0.81723
720.801	1.8057
723.694	0.143951
726.587	2.86017
729.479	5.46021
732.372	4.83673
735.265	9.12299
738.157	11.5103
741.05	14.3375
743.943	15.5298
746.835	17.26
749.728	19.0055
752.621	22.3664
755.514	22.8617
758.406	18.8377
761.299	16.7525
764.192	16.602
767.084	16.2247
769.977	13.5734
772.87	12.6873
775.763	11.1066
778.655	8.20239
781.548	8.89755
784.441	5.29593
787.333	5.46539
790.226	3.94046
793.119	2.35465
796.011	1.24405
798.904	0.11441
801.797	2.03537
804.689	2.74676
807.582	0.502991
810.475	3.84049
813.368	0.858948
816.26	2.34479
819.153	6.57785
822.046	8.44058
824.938	7.93036
827.831	11.1962
830.724	10.8626
833.616	12.7947
836.509	11.7718
839.402	11.7113
842.294	9.92267
845.187	13.8059
848.08	12.8066
850.973	12.3221
853.865	14.5361
856.758	14.83
859.651	14.3329
862.543	10.1335
865.436	13.0212
868.329	9.22482
871.221	10.0929
874.114	8.3913
877.007	8.4946
879.9	4.21549
882.792	3.73578
885.685	4.2706
888.578	2.63345
891.47	0.098267
894.363	3.03052
897.256	2.21036
900.149	0.126923
903.041	1.57291
905.934	0.682861
908.827	0.356903
911.719	0.561829
914.612	0.558014
917.505	1.39432
920.397	3.06458
923.29	4.03244
926.183	6.04062
929.076	8.27692
931.968	11.6803
934.861	16.2768
937.754	21.0708
940.646	29.8896
943.539	44.6919
946.432	73.8676
949.324	129.306
952.217	244.983
955.11	348.772
958.003	566.656
960.895	988.72
963.788	1921.55
966.681	1571.92
969.573	452.827
972.466	155.017
975.359	66.0635
978.251	36.0417
981.144	25.6364
984.037	19.304
986.929	14.5475
989.822	11.5259
992.715	9.93158
995.608	9.2771
998.5	2.19806
1001.39	1.66516
1004.29	4.30115
1007.18	0.169922
1010.07	2.79858
1012.96	9.05432
1015.86	6.42303
1018.75	10.274
1021.64	7.4997
1024.54	10.8446
1027.43	14.0767
1030.32	25.2462
1033.21	45.0148
1036.11	58.4325
1039	71.0844
1041.89	123.162
1044.78	92.5168
1047.68	79.6215
1050.57	122.927
1053.46	192.599
1056.35	98.5163
1059.25	50.9407
1062.14	32.1493
1065.03	7.5675
1067.92	3.57843
1070.82	1.34314
1073.71	4.63635
1076.6	24.2274
1079.5	66.9365
1082.39	82.0988
1085.28	34.9794
1088.17	20.6104
1091.07	14.7398
1093.96	13.4499
1096.85	14.8525
1099.74	5.46851
1102.64	2.47607
1105.53	17.0261
1108.42	10.252
1111.32	11.1521
1114.21	9.42273
1117.1	7.328
1119.99	4.25146
1122.89	5.82202
1125.78	0.036255
