Measurement: Raman, 532 nm, unoriented, Raman Data Processed
Mineral: Fluorapatite
Rruff sample: R050369
Ideal chemistry: Ca_5_(PO_4_)_3_F
Locality: Russia
Source: Eugene Schlepp
Description: Blueish-green hexagonal prismatic crystal
Measured chemistry: (Ca_0.99_Na_0.01_)_5_((P_0.98_S_0.02_)O_4_)_3_F_1.00_
Raman shift (cm-1)	intensity
130.923	0
133.816	184.216
136.708	190.32
139.601	254.143
142.494	139.192
145.386	27.1631
148.279	17.9019
151.172	0.368896
154.065	32.8818
156.957	82.5393
159.85	92.4058
162.743	63.1799
165.635	65.7495
168.528	74.6831
171.421	87.3914
174.313	102.482
177.206	119.362
180.099	158.456
182.992	148.828
185.884	68.5967
188.777	26.4612
191.67	18.6628
194.562	55.3479
197.455	85.3862
200.348	143.503
203.24	210.456
206.133	306.234
209.026	422
211.918	405.325
214.811	318.99
217.704	209.288
220.596	145.669
223.489	128.047
226.382	146.587
229.275	177.802
232.167	190.315
235.06	155.563
237.953	74.5708
240.845	60.832
243.738	8.08398
246.631	22.2214
249.524	16.3262
252.416	8.84644
255.309	12.0713
258.202	36.3513
261.094	89.1609
263.987	119.86
266.88	196.8
269.772	205.933
272.665	226.389
275.558	284.423
278.451	342.77
281.343	391.587
284.236	434.485
287.129	423.281
290.021	411.668
292.914	390.651
295.807	369.024
298.7	364.025
301.592	353.106
304.485	348.907
307.378	297.22
310.27	246.773
313.163	179.803
316.056	156.086
318.948	110.205
321.841	75.3115
324.734	66.9875
327.627	26.7971
330.519	34.6155
333.412	24.1038
336.305	31.5186
339.197	19.0632
342.09	3.47119
344.983	3.56152
347.875	8.22461
350.768	0.408691
353.661	15.5894
356.553	7.29248
359.446	21.1665
362.339	9.06982
365.231	1.33252
368.124	1.04785
371.017	13.1587
373.91	2.1499
376.802	18.8115
379.695	34.8799
382.588	52.9097
385.48	53.7847
388.373	65.7109
391.266	79.4204
394.159	79.7446
397.051	67.4648
399.944	104.526
402.837	130.155
405.729	172.319
408.622	242.168
411.515	362.181
414.407	528.702
417.3	742.552
420.193	978.815
423.086	1325.69
425.978	1751.89
428.871	2108.34
431.764	2048.37
434.656	1502.11
437.549	1083.54
440.442	870.985
443.334	824.235
446.227	829.507
449.12	803.894
452.012	730.178
454.905	594.99
457.798	435.194
460.691	336.336
463.583	241.641
466.476	186.682
469.369	130.169
472.261	112.257
475.154	84.0952
478.047	51.6885
480.94	59.7622
483.832	45.8862
486.725	39.2637
489.618	17.897
492.51	11.3193
495.403	11.877
498.296	20.7744
501.188	13.688
504.081	21.4917
506.974	9.93115
509.866	11.4219
512.759	13.9331
515.652	18.686
518.545	9.14941
521.437	14.2041
524.33	16.5249
527.223	23.1948
530.115	2.76807
533.008	1.45801
535.901	3.81348
538.794	3.78467
541.686	6.05957
544.579	4.78076
547.472	3.05322
550.364	4.67334
553.257	31.4805
556.15	30.7725
559.043	67.8833
561.935	94.8359
564.828	121.762
567.721	160.3
570.613	250.849
573.506	410.162
576.399	695.653
579.291	999.193
582.184	1285.34
585.077	1512.76
587.969	2035.86
590.862	2492.91
593.755	1718.37
596.648	905.026
599.54	706.555
602.433	766.893
605.326	959.981
608.218	876.919
611.111	435.444
614.004	261.979
616.896	189.975
619.789	135.177
622.682	66.6318
625.574	65.478
628.467	63.4941
631.36	49.4199
634.253	19.4253
637.145	12.2495
640.038	6.10547
642.931	14.3398
645.823	3.79053
648.716	3.77295
651.609	18.5298
654.501	5.73096
657.394	8.39648
660.287	20.2993
663.18	51.8032
666.072	45.9102
668.965	35.4902
671.858	39.5029
674.75	35.7427
677.643	59.9248
680.536	38.4399
683.428	67.5586
686.321	57.7793
689.214	47.4243
692.107	54.1113
694.999	56.8931
697.892	42.9766
700.785	36.4009
703.677	40.125
706.57	35.4702
709.463	15.4355
712.356	25.7227
715.248	12.877
718.141	17.2993
721.034	8.15869
723.926	19.1226
726.819	13.5518
729.712	16.7105
732.604	2.42383
735.497	5.95898
738.39	4.96045
741.283	31.9277
744.175	10.4155
747.068	11.9771
749.961	18.3735
752.853	12.7695
755.746	13.6553
758.639	15.187
761.531	31.4473
764.424	27.3794
767.317	38.6382
770.21	52.3262
773.102	43.375
775.995	36.1103
778.888	21.249
781.78	27.1636
784.673	13.5293
787.566	47.6045
790.458	37.8345
793.351	28.9936
796.244	40.3989
799.136	22.1436
802.029	30.6274
804.922	15.6387
807.815	22.2026
810.707	25.7837
813.6	7.85986
816.493	9.44678
819.385	14.9458
822.278	2.2085
825.171	5.30811
828.063	6.9165
830.956	6.41699
833.849	3.7544
836.742	17.7612
839.634	18.106
842.527	25.7378
845.42	5.84326
848.312	4.42773
851.205	17.0561
854.098	33.0059
856.99	32.6079
859.883	39.5366
862.776	35.5185
865.669	76.9771
868.561	72.5547
871.454	82.3008
874.347	51.9482
877.239	28.1431
880.132	15.3511
883.025	25.6128
885.918	28.2681
888.81	18.4854
891.703	22.3252
894.596	2.97022
897.488	2.90869
900.381	4.57666
903.274	4.89648
906.166	26.6572
909.059	1.41455
911.952	17.7202
914.845	5.17969
917.737	6.63965
920.63	25.9395
923.523	15.3013
926.415	45.2705
929.308	50.6812
932.201	84.7822
935.093	96.4419
937.986	174.08
940.879	252.093
943.771	427.183
946.664	800.864
949.557	1570.97
952.45	3245.84
955.342	5293.99
958.235	8257.2
961.128	13774.5
964.02	20016.7
966.913	13005.6
969.806	4652.09
972.698	1785.35
975.591	729.487
978.484	318.644
981.377	152.775
984.269	56.3574
987.162	17.0186
990.055	10.6035
992.947	21.9839
995.84	7.24072
998.733	4.38818
1001.63	50.0542
1004.52	153.436
1007.41	273.845
1010.3	328.139
1013.2	211.92
1016.09	128.688
1018.98	122.418
1021.87	139.262
1024.77	207.006
1027.66	322.673
1030.55	462.632
1033.44	612.915
1036.34	786.365
1039.23	1076.27
1042.12	1407.59
1045.02	1478.05
1047.91	1808.05
1050.8	2529.27
1053.69	2481.3
1056.59	1416.67
1059.48	870.326
1062.37	600.12
1065.27	487.494
1068.16	451.161
1071.05	555.554
1073.94	679.035
1076.84	923.677
1079.73	1128.84
1082.62	799.094
1085.51	510.426
1088.41	338.566
1091.3	232.022
1094.19	163.357
1097.09	108.948
1099.98	49.335
1102.87	27.8765
1105.76	10.6299
1108.65	13.6406
1111.55	14.2427
1114.44	9.7041
1117.33	2.72412
1120.23	7.02637
1123.12	1.91064
1126.01	2.86523
1128.9	33.1294
1131.8	35.3062
1134.69	52.7158
1137.58	52.8994
1140.47	46.5957
1143.37	61.3794
1146.26	48.898
1149.15	69.2524
1152.05	37.144
1154.94	53.5547
1157.83	54.8965
1160.72	78.4302
1163.62	56.6782
1166.51	81.0059
1169.4	69.1206
1172.3	53.7964
1175.19	30.7261
1178.08	28.3467
1180.97	23.2656
1183.87	9.51465
1186.76	0.391602
1189.65	39.1616
1192.54	36.8159
1195.44	15.0815
1198.33	35.5737
1201.22	7.13086
1204.12	12.9468
1207.01	20.8345
1209.9	19.2803
1212.79	22.4116
1215.68	40.2339
1218.58	28.7202
1221.47	21.4204
1224.36	35.0259
1227.26	31.9546
1230.15	45.9243
1233.04	41.0986
1235.93	32.4624
1238.83	12.332
1241.72	5.21631
1244.61	23.0879
1247.51	21.4243
1250.4	33.1377
1253.29	38.3618
1256.18	4.24463
