Measurement: Raman, 514 nm, unoriented, Raman Data Processed
Mineral: Fluorapatite
Rruff sample: R040098
Ideal chemistry: Ca_5_(PO_4_)_3_F
Locality: Cerro de Mercado mine, Durango, Mexico
Source: Marcus Origlieri
Description: Pale yellow short hexagonal prism
Measured chemistry: Ca_5.00_((P_0.98_Si_0.01_S_0.01_)O_4_)_3_F_1.00_
Raman shift (cm-1)	intensity
139.243	0
143.401	93.447
147.557	8.76
151.711	47.612
155.863	135.49
160.013	143.151
164.161	70.451
168.308	35.265
172.452	13.754
176.594	17.717
180.734	25.877
184.872	58.091
189.008	78.303
193.143	156.627
197.275	307.747
201.405	621.001
205.534	1094.04
209.66	1468.71
213.784	1250.02
217.907	833.003
222.027	490.695
226.146	401.232
230.263	389.605
234.377	366.872
238.49	279.267
242.601	159.427
246.709	135.691
250.816	116.454
254.921	108.642
259.024	94.274
263.125	133.023
267.224	97.244
271.321	145.616
275.416	154.578
279.51	181.063
283.601	224.478
287.69	255.822
291.778	332.097
295.863	487.304
299.947	592.446
304.029	594.179
308.108	511.85
312.186	419.941
316.262	330.536
320.336	209.82
324.408	106.085
328.478	76.447
332.546	60.62
336.612	49.169
340.677	18.814
344.739	47.44
348.799	35.913
352.858	26.781
356.915	10.529
360.969	15.806
365.022	43.893
369.073	10.668
373.122	3.964
377.169	12.693
381.215	8.295
385.258	6.562
389.299	16
393.339	42.555
397.376	38.703
401.412	56.708
405.446	62.647
409.478	73.509
413.508	122.257
417.536	191.822
421.562	344.166
425.586	540.438
429.609	774.651
433.629	741.814
437.648	670.944
441.665	779.042
445.68	1076.11
449.693	1310.15
453.704	1293.16
457.713	975.132
461.721	653.062
465.726	418.95
469.73	333.784
473.731	159.568
477.731	154.321
481.729	119.019
485.725	68.664
489.72	99.25
493.712	38.754
497.703	64.21
501.691	9.323
505.678	13.391
509.663	2.876
513.646	40.595
517.627	0.936
521.607	21.77
525.584	30.93
529.56	56.211
533.534	24.644
537.506	56.676
541.476	82.839
545.444	16.103
549.41	11.373
553.375	82.813
557.337	104.674
561.298	132.353
565.257	159.13
569.214	241.31
573.17	360.969
577.123	499.59
581.075	890.562
585.024	2172.38
588.972	5042.76
592.918	4325.39
596.863	1933.06
600.805	1356.63
604.746	2463.71
608.685	2168.97
612.621	902.892
616.557	493.806
620.49	434.479
624.421	343.526
628.351	274.892
632.279	196.929
636.205	221.204
640.129	193.244
644.051	223.467
647.972	208.751
651.89	251.907
655.807	195.477
659.722	209.38
663.636	137.295
667.547	105.066
671.457	147.585
675.365	119.069
679.271	82.472
683.175	93.937
687.077	93.448
690.978	104.365
694.877	30.177
698.774	90.913
702.669	48.023
706.562	56.755
710.454	40.366
714.344	51.886
718.232	76.374
722.118	43.616
726.002	46.308
729.885	22.082
733.766	55.626
737.645	49.341
741.522	67.946
745.397	11.834
749.271	13.484
753.143	44.418
757.013	40.054
760.881	9.738
764.748	53.883
768.613	39.28
772.476	18.45
776.337	1.392
780.196	19.098
784.054	7.56
787.91	47.767
791.764	1.722
795.616	3.424
799.467	1.882
803.316	30.925
807.163	31.064
811.008	27.514
814.851	32.108
818.693	23.026
822.533	11.914
826.371	39.585
830.208	31.517
834.042	6.116
837.875	13.806
841.706	17.188
845.536	17.981
849.363	99.208
853.189	98.338
857.013	156.345
860.836	172.58
864.656	150.283
868.475	182.585
872.292	114.117
876.108	57.064
879.922	138.6
883.733	149.402
887.544	72.266
891.352	82.371
895.159	21.478
898.964	31.432
902.767	43.947
906.568	26.745
910.368	115.026
914.166	135.463
917.962	126.731
921.757	167.888
925.55	205.755
929.341	262.397
933.13	369.948
936.918	455.551
940.703	597.468
944.488	903.331
948.27	1664.59
952.051	2509.21
955.83	5247.46
959.607	17216.2
963.383	52628
967.156	36754.1
970.928	12232.1
974.699	4839.61
978.468	1934.55
982.234	961.022
986	494.504
989.763	374.88
993.525	247.85
997.285	219.796
1001.04	254.39
1004.8	510.221
1008.55	983.563
1012.31	1011.04
1016.06	641.667
1019.81	471.674
1023.56	560.381
1027.31	597.391
1031.05	757.929
1034.79	908.998
1038.53	1252.8
1042.27	1985.48
1046.01	2639.56
1049.75	6231.57
1053.48	8960.68
1057.22	4472.78
1060.95	2383.96
1064.68	1524.35
1068.4	1116.71
1072.13	1108.26
1075.86	1884.16
1079.58	3598.88
1083.3	2981.53
1087.02	1870.07
1090.74	1115.54
1094.45	665.976
1098.17	355.323
1101.88	228.027
1105.59	154.852
1109.3	106.078
1113.01	51.8
1116.71	74.718
1120.42	115.512
1124.12	106.635
1127.82	24.981
1131.52	95.341
1135.22	43.256
1138.91	96.399
1142.61	23.877
1146.3	111.119
1149.99	188.312
1153.68	177.192
1157.37	192.563
1161.06	67.446
1164.74	127.995
1168.42	73.715
1172.1	31.07
1175.78	15.213
1179.46	45.574
1183.14	59.414
1186.81	23.46
1190.48	18.101
1194.15	24.73
1197.83	12.722
1201.49	65.964
1205.16	7.794
1208.82	60.133
1212.49	3.062
1216.15	55.318
1219.81	230.924
1223.46	217.666
1227.12	151.227
1230.78	264.852
1234.43	191.843
1238.08	159.629
1241.73	278.163
1245.38	109.605
1249.03	115.708
1252.67	65.448
1256.31	12.277
1259.95	36.898
1263.6	32.596
1267.23	0.222
1270.87	27.607
1274.51	20.63
1278.14	30.346
1281.77	44.284
1285.4	39.843
1289.03	26.299
1292.66	38.538
1296.28	78.048
1299.91	88.333
1303.53	88.356
1307.15	37.674
1310.77	74.366
1314.38	144.686
1318	150.781
1321.61	202.549
1325.23	113.42
1328.84	138.921
1332.45	87.16
1336.06	150.079
1339.66	119.063
1343.27	21.526
1346.87	193.034
1350.47	93.215
1354.07	2.603
1357.67	41.691
1361.26	56.867
1364.86	69.345
1368.45	97.015
1372.04	24.259
1375.63	84.053
1379.22	93.201
1382.81	147.66
1386.39	107.114
1389.98	273.45
1393.56	113.181
1397.14	160.342
1400.72	88.068
1404.3	217.115
1407.87	200.378
1411.45	149.309
1415.02	114.73
1418.59	236.736
1422.16	159.209
1425.73	185.111
1429.29	182.696
1432.86	198.376
1436.42	117.679
1439.98	152.836
1443.54	212.884
1447.1	186.543
1450.66	134.808
1454.21	213.241
1457.77	122.541
1461.32	108.8
1464.87	138.654
1468.42	243.935
1471.96	110.308
1475.51	147.705
1479.06	72.246
1482.6	345.132
1486.14	204.646
1489.68	310.698
1493.22	28.505
1496.75	163.003
1500.29	189.115
1503.82	30.563
1507.35	76.974
1510.88	187.118
1514.41	203.51
1517.94	147.461
