Measurement: Raman, 514 nm, unoriented, Raman Data Processed
Mineral: Fluorapatite
Rruff sample: R050274
Ideal chemistry: Ca_5_(PO_4_)_3_F
Locality: Minas Gerais, Brazil
Source: Marcus Origlieri
Description: Aggregate of blue crystal fragments separated by veins of quartz
Measured chemistry: Ca_5.00_((P_0.97_Si_0.02_S_0.01_)O_4_)_3_(F_0.90_Cl_0.10_)
Raman shift (cm-1)	intensity
87.798	0
91.981	22.211
96.161	6.189
100.34	47.293
104.516	3.932
108.691	8.099
112.864	17.836
117.034	57.421
121.203	45.495
125.369	93.568
129.534	179.631
133.696	182.384
137.857	183.175
142.016	89.765
146.172	99.174
150.327	165.987
154.48	235.133
158.63	201.43
162.779	118.232
166.926	120.302
171.07	165.656
175.213	263.471
179.354	293.956
183.493	254.634
187.63	200.626
191.765	171.965
195.898	192.712
200.029	381.64
204.158	486.147
208.285	605.333
212.41	463.07
216.533	360.78
220.654	310.153
224.773	314.518
228.891	277.993
233.006	300.982
237.119	219.445
241.231	194.1
245.34	182.653
249.448	161.452
253.553	156.438
257.657	148.757
261.758	248.966
265.858	267.911
269.956	290.531
274.052	304.828
278.146	396.358
282.237	456.902
286.327	462.033
290.416	450.729
294.502	396.168
298.586	336.779
302.668	348.869
306.749	242.936
310.827	244.085
314.903	177.607
318.978	102.625
323.051	118.787
327.121	101.763
331.19	40.467
335.257	69.805
339.322	63.365
343.385	4.626
347.446	15.438
351.505	6.358
355.563	51.817
359.618	24.813
363.672	28.208
367.723	12.367
371.773	49.012
375.821	8.463
379.866	1.179
383.91	16.611
387.952	43.283
391.992	51.813
396.031	139.726
400.067	140.695
404.101	183.605
408.134	230.282
412.165	300.443
416.193	609.833
420.22	1035.33
424.245	1901.31
428.268	2870.82
432.289	2294.66
436.309	1440.76
440.326	971.137
444.342	924.78
448.355	746.688
452.367	577.859
456.377	427.704
460.385	280.781
464.391	197.216
468.395	235.14
472.398	104.326
476.398	35.395
480.397	99.967
484.394	88.643
488.389	73.517
492.382	42.892
496.373	59.604
500.362	164.029
504.349	19.458
508.335	22.504
512.319	51.98
516.3	40.355
520.28	24.218
524.259	18.786
528.235	20.25
532.209	49.366
536.182	10.387
540.152	84.509
544.121	74.811
548.088	19.036
552.053	65.982
556.017	99.256
559.978	89.988
563.938	74.278
567.895	160.451
571.851	354.691
575.805	610.578
579.758	743.963
583.708	1353.07
587.657	2508.7
591.603	2350.89
595.548	1074.07
599.491	561.102
603.432	512.227
607.372	476.423
611.309	372.053
615.245	393.553
619.179	362.078
623.111	291.427
627.041	181.48
630.97	243.265
634.896	234.493
638.821	188.919
642.744	315.103
646.665	296.291
650.584	268.459
654.502	183.15
658.418	253.005
662.331	298.749
666.244	227.267
670.154	294.325
674.062	297.44
677.969	273.736
681.874	170.939
685.777	160.828
689.678	320.516
693.577	77.156
697.475	222.507
701.371	195.793
705.265	285.539
709.157	113.23
713.047	449.147
716.936	179.986
720.823	296.459
724.708	254.145
728.591	265.638
732.472	223.277
736.352	257.586
740.23	361.84
744.106	308.454
747.98	187.726
751.853	408.897
755.723	91.354
759.592	161.617
763.459	313.037
767.325	323.617
771.188	260.603
775.05	109.163
778.91	214.875
782.768	37.567
786.625	265.4
790.479	200.849
794.332	85.685
798.183	81.485
802.033	126.157
805.88	90.366
809.726	98.586
813.57	220.241
817.413	241.136
821.253	260.14
825.092	123.85
828.929	150.111
832.764	156.204
836.598	31.725
840.429	229.295
844.259	194.084
848.088	74.061
851.914	202.353
855.739	59.62
859.562	30.483
863.383	34.903
867.203	110.835
871.02	124.371
874.836	126.488
878.65	128.2
882.463	55.899
886.274	8.615
890.083	47.152
893.89	48.727
897.695	105.312
901.499	21.975
905.301	13.354
909.102	134.562
912.9	88.962
916.697	154.673
920.492	259.465
924.285	326.092
928.077	197.199
931.867	451.025
935.655	570.178
939.442	654.184
943.226	1063.78
947.009	1847.37
950.791	3005.46
954.57	6625.6
958.348	18451.5
962.124	36387.3
965.899	22673.7
969.671	8716.18
973.442	3639.09
977.211	1412.25
980.979	707.65
984.745	14.027
988.509	52.227
992.271	273.957
996.032	327.107
999.791	231.119
1003.55	613.5
1007.3	722.609
1011.06	435.74
1014.81	395.842
1018.56	412.326
1022.31	719.211
1026.06	655.586
1029.8	1113.04
1033.55	1212.11
1037.29	1664.13
1041.03	2376.38
1044.77	2548.15
1048.5	3464.71
1052.24	3411.24
1055.97	1755.76
1059.7	1372.06
1063.43	1068.35
1067.16	733.471
1070.89	703.838
1074.61	1047.79
1078.34	1104.59
1082.06	765.436
1085.78	474.227
1089.5	572.996
1093.21	111.699
1096.93	187.352
1100.64	202.672
1104.35	183.496
1108.06	235.977
1111.77	185.814
1115.48	40.32
1119.18	86.102
1122.89	350.477
1126.59	93.346
1130.29	447.932
1133.99	67.324
1137.68	40.16
1141.38	207.461
1145.07	312.574
1148.76	312.879
1152.45	278.523
1156.14	452.535
1159.83	426.055
1163.51	450.73
1167.19	47.617
1170.88	221.893
1174.56	294.557
1178.23	3.305
1181.91	261.082
1185.59	526.125
1189.26	504.24
1192.93	374.26
1196.6	397.896
1200.27	591.854
1203.94	717.279
1207.6	555.529
1211.27	589.414
1214.93	469.004
1218.59	587.676
1222.25	281.887
1225.9	483.541
1229.56	548.541
1233.21	225.186
1236.86	633.881
1240.51	343.305
1244.16	417.449
1247.81	582.99
1251.45	472.188
1255.1	444.238
1258.74	547.568
1262.38	50.697
1266.02	308.572
1269.66	326.279
1273.29	135.508
1276.93	267.256
1280.56	122.115
1284.19	48.361
1287.82	57.303
1291.45	286.045
1295.07	105.844
1298.7	33.834
1302.32	106.709
1305.94	85.967
1309.56	10.824
1313.18	51.217
1316.8	30.938
1320.41	248.752
1324.02	344.299
1327.63	272.734
1331.24	371.133
1334.85	285.506
1338.46	61.963
1342.06	193.525
1345.67	376.977
1349.27	456.133
1352.87	341.277
1356.47	132.223
1360.07	331.141
1363.66	683.062
1367.25	501.266
1370.85	343.4
1374.44	351.268
1378.03	334.086
1381.61	299.988
1385.2	338.828
1388.78	194.762
1392.37	172.559
1395.95	108.141
1399.53	373.16
1403.1	184.043
1406.68	440.188
1410.26	473.246
1413.83	120.188
1417.4	550.145
1420.97	187.312
1424.54	265.805
1428.1	0
