Measurement: Raman, 785 nm, unoriented, Raman Data Processed
Mineral: Fluoborite
Rruff sample: R061042
Ideal chemistry: Mg_3_(BO_3_)F_3_
Locality: Kinmount, Ontario, Canada
Source: Royal Ontario Museum
Description: Off white massive bleb, fluorescent under short wave ultraviolet light, embedded in white calcite
Measured chemistry: (Mg_0.99_Fe_0.01_)_Σ=3_(BO_3_)(F_1.96_(OH)_1.04_)_Σ=3_ ;  B assumed by stoichiometry; OH estimated by difference and stoichiometry
Raman shift (cm-1)	intensity
166.821	0
169.713	137.27
172.606	634.587
175.499	509.95
178.391	8.20508
181.284	18.0005
184.177	83.1982
187.069	5.74854
189.962	25.3428
192.855	7.27344
195.748	31.8569
198.64	95.2129
201.533	7.01367
204.426	76.6826
207.318	32.0781
210.211	117.702
213.104	117.03
215.996	201.01
218.889	452.853
221.782	724.458
224.674	1238.26
227.567	1848.01
230.46	2911.11
233.353	4647.26
236.245	6585.52
239.138	6604.23
242.031	4764.69
244.923	3035.44
247.816	1929.47
250.709	1302.18
253.601	936.082
256.494	715.297
259.387	595.481
262.28	568.698
265.172	589.226
268.065	526.606
270.958	508.905
273.85	513.724
276.743	596.652
279.636	566.526
282.529	508.29
285.421	375.434
288.314	266.818
291.207	142.397
294.099	142.547
296.992	85.728
299.885	61.1475
302.777	31.1846
305.67	14.2754
308.563	52.0151
311.455	3.35986
314.348	28.5547
317.241	17.1128
320.134	19.9219
323.026	18.6904
325.919	43.6172
328.812	4.11377
331.704	34.2842
334.597	79.0102
337.49	77.9883
340.382	102.431
343.275	155.019
346.168	201.832
349.061	176.523
351.953	181.915
354.846	159.208
357.739	159.907
360.631	113.895
363.524	97.4814
366.417	80.1699
369.31	106.454
372.202	113.721
375.095	61.8091
377.988	87.8125
380.88	46.2197
383.773	63.9673
386.666	68.5347
389.558	39.3648
392.451	50.3223
395.344	46.2705
398.236	1.46436
401.129	73.6436
404.022	3.34522
406.915	7.18164
409.807	9.15527
412.7	42.9228
415.593	52.1201
418.485	51.8696
421.378	67.8882
424.271	153.929
427.163	138.106
430.056	109.534
432.949	172.982
435.842	155.468
438.734	282.72
441.627	309.798
444.52	376.847
447.412	285.299
450.305	217.992
453.198	195.083
456.091	75.3247
458.983	73.8311
461.876	27.4492
464.769	21.314
467.661	84.5
470.554	84.1103
473.447	78.2217
476.339	18.2964
479.232	56.1465
482.125	33.5669
485.017	39.6313
487.91	35.0527
490.803	80.3042
493.696	4.44189
496.588	80.4282
499.481	8.96777
502.374	0.375977
505.266	64.8872
508.159	111.94
511.052	89.8701
513.944	60.7412
516.837	135.374
519.73	90.4648
522.623	72.9702
525.515	84.8467
528.408	84.7061
531.301	136.232
534.193	100.807
537.086	132.031
539.979	158.559
542.871	142.114
545.764	101.911
548.657	116.29
551.55	53.3618
554.442	62.5693
557.335	123.733
560.228	112.993
563.12	56.8164
566.013	72.376
568.906	37.1826
571.798	48.7978
574.691	108.322
577.584	35.21
580.477	48.023
583.369	73.2998
586.262	21.687
589.155	59.7715
592.047	103.253
594.94	58.8335
597.833	58.1558
600.726	47.3652
603.618	34.6797
606.511	85.3648
609.404	49.4209
612.296	51.2847
615.189	48.6572
618.082	75.2905
620.974	37.0723
623.867	116.497
626.76	104.644
629.653	107.012
632.545	94.2398
635.438	79.1118
638.331	96.8438
641.223	134.062
644.116	25.542
647.009	82.0767
649.901	38.4092
652.794	33.5308
655.687	67.8911
658.58	31.9004
661.472	77.5933
664.365	30.9932
667.258	14.0352
670.15	61.2056
673.043	3.11084
675.936	83.6123
678.828	58.1655
681.721	35.9663
684.614	107.19
687.506	38.4712
690.399	68.1216
693.292	62.7388
696.185	87.6929
699.077	123.157
701.97	159.72
704.863	147.719
707.755	248.829
710.648	192.289
713.541	229.322
716.433	190.858
719.326	186.906
722.219	126.707
725.112	110.274
728.004	143.268
730.897	213.861
733.79	180.007
736.682	95.1865
739.575	123.394
742.468	40.2959
745.361	43.7437
748.253	58.9282
751.146	60.4844
754.039	59.353
756.931	13.7549
759.824	9.32812
762.717	43.2717
765.609	8.42529
768.502	3.89062
771.395	16.6799
774.288	24.7908
777.18	3.48975
780.073	11.1826
782.966	9.68652
785.858	15.2312
788.751	57.2661
791.644	68.9639
794.536	27.9321
797.429	14.1355
800.322	23.5381
803.215	8.86597
806.107	35.1482
809	12.415
811.893	71.9722
814.785	51.7556
817.678	58.6743
820.571	56.0718
823.463	111.234
826.356	120.772
829.249	72.1335
832.141	56.5679
835.034	57.7551
837.927	84.6746
840.82	43.4412
843.712	104.729
846.605	92.7988
849.498	115.015
852.39	137.815
855.283	126.289
858.176	53.3179
861.068	86.2712
863.961	94.0388
866.854	64.4109
869.747	35.5923
872.639	27.9646
875.532	109.014
878.425	21.9763
881.317	75.5835
884.21	4.91919
887.103	88.7324
889.995	13.9023
892.888	47.8018
895.781	63.0413
898.674	52.3721
901.566	22.1875
904.459	72.78
907.352	11.9077
910.244	37.2761
913.137	66.2554
916.03	72.6187
918.923	82.1033
921.815	81.4363
924.708	133.521
927.601	94.8989
930.493	138.062
933.386	251.735
936.279	337.322
939.171	537.003
942.064	883.454
944.957	1625.74
947.85	2914.52
950.742	4987.49
953.635	7637.95
956.528	7128.03
959.42	3426.39
962.313	1366.81
965.206	637.687
968.098	377.371
970.991	259.18
973.884	144.328
976.777	158.282
979.669	118.103
982.562	42.7139
985.455	12.7275
988.347	3.43066
991.24	36.8516
994.133	8.74243
997.025	9.573
999.918	23.5095
1002.81	51.5798
1005.7	28.1433
1008.6	39.3601
1011.49	37.8806
1014.38	15.3169
1017.27	15.8994
1020.17	15.0801
1023.06	28.477
1025.95	45.2358
1028.85	20.3967
1031.74	22.0217
1034.63	12.6816
1037.52	9.73389
1040.42	25.969
1043.31	20.4338
1046.2	3.3291
1049.09	33.8206
1051.99	55.1968
1054.88	55.3301
1057.77	26.5059
1060.66	53.137
1063.56	50.9905
1066.45	22.9458
1069.34	55.6472
1072.24	33.4253
1075.13	29.2976
1078.02	105.908
1080.91	76.1497
1083.81	136.586
1086.7	133.399
1089.59	95.0786
1092.48	142.485
1095.38	199.994
1098.27	169.014
1101.16	97.6609
1104.06	33.2751
1106.95	12.4834
1109.84	156.983
1112.73	18.3962
1115.63	77.9956
1118.52	27.2532
1121.41	36.9692
1124.3	55.6448
1127.2	34.5369
1130.09	40.6733
1132.98	71.9026
1135.88	0.884277
1138.77	13.29
1141.66	35.1687
1144.55	30.9827
1147.45	31.3079
1150.34	10.9597
1153.23	57.7007
1156.12	65.4536
1159.02	51.2795
1161.91	69.3225
1164.8	54.6587
1167.69	36.6616
1170.59	100.943
1173.48	62.1233
1176.37	15.1692
1179.27	30.1233
1182.16	27.5454
1185.05	85.4551
1187.94	56.449
1190.84	56.7256
1193.73	29.7227
1196.62	8.58081
1199.51	60.7034
1202.41	27.2617
1205.3	21.4834
1208.19	62.0984
1211.09	62.0095
1213.98	32.8132
1216.87	4.72168
1219.76	39.3533
1222.66	17.6921
1225.55	55.2388
1228.44	2.13403
1231.33	55.925
1234.23	57.792
1237.12	19.1304
1240.01	46.842
1242.9	0
