Measurement: Raman, 532 nm, unoriented, Raman Data Processed
Mineral: Fluorapatite
Rruff sample: R050340
Ideal chemistry: Ca_5_(PO_4_)_3_F
Locality: Buckingham, Quebec, Canada
Source: California Institute of Technology
Description: Blue fragment
Measured chemistry: Ca_5.00_((P_0.98_Si_0.02_)O_4_)_3_F_1.00_
Raman shift (cm-1)	intensity
98.1389	0
101.514	13.9584
104.888	1.00601
108.263	7.54898
111.638	24.0768
115.013	95.456
118.388	225.671
121.763	362.554
125.138	431.995
128.512	483.991
131.887	636.22
135.262	751.368
138.637	810.798
142.012	631.915
145.386	500.729
148.761	461.724
152.136	460.453
155.511	521.476
158.886	521.461
162.26	444.397
165.635	414.942
169.01	397.819
172.385	372.783
175.76	371.704
179.135	374.287
182.509	326.734
185.884	242.265
189.259	193.16
192.634	175.623
196.009	196.753
199.383	223.051
202.758	291.23
206.133	398.955
209.508	441.844
212.883	385.048
216.257	259.223
219.632	196.847
223.007	161.743
226.382	176.41
229.757	191.101
233.132	176.3
236.506	122.426
239.881	41.1367
243.256	12.9005
246.631	28.1224
250.006	18.0273
253.381	10.3357
256.755	33.4321
260.13	69.1672
263.505	151.835
266.88	200.849
270.255	196.8
273.629	194.175
277.004	213.792
280.379	258.861
283.754	293.785
287.129	286.358
290.503	276.539
293.878	262.475
297.253	265.687
300.628	277.609
304.003	276.949
307.378	254.22
310.752	192.723
314.127	147.499
317.502	92.5183
320.877	58.1626
324.252	37.0389
327.627	24.9515
331.001	11.7976
334.376	15.0511
337.751	10.5898
341.126	0.645752
344.5	0.847168
347.875	2.02527
351.25	4.56848
354.625	5.96521
358	2.16528
361.375	5.40186
364.749	9.50513
368.124	9.40942
371.499	2.85608
374.874	12.8313
378.249	24.7061
381.623	35.71
384.998	49.3738
388.373	65.2937
391.748	87.2331
395.123	83.7266
398.498	93.2712
401.872	108.483
405.247	131.756
408.622	190.207
411.997	300.394
415.372	445.99
418.747	636.804
422.121	938.023
425.496	1355.85
428.871	1710
432.246	1516.76
435.621	1052.07
438.995	829.223
442.37	786.598
445.745	789.208
449.12	746.516
452.495	628.186
455.87	472.041
459.244	317.628
462.619	203.819
465.994	137.992
469.369	117.634
472.744	76.506
476.118	63.6156
479.493	55.2157
482.868	55.3105
486.243	44.2825
489.618	46.9913
492.993	16.4635
496.367	29.3058
499.742	28.5795
503.117	27.6516
506.492	16.2524
509.866	18.3876
513.241	23.2696
516.616	18.4112
519.991	4.21753
523.366	5.05078
526.741	5.10339
530.115	10.9634
533.49	14.5911
536.865	0.487915
540.24	6.63928
543.615	4.65613
546.99	15.971
550.364	14.8043
553.739	26.3025
557.114	38.3296
560.489	60.023
563.864	108.63
567.239	154.757
570.613	255.489
573.988	458.554
577.363	780.136
580.738	1085.28
584.112	1218.92
587.487	1787.85
590.862	2088.02
594.237	1060.96
597.612	651.492
600.987	705.319
604.361	1000.84
607.736	881.098
611.111	366.531
614.486	236.649
617.861	146.963
621.236	67.699
624.61	50.0298
627.985	52.2871
631.36	22.0906
634.735	0.658936
638.11	6.73315
641.484	3.63062
644.859	13.6687
648.234	29.991
651.609	7.27686
654.984	3.66577
658.359	5.35718
661.733	8.88525
665.108	21.7297
668.483	4.27466
671.858	15.4648
675.232	26.7014
678.607	31.4653
681.982	38.1931
685.357	22.3479
688.732	28.2622
692.107	29.188
695.481	28.7725
698.856	22.0713
702.231	29.769
705.606	20.8313
708.981	12.6511
712.356	4.39136
715.73	4.12939
719.105	1.69238
722.48	3.86548
725.855	4.53467
729.23	0.888428
732.604	0.994141
735.979	9.9646
739.354	0.368652
742.729	10.0688
746.104	5.32007
749.479	13.126
752.853	9.62427
756.228	10.283
759.603	32.2295
762.978	40.6624
766.353	35.1724
769.727	50.374
773.102	44.269
776.477	46.4592
779.852	31.5508
783.227	41.6707
786.601	38.7969
789.976	49.6965
793.351	44.6877
796.726	49.6489
800.101	38.9971
803.476	28.676
806.85	20.977
810.225	34.2224
813.6	9.01465
816.975	19.3611
820.35	3.72217
823.725	22.2905
827.099	0.418213
830.474	3.20435
833.849	1.0647
837.224	2.96704
840.599	9.47144
843.973	3.84839
847.348	1.60669
850.723	21.605
854.098	27.064
857.473	50.6668
860.847	70.8857
864.222	106.59
867.597	119.422
870.972	123.609
874.347	83.7222
877.722	48.7937
881.096	38.7847
884.471	26.9868
887.846	23.1643
891.221	42.1958
894.596	26.8752
897.971	41.9243
901.345	36.7888
904.72	26.7468
908.095	41.6746
911.47	33.1162
914.845	14.2178
918.219	3.13892
921.594	8.88306
924.969	9.61084
928.344	25.655
931.719	51.5557
935.093	101.239
938.468	180.338
941.843	305.737
945.218	564.881
948.593	1221.45
951.967	2549.61
955.342	4662.44
958.717	8887.39
962.092	16663.2
965.467	15030.4
968.842	5180.7
972.216	1769.9
975.591	635.07
978.966	224.315
982.341	67.4397
985.716	3.927
989.091	27.6274
992.465	26.1975
995.84	6.04077
999.215	13.564
1002.59	145.551
1005.97	337.184
1009.34	465.123
1012.71	320.18
1016.09	235.855
1019.46	271.848
1022.84	388.733
1026.21	531.33
1029.59	736.132
1032.96	934.359
1036.34	1142.22
1039.71	1431.84
1043.09	1632.48
1046.46	1861.47
1049.84	2506.63
1053.21	2569.15
1056.59	1727.83
1059.96	1301.23
1063.34	1041.03
1066.71	962.307
1070.09	1021.49
1073.46	1091.27
1076.84	1256.62
1080.21	1202.42
1083.59	828.219
1086.96	622.27
1090.34	472.853
1093.71	345.361
1097.09	237.455
1100.46	169.667
1103.83	89.7051
1107.21	29.5376
1110.58	2.59961
1113.96	3.59717
1117.33	25.3496
1120.71	16.8208
1124.08	12.5249
1127.46	16.105
1130.83	51.0415
1134.21	100.403
1137.58	111.753
1140.96	133.065
1144.33	148.059
1147.71	163.775
1151.08	164.745
1154.46	142.894
1157.83	150.022
1161.21	135.501
1164.58	130.24
1167.96	126.955
1171.33	84.3198
1174.7	84.9356
1178.08	53.9409
1181.45	39.7622
1184.83	29.0078
1188.2	57.9409
1191.58	79.6758
1194.95	86.7463
1198.33	103.598
1201.7	90.6025
1205.08	89.2031
1208.45	99.9604
1211.83	86.0244
1215.2	105.664
1218.58	94.8223
1221.95	47.8779
1225.33	45.22
1228.7	38.0776
1232.08	22.9966
1235.45	15.79
1238.83	2.35205
1242.2	4.94922
1245.58	3.93945
1248.95	24.7869
1252.33	29.1204
1255.7	31.8152
1259.08	67.2241
1262.45	68.3384
1265.83	42.0591
1269.2	29.166
1272.58	45.53
1275.95	34.6355
1279.33	17.6902
1282.7	16.5542
