Measurement: Raman, 780 nm, unoriented, Raman Data Processed
Mineral: Fluorcalciomicrolite
Rruff sample: R130019
Ideal chemistry: (Ca,Na)_2_Ta_2_(O,OH)_6_F
Locality: Virgem da Lapa, Minas Gerais, Brazil
Source: Royal Ontario Museum
Description: Yellow outer zone of 1.5 cm zoned octahedron
Measured chemistry: (Ca_0.96_Na_0.91_Pb_0.03_)_Σ=1.90_(Ta_1.69_Nb_0.31_)_Σ=2_O_6_[F_0.81_(OH)_0.08_]_Σ=0.89_
Raman shift (cm-1)	intensity
96.985	0
100.36	0.167969
103.735	30.9041
107.109	49.1328
110.484	70.0456
113.859	93.3181
117.234	101.532
120.609	108.179
123.984	104.422
127.358	107.03
130.733	105.516
134.108	100.161
137.483	107.525
140.858	116.413
144.232	135.618
147.607	155.661
150.982	174.502
154.357	195.376
157.732	207.018
161.107	202.115
164.481	190.044
167.856	162.448
171.231	137.245
174.606	103.559
177.981	88.3509
181.355	69.6067
184.73	54.2632
188.105	39.8495
191.48	30.0572
194.855	17.4987
198.229	4.73853
201.604	6.86939
204.979	4.63635
208.354	6.21741
211.729	12.0497
215.103	13.999
218.478	15.5295
221.853	3.36621
225.228	10.7191
228.603	16.9182
231.978	35.4605
235.352	58.4739
238.727	83.2164
242.102	90.48
245.477	111.132
248.852	129.218
252.226	144.506
255.601	153.463
258.976	182.53
262.351	197.301
265.726	221.502
269.101	246.266
272.475	260.894
275.85	283.583
279.225	310.831
282.6	329.999
285.975	350.076
289.349	377.661
292.724	387.273
296.099	386.652
299.474	373.893
302.849	354.207
306.224	324.865
309.598	277.898
312.973	236.087
316.348	205.483
319.723	168.562
323.098	150.421
326.472	131.116
329.847	128.115
333.222	122.222
336.597	131.885
339.972	115.558
343.346	105.541
346.721	89.8373
350.096	77.9446
353.471	66.145
356.846	64.4896
360.221	53.1936
363.595	43.6494
366.97	34.8636
370.345	36.0966
373.72	19.6827
377.095	17.7021
380.469	17.3071
383.844	7.02173
387.219	6.2688
390.594	1.30359
393.969	5.81867
397.344	4.82971
400.718	1.31885
404.093	5.37262
407.468	7.91772
410.843	5.08814
414.217	3.76636
417.592	2.10162
420.967	1.80066
424.342	0.560364
427.717	2.71558
431.092	1.71661
434.466	2.81061
437.841	5.31476
441.216	8.11957
444.591	10.3765
447.966	11.404
451.341	11.5698
454.715	9.7879
458.09	8.70697
461.465	4.83368
464.84	1.42987
468.215	2.61847
471.589	3.12054
474.964	5.30341
478.339	10.8933
481.714	22.4171
485.089	36.0663
488.463	59.2969
491.838	89.9065
495.213	126.784
498.588	158.436
501.963	186.913
505.337	196.09
508.712	182.967
512.087	158.674
515.462	138.306
518.837	116.642
522.212	107.7
525.586	102.553
528.961	103.258
532.336	100.596
535.711	109.277
539.086	113.745
542.46	113.822
545.835	115.365
549.21	113.932
552.585	106.373
555.96	94.8098
559.335	85.8988
562.709	66.7441
566.084	52.4141
569.459	34.4081
572.834	19.1143
576.209	9.21069
579.583	1.99268
582.958	6.98279
586.333	5.33032
589.708	6.08447
593.083	0.487183
596.457	18.0936
599.832	32.5619
603.207	62.6343
606.582	89.5727
609.957	114.674
613.332	138.262
616.706	167.596
620.081	189.375
623.456	217.343
626.831	234.012
630.206	249.284
633.58	274.721
636.955	274.688
640.33	284.906
643.705	287.908
647.08	288.867
650.455	294.726
653.829	292.877
657.204	286.629
660.579	285.384
663.954	278.591
667.329	282.653
670.703	274.293
674.078	261.87
677.453	250.348
680.828	228.83
684.203	210.601
687.577	184.897
690.952	160.293
694.327	130.972
697.702	103.431
701.077	77.4622
704.452	56.965
707.826	41.58
711.201	24.1937
714.576	13.8981
717.951	5.43579
721.326	0.654663
724.7	5.38892
728.075	8.9834
731.45	2.70593
734.825	7.10675
738.2	6.16803
741.574	2.45288
744.949	5.30402
748.324	11.9247
751.699	18.4318
755.074	30.3069
758.449	43.8272
761.823	64.1515
765.198	91.0847
768.573	115.403
771.948	137.678
775.323	166.173
778.697	194.817
782.072	227.016
785.447	248.261
788.822	276.036
792.197	309.545
795.572	317.069
798.946	327.059
802.321	328.96
805.696	335.75
809.071	330.254
812.446	320.521
815.82	306.363
819.195	295.924
822.57	274.842
825.945	254.485
829.32	238.732
832.694	219.078
836.069	205.864
839.444	185.488
842.819	172.544
846.194	147.525
849.569	129.949
852.943	113.371
856.318	95.1766
859.693	80.9847
863.068	68.0856
866.443	54.0765
869.817	41.596
873.192	25.0884
876.567	17.0436
879.942	7.30426
883.317	4.47009
886.692	2.06879
890.066	2.08612
893.441	0.523376
896.816	1.41473
900.191	5.84229
903.566	1.78943
906.94	9.65814
910.315	6.42889
913.69	6.1976
917.065	11.9285
920.44	6.63745
923.814	2.95312
927.189	2.33826
930.564	6.47095
933.939	0.38855
937.314	4.08096
940.689	3.21112
944.063	3.68585
947.438	4.44559
950.813	3.89749
954.188	2.33548
957.563	3.55084
960.937	0.083221
964.312	2.05481
967.687	8.9678
971.062	8.5181
974.437	11.6019
977.812	16.4984
981.186	23.193
984.561	25.7804
987.936	26.3762
991.311	26.2809
994.686	31.2947
998.06	31.6829
1001.43	33.7355
1004.81	32.5695
1008.18	31.0787
1011.56	28.854
1014.93	28.0432
1018.31	27.8439
1021.68	24.1224
1025.06	24.0032
1028.43	25.5471
1031.81	22.5776
1035.18	22.2581
1038.56	20.2279
1041.93	21.0406
1045.31	18.9193
1048.68	19.742
1052.06	18.0736
1055.43	23.2014
1058.81	20.5267
1062.18	15.7688
1065.56	13.8765
1068.93	12.7264
1072.31	13.0189
1075.68	12.4893
1079.06	9.91672
1082.43	11.0237
1085.81	10.2757
1089.18	10.8446
1092.56	12.5557
1095.93	8.11844
1099.31	9.28244
1102.68	7.25263
1106.05	4.88724
1109.43	5.75024
1112.8	2.33865
1116.18	6.71863
1119.55	6.18805
1122.93	0.616425
1126.3	7.55411
1129.68	1.25397
1133.05	3.21018
1136.43	2.82812
1139.8	8.91315
1143.18	0.168793
1146.55	0.264008
1149.93	0.972015
1153.3	0.574463
1156.68	1.30377
1160.05	1.87827
1163.43	0.086029
1166.8	0.685852
1170.18	1.88013
1173.55	4.68829
1176.93	4.77512
1180.3	2.09003
1183.67	4.46326
1187.05	4.78104
1190.42	7.77844
1193.8	8.30566
1197.17	14.545
1200.55	15.2925
1203.92	22.473
1207.3	20.0098
1210.67	21.8069
1214.05	26.4002
1217.42	26.3892
1220.8	26.8069
1224.17	34.6534
1227.55	30.3248
1230.92	26.8592
1234.3	26.9299
1237.67	28.2944
1241.05	22.1885
1244.42	20.5496
1247.8	14.1627
1251.17	12.9498
1254.55	9.86139
1257.92	5.85742
1261.3	0.326843
1264.67	6.46722
1268.05	4.59894
1271.42	3.4043
1274.8	1.68268
1278.17	1.76459
1281.55	7.54895
