Measurement: Raman, 532 nm, unoriented, Raman Data Processed
Mineral: Fluorapatite
Rruff sample: R060333
Ideal chemistry: Ca_5_(PO_4_)_3_F
Locality: Lovozero Massif, Kola Peninsula, U.S.S.R.
Source: Michael Scott
Description: Colorless fragment associated with red villiaumite
Measured chemistry: (Ca_4.29_Sr_0.47_Na_0.12_Ce_0.07_La_0.06_)_Σ=5_((P_0.99_Si_0.01_)_Σ=1_O_4_)_3_F_1.00_
Raman shift (cm-1)	intensity
122.486	0
125.861	44.988
129.236	840.859
132.61	2821.73
135.985	4334.93
139.36	4327.14
142.735	3614.36
146.11	3721.15
149.484	3839.89
152.859	3890.12
156.234	3198.78
159.609	3052.61
162.984	3520.99
166.359	3859.54
169.733	3723.55
173.108	3706.02
176.483	3877.33
179.858	3704.58
183.233	3301.15
186.607	3365.75
189.982	3322.57
193.357	3616.52
196.732	4204.94
200.107	5399.1
203.482	6762.24
206.857	7351.46
210.231	6247.98
213.606	3966.98
216.981	2909.66
220.356	2615.84
223.731	2530.34
227.105	2433.89
230.48	2211.56
233.855	1765.51
237.23	647.188
240.605	64.672
243.98	299.992
247.354	75.438
250.729	50.617
254.104	123.898
257.479	439.57
260.854	983.469
264.228	1906.25
267.603	2489.2
270.978	3051.45
274.353	3664.98
277.728	4889.48
281.103	5634.37
284.477	6025.06
287.852	5661.66
291.227	4984.06
294.602	4023.38
297.977	3043.07
301.351	2400.03
304.726	2440.54
308.101	2091.88
311.476	1473.45
314.851	919.641
318.225	297.562
321.6	126.086
324.975	204.016
328.35	245.711
331.725	248.188
335.1	238.812
338.474	46.5
341.849	188.648
345.224	45.32
348.599	246.406
351.974	135.82
355.349	273.562
358.723	21.32
362.098	62.008
365.473	149.164
368.848	141.562
372.223	338.266
375.597	563.102
378.972	572.484
382.347	501.227
385.722	718.961
389.097	1360.07
392.471	1768.76
395.846	1871.06
399.221	2291.16
402.596	3054.27
405.971	4500.22
409.346	6647.71
412.72	10620.7
416.095	16255
419.47	23927.4
422.845	33073.1
426.22	42389.2
429.595	41535
432.969	31169.2
436.344	21460.8
439.719	16546.8
443.094	15346.9
446.469	14899.4
449.843	13934.6
453.218	11984
456.593	9540.85
459.968	7421.62
463.343	5068.73
466.717	3801.58
470.092	2873.49
473.467	2239.07
476.842	1520.51
480.217	1131.94
483.592	1037.09
486.966	1007.12
490.341	568.977
493.716	224.453
497.091	36.953
500.466	182.992
503.841	95.109
507.215	164.695
510.59	14.953
513.965	120.703
517.34	83.234
520.715	413.219
524.089	819.094
527.464	336.219
530.839	483.664
534.214	172.539
537.589	16.984
540.964	310.469
544.338	837.688
547.713	780.062
551.088	959.641
554.463	1130.64
557.838	1150.19
561.213	1365.44
564.587	2196.42
567.962	3747.41
571.337	6154.75
574.712	8685.01
578.086	13748.7
581.461	18208.4
584.836	22829.1
588.211	38225.5
591.586	40834.5
594.961	18733.4
598.335	11733.7
601.71	12371.2
605.085	18602.3
608.46	12378.8
611.835	6817.37
615.209	5199.99
618.584	2887.64
621.959	1548.67
625.334	1121.74
628.709	135.539
632.084	109.375
635.458	246.453
638.833	128.453
642.208	298.68
645.583	561.32
648.958	1106.39
652.333	2100.05
655.707	2255.27
659.082	1963.98
662.457	1501.88
665.832	1370.84
669.207	1106.57
672.581	1099.49
675.956	502.539
679.331	320.914
682.706	423.242
686.081	732.664
689.456	831.367
692.83	672.508
696.205	925.922
699.58	541.156
702.955	149.094
706.33	325.969
709.705	265.297
713.079	125.625
716.454	581.547
719.829	763.094
723.204	818.961
726.579	1164.23
729.953	769.266
733.328	346.281
736.703	379.992
740.078	91.633
743.453	816.758
746.828	1372.31
750.202	1698.31
753.577	966.375
756.952	1571.98
760.327	1503.38
763.702	1137.05
767.076	1595.48
770.451	2090.25
773.826	2012.82
777.201	1577.07
780.576	1203.92
783.951	1543.93
787.325	1315.98
790.7	1376.47
794.075	1519.17
797.45	941.109
800.825	624.609
804.199	569.203
807.574	287.859
810.949	77.125
814.324	169.656
817.699	222.188
821.073	440.391
824.448	453.797
827.823	130.188
831.198	288.109
834.573	220.625
837.948	423.078
841.322	768.281
844.697	1339.58
848.072	2124.73
851.447	2617.61
854.822	2783.02
858.196	3684.12
861.571	4786.22
864.946	5642.14
868.321	6008.8
871.696	5855.02
875.071	6358.02
878.445	6971.69
881.82	7136.58
885.195	7346.64
888.57	7539.66
891.945	7309.72
895.32	8187.5
898.694	7582.2
902.069	5861.89
905.444	4688.91
908.819	3885.88
912.194	2818
915.568	2203.8
918.943	1736.03
922.318	1403.33
925.693	1911.11
929.068	2459.72
932.443	2622.92
935.817	3022.34
939.192	4094.7
942.567	6455.45
945.942	12148.9
949.317	24607.5
952.692	51738
956.066	103921
959.441	209495
962.816	264572
966.191	173061
969.566	86063.8
972.94	37290.7
976.315	12630.6
979.69	2736.89
983.065	764.797
986.44	1449.5
989.815	695
993.189	962.891
996.564	2949.88
999.939	5913.22
1003.31	9174.62
1006.69	11373.8
1010.06	12090.6
1013.44	13041.5
1016.81	14034
1020.19	15182.4
1023.56	16510.4
1026.94	18848.4
1030.31	20372.1
1033.69	22161.3
1037.06	24488.4
1040.44	24594.3
1043.81	21185.9
1047.19	21622
1050.56	22225.9
1053.94	21027.6
1057.31	15236.1
1060.69	8568.88
1064.06	3106.55
1067.43	744.984
1070.81	328.781
1074.18	3605.11
1077.56	7153.59
1080.93	4978.89
1084.31	1730.5
1087.68	873.75
1091.06	320.922
1094.43	361.344
1097.81	462.188
1101.18	1094.73
1104.56	2370.88
1107.93	3342.08
1111.31	4187.98
1114.68	4703.25
1118.06	6099.17
1121.43	6575.03
1124.81	7456.83
1128.18	8258.38
1131.56	10087.2
1134.93	10111.6
1138.31	9497.36
1141.68	8958.8
1145.06	8462.08
1148.43	7009.38
1151.81	7093.78
1155.18	7240.06
1158.56	6654.73
1161.93	5723.95
1165.31	4752.09
1168.68	3399.61
1172.06	3163.03
1175.43	3691.97
1178.8	3380.44
1182.18	2521.22
1185.55	2477.83
1188.93	1777.59
1192.3	875.891
1195.68	457.188
1199.05	302.922
1202.43	170.031
1205.8	296.859
1209.18	98.672
1212.55	556.656
1215.93	594.031
1219.3	22.406
1222.68	69.922
1226.05	279.297
1229.43	671.828
1232.8	737.828
1236.18	1125.84
1239.55	1111.09
1242.93	1292.14
1246.3	1097.08
1249.68	2000.39
1253.05	1598.02
1256.42	1832.48
1259.8	2194.67
1263.17	1213.53
1266.55	62.109
1269.92	1317.86
1273.3	2334.64
1276.67	2875.98
1280.05	2100.72
1283.42	1722.11
1286.8	1133.59
1290.17	1086.94
1293.55	470.703
1296.92	426.406
1300.3	264.281
