Measurement: Raman, 532 nm, unoriented, Raman Data Processed
Mineral: Fluorapophyllite-(K)
Rruff sample: R050084
Ideal chemistry: KCa_4_Si_8_O_20_F8H_2_O
Locality: near Ahmednagar, Maharashtra, India
Source: Rock Currier
Description: Greenish-white prismatic single crystal associated with scolecite
Measured chemistry: (K_0.98_Na_0.02_)Ca_4.00_Si_8.00_O_20_F_1.00_Â·8H_2_O
Raman shift (cm-1)	intensity
126.038	0
129.413	385.294
132.788	755.281
136.163	130.231
139.537	28.3887
142.912	37.8991
146.287	451.384
149.662	1079.41
153.037	2162.54
156.411	4113.25
159.786	7147
163.161	6521.37
166.536	2364.92
169.911	1091.36
173.286	1314.31
176.66	2411.74
180.035	4904.35
183.41	8831.54
186.785	8546.43
190.16	4363.82
193.535	3242.97
196.909	3473.55
200.284	4323.31
203.659	6228.03
207.034	8915.83
210.409	10217.6
213.783	8091.11
217.158	6816.65
220.533	6271.37
223.908	6260.37
227.283	5931.92
230.657	4240.92
234.032	2277.33
237.407	986.508
240.782	368.502
244.157	21.0178
247.532	160.065
250.906	80.8929
254.281	77.297
257.656	408.388
261.031	969.353
264.406	1685.88
267.781	1809.38
271.155	954.573
274.53	341.997
277.905	187.286
281.28	276.473
284.655	585.242
288.029	1114.07
291.404	1830.12
294.779	2556.3
298.154	2696.92
301.529	1810.61
304.904	893.512
308.278	340.969
311.653	78.7037
315.028	15.0005
318.403	77.2587
321.778	158.756
325.152	341.753
328.527	594.264
331.902	926.044
335.277	1164.14
338.652	1078.49
342.026	712.555
345.401	313.26
348.776	75.846
352.151	31.9253
355.526	2.47376
358.901	116.763
362.275	335.791
365.65	647.194
369.025	1036.38
372.4	1275.84
375.775	907.381
379.149	299.577
382.524	40.5726
385.899	35.9807
389.274	61.3853
392.649	37.0084
396.024	52.4423
399.398	142.297
402.773	185.117
406.148	311.323
409.523	336.148
412.898	473.242
416.272	735.303
419.647	1272.24
423.022	2227.09
426.397	3731.95
429.772	5628.99
433.147	5898.81
436.521	2862.03
439.896	1475.91
443.271	930.647
446.646	682.262
450.021	700.363
453.396	862.944
456.77	1241.36
460.145	1593.45
463.52	1571.76
466.895	1092.12
470.27	583.622
473.644	255.419
477.019	184.312
480.394	166.3
483.769	243.368
487.144	142.848
490.519	13.889
493.893	55.7473
497.268	48.1909
500.643	26.4131
504.018	29.6188
507.393	131.169
510.767	154.019
514.142	198.573
517.517	135.44
520.892	110.718
524.267	88.4672
527.641	151.819
531.016	223.732
534.391	326.822
537.766	370.901
541.141	283.583
544.516	161.058
547.89	81.0455
551.265	4.55823
554.64	15.4297
558.015	52.0935
561.39	185.995
564.764	437.859
568.139	876.852
571.514	1514.18
574.889	2332.3
578.264	3195.26
581.639	3793.56
585.013	3648.51
588.388	2654.64
591.763	1624.97
595.138	829.154
598.513	402.206
601.888	177.965
605.262	43.4147
608.637	18.3729
612.012	26.424
615.387	136.347
618.762	279.274
622.136	387.394
625.511	488.571
628.886	494.803
632.261	528.915
635.636	543.915
639.01	647.783
642.385	807.86
645.76	1101.3
649.135	1483.65
652.51	1939.43
655.885	2357.79
659.259	2695.81
662.634	2770.74
666.009	2497.64
669.384	1946.06
672.759	1365.75
676.134	932.652
679.508	628.217
682.883	395.335
686.258	258.02
689.633	156.013
693.008	116.119
696.382	49.8355
699.757	0.828491
703.132	3.98926
706.507	15.2726
709.882	18.2111
713.256	39.6791
716.631	5.60583
720.006	7.79627
723.381	0.29895
726.756	18.3584
730.131	9.50745
733.505	30.972
736.88	34.4574
740.255	55.8196
743.63	104.041
747.005	191.15
750.38	273.628
753.754	463.823
757.129	782.542
760.504	1099.43
763.879	1378.47
767.254	1251.64
770.628	907.445
774.003	540.043
777.378	406.567
780.753	333.011
784.128	408.885
787.503	512.468
790.877	575.007
794.252	405.094
797.627	197.624
801.002	69.15
804.377	36.0223
807.751	28.3235
811.126	121.1
814.501	155.847
817.876	259.034
821.251	340.994
824.625	481.727
828	565.709
831.375	725.186
834.75	759.568
838.125	770.987
841.5	812.724
844.874	798.438
848.249	759.119
851.624	676.696
854.999	594.012
858.374	456.184
861.749	416.637
865.123	324.173
868.498	226.35
871.873	175.338
875.248	127.566
878.623	130.566
881.997	95.3357
885.372	97.9194
888.747	58.772
892.122	55.4523
895.497	71.0435
898.871	26.406
902.246	77.0872
905.621	49.7161
908.996	14.5663
912.371	23.3147
915.746	24.1268
919.12	7.82873
922.495	18.2871
925.87	0.236816
929.245	23.2325
932.62	5.37097
935.995	11.2119
939.369	5.90723
942.744	28.5785
946.119	28.3832
949.494	17.8929
952.869	63.0215
956.243	39.5564
959.618	156.504
962.993	249.592
966.368	374.174
969.743	555.958
973.117	361.809
976.492	98.6162
979.867	7.36548
983.242	0.581787
986.617	22.5439
989.992	105.697
993.366	245.927
996.741	493.393
1000.12	878.043
1003.49	1267.86
1006.87	1454.79
1010.24	996.196
1013.62	459.459
1016.99	196.012
1020.37	80.1926
1023.74	56.3071
1027.12	78.2739
1030.49	125.576
1033.86	210.232
1037.24	318.424
1040.61	555.484
1043.99	982.868
1047.36	1735.36
1050.74	3208.28
1054.11	5372.99
1057.49	7414.43
1060.86	7010.64
1064.24	4112.85
1067.61	2015.31
1070.99	997.533
1074.36	479.127
1077.74	210.19
1081.11	88.0256
1084.49	22.5034
1087.86	16.2142
1091.24	31.2147
1094.61	3.33862
1097.99	61.1936
1101.36	143.718
1104.73	382.725
1108.11	698.906
1111.48	1113.05
1114.86	1209.44
1118.23	665.822
1121.61	249.837
1124.98	133.158
1128.36	40.4168
1131.73	23.4579
1135.11	44.6835
1138.48	7.66809
1141.86	11.6476
1145.23	16.9382
1148.61	2.79089
1151.98	16.1025
1155.36	21.6873
1158.73	17.7421
1162.11	9.99768
1165.48	26.4437
1168.86	35.7181
1172.23	55.0552
1175.61	79.7605
1178.98	40.3657
1182.36	40.9669
1185.73	43.8914
1189.11	49.3116
1192.48	64.0435
1195.86	50.2719
1199.23	55.1501
1202.61	52.809
1205.98	42.1956
1209.36	33.9337
1212.73	38.9898
1216.1	68.6601
1219.48	74.6241
1222.85	35.1464
1226.23	27.8742
1229.6	51.9927
1232.98	8.35468
1236.35	52.0389
1239.73	54.3777
1243.1	74.5147
1246.48	28.2429
1249.85	43.7355
1253.23	20.2726
1256.6	12.072
1259.98	17.0469
1263.35	55.1746
1266.73	34.2356
1270.1	36.8632
1273.48	9.84961
1276.85	17.5581
1280.23	4.61377
1283.6	7.06677
1286.98	9.49609
1290.35	2.99255
1293.72	24.8781
1297.1	26.0483
1300.47	0.093384
