Measurement: Raman, 780 nm, unoriented, Raman Data Processed
Mineral: Fluorapatite
Rruff sample: R060421
Ideal chemistry: Ca_5_(PO_4_)_3_F
Locality: Levant mine, St. Just, Cornwall, England
Source: Michael Scott
Description: Brown hexagonal prisms
Measured chemistry: (Ca_4.93_[box]_0.07_)_Σ=5_((PO_4_)_2.86_(CO_3_)_0.14_)_Σ=3_F_1.00_ : C not measured but estimated by difference and charge balance
Raman shift (cm-1)	intensity
110.372	0
113.747	1.13159
117.122	5.21899
120.497	12.161
123.871	16.4501
127.246	28.7675
130.621	58.9506
133.996	106.228
137.371	205.402
140.746	175.757
144.12	86.7605
147.495	40.543
150.87	32.4327
154.245	49.1263
157.62	43.3042
160.994	37.0518
164.369	44.6206
167.744	33.2982
171.119	23.246
174.494	13.578
177.869	1.98096
181.243	5.18152
184.618	5.63782
187.993	2.58264
191.368	9.26941
194.743	2.14819
198.117	1.1698
201.492	9.74487
204.867	6.01221
208.242	14.571
211.617	15.963
214.992	9.12598
218.366	10.5189
221.741	7.0791
225.116	15.5727
228.491	20.2277
231.866	25.566
235.24	27.2466
238.615	36.1323
241.99	9.01355
245.365	0.731079
248.74	12.2386
252.114	10.1266
255.489	1.64709
258.864	13.7318
262.239	36.1763
265.614	46.3334
268.988	50.2229
272.363	39.9352
275.738	26.6539
279.113	20.9462
282.488	15.365
285.863	5.31763
289.237	13.5345
292.612	20.6928
295.987	21.0465
299.362	36.2031
302.737	45.609
306.111	77.5341
309.486	93.9115
312.861	83.9071
316.236	66.6948
319.611	51.7592
322.986	50.0709
326.36	41.9276
329.735	27.7533
333.11	16.5602
336.485	18.3712
339.86	15.1952
343.234	10.0055
346.609	4.41638
349.984	1.44141
353.359	3.00134
356.734	7.58923
360.108	4.64575
363.483	4.45654
366.858	2.97668
370.233	11.8307
373.608	0.828613
376.983	2.00513
380.357	1.72107
383.732	2.46838
387.107	3.31458
390.482	1.26465
393.857	13.97
397.231	11.8127
400.606	21.24
403.981	17.1932
407.356	22.3851
410.731	28.3108
414.106	32.9108
417.48	45.5875
420.855	66.9327
424.23	88.7087
427.605	124.746
430.98	154.44
434.354	169.771
437.729	206.34
441.104	246.994
444.479	289.353
447.854	285.321
451.228	228.903
454.603	168.633
457.978	114.609
461.353	79.3723
464.728	61.8363
468.103	44.797
471.477	36.2745
474.852	28.7726
478.227	19.3566
481.602	17.1094
484.977	21.7234
488.351	12.3485
491.726	9.22082
495.101	8.7865
498.476	8.11121
501.851	7.52869
505.226	6.42688
508.6	8.02087
511.975	5.46936
515.35	7.97827
518.725	4.55701
522.1	1.94336
525.474	0.009888
528.849	7.93481
532.224	3.63745
535.599	3.61121
538.974	3.7605
542.348	4.03503
545.723	3.82239
549.098	6.53516
552.473	12.6062
555.848	18.767
559.222	29.3823
562.597	44.0425
565.972	54.0254
569.347	74.613
572.722	115.484
576.097	226.874
579.471	411.47
582.846	291.825
586.221	134.592
589.596	104.968
592.971	85.8227
596.346	71.3019
599.72	80.5223
603.095	130.21
606.47	165.34
609.845	117.687
613.22	118.709
616.594	102.638
619.969	44.5059
623.344	25.9266
626.719	5.09436
630.094	7.29529
633.468	11.8354
636.843	7.80298
640.218	1.50671
643.593	0.342407
646.968	2.29138
650.342	8.24243
653.717	1.87988
657.092	5.75732
660.467	6.63135
663.842	3.05078
667.217	0.594849
670.591	0.059448
673.966	3.11585
677.341	2.12512
680.716	9.41638
684.091	16.3037
687.466	16.4175
690.84	14.6384
694.215	3.4082
697.59	3.51013
700.965	10.6935
704.34	15.9524
707.714	14.8035
711.089	16.3855
714.464	10.434
717.839	12.8962
721.214	8.922
724.588	11.5525
727.963	0.865112
731.338	11.962
734.713	0.4729
738.088	5.59351
741.462	9.89539
744.837	15.6434
748.212	16.0924
751.587	2.15759
754.962	2.4364
758.337	3.0636
761.711	10.0394
765.086	7.65051
768.461	10.7346
771.836	13.8519
775.211	5.28491
778.586	2.40051
781.96	2.40649
785.335	5.10278
788.71	4.80188
792.085	17.7535
795.46	7.76074
798.834	5.34656
802.209	2.28064
805.584	12.3291
808.959	10.1423
812.334	6.45093
815.708	7.31934
819.083	22.238
822.458	17.8821
825.833	10.8256
829.208	5.01648
832.582	7.36926
835.957	5.7594
839.332	8.97217
842.707	6.02722
846.082	12.8734
849.457	4.005
852.831	7.95373
856.206	11.714
859.581	9.0979
862.956	16.8397
866.331	17.2523
869.706	8.34216
873.08	8.16052
876.455	6.77075
879.83	9.79492
883.205	12.0919
886.58	16.2932
889.954	4.61353
893.329	7.41077
896.704	0.712402
900.079	1.72375
903.454	1.55652
906.828	16.0105
910.203	0.07373
913.578	3.72998
916.953	3.68762
920.328	9.24963
923.702	8.67993
927.077	7.72937
930.452	20.6957
933.827	25.1293
937.202	44.4031
940.577	75.6263
943.951	112.958
947.326	218.055
950.701	418.702
954.076	676.779
957.451	1132.62
960.825	2154.08
964.2	3141.69
967.575	1564.78
970.95	548.757
974.325	207.211
977.699	83.4085
981.074	38.5018
984.449	20.4824
987.824	11.5698
991.199	0.077637
994.574	2.99438
997.948	0.311035
1001.32	2.85413
1004.7	1.33325
1008.07	1.65698
1011.45	8.28394
1014.82	19.1376
1018.2	28.4825
1021.57	46.6923
1024.95	77.3995
1028.32	108.727
1031.7	154.242
1035.07	140.861
1038.45	92.5975
1041.82	63.4479
1045.2	55.026
1048.57	63.9373
1051.94	62.0343
1055.32	90.1256
1058.69	122.576
1062.07	107.028
1065.44	82.4645
1068.82	87.8801
1072.19	93.8518
1075.57	76.6144
1078.94	59.6775
1082.32	37.5084
1085.69	18.8822
1089.07	11.8325
1092.44	17.4298
1095.82	0.451538
1099.19	1.20935
1102.57	5.7229
1105.94	0.718018
1109.32	12.5917
1112.69	4.24622
1116.07	4.94458
1119.44	5.78296
1122.82	15.0243
1126.19	18.5182
1129.57	21.645
1132.94	28.6185
1136.32	34.1242
1139.69	42.5808
1143.07	29.6685
1146.44	44.3389
1149.82	38.6454
1153.19	45.7794
1156.57	45.4174
1159.94	47.798
1163.31	49.5602
1166.69	50.4023
1170.06	55.6246
1173.44	59.1386
1176.81	62.5367
1180.19	74.7858
1183.56	64.0797
1186.94	68.636
1190.31	76.1482
1193.69	78.4237
1197.06	82.0017
1200.44	76.7865
1203.81	70.5736
1207.19	61.595
1210.56	58.4727
1213.94	49.602
1217.31	39.0671
1220.69	26.7355
1224.06	17.1594
1227.44	2.49585
1230.81	4.74487
1234.18	2.54907
1237.56	6.85327
1240.93	4.66492
1244.31	13.2473
1247.68	18.8735
1251.06	17.1451
1254.43	27.9551
1257.81	30.2379
1261.18	30.3458
1264.56	8.83777
1267.93	17.9375
1271.31	8.95557
1274.68	5.37378
1278.06	11.5066
1281.43	5.89062
1284.81	0
