Measurement: Raman, 532 nm, unoriented, Raman Data Processed
Mineral: Fluoro-richterite
Rruff sample: R040019
Ideal chemistry: Na(NaCa)Mg_5_Si_8_O_22_F_2_
Locality: Wilberforce, Ontario, Canada
Source: University of Arizona Mineral Museum
Description: Brown prismatic crystals
Measured chemistry: (Na_0.59_K_0.27_[box]_0.14_)_Σ=1_(Ca_1.30_Na_0.70_)_Σ=2_(Mg_4.67_Fe_0.17_Fe^3+^_0.10_Ti_0.03_Mn_0.02_Al_0.01_)_Σ=5_(Si_7.67_Al_0.33_)_Σ=8_(F_1.12_(OH)_0.88_)_Σ=2_; OH estimated by charge balance
Raman shift (cm-1)	intensity
190.794	0
193.686	0.194611
196.579	7.63077
199.472	27.9984
202.365	59.7341
205.257	101.4
208.15	145.244
211.043	187.75
213.935	239.3
216.828	311.806
219.721	395.985
222.613	504.368
225.506	633.094
228.399	763.548
231.292	826.812
234.184	733.57
237.077	558.155
239.97	395.777
242.862	301.516
245.755	243.702
248.648	183.492
251.541	127.857
254.433	91.8903
257.326	74.7873
260.219	56.7231
263.111	32.6459
266.004	13.1697
268.897	2.51068
271.789	7.63538
274.682	11.0305
277.575	11.9029
280.467	6.95111
283.36	4.77872
286.253	6.02579
289.146	17.6556
292.038	31.4727
294.931	47.1537
297.824	65.9998
300.716	82.6707
303.609	101.367
306.502	124.064
309.394	143.386
312.287	148.701
315.18	141.015
318.073	119.006
320.965	97.4983
323.858	79.7797
326.751	68.8046
329.643	62.0683
332.536	58.6012
335.429	57.4896
338.322	62.7483
341.214	70.0184
344.107	83.5316
347	91.6886
349.892	95.0031
352.785	102.191
355.678	113.638
358.57	134.529
361.463	168.554
364.356	196.732
367.248	204.471
370.141	206.08
373.034	207.972
375.926	205.866
378.819	206.601
381.712	215.547
384.605	210.358
387.497	204.988
390.39	202.656
393.283	198.235
396.175	191.819
399.068	180.907
401.961	157.803
404.853	128.99
407.746	106.679
410.639	79.6396
413.532	64.9741
416.424	59.0026
419.317	65.5738
422.21	73.5345
425.102	81.1723
427.995	83.5196
430.888	78.4535
433.781	64.5547
436.673	47.0084
439.566	25.2223
442.459	7.26218
445.351	1.16998
448.244	7.38312
451.137	13.5147
454.029	9.67191
456.922	6.7536
459.815	3.6853
462.707	1.97464
465.6	1.83469
468.493	6.76147
471.386	6.99902
474.278	6.36707
477.171	4.29114
480.064	5.94458
482.956	8.14304
485.849	16.3065
488.742	15.8264
491.635	16.259
494.527	24.162
497.42	31.9825
500.313	43.1027
503.205	57.444
506.098	73.3984
508.991	86.9526
511.883	108.598
514.776	128.037
517.669	140.238
520.562	142.167
523.454	139.971
526.347	123.627
529.24	106.195
532.132	95.2632
535.025	84.9707
537.918	75.2118
540.81	69.9928
543.703	64.1364
546.596	63.8958
549.489	62.6708
552.381	67.9405
555.274	67.105
558.167	67.2755
561.059	66.6773
563.952	61.0131
566.845	62.6384
569.737	61.256
572.63	62.6081
575.523	63.1996
578.415	62.8813
581.308	60.5959
584.201	59.0461
587.094	50.8236
589.986	38.2024
592.879	20.3309
595.772	8.33566
598.664	0.111481
601.557	3.88229
604.45	5.49622
607.342	4.22412
610.235	4.69635
613.128	4.46375
616.021	3.67245
618.913	1.39438
621.806	4.97159
624.699	6.41025
627.591	13.5078
630.484	14.721
633.377	17.4937
636.269	28.2969
639.162	39.1697
642.055	49.7088
644.948	64.7933
647.84	83.7689
650.733	115.569
653.626	152.261
656.518	210.198
659.411	288.762
662.304	413.284
665.197	594.93
668.089	833.658
670.982	1136.02
673.875	1497.9
676.767	1854.44
679.66	1974.67
682.553	1695.1
685.445	1174.81
688.338	729.573
691.231	458.538
694.124	295.217
697.016	194.842
699.909	136.165
702.802	99.0144
705.694	75.4485
708.587	63.5621
711.48	56.054
714.372	57.0406
717.265	60.3746
720.158	64.4661
723.051	69.9328
725.943	77.775
728.836	82.3854
731.729	82.7065
734.621	80.6234
737.514	75.3706
740.407	59.279
743.299	46.7015
746.192	32.8954
749.085	23.3536
751.977	16.1262
754.87	15.3379
757.763	9.67056
760.656	6.22455
763.548	1.38809
766.441	3.51505
769.334	0.387268
772.226	6.46332
775.119	4.31842
778.012	4.16162
780.904	2.90039
783.797	2.51782
786.69	4.19879
789.582	5.23584
792.475	4.63507
795.368	8.96906
798.261	10.9887
801.153	11.5303
804.046	12.9882
806.939	14.9858
809.831	12.1689
812.724	9.39551
815.617	10.9552
818.51	10.8226
821.402	7.15454
824.295	9.46759
827.188	5.89398
830.08	4.94311
832.973	2.56702
835.866	2.93329
838.758	2.37909
841.651	1.03058
844.544	1.69958
847.437	1.89966
850.329	1.98303
853.222	0.453613
856.115	0.466675
859.007	0.148804
861.9	2.56067
864.793	3.77643
867.685	3.8244
870.578	5.33881
873.471	6.51038
876.364	3.27441
879.256	15.9902
882.149	6.44269
885.042	10.7906
887.934	12.1001
890.827	13.5188
893.72	25.9854
896.612	25.6317
899.505	30.6865
902.398	33.7784
905.29	39.5677
908.183	40.3179
911.076	47.3342
913.969	52.8142
916.861	60.4414
919.754	70.3422
922.647	87.0802
925.539	99.02
928.432	98.2173
931.325	107.51
934.217	96.0658
937.11	84.0043
940.003	75.2566
942.896	70.6881
945.788	70.8411
948.681	68.9047
951.574	56.1681
954.466	48.3715
957.359	27.9642
960.252	15.8648
963.144	13.2543
966.037	10.6599
968.93	7.8504
971.823	8.93207
974.715	6.90924
977.608	0.255127
980.501	4.63965
983.393	1.66833
986.286	2.57752
989.179	1.52515
992.072	2.48608
994.964	4.33191
997.857	3.84827
1000.75	7.41107
1003.64	16.8185
1006.53	23.7498
1009.43	28.8441
1012.32	35.3268
1015.21	42.0339
1018.11	46.2313
1021	51.868
1023.89	54.402
1026.78	62.2194
1029.68	70.9509
1032.57	86.4912
1035.46	100.729
1038.36	115.943
1041.25	124.875
1044.14	129.456
1047.03	137.388
1049.93	145.648
1052.82	160.075
1055.71	181.368
1058.6	201.193
1061.5	214.59
1064.39	228.272
1067.28	239.881
1070.17	233.674
1073.07	213.744
1075.96	180.543
1078.85	153.806
1081.74	126.282
1084.64	107.461
1087.53	83.6383
1090.42	64.0825
1093.32	44.262
1096.21	33.2043
1099.1	16.7141
1101.99	15.1663
1104.89	8.35034
1107.78	3.35107
1110.67	1.64893
1113.57	4.5697
1116.46	6.23621
1119.35	2.95373
1122.24	3.54822
1125.14	3.86621
1128.03	1.38818
1130.92	2.1106
1133.81	2.60449
1136.71	0.864258
1139.6	0.380249
1142.49	0.045044
1145.38	3.37854
1148.28	9.54968
1151.17	15.6648
1154.06	12.0057
1156.95	1.38586
1159.85	0.468506
1162.74	1.92273
1165.63	7.00293
1168.53	7.00623
1171.42	0.738525
1174.31	0.38269
1177.2	0.153442
1180.1	4.3136
1182.99	4.89893
1185.88	3.07678
1188.78	1.99561
1191.67	2.99524
1194.56	6.04224
1197.45	7.31995
1200.35	7.6698
1203.24	8.33093
1206.13	7.6322
1209.02	10.5223
1211.92	6.86841
1214.81	7.16504
1217.7	13.0743
1220.6	12.1187
1223.49	16.5989
1226.38	11.0209
1229.27	10.6102
1232.17	9.56201
1235.06	6.75269
1237.95	6.17285
1240.84	2.8551
1243.74	6.7384
1246.63	11.2761
1249.52	7.63318
1252.41	7.07202
1255.31	2.62012
1258.2	5.10352
1261.09	10.2919
1263.98	3.47522
1266.88	5.51233
1269.77	3.80579
1272.66	4.92566
1275.56	3.50354
1278.45	3.85706
