Measurement: Raman, 532 nm, unoriented, Raman Data Processed
Mineral: Fluoro-potassicrichterite
Rruff sample: R060034
Ideal chemistry: KNaCaMg_5_Si_8_O_22_F_2_
Locality: Walgidee, Western Australia, Australia
Source: University of Arizona Mineral Museum
Description: Transparent brown water worn crystal fragment, variety: titanian-fluoro-potassicrichterite
Measured chemistry: (K_0.98_Na_0.02_)_Σ=1_(Ca_1.10_Na_0.90_)_Σ=2_(Mg_4.69_Fe^2+^_0.30_Mn_0.01_)_Σ=5_(Si_7.50_Ti_0.40_Al_0.10_)_Σ=8_O_22_((F_0.74_(OH)_0.26_)_2_
Raman shift (cm-1)	intensity
192.067	0
194.959	0.155884
197.852	1.31995
200.745	7.22107
203.637	10.7136
206.53	21.2899
209.423	34.4451
212.315	45.4511
215.208	62.6579
218.101	81.279
220.994	105.493
223.886	126.816
226.779	146.196
229.672	160.806
232.564	156.961
235.457	123.722
238.35	91.6406
241.243	65.2781
244.135	42.0457
247.028	33.0084
249.921	19.5214
252.813	9.91547
255.706	10.3852
258.599	7.54663
261.491	4.70911
264.384	4.8642
267.277	3.76746
270.17	3.9917
273.062	1.44544
275.955	0.571655
278.848	1.41699
281.74	0.448914
284.633	6.5769
287.526	5.74994
290.418	9.42316
293.311	15.86
296.204	19.7266
299.096	23.5209
301.989	32.148
304.882	33.3636
307.775	41.6451
310.667	38.2477
313.56	31.3383
316.453	25.2838
319.345	23.4023
322.238	21.7288
325.131	19.8268
328.024	15.0963
330.916	14.1766
333.809	9.45215
336.702	10.8155
339.594	8.33441
342.487	12.7794
345.38	19.4016
348.272	13.8295
351.165	18.3577
354.058	23.9095
356.95	26.9521
359.843	35.6581
362.736	36.2295
365.629	33.5889
368.521	34.3523
371.414	35.7233
374.307	28.1523
377.199	28.1862
380.092	24.4769
382.985	23.5568
385.877	20.3919
388.77	28.5648
391.663	29.7501
394.556	31.9092
397.448	29.1397
400.341	34.2283
403.234	31.4172
406.126	33.3505
409.019	27.7037
411.912	20.8749
414.805	17.9807
417.697	12.9443
420.59	8.96948
423.483	7.2229
426.375	11.2956
429.268	8.72742
432.161	10.801
435.053	9.85388
437.946	4.78925
440.839	1.48853
443.731	0.009155
446.624	4.48407
449.517	3.11883
452.409	3.36334
455.302	0.555115
458.195	3.534
461.088	2.27106
463.98	1.56207
466.873	2.08527
469.766	1.93457
472.658	1.32495
475.551	8.06744
478.444	3.21863
481.337	7.8241
484.229	4.12744
487.122	3.67639
490.015	2.17157
492.907	7.71851
495.8	3.5368
498.693	6.00574
501.585	13.7184
504.478	14.7849
507.371	17.0081
510.264	19.7087
513.156	25.0794
516.049	30.3998
518.942	25.7441
521.834	25.7091
524.727	25.6338
527.62	20.0459
530.513	19.3196
533.405	15.3881
536.298	11.4997
539.191	13.5546
542.083	10.9827
544.976	13.3616
547.869	16.3535
550.761	15.7455
553.654	13.1576
556.547	11.9378
559.439	13.4231
562.332	18.1434
565.225	9.82153
568.118	12.4291
571.01	18.7204
573.903	13.8553
576.796	15.4822
579.688	8.09448
582.581	9.4458
585.474	10.6983
588.366	7.34149
591.259	1.151
594.152	0.988586
597.044	1.19177
599.937	3.25604
602.83	0.629089
605.723	1.04394
608.615	3.16809
611.508	0.112427
614.401	2.32019
617.293	1.07221
620.186	2.47199
623.079	2.14179
625.971	0.365723
628.864	0.130554
631.757	1.84766
634.65	1.19244
637.542	1.16779
640.435	2.21405
643.328	5.15247
646.22	13.6639
649.113	13.4851
652.006	24.0013
654.899	29.3726
657.791	46.9846
660.684	66.0322
663.577	99.9485
666.469	146.894
669.362	215.772
672.255	314.987
675.147	423.317
678.04	529.865
680.933	594.072
683.826	503.341
686.718	336.581
689.611	202.712
692.504	127.076
695.396	78.1843
698.289	48.7678
701.182	36.1661
704.074	25.1233
706.967	22.2602
709.86	20.6803
712.753	21.4386
715.645	17.615
718.538	17.7916
721.431	24.1207
724.323	27.0126
727.216	26.855
730.109	24.4287
733.001	21.9613
735.894	20.39
738.787	17.7953
741.679	19.7474
744.572	20.1804
747.465	18.8885
750.358	16.4388
753.25	21.5339
756.143	24.8569
759.036	27.2346
761.928	23.0868
764.821	34.7781
767.714	26.9064
770.606	28.2186
773.499	25.2684
776.392	22.2733
779.285	18.0789
782.177	12.8186
785.07	10.4104
787.963	8.75684
790.855	5.20422
793.748	3.88928
796.641	3.97205
799.533	0.003052
802.426	5.91467
805.319	5.37561
808.212	8.23804
811.104	1.7522
813.997	4.64258
816.89	6.51404
819.782	4.73596
822.675	11.892
825.568	14.448
828.46	19.4176
831.353	19.7024
834.246	27.7985
837.139	29.0602
840.031	32.4116
842.924	31.5233
845.817	35.532
848.709	28.5618
851.602	29.1936
854.495	30.9318
857.388	27.6421
860.28	23.1061
863.173	20.7971
866.066	16.5256
868.958	16.678
871.851	14.2511
874.744	11.5467
877.636	11.9825
880.529	18.557
883.422	26.0617
886.314	32.2479
889.207	41.5159
892.1	45.6212
894.993	44.1494
897.885	44.8627
900.778	34.8644
903.671	27.4918
906.563	23.6138
909.456	21.6205
912.349	16.2511
915.241	19.7312
918.134	24.9774
921.027	22.6385
923.92	26.8745
926.812	32.6947
929.705	34.0256
932.598	31.5566
935.49	28.3127
938.383	26.7044
941.276	24.636
944.168	22.3601
947.061	20.3408
949.954	16.4638
952.847	12.2042
955.739	10.2729
958.632	3.99243
961.525	2.59192
964.417	1.18066
967.31	2.95789
970.203	2.58191
973.096	0.394287
975.988	4.85864
978.881	2.15295
981.774	2.00232
984.666	2.54541
987.559	2.06751
990.452	0.846924
993.344	3.12573
996.237	2.39478
999.13	5.36462
1002.02	4.90784
1004.91	6.73047
1007.81	5.63391
1010.7	4.79419
1013.59	10.663
1016.49	11.8057
1019.38	12.9791
1022.27	14.24
1025.16	15.4526
1028.06	15.3251
1030.95	13.8923
1033.84	17.7181
1036.73	23.0503
1039.63	23.2998
1042.52	18.745
1045.41	26.1067
1048.31	32.7325
1051.2	33.7438
1054.09	34.9616
1056.98	42.8748
1059.88	51.9922
1062.77	50.8729
1065.66	57.7815
1068.56	56.4414
1071.45	55.6437
1074.34	44.5088
1077.23	42.6792
1080.12	41.1603
1083.02	30.2331
1085.91	23.517
1088.8	22.1115
1091.7	21.704
1094.59	18.4033
1097.48	7.94043
1100.37	4.92725
1103.27	6.6084
1106.16	6.02966
1109.05	12.3412
1111.94	6.97876
1114.84	5.6654
1117.73	1.30615
1120.62	8.14758
1123.52	3.40796
1126.41	1.55273
1129.3	0.845459
1132.19	2.71582
1135.09	0.459106
1137.98	0.749512
1140.87	2.88025
1143.77	2.94397
1146.66	5.64526
1149.55	4.46802
1152.44	4.22546
1155.34	5.46802
1158.23	7.27271
1161.12	0.864258
1164.01	4.28247
1166.91	2.88623
1169.8	4.5885
1172.69	2.37854
1175.58	4.01733
1178.48	1.80823
1181.37	4.23938
1184.26	4.99719
1187.15	2.82764
1190.05	1.61499
1192.94	0.80603
1195.83	1.40186
1198.73	1.24084
1201.62	2.09021
1204.51	8.77002
1207.4	1.42236
1210.3	5.79736
1213.19	5.82519
1216.08	3.89356
1218.97	4.57776
1221.87	9.96216
1224.76	8.71936
1227.65	5.80627
1230.55	5.44055
1233.44	4.53394
1236.33	3.9043
1239.22	4.00098
1242.12	6.90747
1245.01	0.488403
1247.9	8.14539
1250.8	2.38599
1253.69	3.89514
1256.58	4.88733
1259.47	9.2489
1262.37	5.30713
1265.26	6.51941
1268.15	8.56812
1271.04	10.5474
1273.94	9.08874
1276.83	4.70508
1279.72	0.714233
1282.61	3.078
1285.51	7.77234
1288.4	6.99548
1291.29	0
