Measurement: Raman, 780 nm, unoriented, Raman Data Processed
Mineral: Fluoro-richterite
Rruff sample: R040019
Ideal chemistry: Na(NaCa)Mg_5_Si_8_O_22_F_2_
Locality: Wilberforce, Ontario, Canada
Source: University of Arizona Mineral Museum
Description: Brown prismatic crystals
Measured chemistry: (Na_0.59_K_0.27_[box]_0.14_)_Σ=1_(Ca_1.30_Na_0.70_)_Σ=2_(Mg_4.67_Fe_0.17_Fe^3+^_0.10_Ti_0.03_Mn_0.02_Al_0.01_)_Σ=5_(Si_7.67_Al_0.33_)_Σ=8_(F_1.12_(OH)_0.88_)_Σ=2_; OH estimated by charge balance
Raman shift (cm-1)	intensity
177.916	0
180.809	20.3997
183.702	22.9197
186.594	0.311035
189.487	10.5479
192.38	0.286133
195.272	20.772
198.165	41.958
201.058	72.9866
203.951	102.106
206.843	144.348
209.736	176.07
212.629	194.738
215.521	218.678
218.414	270.758
221.307	334.889
224.199	415.732
227.092	513.446
229.985	573.331
232.877	534.255
235.77	419.363
238.663	305.66
241.556	232.074
244.448	186.785
247.341	152.085
250.234	110.412
253.126	78.8701
256.019	60.7803
258.912	57.0603
261.805	47.4929
264.697	18.8762
267.59	4.89062
270.483	4.64575
273.375	2.66211
276.268	5.42529
279.161	6.64185
282.053	5.37158
284.946	0.226807
287.839	2.61475
290.731	0.917725
293.624	11.0754
296.517	29.8899
299.41	46.6926
302.302	55.0454
305.195	66.0183
308.088	73.0627
310.98	84.8513
313.873	78.3208
316.766	61.2024
319.659	66.0166
322.551	38.1267
325.444	34.2905
328.337	36.1443
331.229	47.4922
334.122	60.1685
337.015	48.343
339.907	58.1065
342.8	78.2832
345.693	69.2229
348.586	68.4236
351.478	69.8767
354.371	67.2146
357.264	72.8203
360.156	92.4624
363.049	97.4639
365.942	110.377
368.834	125.186
371.727	137.82
374.62	134.996
377.512	127.139
380.405	130.733
383.298	131.827
386.191	124.249
389.083	105.572
391.976	105.66
394.869	88.5259
397.761	97.1069
400.654	82.8091
403.547	66.3577
406.44	44.0095
409.332	46.0002
412.225	28.937
415.118	20.636
418.01	33.8918
420.903	51.3372
423.796	54.1277
426.688	66.5915
429.581	71.4639
432.474	60.3162
435.366	45.8379
438.259	24.1377
441.152	14.0898
444.045	2.31714
446.937	6.3855
449.83	8.54199
452.723	3.23682
455.615	3.15137
458.508	6.43823
461.401	3.55127
464.293	5.0791
467.186	0.984131
470.079	3.95703
472.972	7.81811
475.864	6.50879
478.757	0.898682
481.65	13.1409
484.542	9.97827
487.435	1.50855
490.328	0.934326
493.221	9.70801
496.113	13.563
499.006	2.46582
501.899	11.6567
504.791	20.0332
507.684	32.1201
510.577	35.5676
513.469	48.5503
516.362	64.011
519.255	85.426
522.148	80.761
525.04	62.6941
527.933	37.6514
530.826	48.6965
533.718	34.9563
536.611	12.7346
539.504	13.7722
542.396	14.948
545.289	17.7195
548.182	14.7961
551.074	13.623
553.967	10.2639
556.86	23.158
559.753	13.0037
562.645	27.1055
565.538	32.4529
568.431	12.1311
571.323	5.33301
574.216	15.0278
577.109	15.417
580.001	20.1235
582.894	20.1821
585.787	15.3525
588.68	26.98
591.572	17.4439
594.465	5.21729
597.358	1.97803
600.25	8.81445
603.143	3.20801
606.036	5.71191
608.928	5.36768
611.821	2.65332
614.714	5.27734
617.607	3.83301
620.499	5.85596
623.392	9.41797
626.285	6.33398
629.177	14.2681
632.07	21.7925
634.963	19.2436
637.856	31.48
640.748	39.1841
643.641	44.0342
646.534	44.1719
649.426	59.6103
652.319	81.5811
655.212	117.543
658.104	142.531
660.997	205.777
663.89	292.618
666.783	380.874
669.675	501.557
672.568	673.536
675.461	853.805
678.353	974.943
681.246	915.441
684.139	682.318
687.031	426.653
689.924	260.205
692.817	175.956
695.71	117.116
698.602	73.082
701.495	49.6645
704.388	44.898
707.28	26.7871
710.173	24.8003
713.066	40.8784
715.958	40.7202
718.851	38.5215
721.744	47.9824
724.636	55.042
727.529	42.1597
730.422	42.3594
733.314	46.8608
736.207	39.0391
739.1	33.1069
741.993	38.2461
744.885	25.8994
747.778	7.06006
750.671	11.6411
753.563	17.4863
756.456	21.0991
759.349	11.3979
762.241	10.2622
765.134	2.22022
768.027	5.88477
770.92	4.07519
773.812	2.0835
776.705	2.06836
779.598	2.46924
782.49	8.7041
785.383	7.37842
788.276	6.40576
791.168	0.081055
794.061	14.3662
796.954	11.0674
799.847	6.95801
802.739	14.1284
805.632	1.30371
808.525	1.04981
811.417	11.8477
814.31	27.3745
817.203	22.8115
820.096	28.2231
822.988	31.2681
825.881	18.8398
828.774	9.47656
831.666	22.2627
834.559	28.0093
837.452	19.023
840.344	20.7251
843.237	28.9595
846.13	24.2036
849.023	21.5381
851.915	13.3721
854.808	19.2886
857.701	12.1514
860.593	11.2192
863.486	1.62744
866.379	0.317871
869.271	1.27637
872.164	4.5459
875.057	13.1455
877.949	2.71143
880.842	0.030273
883.735	2.83301
886.628	4.40527
889.52	4.23682
892.413	0.223145
895.306	6.30273
898.198	7.01123
901.091	4.22314
903.984	22.96
906.876	16.002
909.769	18.689
912.662	43.686
915.555	39.3857
918.447	36.0747
921.34	50.2549
924.233	75.1728
927.125	60.0239
930.018	56.2539
932.911	55.3701
935.803	63.227
938.696	51.8418
941.589	42.5322
944.482	50.9053
947.374	37.7544
950.267	39.9722
953.16	46.3457
956.052	31.231
958.945	17.4258
961.838	13.2393
964.731	20.1245
967.623	12.0952
970.516	15.1807
973.409	27.8428
976.301	18.959
979.194	10.0244
982.087	9.75781
984.979	7.71289
987.872	18.5547
990.765	1.05371
993.658	19.4985
996.55	15.311
999.443	15.8472
1002.34	31.7842
1005.23	26.0532
1008.12	26.3462
1011.01	40.3711
1013.91	40.168
1016.8	38.1602
1019.69	46.3013
1022.58	46.0029
1025.48	64.5137
1028.37	61.4736
1031.26	59.9507
1034.15	83.3354
1037.05	73.2285
1039.94	72.667
1042.83	87.3731
1045.73	96.9805
1048.62	92.0942
1051.51	90.8027
1054.4	114.404
1057.3	126.933
1060.19	133.646
1063.08	160.721
1065.97	164.861
1068.87	162.415
1071.76	144.198
1074.65	142.918
1077.55	118.717
1080.44	77.7075
1083.33	76.3115
1086.22	63.7119
1089.12	52.8501
1092.01	50.1128
1094.9	39.0273
1097.8	58.998
1100.69	12.1885
1103.58	29.227
1106.47	15.6611
1109.37	0.736328
1112.26	0.147949
1115.15	9.29834
1118.04	3.60303
1120.94	10.5073
1123.83	1.32861
1126.72	28.5947
1129.61	23.0107
1132.51	22.5527
1135.4	13.8023
1138.29	26.8159
1141.18	14.8486
1144.08	52.1899
1146.97	38.9258
1149.86	17.2588
1152.76	22.8511
1155.65	42.3218
1158.54	31.8823
1161.43	32.4556
1164.33	33.4141
1167.22	36.3784
1170.11	20.5444
1173.01	30.2358
1175.9	42.7363
1178.79	23.8706
1181.68	28.6186
1184.58	19.5903
1187.47	18.353
1190.36	18.7886
1193.25	18.8662
1196.15	27.3921
1199.04	10.7476
1201.93	3.87451
1204.83	11.7612
1207.72	23.7827
1210.61	1.38135
1213.5	14.0102
1216.39	42.7422
1219.29	8.7583
1222.18	5.07519
1225.07	21.1396
1227.97	9.88281
1230.86	8.38281
1233.75	20.4014
1236.64	29.3896
1239.54	13.8379
1242.43	2.7793
1245.32	9.66943
1248.21	22.7749
1251.11	0
