Measurement: Raman, 780 nm, unoriented, Raman Data Processed
Mineral: Fluorcalcioromeite
Rruff sample: R120140
Ideal chemistry: (Ca,Na)_2_Sb^5+^_2_O_6_F
Locality: Starlera mine, Starlera Valley, Ferrera, Hinterrhein district, Grishun, Switzerland
Source: Marcelo Andrade
Description: Brownish-yellow octahedra, associated with hematite, calcite and quartz. Type specimen (Atencio et al (2013))
Measured chemistry: (Ca_1.16_Na_0.56_Fe_0.03_Mn_0.03_)(Sb_1.98_Al_0.01_W_0.01_)_2_O_6_[F_0.62_(OH)_0.35_]
Raman shift (cm-1)	intensity
110.484	0
113.859	2.02861
117.234	1.4896
120.609	1.64971
123.984	0.083656
127.358	1.65415
130.733	1.27229
134.108	2.48718
137.483	3.50858
140.858	3.12717
144.232	3.3876
147.607	3.53982
150.982	2.99495
154.357	1.71783
157.732	1.46654
161.107	2.00239
164.481	1.57874
167.856	0.418259
171.231	0.305176
174.606	0.460373
177.981	0.643089
181.355	1.66617
184.73	3.39486
188.105	4.07838
191.48	5.21637
194.855	5.96577
198.229	6.49942
201.604	7.39848
204.979	7.51116
208.354	7.6497
211.729	7.75324
215.103	9.24929
218.478	9.17523
221.853	11.982
225.228	17.9229
228.603	8.56819
231.978	2.3221
235.352	0.871674
238.727	0.457092
242.102	0.856682
245.477	0.339745
248.852	0.002632
252.226	0.613953
255.601	1.62561
258.976	4.09358
262.351	8.32105
265.726	11.5025
269.101	15.7442
272.475	22.7607
275.85	30.7182
279.225	39.3923
282.6	51.3564
285.975	64.0026
289.349	79.0084
292.724	92.5366
296.099	89.1377
299.474	87.4577
302.849	79.8592
306.224	70.0362
309.598	52.8537
312.973	39.3795
316.348	29.3656
319.723	21.514
323.098	18.011
326.472	14.9535
329.847	13.2536
333.222	12.7611
336.597	11.8137
339.972	11.6929
343.346	10.9484
346.721	10.1706
350.096	8.19173
353.471	7.31808
356.846	7.14872
360.221	6.29509
363.595	8.19783
366.97	10.3973
370.345	13.1773
373.72	7.96484
377.095	3.88804
380.469	1.99515
383.844	0.903488
387.219	0.960579
390.594	0.606552
393.969	1.04367
397.344	1.10575
400.718	1.07993
404.093	1.95191
407.468	7.15532
410.843	9.28525
414.217	4.81615
417.592	0.766609
420.967	2.73338
424.342	0.289085
427.717	4.41522
431.092	2.86777
434.466	0.08783
437.841	2.90514
441.216	10.6766
444.591	23.7881
447.966	40.6693
451.341	66.221
454.715	99.3804
458.09	137.642
461.465	162.713
464.84	164.011
468.215	152.989
471.589	143.327
474.964	136.862
478.339	131.469
481.714	138.132
485.089	159.787
488.463	202.038
491.838	279.07
495.213	415.968
498.588	641.669
501.963	959.8
505.337	1322.84
508.712	1779.06
512.087	2358.36
515.462	2788.57
518.837	2450.31
522.212	1522.01
525.586	893.264
528.961	556.634
532.336	354.915
535.711	231.197
539.086	142.259
542.46	83.7547
545.835	49.6843
549.21	29.9514
552.585	18.4297
555.96	9.65827
559.335	5.00921
562.709	3.2492
566.084	0.383461
569.459	2.13913
572.834	2.2595
576.209	1.86496
579.583	2.76627
582.958	2.37478
586.333	1.20113
589.708	0.008659
593.083	3.19009
596.457	1.90841
599.832	2.20938
603.207	4.25988
606.582	6.28791
609.957	6.5693
613.332	6.24614
616.706	5.07552
620.081	3.52518
623.456	3.20351
626.831	3.62898
630.206	2.12782
633.58	3.18318
636.955	2.96092
640.33	2.53183
643.705	2.49107
647.08	2.37676
650.455	2.30944
653.829	2.70985
657.204	2.30145
660.579	2.90467
663.954	2.61659
667.329	2.9099
670.703	2.92606
674.078	2.94499
677.453	2.81713
680.828	2.92709
684.203	2.47364
687.577	1.9672
690.952	1.44139
694.327	0.791077
697.702	0.276909
701.077	0.641968
704.452	0.733688
707.826	0.161636
711.201	1.76342
714.576	2.64316
717.951	2.84779
721.326	2.20515
724.7	2.75278
728.075	3.38394
731.45	4.25269
734.825	1.28448
738.2	0.959145
741.574	0.499886
744.949	0.498489
748.324	0.659714
751.699	0.418633
755.074	0.018585
758.449	0.728798
761.823	0.072968
765.198	0.840256
768.573	3.20541
771.948	8.88307
775.323	14.3451
778.697	20.9794
782.072	26.4698
785.447	29.0533
788.822	28.4589
792.197	26.5128
795.572	23.5765
798.946	24.474
802.321	24.3502
805.696	27.83
809.071	31.6029
812.446	40.7923
815.82	53.9028
819.195	68.966
822.57	85.6961
825.945	97.234
829.32	89.5547
832.694	66.2251
836.069	46.6086
839.444	34.0498
842.819	24.6964
846.194	19.9965
849.569	16.2439
852.943	11.4318
856.318	8.18092
859.693	5.32952
863.068	3.14439
866.443	1.75416
869.817	0.034851
873.192	0.020088
876.567	0.203156
879.942	1.15017
883.317	0.308708
886.692	0.391418
890.066	0.885284
893.441	0.556984
896.816	1.23241
900.191	1.27461
903.566	1.45249
906.94	3.03131
910.315	3.6508
913.69	4.08659
917.065	5.22768
920.44	4.33524
923.814	4.26412
927.189	5.1822
930.564	3.45537
933.939	2.88585
937.314	2.31907
940.689	2.41023
944.063	0.332512
947.438	0.513077
950.813	0.18988
954.188	0.344231
957.563	0.225624
960.937	0.399391
964.312	1.13379
967.687	0.393326
971.062	0.167595
974.437	0.376915
977.812	0.627083
981.186	0.000107
984.561	0.171181
987.936	0.738815
991.311	0.769455
994.686	1.57246
998.06	1.9196
1001.43	2.74653
1004.81	2.90507
1008.18	2.76668
1011.56	2.79678
1014.93	3.50647
1018.31	3.05713
1021.68	3.9994
1025.06	1.22713
1028.43	1.54584
1031.81	0.286003
1035.18	1.93604
1038.56	1.37973
1041.93	1.50881
1045.31	1.72948
1048.68	1.62087
1052.06	1.04237
1055.43	2.19068
1058.81	1.51514
1062.18	2.37914
1065.56	2.64641
1068.93	1.87238
1072.31	1.57918
1075.68	1.77398
1079.06	2.48204
1082.43	2.79102
1085.81	4.06483
1089.18	3.97058
1092.56	2.80024
1095.93	2.11613
1099.31	0.765854
1102.68	1.43369
1106.05	0.983261
1109.43	1.18096
1112.8	0.845192
1116.18	1.92565
1119.55	1.35336
1122.93	1.43187
1126.3	0.302956
1129.68	0.403137
1133.05	0.809937
1136.43	0.4216
1139.8	0.406258
1143.18	0.225838
1146.55	0.287415
1149.93	0.131287
1153.3	0.772072
1156.68	1.44861
1160.05	1.31775
1163.43	1.63875
1166.8	2.6021
1170.18	3.80391
1173.55	3.9641
1176.93	3.02157
1180.3	2.64987
1183.67	2.53075
1187.05	4.02671
1190.42	5.11897
1193.8	7.47971
1197.17	9.34963
1200.55	10.534
1203.92	8.77199
1207.3	6.85419
1210.67	6.20592
1214.05	3.49024
1217.42	3.12572
1220.8	1.98358
1224.17	2.34345
1227.55	1.62953
1230.92	2.88842
1234.3	2.14139
1237.67	2.47195
1241.05	2.05807
1244.42	0.803108
1247.8	0.7164
1251.17	0.036415
1254.55	0.810928
1257.92	0.194817
1261.3	0.466446
1264.67	0.306984
1268.05	0.914688
1271.42	0.844109
1274.8	1.3064
1278.17	1.24619
1281.55	0.7771
