Measurement: Raman, 514 nm, unoriented, Raman Data Processed
Mineral: Fluorapatite
Rruff sample: R050340
Ideal chemistry: Ca_5_(PO_4_)_3_F
Locality: Buckingham, Quebec, Canada
Source: California Institute of Technology
Description: Blue fragment
Measured chemistry: Ca_5.00_((P_0.98_Si_0.02_)O_4_)_3_F_1.00_
Raman shift (cm-1)	intensity
87.798	0
91.981	91.12
96.161	76.767
100.34	71.502
104.516	73.844
108.691	15.948
112.864	31.805
117.034	245.941
121.203	201.517
125.369	61.386
129.534	196.685
133.696	632.232
137.857	1063.12
142.016	545.571
146.172	234.452
150.327	199.49
154.48	408.84
158.63	481.196
162.779	367.282
166.926	357.474
171.07	254.358
175.213	182.946
179.354	104.343
183.493	41.569
187.63	21.356
191.765	4.589
195.898	14.592
200.029	52.099
204.158	101.658
208.285	157.109
212.41	77.579
216.533	30.679
220.654	39.341
224.773	137.259
228.891	248.589
233.006	369.663
237.119	268.927
241.231	208.256
245.34	85.283
249.448	79.786
253.553	108.989
257.657	254.221
261.758	622.716
265.858	886.262
269.956	625.829
274.052	415.417
278.146	301.492
282.237	260.028
286.327	233.505
290.416	245.917
294.502	274.259
298.586	268.523
302.668	369.692
306.749	502.692
310.827	554.565
314.903	359.365
318.978	216.085
323.051	108.727
327.121	81.312
331.19	91.044
335.257	62.872
339.322	31.804
343.385	37.558
347.446	15.344
351.505	19.058
355.563	0.442
359.618	24.698
363.672	3.818
367.723	5.01
371.773	34.483
375.821	4.284
379.866	13.426
383.91	16.221
387.952	0.312
391.992	25.257
396.031	44.629
400.067	56.414
404.101	93.959
408.134	116.397
412.165	186.737
416.193	272.039
420.22	425.256
424.245	766.365
428.268	1193.36
432.289	1241.24
436.309	1313
440.326	1654.63
444.342	1917.14
448.355	1792.52
452.367	1241.81
456.377	828.985
460.385	542.041
464.391	357.973
468.395	245.812
472.398	182.802
476.398	142.704
480.397	142.201
484.394	114.744
488.389	91.994
492.382	89.828
496.373	101.288
500.362	66.554
504.349	62.659
508.335	57.723
512.319	45.513
516.3	72.716
520.28	25.443
524.259	46.068
528.235	66.862
532.209	14.606
536.182	0.451
540.152	60.898
544.121	33.319
548.088	74.984
552.053	61.681
556.017	85.428
559.978	108.922
563.938	164.845
567.895	275.211
571.851	529.867
575.805	1478.95
579.758	2961.85
583.708	1579.36
587.657	1155.05
591.603	1047.02
595.548	539.282
599.491	595.386
603.432	1499.44
607.372	1592.04
611.309	809.572
615.245	861.633
619.179	408.895
623.111	196.367
627.041	100.523
630.97	59.26
634.896	137.446
638.821	111.859
642.744	120.698
646.665	148.532
650.584	190.756
654.502	134.084
658.418	99.48
662.331	76.2
666.244	49.656
670.154	95.803
674.062	47.993
677.969	79.885
681.874	25.801
685.777	72.86
689.678	82.817
693.577	49.088
697.475	69.369
701.371	34.479
705.265	36.989
709.157	4.123
713.047	86.142
716.936	17.601
720.823	67.435
724.708	38.291
728.591	40.058
732.472	24.304
736.352	28.483
740.23	73.672
744.106	60.43
747.98	353.192
751.853	385.686
755.723	185.03
759.592	4.777
763.459	39.212
767.325	53.975
771.188	10.436
775.05	49.963
778.91	10.176
782.768	46.106
786.625	1.506
790.479	24.069
794.332	0.445
798.183	13.543
802.033	84.604
805.88	8.557
809.726	43.324
813.57	5.861
817.413	5.429
821.253	0.101
825.092	4.854
828.929	31.802
832.764	9.01
836.598	24.851
840.429	9.905
844.259	22.902
848.088	70.004
851.914	94.941
855.739	92.02
859.562	55.805
863.383	148.03
867.203	170.516
871.02	136.086
874.836	110.863
878.65	85.331
882.463	66.525
886.274	94.839
890.083	13.66
893.89	38.429
897.695	34.805
901.499	57.812
905.301	97.088
909.102	130.295
912.9	172.326
916.697	133.319
920.492	145.513
924.285	157.917
928.077	265.832
931.867	335.19
935.655	388.975
939.442	501.422
943.226	746.9
947.009	1171.92
950.791	1943.81
954.57	3636.61
958.348	11036.7
962.124	38300.7
965.899	37310.7
969.671	10951.7
973.442	3461.34
977.211	1265.88
980.979	671.997
984.745	343.558
988.509	261.086
992.271	175.519
996.032	182.109
999.791	154.359
1003.55	386.948
1007.3	831.821
1011.06	816.547
1014.81	389.008
1018.56	378.723
1022.31	487.432
1026.06	628.259
1029.8	1246.09
1033.55	1914.85
1037.29	1253.4
1041.03	1139.36
1044.77	827.224
1048.5	615.083
1052.24	870.554
1055.97	1070.08
1059.7	1649.12
1063.43	840.489
1067.16	577.944
1070.89	696.297
1074.61	656.633
1078.34	928.817
1082.06	687.61
1085.78	564.757
1089.5	306.189
1093.21	116.804
1096.93	62.339
1100.64	37.989
1104.35	59.672
1108.06	54.452
1111.77	25.865
1115.48	42.735
1119.18	16.411
1122.89	347.588
1126.59	105.927
1130.29	73.168
1133.99	34.467
1137.68	145.354
1141.38	64.395
1145.07	144.806
1148.76	106.229
1152.45	59.51
1156.14	73.297
1159.83	108.712
1163.51	94.214
1167.19	59.37
1170.88	108.333
1174.56	67.313
1178.23	9.769
1181.91	1.359
1185.59	76.248
1189.26	29.675
1192.93	98.531
1196.6	98.365
1200.27	105.576
1203.94	32.484
1207.6	113.482
1211.27	178.616
1214.93	143.5
1218.59	103.038
1222.25	93.246
1225.9	109.171
1229.56	21.336
1233.21	45.235
1236.86	84.916
1240.51	162.15
1244.16	100.125
1247.81	90.036
1251.45	87.881
1255.1	33.835
1258.74	79.785
1262.38	113.642
1266.02	56.644
1269.66	15.89
1273.29	130.735
1276.93	46.929
1280.56	77.833
1284.19	85.485
1287.82	19.221
1291.45	50.474
1295.07	68.064
1298.7	49.049
1302.32	3.076
1305.94	20.916
1309.56	13.24
1313.18	84.949
1316.8	14.233
1320.41	83.793
1324.02	59.925
1327.63	63.067
1331.24	152.873
1334.85	15.074
1338.46	143.033
1342.06	64.948
1345.67	90.284
1349.27	73.993
1352.87	111.598
1356.47	51.458
1360.07	128.051
1363.66	129.861
1367.25	182.759
1370.85	127.314
1374.44	106.941
1378.03	183.187
1381.61	123.666
1385.2	123.302
1388.78	52.284
1392.37	126.985
1395.95	144.411
1399.53	108.898
1403.1	237.283
1406.68	180.729
1410.26	250.508
1413.83	163.822
1417.4	206.686
1420.97	220.585
1424.54	205.675
1428.1	256.274
1431.67	74.289
1435.23	210.65
1438.8	314.908
1442.36	239.081
1445.91	184.695
1449.47	194.674
1453.03	207.571
1456.58	168
1460.13	118.921
1463.68	171.96
1467.23	304.532
1470.78	159.242
1474.33	268.702
1477.87	111.91
1481.42	236.01
1484.96	231.624
1488.5	343.251
1492.04	88.186
1495.57	124.706
1499.11	197.354
1502.64	37.547
1506.17	115.455
1509.71	99.77
1513.23	178.791
1516.76	37.449
1520.29	26.216
1523.81	0
