Measurement: Raman, 514 nm, unoriented, Raman Data Processed
Mineral: Fluorapatite
Rruff sample: R050194
Ideal chemistry: Ca_5_(PO_4_)_3_F
Locality: Siglo XX mine, Llallagua, Bolivia
Source: Dave Bunk Minerals
Description: Purple crystal fragments
Measured chemistry: Ca_5.00_(P_1.00_O_4_)_3_F_1.00_
Raman shift (cm-1)	intensity
115.971	0
120.163	2.858
124.353	53.308
128.541	68.178
132.727	66.843
136.91	173.365
141.091	298.16
145.27	204.925
149.447	109.251
153.621	71.292
157.794	139.627
161.964	70.827
166.132	73.458
170.297	23.037
174.461	2.432
178.622	15.834
182.781	0.514
186.938	3.73
191.092	2.856
195.245	67.478
199.395	101.944
203.543	127.365
207.689	421.761
211.833	503.553
215.974	230.513
220.113	112.624
224.251	37.639
228.385	53.221
232.518	127.563
236.649	92.78
240.777	71.609
244.903	29.503
249.027	49.352
253.149	23.706
257.269	11.292
261.386	21.094
265.502	21.738
269.615	63.335
273.726	43.071
277.835	21.078
281.941	62.625
286.046	27.137
290.148	44.279
294.248	140.345
298.346	129.74
302.442	203.7
306.536	202.627
310.628	136.623
314.717	134.491
318.804	79.374
322.889	51.198
326.972	90.633
331.053	80.835
335.132	78.377
339.208	5.038
343.283	48.19
347.355	44.958
351.425	56.594
355.493	81.111
359.559	56.119
363.623	96.667
367.684	28.949
371.744	31.512
375.801	114.86
379.857	25.378
383.91	36.273
387.961	60.793
392.01	5.042
396.056	39.337
400.101	48.764
404.143	3.81
408.184	42.417
412.222	63.739
416.258	36.308
420.292	78.969
424.324	92.091
428.354	188.119
432.382	121.429
436.408	113.19
440.431	107.466
444.453	243.677
448.472	279.679
452.489	332.129
456.505	155.242
460.518	151.581
464.529	116.699
468.538	9.067
472.544	2.99
476.549	15.05
480.552	5.885
484.552	70.82
488.551	20.792
492.547	30.936
496.542	44.329
500.534	93.688
504.524	64.583
508.512	112.2
512.498	79.765
516.482	38.465
520.464	76.063
524.444	33.52
528.422	24.497
532.397	24.603
536.371	80.5
540.343	114.62
544.312	65.068
548.28	191.832
552.245	127.975
556.208	70.686
560.17	100.892
564.129	70.315
568.086	27.331
572.041	55.73
575.994	11.019
579.945	50.058
583.894	208.414
587.841	859.913
591.786	1552.12
595.729	366.208
599.67	162.391
603.609	595.24
607.546	991.728
611.48	172.586
615.413	85.271
619.344	140.28
623.272	55.345
627.199	150.827
631.124	83.621
635.046	33.695
638.967	131.429
642.885	83.448
646.802	63.535
650.716	76.017
654.629	151.977
658.539	15.2
662.448	203.476
666.354	125.108
670.258	95.653
674.161	10.898
678.061	46.309
681.96	118.773
685.856	34.815
689.75	22.913
693.643	38.476
697.533	180.063
701.422	41.066
705.308	34.752
709.192	77.88
713.075	10.016
716.955	16.782
720.834	178.124
724.71	280.263
728.584	139.214
732.457	47.862
736.327	26.918
740.196	168.223
744.062	91.661
747.927	174.498
751.789	217.966
755.65	99.729
759.509	213.319
763.365	222.337
767.22	254.267
771.072	165.504
774.923	146.513
778.772	33.061
782.619	215.03
786.463	172.892
790.306	227.389
794.147	150.679
797.986	211.807
801.823	144.328
805.658	129.794
809.491	102.129
813.322	71.717
817.151	159.445
820.978	55.886
824.803	160.005
828.627	332.396
832.448	206.387
836.267	148.922
840.085	109.958
843.9	181.662
847.714	257.807
851.525	168.991
855.335	179.065
859.143	238.067
862.948	25.885
866.752	199.301
870.554	122.177
874.354	185.189
878.152	175.431
881.948	103.445
885.742	75.877
889.535	137.707
893.325	44.888
897.113	92.93
900.9	118.437
904.684	70.077
908.467	44.244
912.247	256.772
916.026	168.12
919.803	222.896
923.578	100.28
927.351	251.271
931.122	34.996
934.891	274.152
938.659	143.09
942.424	212.094
946.188	315.346
949.949	441.023
953.709	524.467
957.467	1752.45
961.222	9029.92
964.976	18812.2
968.729	3462.27
972.479	743.15
976.227	6.801
979.973	170.205
983.718	344.965
987.46	146.516
991.201	365.9
994.94	149.656
998.677	24.354
1002.41	37.824
1006.14	382.648
1009.88	305.389
1013.61	223.348
1017.33	340.586
1021.06	114.904
1024.78	186.279
1028.51	136.525
1032.22	49.281
1035.94	125.619
1039.66	371.371
1043.37	588.631
1047.09	938.736
1050.8	2923.67
1054.51	1777.64
1058.21	668.883
1061.92	274.305
1065.62	414.275
1069.32	107.855
1073.02	365.92
1076.72	644.334
1080.41	1597.42
1084.11	615.035
1087.8	421.844
1091.49	341.883
1095.18	307.346
1098.87	33.783
1102.55	224.205
1106.23	220.402
1109.91	25.475
1113.59	88.6
1117.27	457.084
1120.95	380.25
1124.62	107.658
1128.29	12.154
1131.96	131.885
1135.63	19.943
1139.3	227.455
1142.96	416.689
1146.62	328.9
1150.28	336.316
1153.94	51.896
1157.6	253.914
1161.25	23.004
1164.91	268.426
1168.56	149.465
1172.21	65.676
1175.86	187.049
1179.5	389.947
1183.15	374.031
1186.79	218.738
1190.43	235.43
1194.07	163.867
1197.71	451.688
1201.34	430.654
1204.97	399.846
1208.61	467.764
1212.24	405.641
1215.86	280.701
1219.49	327.82
1223.11	59.639
1226.74	60.24
1230.36	509.939
1233.98	319.67
1237.59	488.402
1241.21	467.91
1244.82	209.109
1248.43	1.234
1252.04	94.91
1255.65	29.828
1259.26	724.52
1262.86	452.785
1266.47	649.461
1270.07	852.383
1273.67	166.996
1277.26	161.508
1280.86	196.777
1284.45	311.633
1288.05	477.051
1291.63	108.395
