Measurement: Raman, 514 nm, unoriented, Raman Data Processed
Mineral: Fluorite
Rruff sample: R050045
Ideal chemistry: CaF_2_
Locality: Hunan Province, China
Source: Eugene Schlepp
Description: Pale green colored cubes
Measured chemistry: Ca_1.000_ F_2.000_
Raman shift (cm-1)	intensity
128.146	0
132.309	22.248
136.47	290.883
140.63	413.945
144.787	423.829
148.942	305.583
153.096	469.976
157.247	715.838
161.396	623.288
165.544	712.882
169.689	948.385
173.833	859.748
177.974	863.018
182.114	984.661
186.251	1610.12
190.387	2159.66
194.52	1539.29
198.652	783.368
202.782	472.845
206.909	370.223
211.035	138.802
215.159	19.64
219.281	58.898
223.4	3.332
227.518	6.069
231.634	19.508
235.748	8.677
239.86	83.419
243.97	41.731
248.079	64.834
252.185	36.305
256.289	14.73
260.391	12.87
264.492	109.365
268.59	48.544
272.687	15.569
276.781	1.719
280.874	141.024
284.964	47.824
289.053	170.669
293.14	218.525
297.225	534.755
301.308	790.098
305.389	1221.1
309.468	2499.71
313.545	5531.76
317.62	13158.6
321.693	18270.2
325.765	10901.3
329.834	5145.34
333.902	2718.6
337.967	1822.88
342.031	1379.23
346.093	1158.03
350.153	910.101
354.21	952.79
358.267	899.575
362.321	850.632
366.373	817.725
370.423	646.864
374.471	617.938
378.518	688.092
382.563	692.327
386.605	544.602
390.646	589.744
394.685	539.486
398.722	458.962
402.757	400.015
406.79	345.79
410.821	337.542
414.851	367.704
418.878	294.943
422.904	278.308
426.927	318.496
430.949	301.688
434.969	224.792
438.987	340.669
443.003	159.637
447.018	116.813
451.03	107.07
455.041	73.588
459.049	50.124
463.056	62.22
467.061	41.303
471.064	114.721
475.065	57.359
479.064	86.907
483.062	161.819
487.057	146.833
491.051	102.588
495.043	200.193
499.032	175.379
503.02	187.77
507.007	273.173
510.991	273.035
514.973	157.288
518.954	248.05
522.933	239.971
526.91	229.708
530.885	285.746
534.858	422.706
538.829	330.644
542.799	439.35
546.766	436.815
550.732	433.044
554.696	517.06
558.658	641.877
562.618	738.555
566.576	730.01
570.533	771.292
574.488	752.354
578.44	526.594
582.391	447.43
586.341	365.163
590.288	366.426
594.233	396.507
598.177	254.713
602.119	289.38
606.059	177.757
609.997	281.524
613.933	148.979
617.868	131.627
621.801	4.093
625.731	239.842
629.66	27.149
633.588	10.072
637.513	52.736
641.437	39.951
645.358	62.411
649.278	114.745
653.196	40.499
657.113	167.356
661.027	35.915
664.94	57.58
668.851	59.803
672.76	21.635
676.667	52.485
680.572	112.622
684.476	182.757
688.378	102.047
692.278	270.43
696.176	233.671
700.072	474.833
703.967	313.786
707.86	530.512
711.751	408.011
715.64	554.285
719.527	272.334
723.413	175.16
727.297	289.764
731.179	344.145
735.059	185.306
738.937	225.237
742.814	152.949
746.689	265.439
750.562	83.714
754.433	203.729
758.303	282.567
762.17	257.492
766.036	209.758
769.901	339.615
773.763	555.557
777.624	386.052
781.482	419.177
785.339	574.576
789.195	611.527
793.048	810.253
796.9	861.732
800.75	1052.67
804.598	1498.87
808.445	1724.03
812.289	2177.9
816.132	2967.66
819.973	3893.15
823.813	4608.82
827.65	5624.77
831.486	8541.78
835.32	15153.7
839.152	29485.3
842.983	35843.1
846.812	24050.6
850.639	21660.2
854.464	14245.1
858.288	6874.69
862.11	3875.18
865.93	2509.56
869.748	2102.83
873.564	1890
877.379	1884.02
881.192	1981.99
885.004	1973.88
888.813	3254.34
892.621	6028.89
896.427	8885.14
900.232	6531.63
904.034	4046.58
907.835	3772.71
911.634	6512.72
915.432	13512.7
919.227	17137.9
923.021	9954.92
926.813	10476.1
930.604	6924.21
934.393	3223.35
938.18	2458.55
941.965	1452.82
945.749	1966.54
949.53	2167.73
953.311	712.992
957.089	297.286
960.866	274.784
964.641	247.507
968.414	132.082
972.185	63.727
975.955	45.661
979.723	124.581
983.49	24.565
987.254	95.004
991.017	162.151
994.779	95.128
998.538	114.397
1002.3	37.311
1006.05	203.743
1009.81	303.802
1013.56	440.869
1017.31	712.952
1021.06	785.058
1024.81	1278.19
1028.55	1546.35
1032.3	1809.56
1036.04	1996.81
1039.78	2111.12
1043.52	2174.49
1047.26	1984.93
1050.99	1695.44
1054.73	1493.04
1058.46	1361.72
1062.19	1323.49
1065.92	1102.37
1069.65	716.344
1073.37	756.426
1077.1	700.623
1080.82	534.939
1084.54	376.699
1088.26	228.945
1091.97	1.359
1095.69	19.604
1099.4	14.982
1103.12	80.461
1106.83	86.248
1110.54	33.26
1114.24	39.404
1117.95	182.998
1121.65	570.668
1125.35	886.107
1129.06	513.584
1132.75	359.996
1136.45	395.574
1140.15	383.238
1143.84	420.287
1147.53	559.074
1151.22	489.32
1154.91	309.854
1158.6	547.695
1162.28	556.857
1165.97	659.346
1169.65	528.172
1173.33	666.342
1177.01	545.861
1180.69	480.734
1184.36	550.955
1188.04	549.52
1191.71	607.43
1195.38	613.695
1199.05	857.314
1202.71	1277.29
1206.38	1611.62
1210.04	1894.32
1213.71	2636.4
1217.37	3026.87
1221.03	3566.7
1224.68	3944.86
1228.34	4098.37
1231.99	4712.22
1235.65	5529.44
1239.3	6524.79
1242.95	7905.78
1246.59	9516.87
1250.24	10722.2
1253.88	10668.9
1257.53	9764
1261.17	8903.15
1264.81	8155.86
1268.45	7438.07
1272.08	7284.85
1275.72	7484.21
1279.35	8333.98
1282.98	9809.35
1286.61	12700.1
1290.24	16104.5
1293.87	19767.8
1297.49	20531.8
1301.11	18760.5
1304.73	15337.8
1308.36	12162.6
1311.97	9649.09
1315.59	8026.15
1319.2	7433.92
1322.82	7052.72
1326.43	7348.37
1330.04	7287.8
1333.65	6976.28
1337.26	6848.14
1340.86	6402.27
1344.47	5081.59
1348.07	4452.22
1351.67	3290.3
1355.27	2813.62
1358.87	2751.67
1362.46	2770.95
1366.06	2480.08
1369.65	1865.95
1373.24	1525.54
1376.83	1486.18
1380.42	1442.35
1384	1518.34
1387.59	1654.61
1391.17	1520.78
1394.75	1253.34
1398.33	984.291
1401.91	708.441
1405.49	334.129
1409.06	158.494
1412.64	116.514
1416.21	68.184
1419.78	0.602
1423.35	250.16
1426.91	111.951
1430.48	154.982
1434.05	122.082
1437.61	61.084
1441.17	64.775
1444.73	233.941
1448.29	386.424
1451.84	680.238
1455.4	508.561
1458.95	493.547
1462.5	521.031
1466.05	464.451
1469.6	405.336
1473.15	436.527
1476.69	274.639
1480.24	329.492
1483.78	354.508
1487.32	194.508
1490.86	268.398
1494.39	443.047
1497.93	109.414
1501.46	257.033
