Measurement: Raman, 785 nm, unoriented, Raman Data Processed
Mineral: Fluorophlogopite
Rruff sample: R040042
Ideal chemistry: KMg_3_(Si_3_Al)O_10_F_2_
Locality: Franklin, Sussex County, New Jersey, USA
Source: University of Arizona Mineral Museum
Description: Brown flattened hexagonal prism, polytype 1M
Measured chemistry: (K_0.92_Na_0.08_)_Σ=1_(Mg_2.95_Fe_0.05_)_Σ=3_(Si_3.00_Al_1.00_)O_10_(F_1.40_(OH)_0.60_)_Σ=2_; trace amounts of Ti; OH estimated by charge balance
Raman shift (cm-1)	intensity
149.009	0
151.901	73.8503
154.794	88.4609
157.687	12.7615
160.58	101.475
163.472	294.866
166.365	472.141
169.258	629.987
172.15	689.202
175.043	796.601
177.936	1066.31
180.828	1499.34
183.721	2335.45
186.614	3987.02
189.507	6379.64
192.399	9167.84
195.292	10730
198.185	8902.13
201.077	5546.63
203.97	3384.28
206.863	2367.45
209.756	1720.62
212.648	1317.47
215.541	994.162
218.434	774.221
221.326	544.085
224.219	425.834
227.112	249.671
230.004	225.492
232.897	183.565
235.79	92.9133
238.683	67.4277
241.575	10.0825
244.468	8.51318
247.361	24.7771
250.253	47.554
253.146	19.4597
256.039	62.8967
258.931	185.372
261.824	376.969
264.717	421.143
267.61	666.51
270.502	1170.31
273.395	1801
276.288	2474.92
279.18	2297.8
282.073	1421.67
284.966	766.732
287.858	407.801
290.751	298.989
293.644	221.913
296.536	249.125
299.429	419.762
302.322	645.427
305.215	954.117
308.107	1372.55
311	1681.06
313.893	1954.13
316.785	2015.01
319.678	1931.35
322.571	1833.77
325.464	1492.27
328.356	1046.15
331.249	689.774
334.142	419.679
337.034	170.197
339.927	87.0742
342.82	32.729
345.712	6.55078
348.605	41.9312
351.498	111.1
354.39	196.879
357.283	158.713
360.176	238.776
363.069	324.938
365.961	394.8
368.854	550.63
371.747	546.948
374.639	341.486
377.532	170.616
380.425	104.794
383.317	10.4316
386.21	26.7778
389.103	58.1609
391.996	73.5745
394.888	93.6589
397.781	86.2605
400.674	92.7344
403.566	9.30542
406.459	2.92944
409.352	42.0745
412.245	17.3474
415.137	18.5896
418.03	6.79663
420.923	24.0461
423.815	15.7332
426.708	11.7075
429.601	40.3113
432.493	28.5466
435.386	83.8579
438.279	116.838
441.171	210.766
444.064	338.031
446.957	427.241
449.85	603.504
452.742	824.236
455.635	1283.57
458.528	2079.16
461.42	2979.22
464.313	3283.96
467.206	2198.31
470.098	1155.34
472.991	632.639
475.884	371.261
478.777	268.062
481.669	178.806
484.562	173.773
487.455	167.383
490.347	199.378
493.24	161.608
496.133	216.179
499.026	182.169
501.918	224.191
504.811	167.92
507.704	159.439
510.596	162.539
513.489	143.342
516.382	122.943
519.274	110.464
522.167	111.612
525.06	88.8997
527.952	67.1567
530.845	4.65723
533.738	35.0552
536.631	61.7661
539.523	31.3538
542.416	58.0271
545.309	64.0623
548.201	74.9868
551.094	35.4324
553.987	46.4663
556.88	49.6797
559.772	57.1733
562.665	64.1287
565.558	26.5974
568.45	30.2551
571.343	21.4441
574.236	33.2629
577.128	20.6838
580.021	6.9104
582.914	11.0505
585.807	8.62451
588.699	6.42407
591.592	34.0898
594.485	10.5571
597.377	19.2744
600.27	37.615
603.163	60.0168
606.055	76.0378
608.948	117.992
611.841	127.561
614.734	192.708
617.626	230.574
620.519	358.909
623.412	472.991
626.304	620.716
629.197	735.227
632.09	891.92
634.982	1008.01
637.875	1058.02
640.768	1014.06
643.66	915.472
646.553	912.483
649.446	917.818
652.339	964.471
655.231	1005.7
658.124	1138.19
661.017	1306.57
663.909	1554.94
666.802	1968.46
669.695	2514.29
672.587	3293.27
675.48	4324.9
678.373	5202.24
681.266	5698.28
684.158	5382.24
687.051	4514.79
689.944	3647.35
692.836	2657.14
695.729	1784.17
698.622	1148.19
701.514	792.24
704.407	507.052
707.3	337.955
710.193	220.635
713.085	140.794
715.978	90.3166
718.871	71.1443
721.763	53.2468
724.656	11.6194
727.549	21.1272
730.442	0.32959
733.334	24.7666
736.227	16.1838
739.12	17.6587
742.012	5.36255
744.905	4.22095
747.798	18.4944
750.69	0.638428
753.583	20.6401
756.476	25.7029
759.369	13.2744
762.261	2.57324
765.154	1.15747
768.047	23.2996
770.939	41.9565
773.832	31.5881
776.725	62.0818
779.617	68.2427
782.51	125.11
785.403	138.111
788.295	117.262
791.188	185.989
794.081	168.883
796.974	224.194
799.866	209.108
802.759	147.584
805.652	171.335
808.544	166.822
811.437	152.801
814.33	99.989
817.222	77.3999
820.115	94.3897
823.008	84.2461
825.9	73.4871
828.793	57.3938
831.686	19.8098
834.579	50.2773
837.471	23.2854
840.364	30.9702
843.257	46.6333
846.149	32.6755
849.042	22.9766
851.935	40.6726
854.827	8.76758
857.72	8.16577
860.613	37.7148
863.506	31.7148
866.398	7.10596
869.291	30.0996
872.184	50.0688
875.076	34.3943
877.969	34.467
880.862	34.2712
883.755	59.7747
886.647	80.6968
889.54	63.4458
892.433	75.6143
895.325	61.8752
898.218	65.7793
901.111	53.5752
904.003	57.9263
906.896	60.6006
909.789	67.0081
912.682	75.4622
915.574	65.2136
918.467	8.46997
921.36	50.1457
924.252	43.4365
927.145	2.41821
930.038	41.0383
932.93	37.6086
935.823	18.4883
938.716	25.3796
941.609	12.1382
944.501	35.6682
947.394	0.97876
950.287	9.46484
953.179	43.4062
956.072	13.2607
958.965	18.0474
961.857	26.6936
964.75	6.71436
967.643	13.7971
970.535	11.6284
973.428	60.938
976.321	70.1572
979.214	71.5884
982.106	122.809
984.999	118.581
987.892	34.917
990.784	32.2642
993.677	45.2293
996.57	168.637
999.462	153.381
1002.36	212.589
1005.25	234.974
1008.14	273.431
1011.03	292.215
1013.93	251.739
1016.82	217.467
1019.71	177.088
1022.6	226.058
1025.5	419.818
1028.39	636.278
1031.28	959.534
1034.17	1041.69
1037.07	873.239
1039.96	629.081
1042.85	404.179
1045.75	242.129
1048.64	175.843
1051.53	136.894
1054.42	103.027
1057.32	82.0107
1060.21	105.333
1063.1	75.5265
1065.99	88.7488
1068.89	102.573
1071.78	75.2219
1074.67	93.5612
1077.57	149.211
1080.46	167.552
1083.35	197.187
1086.24	232.213
1089.14	226.114
1092.03	229.506
1094.92	264.6
1097.81	270.978
1100.71	252.956
1103.6	224.799
1106.49	170.602
1109.38	150.677
1112.28	160.132
1115.17	102.024
1118.06	80.4552
1120.96	18.0582
1123.85	9.69275
1126.74	27.8538
1129.63	0.793091
1132.53	4.74109
1135.42	2.96472
1138.31	1.30322
1141.2	11.1409
1144.1	16.9409
1146.99	37.6792
1149.88	0.439575
1152.78	16.3113
1155.67	72.2343
1158.56	76.2335
1161.45	61.0996
1164.35	22.1489
1167.24	46.3115
1170.13	3.06445
1173.03	11.6859
1175.92	37.8043
1178.81	23.8259
1181.7	48.106
1184.6	55.3203
1187.49	42.1525
1190.38	27.4348
1193.27	38.5293
1196.17	66.4043
1199.06	59.9594
1201.95	16.049
1204.84	21.2069
1207.74	39.0156
1210.63	55.1027
1213.52	63.3219
1216.41	96.2914
1219.31	41.6877
1222.2	32.7465
1225.09	45.6668
1227.99	45.7537
1230.88	48.6863
1233.77	25.9128
1236.66	7.95898
1239.56	39.5349
1242.45	53.0636
1245.34	60.8897
1248.23	22.858
1251.13	31.8662
1254.02	13.7595
1256.91	30.0597
1259.81	0
