Measurement: Raman, 532 nm, unoriented, Raman Data Processed
Mineral: Fluor-liddicoatite
Rruff sample: R060635
Ideal chemistry: Ca(Li_2_Al)Al_6_(Si_6_O_18_)(BO_3_)_3_(OH)_3_F
Locality: unknown
Source: Gemological Institute of America
Description: Rootbeer brown cut gemstone
Measured chemistry: (Li_1.84_Al_1.05_Mn_0.11_)_Σ=3_(Ca_0.82_Na_0.15_[box]_0.03_)_Σ=1_Al_6.00_(BO_3_)_3_[Si_6.00_O_18_]((OH)_3.16_F_0.84_)_Σ=4_
Raman shift (cm-1)	intensity
92.1094	0
95.4842	0.658831
98.859	2.78469
102.234	4.12577
105.609	3.7244
108.984	0.719596
112.358	0.119842
115.733	0.658822
119.108	0.133918
122.483	2.39863
125.858	7.03695
129.232	19.0747
132.607	29.0199
135.982	36.5732
139.357	44.776
142.732	58.7873
146.106	70.2904
149.481	78.3171
152.856	69.9627
156.231	57.8836
159.606	37.0973
162.981	24.7566
166.355	14.3113
169.73	10.0484
173.105	9.8193
176.48	9.48301
179.855	8.72573
183.229	5.73361
186.604	2.76936
189.979	3.75302
193.354	13.1914
196.729	23.1516
200.103	34.8597
203.478	42.766
206.853	46.1562
210.228	49.2687
213.603	55.2712
216.978	66.5101
220.352	90.8261
223.727	120.329
227.102	139.48
230.477	150.753
233.852	157.518
237.226	169.32
240.601	163.635
243.976	122.948
247.351	76.6571
250.726	43.0301
254.101	22.5093
257.475	10.51
260.85	3.21997
264.225	0.174713
267.6	0.584831
270.975	0.781174
274.349	0.036728
277.724	4.76764
281.099	9.87939
284.474	10.823
287.849	9.60299
291.224	2.76085
294.598	0.855934
297.973	4.82076
301.348	2.38749
304.723	2.91016
308.098	5.66521
311.473	10.7908
314.847	19.831
318.222	24.9707
321.597	27.3658
324.972	27.2133
328.347	25.1662
331.721	20.8302
335.096	17.9901
338.471	18.2296
341.846	18.3924
345.221	23.3617
348.595	29.1102
351.97	30.3172
355.345	30.0103
358.72	36.5318
362.095	57.8587
365.469	93.2911
368.844	145.058
372.219	230.786
375.594	315.568
378.969	324.892
382.344	253.081
385.718	168.509
389.093	113.684
392.468	87.1997
395.843	78.9435
399.218	80.1534
402.592	96.7322
405.967	115.699
409.342	123.233
412.717	104.981
416.092	70.7573
419.467	41.0095
422.841	22.9617
426.216	12.3145
429.591	7.86394
432.966	1.43582
436.341	0.540756
439.716	1.41966
443.09	1.50523
446.465	1.91285
449.84	0.482975
453.215	0.888359
456.59	2.18988
459.964	4.12094
463.339	7.92315
466.714	8.25216
470.089	11.3566
473.464	9.25758
476.839	6.35437
480.213	7.68072
483.588	9.16279
486.963	11.9099
490.338	13.9441
493.713	17.6476
497.087	19.9065
500.462	23.3524
503.837	23.9476
507.212	25.2263
510.587	29.1498
513.962	29.0669
517.336	25.8181
520.711	18.342
524.086	12.2111
527.461	9.47704
530.836	7.26398
534.21	8.04995
537.585	7.00783
540.96	7.02661
544.335	7.3209
547.71	7.63969
551.085	6.71678
554.459	7.1412
557.834	4.90132
561.209	3.23768
564.584	0.882469
567.959	0.800625
571.333	0.421581
574.708	0.550659
578.083	1.28815
581.458	1.3293
584.833	1.89397
588.207	2.2762
591.582	1.41447
594.957	0.876106
598.332	0.609138
601.707	0.564537
605.082	0.237679
608.456	0.51733
611.831	0.372593
615.206	0.46645
618.581	2.24179
621.956	7.38911
625.33	16.5669
628.705	28.8046
632.08	42.2367
635.455	49.0571
638.83	40.9801
642.205	26.0237
645.579	15.0655
648.954	7.89588
652.329	6.25096
655.704	5.80137
659.079	4.13347
662.453	3.42496
665.828	3.05222
669.203	4.97021
672.578	5.53163
675.953	5.17889
679.327	0.771843
682.702	1.47144
686.077	1.22987
689.452	2.00014
692.827	7.86383
696.202	18.5746
699.576	36.8326
702.951	58.3137
706.326	84.4472
709.701	114.843
713.076	132.19
716.45	110.854
719.825	70.4919
723.2	43.6613
726.575	34.1865
729.95	34.6837
733.324	41.1418
736.699	51.1568
740.074	54.5404
743.449	44.2043
746.824	31.3077
750.199	24.5412
753.573	24.136
756.948	26.9817
760.323	31.5006
763.698	37.7501
767.073	43.6092
770.447	45.8163
773.822	42.856
777.197	38.316
780.572	26.6266
783.947	14.4969
787.322	10.116
790.696	5.20747
794.071	2.93381
797.446	0.722998
800.821	0.106009
804.196	1.02721
807.571	0.890036
810.945	0.695255
814.32	0.455357
817.695	0.778381
821.07	1.42404
824.445	3.32056
827.819	4.93962
831.194	8.10866
834.569	9.80051
837.944	11.413
841.319	11.6301
844.693	11.1565
848.068	9.4969
851.443	8.05981
854.818	7.30893
858.193	6.69286
861.568	6.98055
864.942	6.89224
868.317	7.38469
871.692	7.16344
875.067	7.98727
878.442	6.73321
881.817	7.14804
885.191	6.13903
888.566	5.17654
891.941	4.42922
895.316	3.43136
898.691	2.53289
902.065	1.97482
905.44	1.01265
908.815	0.495682
912.19	0.5112
915.565	0.315422
918.939	0.4844
922.314	0.787447
925.689	0.466761
929.064	0.629295
932.439	0.967083
935.813	0.790916
939.188	0.543932
942.563	1.50086
945.938	1.99362
949.313	2.90526
952.688	3.06674
956.062	3.77595
959.437	5.77605
962.812	7.54248
966.187	9.59112
969.562	10.4224
972.937	9.93399
976.311	7.89908
979.686	6.0423
983.061	2.95986
986.436	0.262695
989.811	0.147682
993.185	0.50769
996.56	1.20717
999.935	2.42284
1003.31	4.02893
1006.68	7.61651
1010.06	10.0824
1013.43	9.79969
1016.81	10.2002
1020.18	9.2925
1023.56	7.60184
1026.93	6.06563
1030.31	3.77225
1033.68	4.45241
1037.06	6.9477
1040.43	10.9612
1043.81	18.2041
1047.18	26.0321
1050.56	38.0375
1053.93	52.5052
1057.31	67.3129
1060.68	75.8465
1064.06	75.0283
1067.43	64.8449
1070.81	54.6007
1074.18	48.1436
1077.56	41.4282
1080.93	40.7356
1084.31	42.5943
1087.68	45.779
1091.06	47.4627
1094.43	46.7174
1097.81	45.1975
1101.18	38.2847
1104.55	29.0506
1107.93	19.4487
1111.3	12.9639
1114.68	8.20634
1118.05	4.93565
1121.43	3.10514
1124.8	1.33853
1128.18	0.63019
1131.55	0.247541
1134.93	0.337383
1138.3	0.162251
1141.68	0.111057
1145.05	0.191465
1148.43	1.26153
1151.8	0.495909
1155.18	0.020903
1158.55	0.734386
1161.93	0.120817
1165.3	0.667178
1168.68	0.731431
1172.05	2.05464
1175.43	2.51568
1178.8	3.08502
1182.17	3.12818
1185.55	3.31883
1188.92	3.21396
1192.3	4.01
1195.67	4.127
1199.05	4.02089
1202.42	4.85187
1205.8	4.31849
1209.17	4.26417
1212.55	4.32723
1215.92	3.68377
1219.3	3.34541
1222.67	3.63387
1226.05	2.87828
1229.42	2.90853
1232.8	3.0603
1236.17	2.92988
1239.55	1.95372
1242.92	1.54582
1246.3	1.70068
1249.67	1.15461
1253.05	0.974204
1256.42	1.06825
1259.8	1.39319
1263.17	1.19889
1266.55	0.917981
1269.92	0.955226
1273.3	1.18902
1276.67	0.664843
1280.05	0.608166
1283.42	0.16662
