Measurement: Raman, 532 nm, unoriented, Raman Data Processed
Mineral: Fluorapophyllite-(K)
Rruff sample: R040095
Ideal chemistry: KCa_4_Si_8_O_20_F8H_2_O
Locality: unknown
Source: University of Arizona Mineral Museum
Description: Colorless crystals
Measured chemistry: (K_0.90_Na_0.04_)Ca_3.96_Si_8.00_O_20_(F_0.82_(OH)_0.18_)Â·8H_2_O
Raman shift (cm-1)	intensity
123.493	0
126.868	433.904
130.243	697.964
133.618	1137.1
136.993	1445.6
140.367	1337.38
143.742	478.778
147.117	117.399
150.492	59.1409
153.867	84.2388
157.241	185.114
160.616	452.532
163.991	725.255
167.366	594.467
170.741	188.417
174.115	41.126
177.49	41.2988
180.865	100.564
184.24	3.88672
187.615	135.198
190.989	429.209
194.364	755.878
197.739	1183.19
201.114	1777.1
204.489	2299.9
207.864	2488.5
211.238	2041.71
214.613	1217.39
217.988	800.846
221.363	677.28
224.738	771.021
228.113	860.794
231.487	758.042
234.862	402.748
238.237	175.616
241.612	62.6973
244.987	17.4277
248.361	4.29956
251.736	10.908
255.111	57.519
258.486	178.792
261.861	193.865
265.236	277.011
268.61	279.381
271.985	249.74
275.36	210.55
278.735	177.39
282.11	236.758
285.484	358.151
288.859	626.457
292.234	771.952
295.609	1110.27
298.984	1075.75
302.358	937.946
305.733	855.299
309.108	961.568
312.483	1034.98
315.858	1073.46
319.233	1204.67
322.607	1216.04
325.982	1126.07
329.357	988.207
332.732	939.743
336.107	943.39
339.481	908.734
342.856	620.551
346.231	387.981
349.606	225.025
352.981	124.118
356.355	48.6101
359.73	32.0547
363.105	8.69287
366.48	100.849
369.855	129.972
373.229	163.496
376.604	18.3413
379.979	5.04004
383.354	35.9495
386.729	2.99756
390.104	67.3877
393.478	158.724
396.853	244.442
400.228	268.372
403.603	276.707
406.978	246.918
410.353	239.157
413.727	368.908
417.102	611.085
420.477	1129.02
423.852	1769.96
427.227	2542.56
430.601	3189.02
433.976	2360.37
437.351	1102.98
440.726	477.038
444.101	198.748
447.475	33.5674
450.85	7.37207
454.225	17.6165
457.6	14.7131
460.975	33.1079
464.349	16.6338
467.724	23.8271
471.099	97.7007
474.474	397.754
477.849	782.095
481.224	1221.68
484.598	1514.99
487.973	1032.09
491.348	564.664
494.723	247.279
498.098	213.924
501.473	166.836
504.847	162.386
508.222	59.8813
511.597	17.3438
514.972	37.4404
518.347	75.5078
521.721	142.905
525.096	270.222
528.471	406.506
531.846	594.256
535.221	768.825
538.595	836.047
541.97	782.335
545.345	701.614
548.72	576.707
552.095	577.154
555.47	613.51
558.844	690.076
562.219	828.72
565.594	1132.15
568.969	1545.11
572.344	2174.78
575.718	2905.9
579.093	3547.64
582.468	3823.49
585.843	3406.78
589.218	2382.03
592.592	1514.67
595.967	936.595
599.342	614.496
602.717	339.762
606.092	204.181
609.467	124.735
612.841	8.40234
616.216	27.6016
619.591	24.6186
622.966	11.2368
626.341	52.2905
629.715	33.5869
633.09	65.1626
636.465	56.292
639.84	102.422
643.215	167.262
646.59	258.147
649.964	337.343
653.339	489.406
656.714	554.665
660.089	665.219
663.464	684.844
666.838	593.265
670.213	419.098
673.588	310.816
676.963	225.199
680.338	139.23
683.712	45.603
687.087	9.18555
690.462	47.4248
693.837	24.0034
697.212	49.6509
700.587	23.1426
703.961	63.4126
707.336	74.4204
710.711	59.2236
714.086	91.4639
717.461	53.6963
720.835	36.5386
724.21	48.5181
727.585	32.6841
730.96	47.1338
734.335	73.4678
737.71	34.5478
741.084	56.6494
744.459	14.2104
747.834	72.6221
751.209	46.3899
754.584	87.228
757.958	88.4648
761.333	119.008
764.708	134.419
768.083	163.726
771.458	78.8799
774.832	105.466
778.207	118.616
781.582	149.651
784.957	168.311
788.332	233.597
791.707	278.097
795.081	178.371
798.456	96.0674
801.831	102.707
805.206	8.89551
808.581	24
811.955	47.4761
815.33	23.7764
818.705	11.6021
822.08	101.544
825.455	146.581
828.83	159.515
832.204	178.909
835.579	154.83
838.954	180.221
842.329	219.644
845.704	227.939
849.078	207.654
852.453	222.338
855.828	227.826
859.203	196.248
862.578	205.269
865.952	167.959
869.327	102.333
872.702	105.423
876.077	87.9526
879.452	95.3013
882.827	96.9209
886.201	125.728
889.576	61.7905
892.951	56.5078
896.326	64.6626
899.701	91.1128
903.075	53.938
906.45	58.5562
909.825	65.4883
913.2	78.5772
916.575	28.8638
919.949	5.26367
923.324	40.0928
926.699	14.4785
930.074	13.1475
933.449	7.53906
936.823	22.501
940.198	59.9946
943.573	78.0161
946.948	42.4824
950.323	21.2915
953.698	8.50244
957.072	1.10596
960.447	9.55225
963.822	61.2046
967.197	59.2588
970.572	28.0288
973.947	0.700195
977.321	28.0459
980.696	4.64014
984.071	9.46094
987.446	18.8433
990.821	70.2368
994.195	86.2412
997.57	84.958
1000.95	121.599
1004.32	69.1875
1007.7	114.316
1011.07	98.2324
1014.44	54.1733
1017.82	26.5391
1021.19	36.6797
1024.57	45.5127
1027.94	73.0229
1031.32	183.892
1034.69	151.477
1038.07	330.648
1041.44	512.937
1044.82	870.417
1048.19	1593.08
1051.57	2702.6
1054.94	4171.81
1058.32	5754.09
1061.69	5156.91
1065.07	3124.22
1068.44	1691.91
1071.82	1003.03
1075.19	642.385
1078.57	448.064
1081.94	415.318
1085.32	423.372
1088.69	361.791
1092.07	264.654
1095.44	172.965
1098.82	79.4048
1102.19	106.736
1105.56	88.104
1108.94	156.433
1112.31	213.113
1115.69	157.873
1119.06	152.466
1122.44	24.6773
1125.81	49.5454
1129.19	11.6074
1132.56	26.7773
1135.94	5.53223
1139.31	1.06152
1142.69	33.3306
1146.06	5.94043
1149.44	59.8091
1152.81	72.022
1156.19	62.3252
1159.56	46.581
1162.94	39.4736
1166.31	14.1773
1169.69	60.273
1173.06	73.6187
1176.43	24.9639
1179.81	28.376
1183.18	45.4619
1186.56	73.0249
1189.93	73.2046
1193.31	5.07178
1196.68	34.6987
1200.06	28.1431
1203.43	33.4219
1206.81	51.1709
1210.18	22.4443
1213.56	16.7979
1216.93	82.6777
1220.31	3.57129
1223.68	69.5962
1227.06	51.6802
1230.43	51.4971
1233.81	45.7368
1237.18	4.42334
1240.56	37.0356
1243.93	104.357
1247.31	55.3599
1250.68	59.4746
1254.06	60.0523
1257.43	57.5444
1260.81	30.5259
1264.18	53.3062
1267.56	6.10254
1270.93	60.3496
1274.31	35.8462
1277.68	40.1753
1281.06	27.2524
