Measurement: Raman, 514 nm, unoriented, Raman Data Processed
Mineral: Fluoro-richterite
Rruff sample: R040019
Ideal chemistry: Na(NaCa)Mg_5_Si_8_O_22_F_2_
Locality: Wilberforce, Ontario, Canada
Source: University of Arizona Mineral Museum
Description: Brown prismatic crystals
Measured chemistry: (Na_0.59_K_0.27_[box]_0.14_)_Σ=1_(Ca_1.30_Na_0.70_)_Σ=2_(Mg_4.67_Fe_0.17_Fe^3+^_0.10_Ti_0.03_Mn_0.02_Al_0.01_)_Σ=5_(Si_7.67_Al_0.33_)_Σ=8_(F_1.12_(OH)_0.88_)_Σ=2_; OH estimated by charge balance
Raman shift (cm-1)	intensity
59.863	0
64.059	36.996
68.253	27.978
72.445	45.416
76.635	88.245
80.823	118.238
85.009	209.969
89.193	275.812
93.375	386.67
97.554	561.829
101.732	860.818
105.908	1300.17
110.082	1476.38
114.254	1356.49
118.424	938.404
122.592	479.589
126.758	298.55
130.922	225.593
135.083	195.483
139.243	191.596
143.401	178.644
147.557	190.928
151.711	286.36
155.863	601.116
160.013	728.277
164.161	681.883
168.308	745.201
172.452	932.737
176.594	1204.77
180.734	1218.31
184.872	1110.35
189.008	983.004
193.143	820.667
197.275	932.375
201.405	1058.8
205.534	1207.56
209.66	1337.6
213.784	1376.91
217.907	1781.48
222.027	2500.29
226.146	3512.55
230.263	4059.93
234.377	3547.02
238.49	2334.29
242.601	1441.46
246.709	967.369
250.816	616.921
254.921	357.033
259.024	215.645
263.125	122.707
267.224	46.177
271.321	8.981
275.416	3.779
279.51	60.819
283.601	129.817
287.69	187.179
291.778	327.278
295.863	457.727
299.947	556.001
304.029	703.493
308.108	912.215
312.186	1058.11
316.262	966.933
320.336	825.967
324.408	635.252
328.478	525.672
332.546	486.363
336.612	536.246
340.677	541.494
344.739	567.626
348.799	630.874
352.858	739.228
356.915	1062.68
360.969	1480.2
365.022	1811.08
369.073	1662.45
373.122	1455.16
377.169	1366.91
381.215	1384.71
385.258	1386.56
389.299	1513.45
393.339	1534.48
397.376	1590.66
401.412	1457.97
405.446	1283.37
409.478	999.873
413.508	697.454
417.536	524.107
421.562	443.823
425.586	356.245
429.609	279.413
433.629	177.436
437.648	110.285
441.665	82.536
445.68	29.261
449.693	5.903
453.704	2.401
457.713	34.583
461.721	22.629
465.726	28.482
469.73	17.712
473.731	46.98
477.731	50.419
481.729	51.148
485.725	64.223
489.72	32.642
493.712	35.327
497.703	13.731
501.691	60.849
505.678	123.585
509.663	207.455
513.646	308.281
517.627	367.056
521.607	382.775
525.584	403.44
529.56	443.064
533.534	428.641
537.506	404.174
541.476	372.668
545.444	304.125
549.41	347.527
553.375	329.853
557.337	350.093
561.298	329.236
565.257	312.281
569.214	350.224
573.17	348.063
577.123	322.796
581.075	272.421
585.024	219.661
588.972	133.336
592.918	57.622
596.863	27.719
600.805	10.465
604.746	8.964
608.685	17.074
612.621	55.784
616.557	82.076
620.49	101.646
624.421	202.094
628.351	194.444
632.279	275.873
636.205	348.88
640.129	448.888
644.051	498.945
647.972	703.743
651.89	911.178
655.807	1179.38
659.722	1712.26
663.636	2621.83
667.547	4214.41
671.457	7440.99
675.365	12646
679.271	16605.8
683.175	13701.9
687.077	8268.85
690.978	4565.76
694.877	2605.3
698.774	1805.75
702.669	1277.67
706.562	977.662
710.454	831.154
714.344	792.338
718.232	671.428
722.118	663.426
726.002	620.334
729.885	607.153
733.766	640.886
737.645	626.534
741.522	549.098
745.397	427.581
749.271	390.502
753.143	353.893
757.013	237.757
760.881	253.293
764.748	225.901
768.613	151.839
772.476	114.99
776.337	117.049
780.196	70.033
784.054	61.758
787.91	60.67
791.764	55.633
795.616	46.691
799.467	73.876
803.316	75.153
807.163	30.505
811.008	3.903
814.851	10.264
818.693	14.446
822.533	2.748
826.371	27.113
830.208	8.054
834.042	23.043
837.875	34.88
841.706	3.279
845.536	15.463
849.363	17.849
853.189	4.289
857.013	10.822
860.836	22.406
864.656	36.971
868.475	73.347
872.292	103.735
876.108	127.157
879.922	204.596
883.733	174.044
887.544	217.508
891.352	228.004
895.159	251.527
898.964	291.088
902.767	289.698
906.568	333.396
910.368	346.242
914.166	411.214
917.962	440.286
921.757	479.44
925.55	594.678
929.341	715.94
933.13	748.208
936.918	692.49
940.703	652.788
944.488	690.073
948.27	701.36
952.051	592.642
955.83	515.91
959.607	436.119
963.383	288.199
967.156	279.832
970.928	240.968
974.699	172.739
978.468	222.924
982.234	182.345
986	174.811
989.763	224.283
993.525	241.492
997.285	299.496
1001.04	311.232
1004.8	425.775
1008.55	496.932
1012.31	555.616
1016.06	635.77
1019.81	644.009
1023.56	749.886
1027.31	808.383
1031.05	912.732
1034.79	974.375
1038.53	1085.86
1042.27	1250.47
1046.01	1284.6
1049.75	1256.81
1053.48	1455.03
1057.22	1479.97
1060.95	1654.09
1064.68	1688.43
1068.4	1725.22
1072.13	1667.02
1075.86	1497.48
1079.58	1292.77
1083.3	1166.29
1087.02	995.682
1090.74	803.297
1094.45	682.719
1098.17	477.131
1101.88	401.388
1105.59	372.422
1109.3	316.434
1113.01	276.166
1116.71	237.949
1120.42	301.548
1124.12	373.834
1127.82	180.838
1131.52	169.978
1135.22	137.722
1138.91	39.378
1142.61	59.618
1146.3	50.147
1149.99	45.403
1153.68	62.574
1157.37	43.048
1161.06	14.366
1164.74	20.206
1168.42	12.882
1172.1	2.471
1175.78	4.946
1179.46	0.963
1183.14	8.1
1186.81	17.799
1190.48	6.245
1194.15	43.527
1197.83	16.368
1201.49	0.064
1205.16	29.14
1208.82	40.762
1212.49	11.256
1216.15	23.248
1219.81	14.882
1223.46	42.724
1227.12	41.927
1230.78	53.76
1234.43	50.224
1238.08	53.935
1241.73	79.069
1245.38	31.39
1249.03	57.104
1252.67	16.828
1256.31	32.646
1259.95	28.079
1263.6	39.248
1267.23	99.133
1270.87	116.655
1274.51	58.757
1278.14	40.406
1281.77	83.651
1285.4	77.054
1289.03	33.771
1292.66	38.526
1296.28	49.121
1299.91	57.733
1303.53	42.641
1307.15	62.504
1310.77	142.355
1314.38	55.461
1318	72.002
1321.61	102.852
1325.23	34.503
1328.84	52.497
1332.45	124.343
1336.06	88.829
1339.66	33.646
1343.27	79.438
1346.87	81.993
1350.47	30.488
1354.07	26.444
1357.67	23.81
1361.26	57.641
1364.86	23.819
1368.45	25.267
1372.04	3.318
1375.63	5.59
1379.22	27.414
1382.81	5.713
1386.39	6.572
1389.98	17.232
1393.56	9.154
1397.14	61.132
1400.72	1.035
1404.3	63.644
1407.87	18.12
1411.45	47.15
1415.02	24.953
1418.59	106.819
1422.16	28.724
1425.73	87.429
1429.29	96.236
1432.86	99.625
1436.42	61.607
1439.98	73.907
1443.54	12.112
1447.1	187.307
1450.66	21.875
1454.21	81.605
1457.77	31.192
1461.32	39.024
1464.87	51.254
1468.42	109.643
1471.96	119.204
1475.51	86.575
1479.06	138.82
1482.6	64.953
1486.14	89.542
1489.68	71.286
1493.22	62.902
1496.75	47.804
1500.29	53.333
1503.82	16.027
1507.35	86.38
1510.88	34.593
1514.41	62.458
1517.94	87.45
1521.46	79.212
1524.99	0
