Measurement: Raman, 532 nm, unoriented, Raman Data Processed
Mineral: Fluor-elbaite
Rruff sample: R130035
Ideal chemistry: Na(Li_1.5_Al_1.5_)Al_6_(Si_6_O_18_)(BO_3_)_3_(OH)_3_F
Locality: Aqueana pegmatite, Aracuai, Minas Gerais, Brazil
Source: William W. Pinch
Description: Green prismatic crystal; holotype specimen
Raman shift (cm-1)	intensity
90.808	0
94.1828	5.08362
97.5576	0.10614
100.932	8.98257
104.307	4.14172
107.682	5.50678
111.057	7.57339
114.432	7.85361
117.806	8.18594
121.181	13.4069
124.556	14.4733
127.931	12.8017
131.306	5.90263
134.681	9.69667
138.055	4.22417
141.43	2.40271
144.805	0.756195
148.18	3.60838
151.555	0.441391
154.929	1.02043
158.304	2.10272
161.679	8.6634
165.054	9.20175
168.429	11.0827
171.804	12.4734
175.178	15.0345
178.553	15.6797
181.928	19.79
185.303	21.3336
188.678	24.792
192.053	27.0746
195.427	27.7743
198.802	25.9921
202.177	25.0451
205.552	25.7059
208.927	29.9858
212.301	36.6795
215.676	43.1295
219.051	55.4644
222.426	63.4933
225.801	56.3366
229.175	45.9341
232.55	36.706
235.925	32.86
239.3	31.668
242.675	32.4693
246.05	28.7095
249.424	23.7015
252.799	21.2717
256.174	18.8347
259.549	17.3027
262.924	14.9285
266.298	14.5222
269.673	14.1207
273.048	12.6002
276.423	10.883
279.798	7.81446
283.173	5.3721
286.547	2.77074
289.922	0.533409
293.297	1.28997
296.672	2.06773
300.047	1.96795
303.421	0.19389
306.796	0.485126
310.171	2.15948
313.546	4.66763
316.921	6.31172
320.296	6.98862
323.67	8.35297
327.045	10.5696
330.42	13.6451
333.795	16.0516
337.17	17.1127
340.544	18.5245
343.919	21.1631
347.294	22.2382
350.669	22.4784
354.044	23.8724
357.418	30.1288
360.793	39.4984
364.168	52.286
367.543	73.7049
370.918	93.3897
374.293	79.9605
377.667	50.3826
381.042	32.63
384.417	22.5427
387.792	18.5092
391.167	15.9055
394.541	13.4749
397.916	14.4067
401.291	16.7065
404.666	19.5075
408.041	21.9544
411.416	19.5974
414.79	12.7
418.165	7.50115
421.54	3.03192
424.915	1.06916
428.29	0.448349
431.664	1.07007
435.039	0.753075
438.414	0.436661
441.789	0.285091
445.164	2.31311
448.539	2.97743
451.913	1.3052
455.288	0.76643
458.663	0.014591
462.038	0.590092
465.413	0.747715
468.788	0.545643
472.162	0.872684
475.537	1.74836
478.912	2.25123
482.287	4.21699
485.662	4.9969
489.036	6.73724
492.411	7.00791
495.786	7.17673
499.161	8.04636
502.536	8.13871
505.911	6.95955
509.285	5.28659
512.66	4.98408
516.035	3.43177
519.41	1.72754
522.784	0.994244
526.159	1.30606
529.534	0.403378
532.909	0.414989
536.284	0.906223
539.659	0.199013
543.033	1.00432
546.408	0.223209
549.783	0.406628
553.158	0.957565
556.533	1.55926
559.908	1.95735
563.282	1.17856
566.657	1.3449
570.032	0.64423
573.407	0.423828
576.782	0.882584
580.156	0.842339
583.531	0.078026
586.906	0.038914
590.281	0.656982
593.656	0.066811
597.03	0.086243
600.405	0.140869
603.78	0.082451
607.155	0.27404
610.53	0.38274
613.905	0.162567
617.279	0.562927
620.654	2.1872
624.029	5.44036
627.404	10.1782
630.779	13.62
634.154	14.9762
637.528	11.6772
640.903	9.51071
644.278	7.36734
647.653	5.84812
651.028	5.29879
654.402	5.25333
657.777	4.62286
661.152	4.4209
664.527	2.63539
667.902	0.970882
671.277	0.169495
674.651	0.010448
678.026	0.623817
681.401	0.692677
684.776	1.55649
688.151	4.58047
691.525	8.90073
694.9	16.7555
698.275	24.661
701.65	30.095
705.025	29.4084
708.399	22.1857
711.774	13.9893
715.149	8.11987
718.524	4.28299
721.899	2.28909
725.274	1.61919
728.648	1.86381
732.023	1.14989
735.398	0.474819
738.773	2.54917
742.148	5.90644
745.523	10.7685
748.897	15.7605
752.272	18.17
755.647	15.068
759.022	10.288
762.396	7.45249
765.771	6.50755
769.146	5.40146
772.521	5.94259
775.896	6.23399
779.271	4.13682
782.645	3.25803
786.02	2.48278
789.395	0.82077
792.77	0.079803
796.145	0.099215
799.519	0.273499
802.894	0.325756
806.269	0.223038
809.644	0.601862
813.019	0.467049
816.394	0.867895
819.768	1.42306
823.143	2.54788
826.518	5.10826
829.893	8.31619
833.268	11.7758
836.643	15.1165
840.017	13.9985
843.392	12.8851
846.767	8.80216
850.142	6.79016
853.517	4.9424
856.891	5.02729
860.266	3.07118
863.641	2.91353
867.016	1.98541
870.391	0.707111
873.765	1.37843
877.14	1.26125
880.515	0.471466
883.89	0.36146
887.265	0.650192
890.64	0.020538
894.014	0.347427
897.389	0.022684
900.764	0.122177
904.139	0.246269
907.514	0.034811
910.889	0.421513
914.263	0.123732
917.638	0.294312
921.013	0.288343
924.388	0.821814
927.763	0.561108
931.137	0.616114
934.512	0.446487
937.887	0.900141
941.262	0.36829
944.637	0.567804
948.011	0.960831
951.386	1.4972
954.761	0.234093
958.136	1.45026
961.511	1.46691
964.886	1.81378
968.26	2.31288
971.635	1.55204
975.01	2.03493
978.385	1.56384
981.76	1.95419
985.135	1.37239
988.509	0.977448
991.884	1.15873
995.259	1.07696
998.634	0.440556
1002.01	0.972607
1005.38	1.47412
1008.76	1.93343
1012.13	2.98945
1015.51	3.26837
1018.88	2.32833
1022.26	2.80122
1025.63	2.11724
1029.01	1.31465
1032.38	2.88994
1035.76	4.51905
1039.13	6.40007
1042.51	9.48414
1045.88	15.0793
1049.26	19.0205
1052.63	22.7922
1056.01	24.3911
1059.38	22.6609
1062.76	17.3069
1066.13	11.9169
1069.51	9.13454
1072.88	6.58316
1076.26	4.74745
1079.63	4.99198
1083	5.33019
1086.38	6.3176
1089.75	5.1339
1093.13	3.40741
1096.5	2.24098
1099.88	1.63353
1103.25	0.585714
1106.63	0.515072
1110	0.434097
1113.38	0.095619
1116.75	0.084028
1120.13	0.28643
1123.5	0.702642
1126.88	0.776619
1130.25	0.213856
1133.63	0.206598
1137	0.127737
1140.38	0.436203
1143.75	0.458525
1147.13	0.353123
1150.5	0.113741
1153.88	0.10466
1157.25	0.712807
1160.62	0.538263
1164	0.447201
1167.38	0.78783
1170.75	0.302176
1174.12	1.01438
1177.5	1.79285
1180.87	1.29853
1184.25	1.82126
1187.62	1.75324
1191	1.82961
1194.37	0.942307
1197.75	1.52011
1201.12	1.32462
1204.5	1.84291
1207.87	0.930792
1211.25	1.1482
1214.62	2.10913
1218	0.725611
1221.37	0.966892
1224.75	1.38391
1228.12	1.08959
1231.5	0.734547
1234.87	0.967131
1238.25	0.286863
1241.62	0.709385
1244.99	1.00016
1248.37	1.05283
1251.74	0.621698
1255.12	1.27872
1258.49	0.735228
1261.87	0.921061
1265.24	0.845148
1268.62	0.59057
1271.99	0.89628
1275.37	0.757116
1278.74	0.807873
1282.12	0.493069
1285.49	0.191313
1288.87	0.688608
1292.24	0.560352
1295.62	0.059574
1298.99	0.41379
