Measurement: Raman, 532 nm, unoriented, Raman Data Processed
Mineral: Fluorellestadite
Rruff sample: R130124
Ideal chemistry: Ca_5_(SiO_4_)_1.5_(SO_4_)_1.5_F
Locality: Kopeisk, South Urals, Russia
Source: Rock Currier
Description: Green to blue acicular or hexagonal prismatic crystals, associated with opaque nenadkevichite.
Raman shift (cm-1)	intensity
177.107	0
180	0.662964
182.892	1.54462
185.785	0.596344
188.678	5.66417
191.57	8.3623
194.463	9.80753
197.356	8.30193
200.249	4.85731
203.141	9.2567
206.034	10.5296
208.927	9.45073
211.819	10.2954
214.712	9.22035
217.605	9.40836
220.497	9.54983
223.39	9.2021
226.283	9.5038
229.175	10.8276
232.068	10.5848
234.961	8.72081
237.854	9.45445
240.746	10.1376
243.639	10.0563
246.532	10.1384
249.424	9.91135
252.317	12.639
255.21	14.9358
258.103	15.3309
260.995	20.1065
263.888	24.4835
266.781	26.2081
269.673	24.2874
272.566	22.7654
275.459	24.3425
278.351	22.2511
281.244	21.5261
284.137	18.1273
287.029	17.3191
289.922	17.0461
292.815	14.4615
295.708	15.838
298.6	18.0783
301.493	18.1704
304.386	20.311
307.278	20.8976
310.171	25.1996
313.064	26.8077
315.957	29.1449
318.849	29.6666
321.742	28.5767
324.635	27.924
327.527	27.2177
330.42	25.2242
333.313	22.4357
336.205	19.8442
339.098	17.9955
341.991	13.7064
344.884	11.1918
347.776	7.87676
350.669	6.03352
353.562	4.25829
356.454	0.119339
359.347	1.24365
362.24	1.66069
365.132	2.81589
368.025	2.3087
370.918	2.13248
373.81	1.70613
376.703	1.17291
379.596	5.02187
382.489	9.53055
385.381	17.6869
388.274	27.5505
391.167	38.2181
394.059	47.184
396.952	52.2979
399.845	55.7373
402.738	54.7104
405.63	51.8192
408.523	47.3248
411.416	46.0516
414.308	45.3759
417.201	40.4147
420.094	38.6227
422.986	34.0347
425.879	32.3331
428.772	27.9928
431.664	25.954
434.557	24.6333
437.45	26.2378
440.343	32.3761
443.235	42.1089
446.128	53.6588
449.021	75.377
451.913	105.899
454.806	147.101
457.699	181.913
460.591	190.326
463.484	172.676
466.377	146.205
469.27	119.801
472.162	100.317
475.055	80.3713
477.948	61.2753
480.84	41.0885
483.733	26.6393
486.626	14.9599
489.519	8.30403
492.411	2.30675
495.304	1.23877
498.197	0.37413
501.089	0.896179
503.982	1.38385
506.875	0.124115
509.767	0.370941
512.66	1.50003
515.553	4.02609
518.446	7.0033
521.338	9.66333
524.231	14.9042
527.124	18.8733
530.016	19.935
532.909	21.8112
535.802	25.2111
538.694	23.228
541.587	17.7042
544.48	12.0611
547.372	9.4534
550.265	8.01941
553.158	6.14694
556.051	7.78743
558.943	9.67445
561.836	8.99673
564.729	9.39082
567.621	8.44704
570.514	8.05698
573.407	6.58839
576.299	4.50786
579.192	2.04794
582.085	1.78328
584.978	0.570786
587.87	1.71667
590.763	0.01622
593.656	0.954514
596.548	0.817261
599.441	4.42458
602.334	8.80209
605.226	15.9855
608.119	29.3124
611.012	46.0481
613.905	72.9225
616.797	102.462
619.69	127.949
622.583	147.001
625.475	152.322
628.368	152.465
631.261	144.64
634.154	127.985
637.046	109.068
639.939	100.584
642.832	92.983
645.724	72.8442
648.617	47.2944
651.51	25.005
654.402	11.8321
657.295	3.73354
660.188	0.502655
663.081	0.528702
665.973	0.314346
668.866	0.587463
671.759	1.7428
674.651	4.42128
677.544	3.57336
680.437	5.15353
683.329	5.25745
686.222	9.15523
689.115	10.0186
692.008	10.5279
694.9	15.7156
697.793	17.984
700.686	15.0562
703.578	16.3097
706.471	15.8008
709.364	15.3234
712.256	14.9683
715.149	12.6824
718.042	10.6967
720.934	9.11787
723.827	8.67093
726.72	7.33902
729.613	4.02525
732.505	4.14961
735.398	1.30373
738.291	1.2675
741.183	0.677155
744.076	0.785538
746.969	0.277222
749.861	0.340591
752.754	0.025391
755.647	0.969788
758.54	1.42737
761.432	1.89604
764.325	0.848755
767.218	2.73962
770.11	4.3981
773.003	4.91194
775.896	6.32808
778.788	4.67392
781.681	4.13576
784.574	5.28572
787.467	4.29494
790.359	5.29843
793.252	7.07466
796.145	6.28662
799.037	7.41602
801.93	7.23348
804.823	8.02126
807.716	9.32645
810.608	9.59651
813.501	9.88112
816.394	9.16855
819.286	9.21887
822.179	8.72133
825.072	10.553
827.964	12.8135
830.857	17.3031
833.75	29.0486
836.643	47.6384
839.535	74.498
842.428	111.653
845.321	151.762
848.213	194.786
851.106	221.124
853.999	236.727
856.891	231.864
859.784	204.937
862.677	167.324
865.569	124.298
868.462	86.0533
871.355	53.8449
874.248	30.0837
877.14	13.9222
880.033	5.98245
882.926	0.416245
885.818	0.134125
888.711	0.520187
891.604	0.69458
894.496	0.090912
897.389	0.006317
900.282	2.39554
903.175	0.300644
906.067	0.794556
908.96	2.08447
911.853	0.045135
914.745	0.48996
917.638	3.5622
920.531	2.87082
923.423	2.90222
926.316	1.17834
929.209	2.38944
932.102	1.18506
934.994	1.25079
937.887	4.12338
940.78	3.74936
943.672	4.50342
946.565	8.29745
949.458	11.8844
952.351	11.8356
955.243	12.8999
958.136	12.1479
961.029	13.0747
963.921	8.85287
966.814	4.46335
969.707	4.63638
972.599	3.62973
975.492	4.39667
978.385	12.7264
981.278	26.9089
984.17	56.085
987.063	110.317
989.956	202.609
992.848	346.46
995.741	535.158
998.634	729.922
1001.53	861.674
1004.42	855.605
1007.31	709.517
1010.21	485.701
1013.1	277.988
1015.99	138.692
1018.88	63.814
1021.77	29.5038
1024.67	15.2028
1027.56	7.11722
1030.45	3.41373
1033.35	1.92084
1036.24	1.48734
1039.13	0.982635
1042.02	0.358826
1044.92	0.717255
1047.81	0.392731
1050.7	0.60202
1053.6	1.97925
1056.49	0.01413
1059.38	0.39389
1062.27	0.660675
1065.17	0.728119
1068.06	0.44812
1070.95	0.388855
1073.84	3.34515
1076.74	4.76846
1079.63	7.39151
1082.52	13.5209
1085.41	22.4882
1088.31	25.3719
1091.2	19.1115
1094.09	25.3589
1096.99	31.3821
1099.88	35.67
1102.77	40.6151
1105.66	43.7441
1108.56	45.3341
1111.45	47.679
1114.34	48.1145
1117.23	50.809
1120.13	50.9285
1123.02	52.7409
1125.91	52.0095
1128.81	55.6468
1131.7	57.1777
1134.59	61.0718
1137.48	61.8556
1140.38	61.0557
1143.27	57.2252
1146.16	57.4836
1149.05	52.9603
1151.95	47.0221
1154.84	42.3567
1157.73	36.4759
1160.62	31.6404
1163.52	25.7259
1166.41	24.4514
1169.3	21.0391
1172.2	17.8878
1175.09	16.3073
1177.98	14.6827
1180.87	13.8041
1183.77	8.31045
1186.66	6.01529
1189.55	4.73618
1192.44	3.97296
1195.34	1.40424
1198.23	2.69589
1201.12	0.203888
1204.02	0.530212
1206.91	0.17984
1209.8	0.165222
1212.69	0.527679
1215.59	0.6716
1218.48	1.20096
1221.37	0.210632
1224.26	0.645203
1227.16	0.625061
1230.05	1.0571
1232.94	2.5441
1235.84	1.69669
1238.73	1.33267
1241.62	1.10104
1244.51	1.73792
1247.41	3.18143
1250.3	3.8157
1253.19	3.35782
1256.08	4.54517
1258.98	6.90418
1261.87	7.56262
1264.76	3.79523
1267.65	2.79193
1270.55	2.93774
1273.44	2.52374
1276.33	1.47888
1279.23	0.106262
1282.12	1.46857
1285.01	2.40179
1287.9	0.415833
1290.8	3.26587
1293.69	0.999817
1296.58	1.24377
1299.47	0.379822
