Measurement: Raman, 780 nm, unoriented, Raman Data Processed
Mineral: Fluorcalciomicrolite
Rruff sample: R050625
Ideal chemistry: (Ca,Na)_2_Ta_2_(O,OH)_6_F
Locality: Urubu mine, Itinga, Minas Gerais, Brazil
Source: Gemological Center
Description: Yellow fragment
Measured chemistry: (Ca_0.98_Na_0.92_)_∑=1.90_(Ta_1.88_Nb_0.11_Sn_0.01_)_∑=2_O_6_[F_0.86_(OH)_0.01_]_∑=0.87_
Raman shift (cm-1)	intensity
149.919	0
152.812	3.28601
155.705	14.3446
158.597	38.0541
161.49	34.3104
164.383	9.11707
167.276	0.866699
170.168	14.7148
173.061	41.7549
175.954	62.6594
178.846	79.9928
181.739	83.9134
184.632	101.3
187.524	115.35
190.417	131.002
193.31	148.003
196.203	163.663
199.095	181.452
201.988	181.659
204.881	185.725
207.773	187.432
210.666	127.325
213.559	27.7462
216.451	5.37146
219.344	16.6919
222.237	9.06006
225.13	11.4525
228.022	5.07629
230.915	4.47717
233.808	22.394
236.7	47.8103
239.593	82.5668
242.486	111.816
245.378	129.71
248.271	137.77
251.164	132.359
254.056	117.132
256.949	106.254
259.842	114.28
262.735	134.759
265.627	167.548
268.52	218.36
271.413	300.659
274.305	390.58
277.198	502.243
280.091	622.812
282.983	732.109
285.876	823.921
288.769	914.328
291.662	1003.82
294.554	1097.74
297.447	1187.92
300.34	1249.13
303.232	1255.83
306.125	1191.83
309.018	1049.9
311.911	863.052
314.803	654.652
317.696	485.853
320.589	357.892
323.481	299.855
326.374	290.142
329.267	331.097
332.159	413.895
335.052	539.658
337.945	667.316
340.837	722.731
343.73	645.153
346.623	497.566
349.516	344.943
352.408	229.118
355.301	143.677
358.194	86.243
361.086	44.4917
363.979	16.8794
366.872	3.92041
369.764	11.5416
372.657	14.1437
375.55	9.95373
378.442	11.1348
381.335	1.98877
384.228	3.34058
387.121	9.20569
390.013	17.4011
392.906	18.1443
395.799	23.5955
398.691	24.4731
401.584	24.751
404.477	30.0946
407.37	33.6011
410.262	37.7958
413.155	42.6696
416.048	49.4753
418.94	68.8254
421.833	78.3479
424.726	92.5898
427.618	106.922
430.511	102.674
433.404	101.704
436.296	101.515
439.189	103.046
442.082	99.781
444.975	101.626
447.867	99.8433
450.76	97.6169
453.653	86.6756
456.545	74.0593
459.438	54.1835
462.331	32.3853
465.224	18.626
468.116	4.01797
471.009	3.59198
473.902	7.92633
476.794	9.19492
479.687	8.85059
482.58	6.72052
485.472	17.3224
488.365	44.2567
491.258	96.2701
494.151	187.842
497.043	330.305
499.936	537.118
502.829	836.712
505.721	1266.28
508.614	1830.44
511.507	2423.42
514.399	2691.34
517.292	2429.44
520.185	1904.09
523.077	1456.79
525.97	1148.69
528.863	950.227
531.756	833.339
534.648	755.322
537.541	714.082
540.434	678.942
543.326	655.118
546.219	627.147
549.112	571.29
552.004	508.017
554.897	438.113
557.79	360.737
560.683	297.831
563.575	237.328
566.468	196.199
569.361	154.827
572.253	130.319
575.146	99.3184
578.039	81.1743
580.931	61.1036
583.824	35.2319
586.717	22.8024
589.61	10.8864
592.502	0.977295
595.395	7.13171
598.288	4.33264
601.18	7.67084
604.073	1.24182
606.966	1.85638
609.858	7.34949
612.751	9.51562
615.644	10.0399
618.537	12.1938
621.429	16.7538
624.322	24.3226
627.215	22.0529
630.107	30.0926
633	34.6448
635.893	49.8965
638.785	79.0833
641.678	77.7804
644.571	86.5121
647.463	104.275
650.356	130.042
653.249	153.419
656.141	178.52
659.034	199.02
661.927	216.942
664.82	229.492
667.712	243.455
670.605	249.367
673.498	248.03
676.39	248.014
679.283	239.919
682.176	235.57
685.068	233.552
687.961	222.494
690.854	210.759
693.747	192.338
696.639	170.731
699.532	154.574
702.425	128.996
705.317	112.242
708.21	91.8859
711.103	72.757
713.995	50.5284
716.888	36.5305
719.781	22.3777
722.674	12.9052
725.566	2.26453
728.459	3.44611
731.352	4.09454
734.244	2.99457
737.137	1.23489
740.03	1.86557
742.923	2.70645
745.815	1.19711
748.708	0.668732
751.601	0.752441
754.493	4.23343
757.386	9.43109
760.279	10.1468
763.171	13.2791
766.064	14.1588
768.957	18.8325
771.85	19.6891
774.742	22.3821
777.635	24.8878
780.528	30.8972
783.42	32.1045
786.313	35.7996
789.206	37.3969
792.098	46.265
794.991	52.161
797.884	62.9982
800.776	69.0466
803.669	76.4116
806.562	87.1092
809.455	88.6911
812.347	83.4312
815.24	81.6498
818.133	83.9707
821.025	82.2467
823.918	75.919
826.811	66.3527
829.703	57.454
832.596	50.411
835.489	47.8122
838.381	42.3494
841.274	34.0388
844.167	26.7134
847.06	16.8568
849.952	7.15526
852.845	2.20467
855.738	2.13164
858.63	1.03268
861.523	0.03981
864.416	6.24356
867.308	12.8331
870.201	21.2798
873.094	30.7215
875.987	39.9739
878.879	46.5176
881.772	55.9886
884.665	66.8352
887.557	73.9029
890.45	79.038
893.343	83.0008
896.236	87.1
899.128	88.4487
902.021	89.5046
904.914	84.7622
907.806	86.2077
910.699	89.3277
913.592	87.7007
916.484	85.7663
919.377	83.6729
922.27	80.0472
925.163	73.8474
928.055	72.2888
930.948	67.7061
933.841	62.6035
936.733	53.702
939.626	46.5758
942.519	39.4451
945.411	30.8779
948.304	24.1673
951.197	19.9306
954.09	15.1683
956.982	12.6189
959.875	7.11099
962.768	4.10124
965.66	4.25162
968.553	0.086243
971.446	0.509521
974.338	1.32718
977.231	2.75887
980.124	1.8712
983.016	0.592453
985.909	2.19308
988.802	0.821121
991.694	1.42209
994.587	2.69524
997.48	4.73306
1000.37	5.96608
1003.26	10.0075
1006.16	11.3854
1009.05	14.1496
1011.94	16.6059
1014.84	20.1235
1017.73	20.8992
1020.62	19.5471
1023.51	21.0821
1026.41	21.1426
1029.3	24.5984
1032.19	28.5059
1035.09	31.2002
1037.98	34.4556
1040.87	35.0959
1043.76	30.4308
1046.66	24.3166
1049.55	21.8843
1052.44	22.4797
1055.33	21.0405
1058.23	19.5027
1061.12	19.7913
1064.01	16.1911
1066.9	18.4203
1069.8	14.0586
1072.69	14.1419
1075.58	10.9738
1078.47	10.4435
1081.37	8.48163
1084.26	12.0227
1087.15	10.3315
1090.05	7.25967
1092.94	5.87904
1095.83	5.26242
1098.72	4.46275
1101.62	4.85801
1104.51	7.56513
1107.4	17.2642
1110.3	28.3866
1113.19	35.7243
1116.08	27.7614
1118.97	13.114
1121.87	6.62556
1124.76	5.44586
1127.65	2.00897
1130.54	0.691261
1133.44	1.68507
1136.33	0.101578
1139.22	0.252197
1142.12	3.5784
1145.01	5.16034
1147.9	7.11691
1150.79	6.66603
1153.69	7.42291
1156.58	7.26147
1159.47	6.69113
1162.36	6.63568
1165.26	6.18634
1168.15	3.4474
1171.04	0.77684
1173.93	0.635422
1176.83	4.29237
1179.72	7.03256
1182.61	14.9009
1185.51	19.8687
1188.4	16.8699
1191.29	13.2128
1194.18	7.42369
1197.08	4.10721
1199.97	0.798904
1202.86	1.20351
1205.75	4.06354
1208.65	4.30267
1211.54	7.58354
1214.43	9.84247
1217.33	17.468
1220.22	20.4025
1223.11	24.7997
1226	32.0829
1228.9	32.5295
1231.79	27.3686
1234.68	20.3942
1237.57	14.9371
1240.47	8.33266
1243.36	2.3049
1246.25	1.61671
1249.14	0.502899
1252.04	1.00989
1254.93	1.05255
1257.82	3.15996
1260.71	3.64804
1263.61	3.30719
1266.5	4.90414
1269.39	4.56522
1272.29	2.36507
1275.18	4.88969
1278.07	3.81895
1280.96	2.06436
1283.86	5.59772
