Measurement: Raman, 532 nm, unoriented, Raman Data Processed
Mineral: Fluor-dravite
Rruff sample: R110031
Ideal chemistry: NaMg_3_Al_6_(Si_6_O_18_)(BO_3_)_3_(OH)_3_F
Locality: Kefalos Hill, Skotini Bay, Galissas, Syros Island, Aegean Sea, Greece
Source: William W Pinch
Description: Black massive, associated with actinolite and omphacite R110038
Raman shift (cm-1)	intensity
180.166	0
183.059	0.730591
185.951	1.28543
188.844	4.3736
191.737	22.9914
194.629	51.2436
197.522	89.9358
200.415	143.601
203.308	198.416
206.2	287.114
209.093	384.539
211.986	455.163
214.878	484.145
217.771	462.688
220.664	429.123
223.556	407.592
226.449	391.258
229.342	409.716
232.234	437.62
235.127	477.438
238.02	506.114
240.913	503.998
243.805	455.738
246.698	371.838
249.591	283.127
252.483	207.801
255.376	158.281
258.269	127.867
261.161	99.3376
264.054	82.0952
266.947	63.3159
269.84	50.896
272.732	37.1429
275.625	36.523
278.518	16.6115
281.41	8.81937
284.303	0.216827
287.196	7.17798
290.089	11.6987
292.981	8.32614
295.874	1.67197
298.767	3.63931
301.659	7.68292
304.552	15.2759
307.445	27.7203
310.337	37.2015
313.23	57.0584
316.123	41.0793
319.015	24.0906
321.908	19.6133
324.801	25.2419
327.694	30.9925
330.586	38.3702
333.479	50.7257
336.372	56.3458
339.264	82.561
342.157	103.097
345.05	133.096
347.942	180.296
350.835	236.641
353.728	316.249
356.621	425.042
359.513	558.995
362.406	692.147
365.299	800.754
368.191	791.877
371.084	681.418
373.977	513.163
376.87	382.097
379.762	291.995
382.655	233.576
385.548	209.071
388.44	192.969
391.333	177.745
394.226	164.853
397.118	156.436
400.011	152.145
402.904	134.761
405.796	108.7
408.689	95.519
411.582	57.0311
414.475	50.0964
417.367	36.9212
420.26	26.1227
423.153	19.788
426.045	16.2541
428.938	14.0723
431.831	9.1206
434.724	4.76053
437.616	0.00351
440.509	2.88275
443.402	2.83569
446.294	1.5853
449.187	4.5834
452.08	5.04404
454.972	1.54868
457.865	0.767731
460.758	6.33823
463.651	6.46622
466.543	2.97452
469.436	13.6303
472.329	22.863
475.221	33.8901
478.114	38.4555
481.007	55.5326
483.899	70.9046
486.792	83.1502
489.685	91.4968
492.577	88.0918
495.47	91.9472
498.363	84.7752
501.256	68.8532
504.148	54.588
507.041	41.8963
509.934	30.038
512.826	23.5309
515.719	15.1964
518.612	12.6428
521.505	13.0194
524.397	17.4996
527.29	28.6867
530.183	34.0999
533.075	39.281
535.968	39.7486
538.861	37.127
541.753	33.2458
544.646	29.447
547.539	19.8536
550.432	18.6249
553.324	13.9185
556.217	13.9862
559.11	15.7057
562.002	11.5315
564.895	8.81818
567.788	6.8837
570.68	0.02951
573.573	1.56549
576.466	4.61081
579.359	2.50415
582.251	2.63486
585.144	2.09228
588.037	5.52968
590.929	0.377075
593.822	0.483948
596.715	0.812134
599.607	3.04019
602.5	2.63113
605.393	5.35403
608.285	8.13885
611.178	14.9301
614.071	16.1421
616.964	22.6446
619.856	32.0688
622.749	46.6481
625.642	57.0766
628.534	79.9775
631.427	91.6614
634.32	99.591
637.212	95.3887
640.105	98.3539
642.998	106.433
645.891	123.098
648.783	134.257
651.676	139.803
654.569	149.711
657.461	153.519
660.354	163.207
663.247	183.806
666.139	209.776
669.032	232.404
671.925	243.228
674.818	240.667
677.71	220.243
680.603	199.553
683.496	185.502
686.388	180.28
689.281	187.481
692.174	217.882
695.067	262.45
697.959	293.035
700.852	298.13
703.745	263.818
706.637	199.091
709.53	135.293
712.423	78.9888
715.315	45.467
718.208	25.2266
721.101	15.2638
723.994	2.94339
726.886	6.33901
729.779	5.06422
732.672	2.89584
735.564	1.82516
738.457	1.04504
741.35	0.075806
744.242	4.94067
747.135	18.5585
750.028	25.9981
752.92	34.0281
755.813	43.3146
758.706	42.8513
761.599	47.7935
764.491	51.4259
767.384	56.0189
770.277	55.5224
773.169	55.5212
776.062	63.6491
778.955	62.008
781.847	64.585
784.74	74.099
787.633	82.7995
790.526	79.7346
793.418	74.9648
796.311	67.5956
799.204	46.2234
802.096	43.7347
804.989	37.9093
807.882	29.2825
810.774	24.8278
813.667	27.0444
816.56	17.668
819.453	17.6117
822.345	12.507
825.238	9.30711
828.131	1.79379
831.023	2.24843
833.916	2.30632
836.809	1.33095
839.702	4.46936
842.594	2.16678
845.487	3.07045
848.38	1.23087
851.272	0.109177
854.165	6.54272
857.058	4.70314
859.95	4.49112
862.843	6.55276
865.736	4.0762
868.629	4.67067
871.521	4.784
874.414	11.7932
877.307	5.79376
880.199	8.86319
883.092	5.23508
885.985	9.99326
888.877	6.61734
891.77	4.38031
894.663	5.03381
897.556	5.53789
900.448	0.740128
903.341	4.03549
906.234	4.28655
909.126	4.22063
912.019	3.93723
914.912	1.26633
917.804	2.90965
920.697	3.52263
923.59	1.02882
926.482	4.18623
929.375	3.52063
932.268	1.88124
935.161	0.186813
938.053	0.396118
940.946	1.07902
943.839	1.5795
946.731	1.9969
949.624	3.97543
952.517	10.2762
955.409	11.5598
958.302	13.3879
961.195	17.1842
964.088	17.0509
966.98	14.9861
969.873	21.729
972.766	15.6805
975.658	13.849
978.551	10.8746
981.444	12.0256
984.337	9.05307
987.229	4.16533
990.122	5.18861
993.015	2.80547
995.907	2.90698
998.8	8.24516
1001.69	16.7933
1004.59	20.2364
1007.48	29.6434
1010.37	37.0416
1013.26	48.2236
1016.16	61.2009
1019.05	78.1961
1021.94	92.1074
1024.83	99.2696
1027.73	109.137
1030.62	116.994
1033.51	115.928
1036.4	108.932
1039.3	103.687
1042.19	109.614
1045.08	98.9506
1047.98	91.0068
1050.87	92.7865
1053.76	90.7002
1056.65	83.705
1059.55	87.7967
1062.44	84.3045
1065.33	78.402
1068.22	64.1903
1071.12	58.0201
1074.01	48.3052
1076.9	32.5808
1079.8	27.5167
1082.69	17.4056
1085.58	8.76042
1088.47	1.59799
1091.37	4.52693
1094.26	1.44339
1097.15	3.5528
1100.04	4.58595
1102.94	2.04498
1105.83	2.04117
1108.72	3.08264
1111.62	3.03708
1114.51	4.40028
1117.4	0.368408
1120.29	2.78082
1123.19	2.85466
1126.08	1.90819
1128.97	2.28545
1131.86	3.41754
1134.76	3.20398
1137.65	1.26913
1140.54	0.205612
1143.43	2.87004
1146.33	1.53102
1149.22	2.59853
1152.11	1.33185
1155.01	6.54291
1157.9	1.44801
1160.79	7.14114
1163.68	6.32129
1166.58	6.1505
1169.47	5.84007
1172.36	5.94559
1175.26	2.75252
1178.15	8.39044
1181.04	7.6454
1183.93	9.26274
1186.83	9.4783
1189.72	6.78632
1192.61	2.38017
1195.5	7.84827
1198.4	10.176
1201.29	7.24631
1204.18	8.19961
1207.07	9.43004
1209.97	2.21045
1212.86	3.2679
1215.75	4.98993
1218.64	6.11791
1221.54	5.88762
1224.43	8.3846
1227.32	10.0161
1230.22	8.19218
1233.11	7.92657
1236	8.3671
1238.89	8.03769
1241.79	6.93697
1244.68	6.77324
1247.57	10.2518
1250.46	8.30609
1253.36	6.67555
1256.25	7.66324
1259.14	7.66844
1262.04	8.48671
1264.93	7.78999
1267.82	8.0461
1270.71	5.0914
1273.61	4.56067
1276.5	1.15875
1279.39	9.20367
1282.29	1.53821
1285.18	5.22711
1288.07	7.05107
1290.96	1.66924
1293.86	5.34068
1296.75	8.30251
1299.64	5.83711
1302.53	0.854523
