Measurement: Raman, 532 nm, unoriented, Raman Data Processed
Mineral: Fluocerite-(Ce)
Rruff sample: R110058
Ideal chemistry: CeF_3_
Locality: Little Patsy pegmatite, South Platte Pegmatite District, Jefferson County, Colorado, USA
Source: Rudy Bolona and Don Doell
Description: Tan colored massive
Raman shift (cm-1)	intensity
182.577	0
185.469	1.15955
188.362	0.900269
191.255	13.2838
194.147	25.8475
197.04	39.9261
199.933	53.0098
202.825	52.1996
205.718	65.7422
208.611	68.8395
211.504	67.4761
214.396	82.8812
217.289	93.1407
220.182	98.1348
223.074	110.013
225.967	112.956
228.86	116.3
231.752	122.464
234.645	126.128
237.538	119.28
240.43	121.572
243.323	122.444
246.216	119.441
249.109	121.429
252.001	121.48
254.894	122.79
257.787	120.192
260.679	115.444
263.572	102.436
266.465	94.7551
269.358	90.1943
272.25	79.9205
275.143	71.3791
278.036	63.5978
280.928	49.5422
283.821	37.7012
286.714	23.1537
289.606	15.6381
292.499	14.0992
295.392	18.0591
298.284	15.9115
301.177	9.5979
304.07	11.2506
306.963	11.5819
309.855	0.281616
312.748	1.83765
315.641	2.93042
318.533	8.56702
321.426	2.151
324.319	8.14319
327.212	11.163
330.104	20.3634
332.997	11.0458
335.89	17.4563
338.782	19.4021
341.675	15.141
344.568	5.24487
347.46	5.16443
350.353	10.2798
353.246	14.4929
356.139	10.475
359.031	1.56116
361.924	0.294189
364.817	15.2988
367.709	25.1333
370.602	41.7374
373.495	63.7521
376.387	85.5768
379.28	101.444
382.173	136.286
385.065	165.855
387.958	205.386
390.851	232.712
393.744	260.785
396.636	279.326
399.529	286.692
402.422	287.406
405.314	284.51
408.207	277.813
411.1	281.898
413.993	294.976
416.885	325.17
419.778	345.115
422.671	389.631
425.563	444.799
428.456	510.749
431.349	567.762
434.241	644.422
437.134	719.559
440.027	797.831
442.92	903.004
445.812	996.41
448.705	1089.35
451.598	1162.27
454.49	1185.09
457.383	1162.48
460.276	1082.93
463.168	958.188
466.061	820.672
468.954	671.388
471.846	555.047
474.739	442.033
477.632	348.512
480.525	265.307
483.417	196.059
486.31	138.888
489.203	86.077
492.095	52.6995
494.988	32.2999
497.881	11.2168
500.774	0.347656
503.666	7.88208
506.559	15.7974
509.452	11.5527
512.344	6.00903
515.237	6.1189
518.13	1.76074
521.022	6.14502
523.915	10.9924
526.808	31.3668
529.701	38.2492
532.593	48.5095
535.486	52.3545
538.379	59.3981
541.271	71.882
544.164	73.2371
547.057	75.7579
549.949	81.9075
552.842	80.1912
555.735	74.5298
558.628	71.8956
561.52	65.6567
564.413	57.9762
567.306	48.529
570.198	42.4077
573.091	38.2549
575.984	40.5189
578.876	38.4648
581.769	44.911
584.662	44.1812
587.554	49.3368
590.447	49.4122
593.34	50.3246
596.232	46.9801
599.125	46.3152
602.018	43.9951
604.911	38.7426
607.803	35.493
610.696	31.7996
613.589	26.0084
616.481	22.6962
619.374	16.6802
622.267	12.106
625.159	2.36621
628.052	3.28259
630.945	0.490845
633.838	0.332764
636.73	4.69202
639.623	2.29748
642.516	0.644287
645.408	3.24707
648.301	1.16663
651.194	5.03503
654.087	3.67908
656.979	3.87109
659.872	0.172119
662.765	1.99243
665.657	2.99463
668.55	0.568481
671.443	7.13171
674.335	1.00964
677.228	6.36475
680.121	5.63013
683.014	4.54907
685.906	8.31946
688.799	10.1454
691.692	6.23071
694.584	12.6528
697.477	7.40125
700.37	10.2841
703.263	7.70972
706.155	7.79883
709.048	12.6284
711.941	11.0749
714.833	11.9786
717.726	12.495
720.619	20.8693
723.511	29.3945
726.404	30.7678
729.297	48.7203
732.189	46.6409
735.082	50.6397
737.975	44.1361
740.868	42.5494
743.76	40.493
746.653	39.6545
749.546	33.148
752.438	32.0387
755.331	31.2842
758.224	30.0155
761.116	20.3209
764.009	14.2938
766.902	13.7074
769.795	7.75793
772.687	7.93506
775.58	1.36584
778.473	2.56274
781.365	2.93872
784.258	3.01929
787.151	2.31567
790.043	3.98792
792.936	6.72144
795.829	1.05151
798.722	0.271118
801.614	1.08618
804.507	0.153564
807.4	6.07483
810.292	7.22998
813.185	9.16345
816.078	10.1766
818.971	7.51099
821.863	12.5852
824.756	6.52478
827.649	0.218506
830.541	5.03394
833.434	7.9115
836.327	6.01257
839.219	3.12561
842.112	5.66309
845.005	0.201172
847.898	0.056519
850.79	1.85437
853.683	1.47571
856.576	6.86145
859.468	10.6598
862.361	17.3767
865.254	20.1992
868.146	7.94482
871.039	16.9369
873.932	15.9006
876.824	18.0015
879.717	19.6378
882.61	18.1427
885.503	21.2791
888.395	30.7527
891.288	26.6702
894.181	25.301
897.073	25.1011
899.966	25.7356
902.859	25.6278
905.751	35.7229
908.644	26.8391
911.537	27.8199
914.43	33.6816
917.322	32.7355
920.215	31.9947
923.108	30.3342
926	31.2197
928.893	32.702
931.786	30.8628
934.678	30.2893
937.571	23.8007
940.464	31.4203
943.357	27.4271
946.249	23.4882
949.142	19.7669
952.035	19.7565
954.927	15.8711
957.82	13.9799
960.713	5.87268
963.606	6.32458
966.498	11.9396
969.391	9.19873
972.284	4.8645
975.176	2.63464
978.069	0.169556
980.962	1.66516
983.854	0.051147
986.747	2.04126
989.64	1.05359
992.533	4.71497
995.425	5.72522
998.318	2.34082
1001.21	3.92615
1004.1	3.05749
1007	5.04431
1009.89	3.01038
1012.78	7.66943
1015.67	0.186401
1018.57	5.91345
1021.46	14.8608
1024.35	13.9717
1027.24	11.4834
1030.14	13.1686
1033.03	15.5759
1035.92	17.9615
1038.82	14.2861
1041.71	12.9594
1044.6	11.9083
1047.49	11.1643
1050.39	12.0252
1053.28	13.9783
1056.17	11.0623
1059.07	11.4946
1061.96	14.4266
1064.85	15.7571
1067.74	15.3315
1070.63	19.2982
1073.53	25.324
1076.42	30.7621
1079.31	48.589
1082.21	66.3695
1085.1	87.8411
1087.99	106.179
1090.88	130.841
1093.78	142.675
1096.67	127.475
1099.56	92.6615
1102.45	55.1907
1105.35	14.292
1108.24	10.5494
1111.13	11.3546
1114.03	6.93176
1116.92	5.59729
1119.81	11.5909
1122.7	1.09228
1125.6	1.68091
1128.49	2.95203
1131.38	2.80273
1134.28	1.73486
1137.17	8.02173
1140.06	8.60571
1142.95	6.92505
1145.85	10.3944
1148.74	7.41199
1151.63	12.777
1154.52	9.03772
1157.42	5.91931
1160.31	5.39026
1163.2	8.20068
1166.09	4.52319
1168.99	7.13733
1171.88	9.43445
1174.77	7.89319
1177.66	3.81885
1180.56	8.36792
1183.45	6.59875
1186.34	10.9596
1189.24	11.4117
1192.13	5.03552
1195.02	0.44812
1197.91	9.04871
1200.81	7.45056
1203.7	6.5094
1206.59	14.5623
1209.48	20.9813
1212.38	13.5881
1215.27	14.3315
1218.16	1.25281
1221.06	7.15356
1223.95	4.97583
1226.84	10.2811
1229.73	7.07471
1232.63	2.79944
1235.52	3.32666
1238.41	2.26733
1241.31	1.65491
1244.2	7.97424
1247.09	8.2699
1249.98	11.2097
1252.88	11.1138
1255.77	10.0789
1258.66	9.35095
1261.55	2.17896
1264.45	12.5591
1267.34	9.03125
1270.23	11.9983
1273.12	1.71924
1276.02	7.82727
1278.91	7.25867
1281.8	1.48303
1284.69	5.62451
1287.59	10.5371
1290.48	14.0609
1293.37	12.8286
1296.27	10.4833
1299.16	14.0646
1302.05	2.61194
