Measurement: Raman, 785 nm, unoriented, Raman Data Processed
Mineral: Fluorite
Rruff sample: R050045
Ideal chemistry: CaF_2_
Locality: Hunan Province, China
Source: Eugene Schlepp
Description: Pale green colored cubes
Measured chemistry: Ca_1.000_ F_2.000_
Raman shift (cm-1)	intensity
111.859	0
114.752	31.6796
117.645	81.2596
120.537	64.9655
123.43	2.4543
126.323	10.5182
129.215	21.4548
132.108	175.067
135.001	207.718
137.893	75.649
140.786	43.2378
143.679	125.308
146.572	331.773
149.464	538.289
152.357	670.059
155.25	657.218
158.142	634.365
161.035	689.605
163.928	808.972
166.821	995.318
169.713	1167.61
172.606	1319.33
175.499	1353.97
178.391	1493.14
181.284	1532.71
184.177	1590.83
187.069	1499.47
189.962	1392.1
192.855	1222.34
195.748	1088.27
198.64	897.848
201.533	752.183
204.426	595.573
207.318	508.499
210.211	435.481
213.104	344.691
215.996	289.356
218.889	231.507
221.782	154.483
224.674	132.703
227.567	75.7476
230.46	33.8004
233.353	19.9541
236.245	18.4355
239.138	33.6733
242.031	47.8254
244.923	15.0923
247.816	62.3767
250.709	171.148
253.601	299.388
256.494	497.418
259.387	705.398
262.28	774.27
265.172	840.941
268.065	792.249
270.958	699.991
273.85	677.026
276.743	640.42
279.636	709.433
282.529	712.957
285.421	680.922
288.314	663.864
291.207	654.069
294.099	569.492
296.992	557.207
299.885	585.197
302.777	762.801
305.67	1020.32
308.563	1435.27
311.455	2103.44
314.348	3083.13
317.241	4803.02
320.134	7041.7
323.026	6895.67
325.919	4207.43
328.812	2236.76
331.704	1300.96
334.597	791.3
337.49	589.405
340.382	371.606
343.275	245.138
346.168	72.9561
349.061	14.3472
351.953	11.3181
354.846	20.3992
357.739	29.7944
360.631	11.1069
363.524	18.3992
366.417	86.8765
369.31	165.786
372.202	259.032
375.095	380.701
377.988	402.953
380.88	441.289
383.773	438.029
386.666	391.034
389.558	381.246
392.451	319.201
395.344	252.749
398.236	203.305
401.129	165.043
404.022	141.97
406.915	90.993
409.807	93.0612
412.7	71.1696
415.593	51.786
418.485	60.1685
421.378	76.86
424.271	78.5006
427.163	28.255
430.056	14.2709
432.949	7.80188
435.842	25.4342
438.734	18.6085
441.627	1.82519
444.52	9.85242
447.412	8.07312
450.305	3.14026
453.198	41.6971
456.091	48.2876
458.983	76.1437
461.876	108.109
464.769	117.621
467.661	162.437
470.554	158.603
473.447	246.764
476.339	283.182
479.232	330.022
482.125	383.287
485.017	405.982
487.91	424.853
490.803	441.566
493.696	441.481
496.588	422.61
499.481	397.517
502.374	389.58
505.266	338.998
508.159	346.781
511.052	328.734
513.944	305.008
516.837	314.31
519.73	304.156
522.623	279.921
525.515	269.686
528.408	306.002
531.301	258.482
534.193	266.22
537.086	244.83
539.979	235.639
542.871	189.712
545.764	186.969
548.657	158.963
551.55	185.049
554.442	167.526
557.335	167.889
560.228	195.783
563.12	173.203
566.013	185.108
568.906	142.23
571.798	96.8081
574.691	94.0466
577.584	41.7505
580.477	13.1469
583.369	4.24951
586.262	20.6216
589.155	2.05737
592.047	4.42139
594.94	19.3085
597.833	11.5346
600.726	35.5657
603.618	21.72
606.511	18.2662
609.404	11.5485
612.296	6.47595
615.189	21.1061
618.082	43.7147
620.974	35.8358
623.867	54.856
626.76	38.5745
629.653	54.8993
632.545	35.4933
635.438	30.1424
638.331	45.2101
641.223	25.9553
644.116	5.95691
647.009	1.89661
649.901	23.2741
652.794	0.827576
655.687	26.4064
658.58	3.50055
661.472	39.171
664.365	39.1799
667.258	63.8645
670.15	82.1137
673.043	91.5272
675.936	54.5549
678.828	46.7482
681.721	22.7012
684.614	19.7061
687.506	8.62256
690.399	8.70825
693.292	3.02673
696.185	16.2447
699.077	53.1589
701.97	85.5617
704.863	125.806
707.755	131.783
710.648	192.639
713.541	258.137
716.433	393.352
719.326	549.577
722.219	804.294
725.112	806.336
728.004	855.179
730.897	692.775
733.79	501.718
736.682	302.909
739.575	202.762
742.468	127.819
745.361	58.3401
748.253	19.1384
751.146	18.749
754.039	12.6969
756.931	20.8231
759.824	12.8877
762.717	42.1837
765.609	45.3457
768.502	62.9967
771.395	60.4622
774.288	64.3744
777.18	75.6277
780.073	110.511
782.966	84.9291
785.858	103.597
788.751	112.865
791.644	87.4534
794.536	102.66
797.429	77.2894
800.322	129.167
803.215	87.4226
806.107	122.834
809	114.436
811.893	157.457
814.785	183.477
817.678	214.498
820.571	149.004
823.463	95.5298
826.356	49.29
829.249	96.0376
832.141	118.549
835.034	275.819
837.927	452.135
840.82	528.076
843.712	449.188
846.605	226.972
849.498	75.2412
852.39	0.220703
855.283	5.73462
858.176	1.33716
861.068	6.63647
863.961	73.7656
866.854	177.451
869.747	263.576
872.639	245.73
875.532	274.973
878.425	301.26
881.317	308.405
884.21	404.837
887.103	350.302
889.995	415.924
892.888	392.562
895.781	444.993
898.674	342.308
901.566	284.35
904.459	215.258
907.352	187.405
910.244	187.126
913.137	123.764
916.03	89.9812
918.923	42.9937
921.815	106.106
924.708	110.824
927.601	6.9624
930.493	6.03125
933.386	161.461
936.279	278.269
939.171	380.103
942.064	494.285
944.957	651.203
947.85	757.784
950.742	895.033
953.635	1069.74
956.528	1329.46
959.42	1555.17
962.313	1871.84
965.206	2187.85
968.098	2603.22
970.991	3072.32
973.884	3549.64
976.777	3705.28
979.669	3789.09
982.562	3657.3
985.455	3385.32
988.347	2932.32
991.24	2457.34
994.133	2162.74
997.025	1660.37
999.918	1394.63
1002.81	1072.74
1005.7	877.981
1008.6	721.98
1011.49	650.507
1014.38	538.073
1017.27	380.088
1020.17	302.233
1023.06	399.366
1025.95	209.993
1028.85	233.941
1031.74	210.662
1034.63	283.182
1037.52	503.534
1040.42	598.815
1043.31	752.583
1046.2	763.976
1049.09	660.429
1051.99	495.282
1054.88	254.545
1057.77	101.11
1060.66	106.616
1063.56	149.539
1066.45	170.763
1069.34	178.599
1072.24	108.581
1075.13	34.8789
1078.02	149.416
1080.91	390.757
1083.81	544.607
1086.7	864.913
1089.59	1224.25
1092.48	1739.78
1095.38	2320.86
1098.27	3129.09
1101.16	4261.62
1104.06	5846.95
1106.95	8197.45
1109.84	11156.3
1112.73	14362.3
1115.63	17886.9
1118.52	21371.3
1121.41	24762.3
1124.3	27585.7
1127.2	29115
1130.09	29066.9
1132.98	28391.7
1135.88	27951.5
1138.77	28969.4
1141.66	32002.9
1144.55	35872.8
1147.45	38100.9
1150.34	36535.4
1153.23	30835.5
1156.12	24088.2
1159.02	18281.7
1161.91	13873.4
1164.8	10848.6
1167.69	9020.63
1170.59	7536.45
1173.48	5630.93
1176.37	3602.39
1179.27	2132.17
1182.16	1125.47
1185.05	712.053
1187.94	389.172
1190.84	171.473
1193.73	263.908
1196.62	30.0742
1199.51	207.947
1202.41	185.469
1205.3	234.986
1208.19	616.623
1211.09	1213.4
1213.98	1670.7
1216.87	1967.89
1219.76	2010.27
1222.66	1977.31
1225.55	1694.21
1228.44	1283.31
1231.33	553.234
