Measurement: Raman, 532 nm, unoriented, Raman Data Processed
Mineral: Fluor-uvite
Rruff sample: R050301
Ideal chemistry: CaMg_3_(Al_5_Mg)(Si_6_O_18_)(BO_3_)_3_(OH)_3_F
Locality: Brumado, Bahia, Brazil
Source: Eugene Schlepp
Description: Short prismatic green crystals
Measured chemistry: (Ca_0.68_Na_0.22_[box]_0.10_)(Mg_0.77_Al_0.16_Ti_0.03_[box]_0.04_)_3_(Mg_1.00_Al_5.00_)(BO_3_)_3_Si_6.00_O_18_((OH)_3_F)
Raman shift (cm-1)	intensity
111.638	0
115.013	0.110563
118.388	3.2784
121.763	5.9869
125.138	8.57581
128.512	11.6705
131.887	18.0197
135.262	20.8612
138.637	24.6975
142.012	26.954
145.386	27.299
148.761	27.7123
152.136	24.5833
155.511	16.5401
158.886	8.92155
162.26	2.63877
165.635	1.03527
169.01	0.761894
172.385	0.272213
175.76	1.05708
179.135	0.123493
182.509	3.95282
185.884	10.0826
189.259	19.0982
192.634	36.3664
196.009	58.0893
199.383	75.137
202.758	86.6457
206.133	99.2423
209.508	128.781
212.883	160.768
216.257	110.108
219.632	58.1969
223.007	41.6976
226.382	42.0898
229.757	49.6568
233.132	67.6631
236.506	102.425
239.881	136.983
243.256	126.577
246.631	81.6548
250.006	43.6554
253.381	23.1881
256.755	13.5976
260.13	11.8595
263.505	12.3545
266.88	12.4058
270.255	13.692
273.629	12.2725
277.004	6.90519
280.379	1.81945
283.754	0.540733
287.129	1.9323
290.503	1.78077
293.878	2.52956
297.253	0.192169
300.628	2.1661
304.003	5.19042
307.378	10.5435
310.752	19.8479
314.127	30.6241
317.502	37.5343
320.877	34.2948
324.252	37.2228
327.627	39.7976
331.001	41.6321
334.376	42.9908
337.751	44.1338
341.126	51.8858
344.5	55.1658
347.875	64.9209
351.25	76.2826
354.625	99.8721
358	132.625
361.375	180.218
364.749	236.825
368.124	276.313
371.499	256.346
374.874	187.754
378.249	125.449
381.623	86.135
384.998	58.5604
388.373	42.5975
391.748	30.4137
395.123	22.5661
398.498	16.5176
401.872	15.4172
405.247	15.0567
408.622	15.0324
411.997	13.4739
415.372	11.1788
418.747	7.34577
422.121	4.61153
425.496	0.228065
428.871	1.17418
432.246	1.56745
435.621	1.97598
438.995	0.302151
442.37	0.358921
445.745	1.60783
449.12	2.38324
452.495	3.47627
455.87	4.3731
459.244	4.63872
462.619	8.24137
465.994	12.4844
469.369	19.0724
472.744	25.6233
476.118	30.7215
479.493	31.6478
482.868	28.774
486.243	25.2314
489.618	23.263
492.993	21.4898
496.367	19.4398
499.742	19.4177
503.117	17.7827
506.492	14.038
509.866	11.699
513.241	9.50727
516.616	8.70011
519.991	9.8039
523.366	9.44483
526.741	9.381
530.115	8.01343
533.49	8.24033
536.865	7.05165
540.24	6.43244
543.615	4.52057
546.99	3.64257
550.364	3.3416
553.739	2.56009
557.114	2.83173
560.489	2.38212
563.864	1.63984
567.239	0.632656
570.613	0.009609
573.988	0.559715
577.363	0.220966
580.738	0.829548
584.112	1.28038
587.487	1.15139
590.862	0.445374
594.237	0.303364
597.612	0.102436
600.987	1.32486
604.361	1.12166
607.736	1.43878
611.111	2.76365
614.486	4.41262
617.861	8.65744
621.236	14.5801
624.61	22.8681
627.985	30.5241
631.36	28.7948
634.735	23.7335
638.11	26.3221
641.484	35.6147
644.859	46.2142
648.234	51.1386
651.609	50.9358
654.984	54.2033
658.359	61.5338
661.733	68.5564
665.108	67.5031
668.483	58.76
671.858	45.9594
675.232	35.2304
678.607	27.2517
681.982	23.5462
685.357	22.6461
688.732	26.7873
692.107	35.5669
695.481	49.1522
698.856	69.4584
702.231	86.9359
705.606	82.0247
708.981	54.501
712.356	27.1096
715.73	11.5312
719.105	3.52145
722.48	0.888611
725.855	0.99081
729.23	0.757626
732.604	1.31821
735.979	1.78709
739.354	0.14687
742.729	4.55152
746.104	11.2869
749.479	21.7873
752.853	30.9477
756.228	39.3863
759.603	42.4763
762.978	35.8597
766.353	25.5503
769.727	19.7961
773.102	14.8944
776.477	13.9795
779.852	12.232
783.227	11.2281
786.601	11.5748
789.976	12.637
793.351	13.9528
796.726	14.6611
800.101	16.2632
803.476	16.3454
806.85	16.3294
810.225	14.6021
813.6	13.897
816.975	12.0667
820.35	11.3798
823.725	10.9182
827.099	7.20277
830.474	5.42576
833.849	2.85643
837.224	1.09238
840.599	0.45282
843.973	0.121975
847.348	0.443037
850.723	0.030308
854.098	0.291096
857.473	0.341051
860.847	1.28089
864.222	1.52275
867.597	1.39918
870.972	2.14681
874.347	2.82955
877.722	3.11605
881.096	3.86802
884.471	3.78532
887.846	3.68562
891.221	3.42122
894.596	2.7184
897.971	2.31436
901.345	1.64669
904.72	1.33961
908.095	0.540876
911.47	0.324516
914.845	0.346794
918.219	0.114872
921.594	0.712029
924.969	0.511425
928.344	0.578938
931.719	1.13158
935.093	1.80063
938.468	3.0526
941.843	3.57374
945.218	4.94899
948.593	5.57551
951.967	8.8639
955.342	9.76667
958.717	10.4833
962.092	11.9224
965.467	13.0471
968.842	13.575
972.216	11.7358
975.591	10.8144
978.966	7.06397
982.341	5.19761
985.716	3.96416
989.091	1.84604
992.465	0.622131
995.84	0.233177
999.215	0.828331
1002.59	0.330585
1005.97	0.487644
1009.34	2.65025
1012.71	6.80872
1016.09	11.4803
1019.46	16.9359
1022.84	24.9403
1026.21	32.5234
1029.59	40.0192
1032.96	48.8698
1036.34	56.7289
1039.71	61.1213
1043.09	61.4642
1046.46	59.1275
1049.84	54.009
1053.21	49.542
1056.59	44.1983
1059.96	40.7943
1063.34	38.6531
1066.71	38.768
1070.09	37.8242
1073.46	37.4443
1076.84	34.0801
1080.21	29.6931
1083.59	23.5726
1086.96	18.7622
1090.34	14.9377
1093.71	11.6905
1097.09	9.91268
1100.46	7.32078
1103.83	6.62854
1107.21	5.08758
1110.58	4.23281
1113.96	4.01643
1117.33	3.18536
1120.71	3.1774
1124.08	3.00049
1127.46	2.49807
1130.83	1.91174
1134.21	1.52563
1137.58	0.206259
1140.96	0.362276
1144.33	0.018848
1147.71	0.93895
1151.08	0.956003
1154.46	0.18708
1157.83	0.037426
1161.21	0.092287
1164.58	0.521898
1167.96	0.487495
1171.33	0.866894
1174.7	1.46977
1178.08	0.847185
1181.45	1.827
1184.83	1.48004
1188.2	2.16154
1191.58	2.40792
1194.95	2.10893
1198.33	2.01342
1201.7	2.30451
1205.08	2.50004
1208.45	2.07857
1211.83	2.47967
1215.2	1.96954
1218.58	2.48543
1221.95	2.13624
1225.33	3.16141
1228.7	3.10906
1232.08	2.39132
1235.45	2.82755
1238.83	2.59176
1242.2	2.86443
1245.58	2.5463
1248.95	1.8832
1252.33	2.43106
1255.7	2.15854
1259.08	2.28201
1262.45	2.16295
1265.83	1.52051
1269.2	1.46518
1272.58	1.59831
1275.95	1.12099
1279.33	1.38375
1282.7	1.5103
1286.07	1.22227
1289.45	0.225399
1292.82	0.005718
1296.2	0.556896
1299.57	0.273029
1302.95	0.282188
