Measurement: Raman, 780 nm, unoriented, Raman Data Processed
Mineral: Fluorcalciomicrolite
Rruff sample: R080146
Ideal chemistry: (Ca,Na)_2_Ta_2_(O,OH)_6_F
Locality: Ip√© mine, Governador, Valadares, Minas Gerias, Brazil
Source: Luiz Menezes
Description: Small transparent orange octahedrons on muscovite and albite matrix.
Measured chemistry: (Ca_1.32_Na_0.37_Mn_0.02_Fe_0.01_)(Ta_1.51_Nb_0.33_Ti_0.15_Sn_0.01_)_2_O_6_[F_0.50_(OH)_0.41_]
Raman shift (cm-1)	intensity
134.763	0
137.656	17.2808
140.549	18.8594
143.441	24.1577
146.334	50.7837
149.227	108.978
152.119	179.413
155.012	228.733
157.905	302.003
160.798	324.467
163.69	299.32
166.583	283.738
169.476	218.502
172.368	224.838
175.261	259.484
178.154	307.931
181.046	331.433
183.939	353.775
186.832	394.712
189.725	466.005
192.617	504.619
195.51	514.148
198.403	412.275
201.295	232.314
204.188	100.361
207.081	14.3623
209.973	6.22412
212.866	48.0356
215.759	34.314
218.651	32.1274
221.544	43.8154
224.437	33.7383
227.33	21.7217
230.222	23.6548
233.115	95.9722
236.008	145.166
238.9	225.233
241.793	320.74
244.686	427.772
247.578	538.719
250.471	703.23
253.364	911.326
256.257	1206.07
259.149	1607.75
262.042	1893.97
264.935	1869.16
267.827	1527.34
270.72	1211.72
273.613	1044.74
276.505	951.309
279.398	950.575
282.291	966.891
285.184	1006.21
288.076	1061.64
290.969	1124.7
293.862	1165.22
296.755	1221.56
299.647	1257.72
302.54	1304.49
305.433	1318.97
308.325	1337.06
311.218	1348.09
314.111	1373.43
317.003	1401.71
319.896	1447.51
322.789	1472.46
325.682	1540.71
328.574	1575.73
331.467	1612.74
334.36	1595.67
337.252	1551.98
340.145	1472.75
343.038	1344.66
345.93	1177.72
348.823	1003.03
351.716	855.076
354.608	681.524
357.501	547.064
360.394	420.798
363.287	321.696
366.179	216.351
369.072	163.125
371.965	94.4873
374.857	45.5745
377.75	28.5471
380.643	12.2402
383.536	12.1113
386.428	12.8164
389.321	39.6982
392.214	30.292
395.106	23.7866
397.999	15.282
400.892	0.985596
403.784	8.32764
406.677	39.7258
409.57	45.0715
412.462	50.2058
415.355	49.7251
418.248	57.6643
421.141	30.7146
424.033	35.5022
426.926	15.478
429.819	10.1472
432.711	13.4407
435.604	11.5666
438.497	1.58032
441.389	5.8689
444.282	0.745605
447.175	0.053223
450.068	6.51709
452.96	2.92676
455.853	13.5269
458.746	10.8369
461.639	11.0825
464.531	27.5308
467.424	32.1143
470.317	33.144
473.209	41.6936
476.102	58.7087
478.995	100.166
481.887	125.491
484.78	168.862
487.673	230.493
490.565	340.8
493.458	450.96
496.351	609.883
499.244	793.612
502.136	982.937
505.029	1160.09
507.922	1317.94
510.814	1385.45
513.707	1368.25
516.6	1340.16
519.492	1244.62
522.385	1166.1
525.278	1118.05
528.171	1055.44
531.063	1032.72
533.956	982.404
536.849	961.647
539.741	915.771
542.634	898.593
545.527	839.496
548.419	782.114
551.312	704.565
554.205	628.891
557.098	544.03
559.99	457.292
562.883	374.369
565.776	268.572
568.668	203.382
571.561	132.716
574.454	70.7959
577.346	14.2913
580.239	11.0974
583.132	27.5855
586.025	34.0859
588.917	15.4976
591.81	19.906
594.703	34.1914
597.596	78.7151
600.488	147.812
603.381	239.955
606.274	333.266
609.166	408.831
612.059	487.681
614.952	587.295
617.844	678.445
620.737	750.675
623.63	835.486
626.523	883.513
629.415	946.441
632.308	972.531
635.201	1012.32
638.093	1033.46
640.986	1034.04
643.879	1031.37
646.771	1006.12
649.664	990.602
652.557	961.41
655.449	934.982
658.342	902.276
661.235	855.222
664.128	830.282
667.02	803.561
669.913	787.871
672.806	734.396
675.698	699.782
678.591	661.814
681.484	594.322
684.376	558.695
687.269	526.993
690.162	498.745
693.055	488.025
695.947	493.366
698.84	516.13
701.733	519.395
704.625	450.66
707.518	344.254
710.411	210.747
713.303	124.718
716.196	41.3206
719.089	1.49829
721.982	14.8691
724.874	35.9382
727.767	43.1621
730.66	37.9429
733.552	12.4482
736.445	3.68701
739.338	29.3127
742.231	67.3743
745.123	128.134
748.016	177.219
750.909	238.53
753.801	285.07
756.694	347.623
759.587	420.933
762.479	473.597
765.372	558.725
768.265	653.01
771.158	761.798
774.05	875.452
776.943	993.548
779.836	1104.57
782.728	1205.16
785.621	1307.78
788.514	1382.85
791.406	1467.23
794.299	1523.41
797.192	1549.88
800.085	1532.52
802.977	1504.15
805.87	1435.87
808.763	1374.21
811.655	1290.24
814.548	1181.84
817.441	1102.49
820.333	1013.13
823.226	917.367
826.119	836.545
829.012	758.075
831.904	696.875
834.797	617.458
837.69	557.095
840.582	491.993
843.475	442.695
846.368	387.964
849.26	328.865
852.153	277.467
855.046	236.588
857.939	188.993
860.831	163.598
863.724	114.685
866.617	87.0339
869.509	63.056
872.402	46.7996
875.295	8.78699
878.188	4.36585
881.08	13.3639
883.973	10.3173
886.866	11.4071
889.758	7.90625
892.651	0.176758
895.544	7.31531
898.436	14.6113
901.329	2.15405
904.222	11.7859
907.115	4.61035
910.007	7.11731
912.9	7.43652
915.793	5.52234
918.685	3.14954
921.578	6.85474
924.471	1.29761
927.364	0.470825
930.256	16.2207
933.149	7.0343
936.042	6.34595
938.934	0.090698
941.827	2.68426
944.72	5.86865
947.612	0.525452
950.505	3.84399
953.398	9.47638
956.29	3.8905
959.183	13.8389
962.076	21.3184
964.969	27.8258
967.861	34.022
970.754	39.8198
973.647	39.0329
976.539	49.2345
979.432	53.6112
982.325	68.8434
985.217	73.3944
988.11	66.1076
991.003	78.8109
993.896	77.5369
996.788	83.7806
999.681	84.1056
1002.57	64.8854
1005.47	64.064
1008.36	73.041
1011.25	70.0634
1014.14	64.2426
1017.04	78.192
1019.93	70.7958
1022.82	66.3613
1025.71	64.29
1028.61	61.6401
1031.5	64.2429
1034.39	54.6708
1037.29	56.7947
1040.18	63.8473
1043.07	78.621
1045.96	91.6488
1048.86	101.757
1051.75	110.328
1054.64	122.203
1057.54	122.861
1060.43	124.287
1063.32	119.348
1066.21	117.68
1069.11	107.292
1072	107.852
1074.89	97.839
1077.78	89.9536
1080.68	87.225
1083.57	75.8961
1086.46	71.2123
1089.36	57.3162
1092.25	43.8009
1095.14	34.6251
1098.03	32.837
1100.93	15.5967
1103.82	14.749
1106.71	3.37573
1109.6	1.70874
1112.5	3.45764
1115.39	1.75623
1118.28	6.20117
1121.17	2.73364
1124.07	14.2996
1126.96	29.0483
1129.85	48.5562
1132.74	57.3975
1135.64	77.3333
1138.53	86.0897
1141.42	87.7607
1144.32	110.448
1147.21	129.653
1150.1	112.541
1152.99	113.172
1155.89	102.803
1158.78	82.2651
1161.67	72.6941
1164.57	59.7488
1167.46	40.147
1170.35	36.087
1173.24	9.70337
1176.14	0.584229
1179.03	0.147217
1181.92	3.83899
1184.81	9.67871
1187.71	1.95898
1190.6	5.86682
1193.49	4.53833
1196.38	19.2307
1199.28	38.8154
1202.17	66.6362
1205.06	93.6548
1207.96	129.477
1210.85	154.133
1213.74	197.412
1216.63	226.863
1219.53	270.029
1222.42	304.171
1225.31	344.115
1228.2	388.414
1231.1	401.06
1233.99	416.478
1236.88	428.715
1239.78	430.582
1242.67	431.062
1245.56	414.724
1248.45	412.758
1251.35	380.276
1254.24	358.931
1257.13	330.229
1260.02	288.222
1262.92	241.703
1265.81	213.904
1268.7	166.796
1271.6	118.482
1274.49	81.3623
1277.38	52.4324
1280.27	16.3562
1283.17	1.91675
1286.06	0.462646
