Measurement: Raman, 532 nm, unoriented, Raman Data Processed
Mineral: Fluoro-magnesio-arfvedsonite
Rruff sample: R050515
Ideal chemistry: NaNa_2_(Mg_4_Fe^3+^)Si_8_O_22_F_2_
Locality: unknown
Source: Frank Hawthorne
Description: Numerous small dark green fragments
Measured chemistry: (Na_0.48_K_0.20_[box]_0.32_)(Na_1.50_Ca_0.50_)_Σ=2_(Mg_2.05_Fe^2+^_1.45_Mn_0.50_)_Σ=4_(Fe^3+^_0.80_Mn_0.05_Al_0.10_Ti_0.05_)(Si_0.97_Al_0.03_)_8_O_22_(F_0.65_(OH)_0.35_)_2_
Raman shift (cm-1)	intensity
143.959	0
147.334	25.0483
150.708	33.7034
154.083	13.8114
157.458	0.866364
160.833	5.26526
164.208	19.9865
167.583	31.4197
170.957	34.1832
174.332	23.0739
177.707	13.3127
181.082	6.97403
184.457	8.32773
187.832	10.5052
191.206	18.1825
194.581	28.2073
197.956	38.7435
201.331	45.2708
204.706	51.3493
208.08	52.1587
211.455	57.1272
214.83	55.5526
218.205	53.9926
221.58	48.6762
224.954	44.6145
228.329	38.038
231.704	32.9128
235.079	28.4833
238.454	22.8736
241.829	16.4202
245.203	12.7078
248.578	9.07574
251.953	5.41483
255.328	5.24002
258.703	2.5072
262.077	2.70248
265.452	3.2453
268.827	4.64774
272.202	0.67746
275.577	5.60294
278.952	12.5723
282.326	16.0323
285.701	18.292
289.076	26.2552
292.451	31.3676
295.826	33.6046
299.2	35.8724
302.575	37.5609
305.95	39.2908
309.325	40.4637
312.7	40.7499
316.075	43.0535
319.449	34.0993
322.824	25.0445
326.199	19.0701
329.574	12.3823
332.949	9.49646
336.323	5.65988
339.698	10.618
343.073	14.1595
346.448	16.2616
349.823	21.3819
353.197	26.4973
356.572	26.3285
359.947	30.2172
363.322	27.1711
366.697	23.1204
370.072	20.5518
373.446	16.5069
376.821	13.9049
380.196	12.579
383.571	7.46884
386.946	4.74863
390.32	2.5358
393.695	3.62711
397.07	5.08975
400.445	6.45215
403.82	6.92099
407.195	8.50357
410.569	11.7731
413.944	14.1296
417.319	18.9955
420.694	16.5164
424.069	20.7533
427.443	16.4746
430.818	13.799
434.193	6.23679
437.568	4.68295
440.943	2.73624
444.317	0.173096
447.692	0.106812
451.067	2.15848
454.442	0.657745
457.817	0.172699
461.192	0.483337
464.566	0.392029
467.941	0.103424
471.316	0.740112
474.691	0.492706
478.066	5.599
481.44	5.20053
484.815	6.58185
488.19	8.09427
491.565	13.618
494.94	19.4772
498.315	22.9413
501.689	26.5242
505.064	30.5683
508.439	36.6747
511.814	41.7474
515.189	46.1826
518.563	49.0207
521.938	53.0027
525.313	63.0144
528.688	72.0661
532.063	80.5063
535.438	88.193
538.812	92.6736
542.187	93.8717
545.562	88.1919
548.937	81.8418
552.312	76.4386
555.687	68.5398
559.061	59.8459
562.436	55.0074
565.811	53.8399
569.186	52.0084
572.561	49.2201
575.935	48.1944
579.31	42.5223
582.685	34.5254
586.06	23.5877
589.435	14.2219
592.809	7.19003
596.184	4.57977
599.559	0.501587
602.934	2.24057
606.309	3.00085
609.683	1.34662
613.058	0.400482
616.433	0.191406
619.808	0.896484
623.183	0.315125
626.558	1.52283
629.932	3.33142
633.307	4.32144
636.682	7.96802
640.057	12.8534
643.432	15.5899
646.807	21.5678
650.181	28.3031
653.556	40.2791
656.931	55.0267
660.306	77.1285
663.681	102.679
667.055	137.768
670.43	168.858
673.805	192.377
677.18	193.823
680.555	162.076
683.929	116.344
687.304	73.896
690.679	48.1887
694.054	28.5732
697.429	19.0109
700.803	14.5427
704.178	10.0049
707.553	6.98712
710.928	6.30124
714.303	7.45258
717.678	9.44604
721.052	8.91852
724.427	10.9393
727.802	8.18634
731.177	6.26999
734.552	6.98901
737.927	4.23224
741.301	3.98672
744.676	2.79691
748.051	2.20017
751.426	2.16373
754.801	1.55106
758.175	3.46649
761.55	0.765442
764.925	0.780701
768.3	1.04288
771.675	2.33017
775.049	1.37647
778.424	1.04437
781.799	1.32095
785.174	0.012604
788.549	0.288544
791.923	1.04208
795.298	1.81549
798.673	1.94614
802.048	4.23816
805.423	0.18811
808.798	2.97079
812.172	1.32571
815.547	0.690796
818.922	0.339264
822.297	1.51022
825.672	1.14911
829.047	1.96942
832.421	0.706726
835.796	0.121155
839.171	0.488495
842.546	1.14938
845.921	0.00766
849.295	0.758118
852.67	0.367096
856.045	1.70285
859.42	1.55649
862.795	3.29538
866.169	5.84033
869.544	5.9791
872.919	8.12354
876.294	11.0963
879.669	12.5543
883.044	13.0295
886.418	14.5908
889.793	16.5512
893.168	17.7918
896.543	16.6934
899.918	16.6388
903.293	16.2842
906.667	13.2195
910.042	10.6823
913.417	8.91657
916.792	8.60248
920.167	5.28232
923.541	4.08392
926.916	0.254913
930.291	1.09561
933.666	0.186554
937.041	3.3302
940.415	5.34326
943.79	11.0039
947.165	20.5638
950.54	26.0971
953.915	32.4356
957.29	42.3032
960.664	56.8643
964.039	60.5604
967.414	64.3853
970.789	64.6001
974.164	64.4574
977.538	58.5589
980.913	49.1616
984.288	38.3297
987.663	27.2
991.038	21.0404
994.413	17.3545
997.787	16.0328
1001.16	14.4709
1004.54	11.4676
1007.91	4.36624
1011.29	2.78674
1014.66	3.61533
1018.04	0.043488
1021.41	2.60474
1024.79	1.22083
1028.16	0.480286
1031.54	0.553833
1034.91	1.50497
1038.29	2.29837
1041.66	3.88174
1045.04	3.70776
1048.41	3.05371
1051.78	5.73645
1055.16	7.06912
1058.53	8.58514
1061.91	9.62711
1065.28	11.9147
1068.66	11.3268
1072.03	14.3381
1075.41	15.7873
1078.78	12.4398
1082.16	10.388
1085.53	8.26367
1088.91	5.82834
1092.28	3.23593
1095.66	3.27426
1099.03	2.46292
1102.41	1.90167
1105.78	5.72278
1109.16	4.27319
1112.53	5.5332
1115.91	4.6348
1119.28	5.71796
1122.66	5.961
1126.03	7.53598
1129.4	5.96933
1132.78	4.17795
1136.15	4.87024
1139.53	4.22562
1142.9	3.33047
1146.28	2.55234
1149.65	0.142385
1153.03	1.80911
1156.4	0.228577
1159.78	0.654144
1163.15	0.176086
1166.53	1.00034
1169.9	1.25415
1173.28	1.02557
1176.65	0.694702
1180.03	0.943512
1183.4	1.89914
1186.78	3.17612
1190.15	2.30029
1193.53	4.84918
1196.9	5.31137
1200.28	5.4928
1203.65	3.89172
1207.03	4.66357
1210.4	5.48468
1213.78	6.35031
1217.15	5.67731
1220.53	4.44672
1223.9	6.40726
1227.28	2.75229
1230.65	3.54892
1234.02	4.06723
1237.4	2.77508
1240.77	5.05969
1244.15	2.1803
1247.52	4.44739
1250.9	2.61731
1254.27	1.39334
1257.65	1.04721
1261.02	1.53153
1264.4	2.59317
1267.77	2.59119
1271.15	1.82648
1274.52	0.964813
1277.9	1.43469
1281.27	1.77588
1284.65	2.14716
1288.02	2.07037
1291.4	1.47073
1294.77	0.719025
1298.15	2.39008
1301.52	0.965454
