Measurement: Raman, 532 nm, unoriented, Raman Data Processed
Mineral: Fluorapatite
Rruff sample: R050192
Ideal chemistry: Ca_5_(PO_4_)_3_F
Locality: Fulford, Eagle County, Colorado, USA
Source: Dave Bunk Minerals
Description: Pale green hexagonal prism
Measured chemistry: Ca_5.00_(P_1.00_O_4_)_3_(F_0.86_Cl_0.13_)
Raman shift (cm-1)	intensity
143.916	0
146.808	46.5264
149.701	112.15
152.594	187.023
155.486	296.058
158.379	180.133
161.272	115.602
164.164	33.5781
167.057	50.7764
169.95	122.208
172.843	106.086
175.735	154.057
178.628	152.467
181.521	159.435
184.413	202.774
187.306	88.6699
190.199	57.7617
193.091	45.7549
195.984	25.1641
198.877	80.1152
201.769	46.5645
204.662	175.239
207.555	44.3438
210.448	107.862
213.34	71.3106
216.233	9.17969
219.126	14.4834
222.018	6.73633
224.911	0.996094
227.804	113.99
230.696	109.486
233.589	104.026
236.482	95.5635
239.375	138.978
242.267	122.56
245.16	88.1992
248.053	89.4346
250.945	159.443
253.838	9.34082
256.731	222.107
259.623	130.653
262.516	258.828
265.409	242.811
268.302	213.83
271.194	214.226
274.087	196.124
276.98	169.105
279.872	106.006
282.765	144.849
285.658	129.669
288.55	71.5801
291.443	186.732
294.336	214.674
297.229	167.254
300.121	147.248
303.014	76.8877
305.907	131.94
308.799	99.5186
311.692	113.837
314.585	78.5078
317.478	158.616
320.37	180.928
323.263	84.1709
326.156	83.6562
329.048	43.8389
331.941	10.6982
334.834	120.904
337.726	71.7627
340.619	86.9219
343.512	148.883
346.404	77.1143
349.297	129.144
352.19	6.25586
355.083	141.502
357.975	40.4629
360.868	69.9844
363.761	0.912109
366.653	39.2559
369.546	45.9492
372.439	16.4863
375.332	51.9668
378.224	141.164
381.117	200.281
384.01	45.4707
386.902	65.3398
389.795	24.4883
392.688	25.9082
395.58	69.9805
398.473	20.0273
401.366	72.4766
404.259	102.303
407.151	101.949
410.044	130.391
412.937	140.043
415.829	163.953
418.722	210.006
421.615	193.777
424.507	345.756
427.4	414.435
430.293	647.904
433.185	545.477
436.078	634.385
438.971	735.566
441.864	792.356
444.756	870.697
447.649	737.443
450.542	696.559
453.434	509.971
456.327	306.31
459.22	275.484
462.113	155.174
465.005	152.752
467.898	119.307
470.791	99.9141
473.683	156.746
476.576	130.559
479.469	115.693
482.361	74.7148
485.254	60.207
488.147	47.209
491.039	80.6836
493.932	72.9981
496.825	3.86719
499.718	22.8418
502.61	27.6035
505.503	33.0996
508.396	124.5
511.288	53.2773
514.181	104.059
517.074	190.838
519.966	91.7637
522.859	9.26562
525.752	151.486
528.644	163.475
531.537	141.402
534.43	64.8164
537.323	166.766
540.215	25.959
543.108	11.7422
546.001	49.6035
548.893	33.3652
551.786	108.203
554.679	19.9668
557.572	161.568
560.464	118.496
563.357	135.371
566.25	228.221
569.142	264.947
572.035	357.332
574.928	557.525
577.82	973.398
580.713	1265.63
583.606	775.186
586.499	318.549
589.391	491.719
592.284	363.41
595.177	255.147
598.069	226.34
600.962	354.185
603.855	366.057
606.747	521.875
609.64	421.065
612.533	411.772
615.426	358.709
618.318	270.682
621.211	170.1
624.104	206.289
626.996	95.7539
629.889	193.434
632.782	19.7129
635.674	47.459
638.567	86.8106
641.46	5.1582
644.352	85.1172
647.245	135.727
650.138	138.065
653.031	142.414
655.923	102.754
658.816	218.568
661.709	201.205
664.601	89.5918
667.494	137.539
670.387	207.779
673.279	183.32
676.172	264.818
679.065	215.231
681.958	160.42
684.85	202.131
687.743	119.236
690.636	42.0117
693.528	131.6
696.421	74.9844
699.314	102.199
702.207	214.682
705.099	70.0293
707.992	6.46094
710.885	114.397
713.777	53.709
716.67	24.6953
719.563	107.707
722.455	172.154
725.348	84.0547
728.241	99.0117
731.134	25.4609
734.026	167.879
736.919	197.676
739.812	145.465
742.704	157.215
745.597	13.8203
748.49	81.1133
751.382	130.582
754.275	59.5586
757.168	134.922
760.061	153.856
762.953	254.133
765.846	294.34
768.739	258.566
771.631	215.269
774.524	252.547
777.417	253.07
780.309	277.062
783.202	176.109
786.095	185.746
788.987	353.379
791.88	131.449
794.773	4.38281
797.666	227.469
800.558	205.16
803.451	276.18
806.344	100.207
809.236	77.3047
812.129	311.078
815.022	210.711
817.914	174.262
820.807	289.133
823.7	125.801
826.593	120.566
829.485	171.481
832.378	21.5977
835.271	60.0703
838.163	127.934
841.056	86.1289
843.949	43.9531
846.841	73.9258
849.734	132.164
852.627	197.438
855.52	77.0117
858.412	70.2422
861.305	53.4844
864.198	37.3398
867.09	156.625
869.983	278.676
872.876	165.215
875.769	158.898
878.661	39.7422
881.554	103.312
884.447	249.676
887.339	264.273
890.232	159.566
893.125	67.7812
896.017	131.027
898.91	82.5039
901.803	166.203
904.696	30.1445
907.588	101.07
910.481	38.0664
913.374	117.356
916.266	219.363
919.159	171.418
922.052	141.043
924.944	130.531
927.837	46.1406
930.73	120.769
933.622	139.512
936.515	151.238
939.408	178.309
942.301	293.199
945.193	193.91
948.086	365.527
950.979	786.691
953.871	1792.44
956.764	3203.38
959.657	6447.63
962.549	11556.1
965.442	10357.3
968.335	4532.38
971.227	2437.37
974.12	1112.24
977.013	584.836
979.906	287.316
982.798	78.4922
985.691	82.9336
988.584	108.246
991.476	8.11328
994.369	51.7227
997.262	169.984
1000.15	134.508
1003.05	226.836
1005.94	13.5938
1008.83	127.211
1011.73	75.7656
1014.62	155.906
1017.51	2.5625
1020.4	222.856
1023.3	223.199
1026.19	371.582
1029.08	497.906
1031.97	627.449
1034.87	625.856
1037.76	588.441
1040.65	408.426
1043.55	580.41
1046.44	589.582
1049.33	572.383
1052.22	707.941
1055.12	610.359
1058.01	598.211
1060.9	538.301
1063.79	442.242
1066.69	233.574
1069.58	12.9023
1072.47	168.883
1075.37	61.2539
1078.26	263.719
1081.15	136.363
1084.04	186.961
1086.94	298.641
1089.83	62.8047
1092.72	1.72266
1095.61	117.738
1098.51	185.738
1101.4	11.375
1104.29	318.144
1107.18	144.402
1110.08	137.316
1112.97	222.211
1115.86	63.6992
1118.76	50.8281
1121.65	275.457
1124.54	176.867
1127.43	166.672
1130.33	244.43
1133.22	111.453
1136.11	65.6484
1139	403.418
1141.9	254.172
1144.79	215.703
1147.68	58.4062
1150.58	79.5234
1153.47	83.9453
1156.36	179.59
1159.25	233.269
1162.15	427.707
1165.04	318.231
1167.93	145.168
1170.82	173.309
1173.72	187.027
1176.61	191.856
1179.5	119.144
1182.39	149.07
1185.29	49.8594
1188.18	386.184
1191.07	238.293
1193.96	215.137
1196.86	445.82
1199.75	41.6172
1202.64	120.016
1205.54	384.281
1208.43	122.078
1211.32	123.664
1214.21	99.832
1217.11	199.172
1220	176.992
1222.89	237.953
1225.79	274.668
1228.68	125.918
1231.57	212.371
1234.46	196.32
1237.36	31.8281
1240.25	171.695
1243.14	214.434
1246.03	222.082
1248.93	258.066
1251.82	30.6484
1254.71	10.3672
1257.61	152.195
1260.5	365.637
1263.39	319.922
1266.28	490.879
1269.18	264.109
1272.07	287.301
1274.96	7.39844
1277.85	328.918
1280.75	432.793
1283.64	95.6836
1286.53	11.4102
1289.42	187.481
1292.32	147.457
1295.21	323.859
1298.1	0
