Measurement: Raman, 780 nm, unoriented, Raman Data Processed
Mineral: Fluorapatite
Rruff sample: R050617
Ideal chemistry: Ca_5_(PO_4_)_3_F
Locality: Santa Cruz, Sonora, Mexico
Source: University of Arizona Mineral Museum
Description: Tan colored hexagonal prism
Measured chemistry: Ca_5.00_(P_1.00_O_4_)_3_(F_0.99_Cl_0.01_)
Raman shift (cm-1)	intensity
125.848	0
128.74	5.53377
131.633	5.01695
134.526	12.9175
137.418	20.8653
140.311	16.4091
143.204	3.59933
146.096	0.771347
148.989	0.16777
151.882	3.40478
154.775	10.4112
157.667	7.85744
160.56	12.5846
163.453	8.90884
166.345	6.70316
169.238	16.5694
172.131	10.9999
175.024	8.16704
177.916	10.7705
180.809	8.41882
183.702	14.3638
186.594	12.1127
189.487	13.0249
192.38	13.8581
195.272	15.6364
198.165	16.1058
201.058	14.9715
203.951	20.8113
206.843	20.0732
209.736	25.9937
212.629	31.5695
215.521	34.5952
218.414	38.4918
221.307	43.8939
224.199	43.7874
227.092	45.6925
229.985	54.0901
232.877	55.5883
235.77	52.782
238.663	58.6562
241.556	51.889
244.448	52.2869
247.341	45.2758
250.234	34.2201
253.126	29.2386
256.019	11.1529
258.912	5.41364
261.805	5.55545
264.697	6.18201
267.59	9.96185
270.483	15.7717
273.375	13.3971
276.268	5.01666
279.161	7.51502
282.053	16.6177
284.946	38.7575
287.839	70.4468
290.731	101.389
293.624	146.26
296.517	199.939
299.41	252.188
302.302	317.723
305.195	392.992
308.088	479.154
310.98	556.747
313.873	643.042
316.766	717.55
319.659	786.316
322.551	823.584
325.444	832.984
328.337	806.824
331.229	750.637
334.122	692.634
337.015	614.375
339.907	553.752
342.8	504.109
345.693	457.959
348.586	415.732
351.478	370.063
354.371	332.591
357.264	307.967
360.156	280.428
363.049	237.4
365.942	195.03
368.834	169.117
371.727	118.902
374.62	91.7621
377.512	55.8989
380.405	30.29
383.298	18.1016
386.191	9.47144
389.083	8.20044
391.976	22.9002
394.869	37.1162
397.761	68.6977
400.654	103.726
403.547	128.185
406.44	166.235
409.332	197.655
412.225	226.147
415.118	251.098
418.01	266.706
420.903	290.338
423.796	301.588
426.688	296.732
429.581	295.901
432.474	262.351
435.366	225.232
438.259	186.331
441.152	156.125
444.045	127.03
446.937	104.6
449.83	82.8834
452.723	64.8722
455.615	45.9219
458.508	36.6061
461.401	16.076
464.293	10.1586
467.186	8.64642
470.079	0.279053
472.972	5.74133
475.864	5.87293
478.757	2.32623
481.65	5.09515
484.542	3.71692
487.435	4.93195
490.328	2.35107
493.221	0.5354
496.113	3.17316
499.006	9.64111
501.899	5.4682
504.791	11.4644
507.684	11.0414
510.577	25.3053
513.469	17.7866
516.362	22.923
519.255	26.7352
522.148	26.3341
525.04	25.3729
527.933	24.8269
530.826	18.7449
533.718	16.4849
536.611	10.0203
539.504	14.7042
542.396	4.43158
545.289	5.78198
548.182	3.5199
551.074	9.31104
553.967	7.15338
556.86	14.6887
559.753	25.9203
562.645	34.8015
565.538	43.8436
568.431	47.5428
571.323	55.7856
574.216	61.3538
577.109	75.9117
580.001	76.2462
582.894	61.3419
585.787	47.0007
588.68	44.7333
591.572	45.2393
594.465	38.3818
597.358	41.0519
600.25	34.5868
603.143	32.5521
606.036	40.4144
608.928	27.8922
611.821	22.9788
614.714	20.383
617.607	17.8318
620.499	9.05093
623.392	10.5545
626.285	9.67392
629.177	5.99176
632.07	7.23923
634.963	9.31491
637.856	12.2803
640.748	5.75882
643.641	9.67053
646.534	7.3262
649.426	6.23804
652.319	3.95032
655.212	5.04697
658.104	7.45364
660.997	3.99292
663.89	7.49731
666.783	6.65768
669.675	12.3888
672.568	9.38876
675.461	8.22693
678.353	15.2009
681.246	12.6457
684.139	13.0828
687.031	10.686
689.924	5.6561
692.817	11.833
695.71	10.7421
698.602	5.66525
701.495	8.30405
704.388	0.392609
707.28	0.063599
710.173	2.64462
713.066	0.538177
715.958	3.40787
718.851	0.542145
721.744	1.98212
724.636	2.68964
727.529	0.769226
730.422	0.738831
733.315	0.907104
736.207	4.5513
739.1	9.23383
741.993	8.90826
744.885	13.9233
747.778	15.8496
750.671	16.3972
753.563	19.9407
756.456	27.1741
759.349	25.0352
762.242	34.2034
765.134	40.4952
768.027	45.1328
770.92	50.0177
773.812	53.3792
776.705	56.1328
779.598	59.5842
782.49	59.4271
785.383	57.5595
788.276	60.3019
791.169	57.4172
794.061	59.0478
796.954	56.8642
799.847	55.2949
802.739	53.8126
805.632	45.9282
808.525	44.8587
811.418	40.2849
814.31	45.7783
817.203	49.0107
820.096	52.4762
822.988	58.4804
825.881	63.2742
828.774	62.8283
831.666	71.2495
834.559	71.844
837.452	80.2812
840.345	73.7786
843.237	72.4868
846.13	66.1456
849.023	63.9034
851.915	53.2656
854.808	49.6305
857.701	38.0397
860.593	31.7283
863.486	25.3624
866.379	19.5073
869.271	17.3028
872.164	12.7664
875.057	10.7913
877.95	5.97725
880.842	8.83232
883.735	4.64957
886.628	4.50383
889.52	0.79068
892.413	2.48251
895.306	0.031876
898.198	0.67308
901.091	2.26445
903.984	0.312653
906.877	1.31906
909.769	1.37215
912.662	0.451218
915.555	0.359634
918.447	3.39946
921.34	3.59657
924.233	5.7776
927.125	8.29326
930.018	11.4555
932.911	14.0942
935.803	15.403
938.696	18.4716
941.589	20.4135
944.482	24.0994
947.374	36.4335
950.267	72.7294
953.16	119.504
956.052	158.168
958.945	232.338
961.838	310.28
964.731	346.474
967.623	127.394
970.516	30.335
973.409	10.2432
976.301	1.00366
979.194	3.33025
982.087	3.07015
984.979	2.02281
987.872	3.73923
990.765	0.29248
993.658	1.84106
996.55	1.29712
999.443	0.212631
1002.34	1.76306
1005.23	3.62331
1008.12	2.58272
1011.01	1.4281
1013.91	1.76448
1016.8	1.8921
1019.69	9.07649
1022.59	11.1808
1025.48	16.5917
1028.37	19.6029
1031.26	25.2983
1034.15	29.6595
1037.05	24.049
1039.94	24.0527
1042.83	23.8611
1045.73	28.1725
1048.62	32.992
1051.51	38.3215
1054.4	45.5446
1057.3	48.6458
1060.19	49.8753
1063.08	46.6981
1065.97	45.3265
1068.87	48.2129
1071.76	48.6915
1074.65	52.6859
1077.55	55.6156
1080.44	48.8186
1083.33	41.1434
1086.22	34.2437
1089.12	29.5791
1092.01	28.6321
1094.9	42.2787
1097.8	51.2751
1100.69	60.8111
1103.58	66.2669
1106.47	62.8198
1109.37	59.7455
1112.26	56.4865
1115.15	58.2687
1118.04	52.9644
1120.94	53.6249
1123.83	69.1593
1126.72	97.1171
1129.61	135.576
1132.51	190.509
1135.4	242.708
1138.29	305.07
1141.18	323.262
1144.08	222.081
1146.97	79.5053
1149.86	8.35998
1152.76	25.8639
1155.65	30.0881
1158.54	6.99841
1161.43	28.4126
1164.33	56.7589
1167.22	85.6965
1170.11	139.48
1173.01	199.202
1175.9	263.383
1178.79	326.131
1181.68	370.003
1184.58	344.361
1187.47	341.034
1190.36	339.334
1193.25	310.256
1196.15	274.372
1199.04	216.004
1201.93	165.59
1204.83	95.447
1207.72	37.7668
1210.61	2.04517
