Measurement: Raman, 514 nm, unoriented, Raman Data Processed
Mineral: Fluorapophyllite-(K)
Rruff sample: R040095
Ideal chemistry: KCa_4_Si_8_O_20_F8H_2_O
Locality: unknown
Source: University of Arizona Mineral Museum
Description: Colorless crystals
Measured chemistry: (K_0.90_Na_0.04_)Ca_3.96_Si_8.00_O_20_(F_0.82_(OH)_0.18_)Â·8H_2_O
Raman shift (cm-1)	intensity
97.554	0
101.732	3379.64
105.908	11067
110.082	8091.91
114.254	1434.72
118.424	1619.56
122.592	3815.95
126.758	5246.66
130.922	5741.95
135.083	5044.89
139.243	1778.92
143.401	157.469
147.557	356.503
151.711	304.809
155.863	598.069
160.013	2449.9
164.161	2748.98
168.308	1632.69
172.452	100.434
176.594	10.48
180.734	1189.2
184.872	2597.11
189.008	2671.67
193.143	3492.49
197.275	5686.36
201.405	10337.4
205.534	19371.4
209.66	26629
213.784	20584.8
217.907	11586.8
222.027	7657.56
226.146	7995.71
230.263	8299.76
234.377	6056.9
238.49	3016.18
242.601	1293.19
246.709	520.573
250.816	73.284
254.921	115.248
259.024	85.302
263.125	46.696
267.224	298.687
271.321	124.667
275.416	194.049
279.51	636.759
283.601	1398.29
287.69	2882.32
291.778	6216.35
295.863	10061.6
299.947	10202.6
304.029	6702.45
308.108	3921.28
312.186	2277.87
316.262	1636.41
320.336	1535.13
324.408	1945.33
328.478	2837.38
332.546	3976.28
336.612	4836.34
340.677	4201.17
344.739	2491.46
348.799	1046.66
352.858	462.349
356.915	197.775
360.969	213.979
365.022	835.967
369.073	2133.78
373.122	3502.47
377.169	2495.07
381.215	744.583
385.258	28.003
389.299	249.279
393.339	161.45
397.376	80.425
401.412	248.171
405.446	689.844
409.478	919.979
413.508	1160.17
417.536	1608.48
421.562	2703.94
425.586	6916.29
429.609	16819.5
433.629	19264.2
437.648	9765.76
441.665	3833.1
445.68	1607.84
449.693	723.62
453.704	179.123
457.713	166.413
461.721	227.458
465.726	20.291
469.73	66.113
473.731	259.186
477.731	3.669
481.729	604.252
485.725	1052.06
489.72	779.702
493.712	457.181
497.703	367.547
501.691	708.153
505.678	979.879
509.663	1445.49
513.646	1861.51
517.627	1991.14
521.607	1757.68
525.584	1904.1
529.56	2105.11
533.534	2669.02
537.506	3286.8
541.476	3331.45
545.444	2745.93
549.41	2505.26
553.375	2318.09
557.337	2415.93
561.298	2642.36
565.257	3221.51
569.214	4504.75
573.17	6618.7
577.123	9935.96
581.075	14388
585.024	16484.3
588.972	13460.5
592.918	9018.48
596.863	5791.92
600.805	3775.22
604.746	2803.85
608.685	2294.82
612.621	1900.94
616.557	1824.96
620.49	1896.26
624.421	2108.26
628.351	2060.59
632.279	2404.95
636.205	2807.35
640.129	3149.37
644.051	3851.37
647.972	4857.2
651.89	6316.86
655.807	8182.04
659.722	9955.87
663.636	10943.9
667.547	9917.98
671.457	7892.73
675.365	5522.32
679.271	3776.78
683.175	2442.08
687.077	2011.19
690.978	1385.1
694.877	749.828
698.774	669.363
702.669	416.743
706.562	272.242
710.454	83.173
714.344	225.111
718.232	34.133
722.118	86.276
726.002	37.417
729.885	176.858
733.766	117.908
737.645	97.812
741.522	108.677
745.397	51.495
749.271	125.15
753.143	17.591
757.013	54.251
760.881	143.624
764.748	314.513
768.613	441.754
772.476	335.574
776.337	148.564
780.196	261
784.054	656.728
787.91	1597.35
791.764	2246.09
795.616	1669.36
799.467	908.786
803.316	488.715
807.163	181.411
811.008	263.908
814.851	97.204
818.693	337.291
822.533	307.191
826.371	496.912
830.208	591.456
834.042	760.823
837.875	911.026
841.706	1175.14
845.536	1354.17
849.363	1632.08
853.189	1814.88
857.013	1519.68
860.836	1272.13
864.656	1050.4
868.475	878.752
872.292	696.016
876.108	540.964
879.922	494.651
883.733	422.73
887.544	280.197
891.352	260.805
895.159	213.384
898.964	115.37
902.767	177.319
906.568	81.099
910.368	130.262
914.166	168.238
917.962	85.865
921.757	19.127
925.55	70.599
929.341	44.318
933.13	8.255
936.918	142.178
940.703	11.442
944.488	208.885
948.27	129.179
952.051	145.429
955.83	61.631
959.607	223.484
963.383	135.242
967.156	226.195
970.928	523.051
974.699	338.038
978.468	265.127
982.234	254.198
986	257.25
989.763	303.819
993.525	378.927
997.285	629.216
1001.04	785.406
1004.8	1229.9
1008.55	1510.09
1012.31	1190.24
1016.06	989.512
1019.81	824.728
1023.56	1056.42
1027.31	913.611
1031.05	1291.81
1034.79	1432.44
1038.53	2098.8
1042.27	2914.64
1046.01	4195.2
1049.75	6506.94
1053.48	11837.2
1057.22	22946.1
1060.95	33653.9
1064.68	23462.2
1068.4	11690.2
1072.13	5991.13
1075.86	3324.87
1079.58	2004.45
1083.3	1507.89
1087.02	1107.92
1090.74	700.356
1094.45	660.26
1098.17	426.145
1101.88	638.341
1105.59	746.355
1109.3	1346.55
1113.01	2652.53
1116.71	3058.22
1120.42	1605.67
1124.12	846.65
1127.82	285.423
1131.52	278.203
1135.22	25.929
1138.91	124.734
1142.61	70.531
1146.3	70.259
1149.99	161.039
1153.68	17.26
1157.37	77.42
1161.06	35.488
1164.74	2.396
1168.42	91.727
1172.1	26.592
1175.78	38.996
1179.46	99.65
1183.14	85.078
1186.81	39.891
1190.48	10.377
1194.15	37.598
1197.83	115.516
1201.49	200.256
1205.16	201.213
1208.82	160.021
1212.49	226.049
1216.15	196.092
1219.81	312.514
1223.46	175.812
1227.12	278.479
1230.78	193.861
1234.43	132.703
1238.08	204.574
1241.73	280.486
1245.38	281.158
1249.03	244.268
1252.67	164.582
1256.31	146.764
1259.95	39.404
1263.6	144.982
1267.23	124.947
1270.87	247.523
1274.51	85.176
1278.14	196.336
1281.77	130.582
1285.4	140.213
1289.03	42.105
1292.66	185.922
1296.28	114.064
1299.91	84.953
1303.53	111.252
1307.15	13.709
1310.77	115.422
1314.38	141.594
1318	2.752
1321.61	19.549
1325.23	215.902
1328.84	72.238
1332.45	28.41
1336.06	29.486
1339.66	42.08
1343.27	10.447
1346.87	106.1
1350.47	13.209
1354.07	56.777
1357.67	0.391
1361.26	238.787
1364.86	221.945
1368.45	203.424
1372.04	2.457
1375.63	230.094
1379.22	67.016
1382.81	146.848
1386.39	297.01
1389.98	216.426
1393.56	33.369
1397.14	205.662
1400.72	264.633
1404.3	269.262
1407.87	275.584
1411.45	182.135
1415.02	187.293
1418.59	388.926
1422.16	205.629
1425.73	257.818
1429.29	175.672
1432.86	156.707
1436.42	146.176
1439.98	335.875
1443.54	199.553
1447.1	140.336
1450.66	267.615
1454.21	375.904
1457.77	120.08
1461.32	256.646
1464.87	304.023
1468.42	452.609
1471.96	425.971
1475.51	374.338
1479.06	205.627
1482.6	300.592
1486.14	378.715
1489.68	206.129
1493.22	284.957
1496.75	204.322
1500.29	377.883
1503.82	28.682
1507.35	342.551
1510.88	299.029
1514.41	305.965
1517.94	0
