Measurement: Raman, 780 nm, unoriented, Raman Data Processed
Mineral: Fluorapophyllite-(K)
Rruff sample: R060554
Ideal chemistry: KCa_4_Si_8_O_20_F8H_2_O
Locality: unknown
Source: Gemological Institute of America
Description: Colorless polished fragment
Measured chemistry: (K_0.88_Na_0.12_)Ca_4.00_Si_8.00_O_20_F_1.00_Â·8H2O
Raman shift (cm-1)	intensity
107.47	0
110.845	37.7336
114.219	13.3446
117.594	2.52447
120.969	22.177
124.344	88.1721
127.719	110.132
131.094	163.214
134.468	132.495
137.843	41.0057
141.218	26.0495
144.593	3.20532
147.968	3.16083
151.342	3.29245
154.717	29.6463
158.092	84.7746
161.467	166.909
164.842	124.259
168.216	38.1439
171.591	10.6642
174.966	14.4341
178.341	47.5598
181.716	119.851
185.09	220.794
188.465	195.028
191.84	112.19
195.215	90.4879
198.59	102.179
201.965	135.514
205.339	192.628
208.714	281.719
212.089	308.625
215.464	233.066
218.839	181.869
222.214	156.06
225.588	152.616
228.963	145.551
232.338	104.641
235.713	57.8649
239.088	26.1935
242.462	8.20781
245.837	0.034424
249.212	2.89189
252.587	5.44417
255.962	0.694092
259.336	5.69009
262.711	16.0386
266.086	28.3139
269.461	33.134
272.836	15.3262
276.211	7.68858
279.585	7.78041
282.96	13.8235
286.335	22.5652
289.71	38.776
293.085	60.3164
296.459	84.9981
299.834	90.6982
303.209	65.8036
306.584	39.8595
309.959	21.9874
313.334	14.1028
316.708	13.2763
320.083	12.4485
323.458	19.5986
326.833	23.7881
330.207	30.4756
333.582	39.151
336.957	47.2863
340.332	42.8919
343.707	30.3721
347.082	15.7912
350.456	7.15433
353.831	2.50057
357.206	1.00025
360.581	1.24529
363.956	2.53127
367.33	6.05574
370.705	11.413
374.08	15.2275
377.455	9.343
380.83	2.49173
384.205	1.44987
387.579	3.5329
390.954	0.727325
394.329	0.26162
397.704	1.8518
401.079	4.23376
404.453	6.44164
407.828	8.2459
411.203	10.0474
414.578	15.418
417.953	25.5335
421.327	37.5609
424.702	61.6173
428.077	103.278
431.452	174.57
434.827	179.704
438.202	89.9927
441.576	42.4461
444.951	24.7138
448.326	15.7136
451.701	13.1365
455.076	15.0866
458.45	15.3676
461.825	20.8927
465.2	22.5093
468.575	15.2734
471.95	9.02696
475.325	4.97031
478.699	4.91936
482.074	8.18291
485.449	11.6115
488.824	8.65
492.199	3.45852
495.573	0.465691
498.948	0.918701
502.323	1.70574
505.698	1.15772
509.073	0.560638
512.447	0.365082
515.822	1.5656
519.197	1.2611
522.572	1.19841
525.947	3.00417
529.322	5.15125
532.696	9.00575
536.071	13.4825
539.446	14.9014
542.821	14.023
546.196	14.0224
549.57	13.2498
552.945	14.3576
556.32	15.6269
559.695	16.5922
563.07	17.5163
566.444	25.1497
569.819	36.4933
573.194	49.8417
576.569	71.3304
579.944	90.2589
583.319	107.188
586.693	100.245
590.068	78.7514
593.443	51.2344
596.818	33.0014
600.193	19.4505
603.567	8.82402
606.942	2.11817
610.317	0.92791
613.692	0.215965
617.067	0.030746
620.442	1.22922
623.816	1.75463
627.191	5.46318
630.566	5.03575
633.941	7.2256
637.316	11.5119
640.69	12.6615
644.065	20.3173
647.44	29.5241
650.815	39.1679
654.19	49.1085
657.564	62.3889
660.939	71.7639
664.314	74.1685
667.689	68.2035
671.064	54.564
674.439	39.2927
677.813	28.4876
681.188	19.4149
684.563	12.7019
687.938	9.29923
691.313	5.45685
694.688	3.44847
698.062	1.26731
701.437	0.719826
704.812	1.45903
708.187	0.485786
711.562	0.134918
714.936	0.597168
718.311	0.025337
721.686	0.76149
725.061	0.864891
728.436	1.22694
731.81	0.647255
735.185	0.203987
738.56	1.95927
741.935	2.24852
745.31	1.65044
748.684	3.92162
752.059	4.60528
755.434	5.99601
758.809	8.95879
762.184	11.9794
765.559	13.9529
768.933	13.6372
772.308	11.7535
775.683	8.52486
779.058	6.76325
782.433	6.93975
785.808	10.9168
789.182	14.1999
792.557	16.5638
795.932	13.4282
799.307	7.34971
802.682	5.16324
806.056	3.40467
809.431	4.56876
812.806	4.85141
816.181	4.11081
819.556	5.52492
822.93	6.64496
826.305	7.09384
829.68	8.74733
833.055	8.85304
836.43	9.4154
839.804	10.8761
843.179	11.5602
846.554	11.3705
849.929	11.3456
853.304	10.7157
856.679	10.3371
860.053	8.34859
863.428	8.64694
866.803	7.70817
870.178	6.73418
873.553	7.33038
876.927	5.86074
880.302	5.7804
883.677	3.7855
887.052	5.41352
890.427	4.05396
893.802	3.09642
897.176	2.84877
900.551	1.44292
903.926	1.31707
907.301	0.803162
910.676	0.718792
914.05	0.345795
917.425	0.084793
920.8	0.651955
924.175	1.76552
927.55	0.541599
930.924	0.201237
934.299	0.463978
937.674	0.991673
941.049	2.16246
944.424	0.269505
947.799	0.07972
951.173	0.67577
954.548	0.773655
957.923	1.3026
961.298	0.694157
964.673	0.77253
968.047	1.56139
971.422	4.00014
974.797	1.98331
978.172	0.307449
981.547	0.044838
984.922	0.531605
988.296	0.732716
991.671	0.953503
995.046	1.86818
998.421	4.10654
1001.8	5.88705
1005.17	10.0815
1008.54	12.2262
1011.92	8.15257
1015.29	4.32095
1018.67	2.40161
1022.04	2.08463
1025.42	1.79279
1028.79	3.35062
1032.17	5.63638
1035.54	7.96241
1038.92	12.7143
1042.29	17.8128
1045.67	27.1919
1049.04	41.5717
1052.42	67.6607
1055.79	105.779
1059.17	155.486
1062.54	154.361
1065.92	95.1069
1069.29	50.5231
1072.67	26.8505
1076.04	13.2417
1079.42	6.77196
1082.79	4.33125
1086.17	3.07276
1089.54	0.613838
1092.92	1.67623
1096.29	1.18177
1099.66	0.744728
1103.04	1.23292
1106.41	3.51795
1109.79	5.8245
1113.16	9.86582
1116.54	11.1823
1119.91	5.42
1123.29	3.14272
1126.66	1.29532
1130.04	0.839531
1133.41	1.10845
1136.79	0.084106
1140.16	0.462284
1143.54	0.250935
1146.91	0.8633
1150.29	0.456726
1153.66	1.16055
1157.04	1.16111
1160.41	1.58632
1163.79	1.24504
1167.16	1.29547
1170.54	1.58168
1173.91	1.75205
1177.29	2.509
1180.66	2.38011
1184.04	1.60003
1187.41	1.73354
1190.79	1.1145
1194.16	2.25818
1197.54	2.16018
1200.91	1.47683
1204.28	2.1478
1207.66	0.791069
1211.03	1.70304
1214.41	1.52195
1217.78	2.08984
1221.16	0.729649
1224.53	0.059311
1227.91	0.834461
1231.28	2.42806
1234.66	1.44844
1238.03	0.827026
1241.41	0.853558
1244.78	1.25983
1248.16	0.512707
1251.53	0.573215
1254.91	1.77434
1258.28	0.460663
1261.66	0.800205
1265.03	0.582016
1268.41	1.91952
1271.78	0.992378
1275.16	1.47549
1278.53	0.329826
1281.9	1.64459
