Measurement: Raman, 514 nm, unoriented, Raman Data Processed
Mineral: Fluorophlogopite
Rruff sample: R040042
Ideal chemistry: KMg_3_(Si_3_Al)O_10_F_2_
Locality: Franklin, Sussex County, New Jersey, USA
Source: University of Arizona Mineral Museum
Description: Brown flattened hexagonal prism, polytype 1M
Measured chemistry: (K_0.92_Na_0.08_)_Σ=1_(Mg_2.95_Fe_0.05_)_Σ=3_(Si_3.00_Al_1.00_)O_10_(F_1.40_(OH)_0.60_)_Σ=2_; trace amounts of Ti; OH estimated by charge balance
Raman shift (cm-1)	intensity
154.48	0
158.63	6.766
162.779	136.446
166.926	163.339
171.07	228.388
175.213	577.221
179.354	832.604
183.493	1772.32
187.63	4129.31
191.765	9042.21
195.898	11651
200.029	6429.86
204.158	2980.26
208.285	1805.4
212.41	895.788
216.533	508.648
220.654	239.826
224.773	161.227
228.891	132.799
233.006	11.502
237.119	7.234
241.231	7.271
245.34	26.99
249.448	95.411
253.553	77.854
257.657	86.82
261.758	208.493
265.858	577.052
269.956	1409.53
274.052	2988.97
278.146	3506.16
282.237	1974.82
286.327	964.227
290.416	822.626
294.502	754.497
298.586	1076.54
302.668	1590.71
306.749	2648.84
310.827	3821.9
314.903	3959.99
318.978	3956.87
323.051	3531.71
327.121	2528.47
331.19	1601.41
335.257	1090.01
339.322	723.554
343.385	580.853
347.446	569.897
351.505	478.446
355.563	532.561
359.618	544.077
363.672	767.67
367.723	1120.24
371.773	1054.19
375.821	712.163
379.866	524.81
383.91	436.294
387.952	345.161
391.992	289.855
396.031	328.555
400.067	255.953
404.101	207.885
408.134	183.856
412.165	149.647
416.193	106.347
420.22	99.992
424.245	77.327
428.268	85.545
432.289	151
436.309	150.612
440.326	271.894
444.342	282.092
448.355	479.688
452.367	520.808
456.377	397.577
460.385	386.28
464.391	263.771
468.395	109.034
472.398	94.983
476.398	82.651
480.397	46.248
484.394	79.83
488.389	161.25
492.382	275.522
496.373	453.651
500.362	538.642
504.349	533.497
508.335	608.226
512.319	562.833
516.3	352.324
520.28	149.704
524.259	152.983
528.235	132.384
532.209	61.305
536.182	85.378
540.152	38.41
544.121	14.347
548.088	3.994
552.053	87.18
556.017	127.25
559.978	109.041
563.938	58.061
567.895	91.804
571.851	53.917
575.805	126.942
579.758	11.555
583.708	91.578
587.657	34.406
591.603	28.797
595.548	53.089
599.491	14.833
603.432	65.051
607.372	57.834
611.309	168.681
615.245	328.142
619.179	509.953
623.111	702.136
627.041	1055.35
630.97	1442.73
634.896	1869.87
638.821	2006.93
642.744	2007.96
646.665	2099.63
650.584	2211.61
654.502	2591.53
658.418	2761.4
662.331	3337.21
666.244	4285.97
670.154	5714.67
674.062	8334.32
677.969	11833.9
681.874	13919.5
685.777	12633.9
689.678	9662.91
693.577	6696.6
697.475	4293.43
701.371	2852.61
705.265	1991.61
709.157	1506.51
713.047	1167.72
716.936	950.943
720.823	838.135
724.708	739.428
728.591	753.447
732.472	768.737
736.352	731.566
740.23	679.992
744.106	658.062
747.98	598.867
751.853	503.22
755.723	485.21
759.592	475.863
763.459	351.603
767.325	367.937
771.188	470.319
775.05	424.666
778.91	467.978
782.768	558.257
786.625	555.513
790.479	489.889
794.332	576.365
798.183	520.004
802.033	456.522
805.88	411.03
809.726	341.44
813.57	314.817
817.413	247.169
821.253	249.496
825.092	158.799
828.929	58.078
832.764	127.336
836.598	36.573
840.429	51.772
844.259	73.051
848.088	16.972
851.914	23.132
855.739	67.118
859.562	37.434
863.383	12.024
867.203	34.574
871.02	6.695
874.836	61.952
878.65	45.799
882.463	85.376
886.274	58.558
890.083	40.675
893.89	12.014
897.695	47.618
901.499	0.071
905.301	21.567
909.102	84.945
912.9	141.631
916.697	86.337
920.492	69.057
924.285	150.781
928.077	112.508
931.867	67.241
935.655	93.984
939.442	148.73
943.226	107.482
947.009	1.767
950.791	9.979
954.57	137.723
958.348	22.483
962.124	81.249
965.899	132.015
969.671	156.783
973.442	131.561
977.211	140.385
980.979	207.273
984.745	365.179
988.509	375.03
992.271	428.112
996.032	465.707
999.791	503.031
1003.55	504.023
1007.3	619.906
1011.06	677.845
1014.81	534.809
1018.56	454.111
1022.31	507.003
1026.06	662.59
1029.8	864.368
1033.55	1197.67
1037.29	1159.97
1041.03	898.97
1044.77	737.313
1048.5	625.562
1052.24	606.939
1055.97	740.481
1059.7	862.891
1063.43	1042.85
1067.16	941.288
1070.89	1028.57
1074.61	1119.51
1078.34	1183.06
1082.06	1454.89
1085.78	1676.6
1089.5	1816.17
1093.21	1886.52
1096.93	1889.48
1100.64	1818.09
1104.35	1690.74
1108.06	1363.2
1111.77	1227.79
1115.48	840.179
1119.18	580.898
1122.89	776.045
1126.59	505.523
1130.29	222.247
1133.99	142.195
1137.68	313.73
1141.38	7.146
1145.07	53.018
1148.76	42.354
1152.45	90.578
1156.14	70.307
1159.83	74.574
1163.51	31.943
1167.19	11.208
1170.88	18.349
1174.56	66.454
1178.23	153.106
1181.91	62.205
1185.59	93.353
1189.26	66.611
1192.93	63.287
1196.6	99.783
1200.27	16.076
1203.94	52.522
1207.6	179.673
1211.27	28.771
1214.93	210.579
1218.59	15.354
1222.25	153.194
1225.9	86.484
1229.56	41.565
1233.21	158.555
1236.86	56.97
1240.51	142.396
1244.16	33.401
1247.81	94.368
1251.45	116.009
1255.1	12.072
1258.74	142.438
1262.38	57.136
1266.02	64.914
1269.66	36.882
1273.29	20.135
1276.93	21.293
1280.56	67.37
1284.19	57.078
1287.82	76.123
1291.45	26.869
1295.07	64.671
1298.7	87.022
1302.32	108.933
1305.94	87.339
1309.56	67.53
1313.18	85.242
1316.8	10.254
1320.41	30.299
1324.02	49.586
1327.63	90.168
1331.24	24.01
1334.85	26.654
1338.46	16.698
1342.06	35.148
1345.67	46.256
1349.27	117.617
1352.87	141.065
1356.47	176.005
1360.07	174.233
1363.66	64.139
1367.25	196.659
1370.85	115.457
1374.44	134.684
1378.03	167.425
1381.61	162.486
1385.2	137.546
1388.78	129.379
1392.37	133.579
1395.95	123.128
1399.53	160.396
1403.1	164.179
1406.68	177.784
1410.26	279.195
1413.83	291.456
1417.4	301.945
1420.97	218.524
1424.54	147.492
1428.1	204.379
1431.67	240.195
1435.23	293.957
1438.8	409.275
1442.36	367.16
1445.91	429.67
1449.47	308.546
1453.03	432.201
1456.58	472.475
1460.13	310.196
1463.68	310.568
1467.23	245.891
1470.78	285.541
1474.33	334.693
1477.87	327.266
1481.42	188.443
1484.96	190.128
1488.5	96.998
1492.04	160.131
1495.57	255.784
1499.11	168.251
1502.64	157.68
1506.17	75.164
1509.71	132.05
1513.23	147.965
1516.76	1.397
1520.29	91.725
1523.81	79.587
