Measurement: Raman, 532 nm, unoriented, Raman Data Processed
Mineral: Fluorophlogopite
Rruff sample: R040042
Ideal chemistry: KMg_3_(Si_3_Al)O_10_F_2_
Locality: Franklin, Sussex County, New Jersey, USA
Source: University of Arizona Mineral Museum
Description: Brown flattened hexagonal prism, polytype 1M
Measured chemistry: (K_0.92_Na_0.08_)_Σ=1_(Mg_2.95_Fe_0.05_)_Σ=3_(Si_3.00_Al_1.00_)O_10_(F_1.40_(OH)_0.60_)_Σ=2_; trace amounts of Ti; OH estimated by charge balance
Raman shift (cm-1)	intensity
122.004	0
124.897	352.917
127.79	619.495
130.682	235.471
133.575	9.32227
136.468	8.82056
139.36	70.8496
142.253	105.213
145.146	144.165
148.038	122.127
150.931	125.337
153.824	158.158
156.717	172.348
159.609	277.572
162.502	465.753
165.395	691.346
168.287	837.74
171.18	1119.6
174.073	1533.69
176.965	2313.77
179.858	3598.28
182.751	5971.68
185.644	10028.4
188.536	15385.2
191.429	21213
194.322	25140.2
197.214	22537
200.107	14283.9
203	8014.73
205.893	4996.62
208.785	3495.53
211.678	2536.85
214.571	1831.37
217.463	1392.67
220.356	948.778
223.249	610.1
226.141	477.171
229.034	341.483
231.927	248.45
234.82	171.037
237.712	36.3203
240.605	27.6006
243.498	28.105
246.39	75.7541
249.283	31.5986
252.176	27.2737
255.068	23.6218
257.961	224.681
260.854	535.797
263.747	983.964
266.639	1538.08
269.532	2506
272.425	3618.76
275.317	4794.11
278.21	4909.1
281.103	3403.4
283.995	1862.2
286.888	1083.53
289.781	735.517
292.673	578.506
295.566	538.388
298.459	670.687
301.351	1047.83
304.244	1601.28
307.137	2230.39
310.03	2962.09
312.922	3369.92
315.815	3514.8
318.708	3477.83
321.6	3174.34
324.493	2648.9
327.386	1939.43
330.279	1296.92
333.171	786.951
336.064	442.876
338.957	179.951
341.849	135.519
344.742	22.9033
347.635	7.14575
350.527	135.726
353.42	305.875
356.313	317.239
359.205	435.212
362.098	571.066
364.991	746.923
367.884	862.336
370.776	872.713
373.669	655.175
376.562	314.076
379.454	119.79
382.347	87.6646
385.24	13.1658
388.132	71.7976
391.025	137.237
393.918	114.65
396.81	63.7356
399.703	40.0859
402.596	84.4661
405.489	12.5666
408.381	14.6047
411.274	8.04346
414.167	23.0767
417.059	1.25586
419.952	5.76367
422.845	4.54565
425.738	5.08398
428.63	52.3608
431.523	80.3674
434.416	96.98
437.308	206.367
440.201	333.817
443.094	428.717
445.986	619.037
448.879	970.482
451.772	1434.4
454.664	1927.28
457.557	2533.45
460.45	3397.65
463.343	4228.02
466.235	3488.71
469.128	1906.95
472.021	1042.53
474.913	612.688
477.806	382.956
480.699	325.984
483.591	296.075
486.484	247.508
489.377	252.694
492.27	204.291
495.162	252.091
498.055	245.684
500.948	231.656
503.84	266.76
506.733	243.269
509.626	250.425
512.519	215.277
515.411	144.572
518.304	162.339
521.197	159.59
524.089	116.174
526.982	124.44
529.875	63.5825
532.767	62.3411
535.66	55.8398
538.553	56.8098
541.445	66.3079
544.338	41.0156
547.231	44.9993
550.124	11.3198
553.016	9.50562
555.909	2.72852
558.802	9.68481
561.694	17.4065
564.587	21.5894
567.48	32.6157
570.372	4.31396
573.265	36.4324
576.158	7.99121
579.051	28.9233
581.943	23.6628
584.836	6.396
587.729	49.5693
590.621	18.4123
593.514	25.9702
596.407	88.9634
599.299	110.031
602.192	185.934
605.085	168.229
607.977	356.62
610.87	457.307
613.763	631.207
616.656	802.85
619.548	1062.04
622.441	1359.16
625.334	1755.43
628.226	2047.08
631.119	2426.2
634.012	2664.02
636.904	2669.84
639.797	2482.73
642.69	2269.5
645.583	2125.98
648.475	2104.62
651.368	2146.4
654.261	2248.91
657.153	2418.7
660.046	2796.66
662.939	3367.99
665.832	4116.73
668.724	5216.37
671.617	6679.47
674.51	8296.68
677.402	9976.79
680.295	10890
683.188	10646.7
686.08	9059.86
688.973	7108.16
691.866	5200.48
694.759	3582.69
697.651	2383.5
700.544	1446.39
703.437	921.387
706.329	584.115
709.222	354.776
712.115	229.638
715.007	155.045
717.9	83.0532
720.793	50.002
723.685	17.417
726.578	12.4768
729.471	16.3452
732.364	30.7314
735.256	9.09326
738.149	42.6116
741.042	11.7786
743.934	3.50537
746.827	9.78369
749.72	2.94922
752.612	52.1243
755.505	2.18091
758.398	29.0554
761.29	5.96924
764.183	6.18433
767.076	23.8123
769.969	59.6106
772.861	79.5239
775.754	95.9324
778.647	101.557
781.539	170.318
784.432	201.454
787.325	228.361
790.217	277.026
793.11	348.711
796.003	376.473
798.896	364.231
801.788	352.706
804.681	338.344
807.574	326.613
810.466	237.034
813.359	290.484
816.252	266.277
819.144	339.271
822.037	324.025
824.93	308.884
827.823	370.411
830.715	301.117
833.608	257.289
836.501	297.377
839.393	214.663
842.286	201.203
845.179	180.956
848.072	149.944
850.964	106.548
853.857	108.115
856.75	96.0781
859.642	73.3284
862.535	104.901
865.428	52.9053
868.32	17.522
871.213	77.2915
874.106	24.4504
876.998	88.2063
879.891	45.9165
882.784	63.5574
885.677	81.8245
888.569	95.7278
891.462	133.216
894.355	106.731
897.247	148.581
900.14	115.28
903.033	115.603
905.925	104.098
908.818	83.478
911.711	96.9062
914.604	44.8935
917.496	70.228
920.389	47.4385
923.282	36.105
926.174	85.1504
929.067	6.72852
931.96	7.87988
934.852	0.397949
937.745	28.3579
940.638	36.8442
943.53	21.939
946.423	8.3374
949.316	2.09912
952.209	1.99268
955.101	9.45752
957.994	15.3101
960.887	22.2529
963.779	1.38623
966.672	33.8247
969.565	103.365
972.457	129.506
975.35	174.768
978.243	230.283
981.136	304.273
984.028	301.834
986.921	359.596
989.814	323.549
992.706	374.019
995.599	490.455
998.492	558.971
1001.38	686.081
1004.28	810.395
1007.17	910.32
1010.06	948.115
1012.96	1032.04
1015.85	1000.2
1018.74	1153.83
1021.63	1535.89
1024.53	2198.33
1027.42	3278.31
1030.31	4509.4
1033.2	5279.9
1036.1	4869.18
1038.99	3513.97
1041.88	2381.85
1044.78	1581.59
1047.67	1136.18
1050.56	826.986
1053.45	658.365
1056.35	537.439
1059.24	456.609
1062.13	376.004
1065.02	281.199
1067.92	240.83
1070.81	182.449
1073.7	185.595
1076.6	167.794
1079.49	148.572
1082.38	279.999
1085.27	290.026
1088.16	302.856
1091.06	354.907
1093.95	311.359
1096.84	314.502
1099.74	301.302
1102.63	267.373
1105.52	269.005
1108.41	195.761
1111.31	118.437
1114.2	114.621
1117.09	10.0229
1119.98	14.7632
1122.88	15.041
1125.77	38.019
1128.66	15.0581
1131.56	35.7783
1134.45	30.4717
1137.34	1.66553
1140.23	14.3262
1143.13	18.4927
1146.02	28.6186
1148.91	32.6128
1151.81	94.7334
1154.7	159.92
1157.59	218.509
1160.48	164.349
1163.38	130.886
1166.27	38.9619
1169.16	72.8184
1172.05	61.2583
1174.95	80.5581
1177.84	65.9526
1180.73	64.6343
1183.62	98.0444
1186.52	96.9526
1189.41	70.7427
1192.3	82.5591
1195.19	79.3223
1198.09	49.7651
1200.98	28.6186
1203.87	42.7632
1206.77	4.4668
1209.66	76.3047
1212.55	73.6728
1215.44	59.3433
1218.34	57.5527
1221.23	20.918
1224.12	73.2647
1227.02	59.5923
1229.91	36.7647
1232.8	53.5366
1235.69	80.2588
1238.59	68.5049
1241.48	45.8574
1244.37	39.0156
1247.26	1.30225
