Measurement: Raman, 532 nm, unoriented, Raman Data Processed
Mineral: Fluorcalciomicrolite
Rruff sample: R050625
Ideal chemistry: (Ca,Na)_2_Ta_2_(O,OH)_6_F
Locality: Urubu mine, Itinga, Minas Gerais, Brazil
Source: Gemological Center
Description: Yellow fragment
Measured chemistry: (Ca_0.98_Na_0.92_)_∑=1.90_(Ta_1.88_Nb_0.11_Sn_0.01_)_∑=2_O_6_[F_0.86_(OH)_0.01_]_∑=0.87_
Raman shift (cm-1)	intensity
149.934	0
152.826	268.101
155.719	435.653
158.612	393.7
161.504	196.726
164.397	50.5205
167.29	20.6182
170.183	127.333
173.075	396.589
175.968	591.075
178.861	680.639
181.753	671.135
184.646	862.036
187.539	1050.79
190.431	1140.48
193.324	1230.34
196.217	1352.78
199.109	1378.3
202.002	1304.99
204.895	1149.8
207.788	987.176
210.68	663.641
213.573	143.413
216.466	127.232
219.358	162.161
222.251	139.023
225.144	100.587
228.036	3.68262
230.929	93.085
233.822	250.173
236.715	474.997
239.607	694.014
242.5	940.373
245.393	1118.32
248.286	1231.06
251.178	1210.66
254.071	1084.4
256.964	1042.02
259.856	1020.25
262.749	1086.83
265.642	1314.52
268.534	1618.25
271.427	2040.63
274.32	2630.11
277.212	3240.33
280.105	3881.43
282.998	4488.66
285.891	5081.41
288.783	5625.7
291.676	6118
294.569	6611.54
297.461	7013.93
300.354	7277.51
303.247	7270.87
306.14	6983.67
309.032	6253.27
311.925	5326.32
314.818	4473.71
317.71	3864.7
320.603	3631.55
323.496	3931.35
326.389	4656.72
329.281	5795.61
332.174	7271.09
335.067	8946.17
337.959	10442.4
340.852	10993.6
343.745	9967.94
346.637	7792.73
349.53	5527.67
352.423	3720.67
355.315	2430.84
358.208	1530.7
361.101	928.233
363.994	498.116
366.886	182.616
369.779	2.83887
372.672	93.8789
375.565	140.216
378.457	109.992
381.35	88.1631
384.243	21.8525
387.135	3.54443
390.028	38.8149
392.921	90.6597
395.813	122.401
398.706	196.206
401.599	214.491
404.491	238.514
407.384	297.251
410.277	300.26
413.17	390.872
416.062	475.982
418.955	566.513
421.848	713.759
424.74	803.863
427.633	883.115
430.526	924.09
433.418	898.556
436.311	903.062
439.204	886.565
442.097	858.318
444.989	834.682
447.882	787.05
450.775	681.205
453.667	576.841
456.56	430.152
459.453	304.525
462.346	190.183
465.238	106.993
468.131	21.6572
471.024	29.9961
473.916	64.8066
476.809	79.4448
479.702	62.0122
482.594	9.69336
485.487	177.132
488.38	496.447
491.273	1100.85
494.165	2169.65
497.058	3921.63
499.951	6545.87
502.843	10096.8
505.736	14760.9
508.629	20480.9
511.522	26031.2
514.414	28619.8
517.307	26140.6
520.2	20830.5
523.092	15980.2
525.985	12632.1
528.878	10499.9
531.77	9140.4
534.663	8317.79
537.556	7824.63
540.448	7466.7
543.341	7233.76
546.234	6825.22
549.127	6269.6
552.019	5492.64
554.912	4693.9
557.805	3893.78
560.697	3194.86
563.59	2571.81
566.483	2077.32
569.376	1686.2
572.268	1372.92
575.161	1095.69
578.054	828.743
580.946	625.122
583.839	414.06
586.732	279.279
589.625	144.411
592.517	27.0059
595.41	43.3916
598.303	85.6758
601.195	56.1397
604.088	23.8252
606.981	4.69727
609.874	34.0088
612.766	58.1318
615.659	76.1103
618.552	117.603
621.444	135.173
624.337	162.298
627.23	227.055
630.122	235.857
633.015	236.514
635.908	336.468
638.801	514.423
641.693	694.957
644.586	834.156
647.479	1114.85
650.371	1352.94
653.264	1661.98
656.157	1889.19
659.049	2133.78
661.942	2334.81
664.835	2491.12
667.727	2603.72
670.62	2684.76
673.513	2721.22
676.406	2734.44
679.298	2711.95
682.191	2693.66
685.084	2600.36
687.976	2470.08
690.869	2368.32
693.762	2170.99
696.654	1979.49
699.547	1744.32
702.44	1552.47
705.333	1346
708.225	1081.19
711.118	871.488
714.011	645.613
716.904	461.773
719.796	300.871
722.689	147.79
725.582	56.9204
728.474	11.5879
731.367	29.5439
734.26	41.5796
737.152	69.3569
740.045	13.2158
742.938	24.8545
745.831	17.3862
748.723	13.0371
751.616	29.7398
754.509	65.5493
757.401	89.1724
760.294	115.275
763.187	124.764
766.08	149.409
768.972	193.39
771.865	240.603
774.758	264.383
777.65	283.752
780.543	333.362
783.436	363.004
786.328	423.854
789.221	465.079
792.114	527.625
795.006	594.249
797.899	643.036
800.792	744.383
803.685	801.832
806.577	844.339
809.47	873.513
812.363	819.448
815.255	781.918
818.148	757.595
821.041	731.918
823.933	667.719
826.826	583.132
829.719	506.162
832.612	432.175
835.504	374.733
838.397	289.408
841.29	238.8
844.182	169.048
847.075	103.031
849.968	31.1543
852.861	6.52051
855.753	30.2349
858.646	0.608887
861.539	50.9595
864.431	115.676
867.324	195.043
870.217	318.5
873.11	411.276
876.002	536.893
878.895	643.87
881.788	772.203
884.68	875.416
887.573	964.258
890.466	1062.38
893.358	1118.58
896.251	1177.29
899.144	1216.11
902.037	1225.37
904.929	1219.84
907.822	1228.4
910.715	1237.54
913.607	1225.9
916.5	1203.23
919.393	1155.37
922.285	1087.16
925.178	1052.34
928.071	1000.51
930.964	946.929
933.856	862.537
936.749	775.149
939.642	666.109
942.534	542.452
945.427	436.06
948.32	356.096
951.212	260.659
954.105	220.211
956.998	168.622
959.891	117.307
962.783	87.6611
965.676	56.3565
968.569	4.17481
971.461	1.96289
974.354	17
977.247	22.8892
980.139	17.5278
983.032	25.665
985.925	14.7681
988.818	13.0557
991.71	31.873
994.603	41.9575
997.496	74.564
1000.39	84.5234
1003.28	134.019
1006.17	155.889
1009.07	186.329
1011.96	245.238
1014.85	286.612
1017.75	302.476
1020.64	304.993
1023.53	349.248
1026.42	353.666
1029.32	395.664
1032.21	408.902
1035.1	434.18
1037.99	438.034
1040.89	413.006
1043.78	386.965
1046.67	355.681
1049.56	341.119
1052.46	343.302
1055.35	314.596
1058.24	325.266
1061.13	299.655
1064.03	298.823
1066.92	272.743
1069.81	271.588
1072.71	248.617
1075.6	254.25
1078.49	241.973
1081.38	218.13
1084.28	218.745
1087.17	187.872
1090.06	162.685
1092.95	159.617
1095.85	128.836
1098.74	130.159
1101.63	133.415
1104.53	118.984
1107.42	150.221
1110.31	197.228
1113.2	215.813
1116.1	192.085
1118.99	112.456
1121.88	73.1848
1124.78	30.4988
1127.67	23.9165
1130.56	1.72217
1133.45	5.38696
1136.35	0.598633
1139.24	9.04028
1142.13	0.546143
1145.02	0.546875
1147.92	8.46265
1150.81	2.69971
1153.7	1.13135
1156.59	9.04639
1159.49	11.7607
1162.38	0.463379
1165.27	10.3745
1168.16	0.815186
1171.06	22.6304
1173.95	18.9336
1176.84	30.5591
1179.74	65.5305
1182.63	103.911
1185.52	142.772
1188.41	138.583
1191.31	102.455
1194.2	67.7405
1197.09	55.3113
1199.98	53.2544
1202.88	55.7922
1205.77	80.4487
1208.66	81.7224
1211.56	86.4314
1214.45	125.71
1217.34	128.232
1220.23	160.535
1223.13	160.34
1226.02	182.05
1228.91	172.525
1231.81	177.423
1234.7	159.915
1237.59	137.459
1240.48	120.819
1243.38	111.527
1246.27	124.728
1249.16	115.536
1252.05	127.633
1254.95	100.599
1257.84	89.6113
1260.73	69.5772
1263.62	57.3931
1266.52	68.2261
1269.41	42.8901
1272.3	27.4712
1275.19	20.541
1278.09	18.1206
1280.98	12.7148
1283.87	8.29541
1286.77	0.312988
1289.66	0.632813
1292.55	2.82959
1295.44	21.9092
1298.34	11.8892
1301.23	9.83691
