Measurement: Raman, 532 nm, unoriented, Raman Data Processed
Mineral: Fluorapatite
Rruff sample: R050529
Ideal chemistry: Ca_5_(PO_4_)_3_F
Locality: Limburg de an Lahn, Germany
Source: University of Arizona Mineral Museum
Description: Botryoidal aggregate
Measured chemistry: (Ca_4.68_[box]_0.32_)_Σ=5_((PO_4_)_2.36_(CO_3_)_0.64_)_Σ=3_F_1.00_
Raman shift (cm-1)	intensity
149.744	0
152.637	3.86969
155.53	6.18286
158.422	0.128113
161.315	4.69653
164.208	8.13214
167.101	13.4038
169.993	16.6718
172.886	24.1509
175.779	23.3729
178.671	31.5322
181.564	29.8346
184.457	22.7898
187.349	11.6032
190.242	1.58588
193.135	2.1239
196.028	3.82788
198.92	2.44678
201.813	5.70953
204.706	18.4093
207.598	29.0404
210.491	31.9246
213.384	34.4552
216.276	32.8901
219.169	31.1041
222.062	29.7163
224.954	37.4819
227.847	46.8938
230.74	54.0115
233.633	62.4525
236.525	58.8886
239.418	59.6634
242.311	50.1094
245.203	44.1877
248.096	46.5211
250.989	45.5485
253.881	51.0742
256.774	59.4136
259.667	67.7305
262.56	79.6243
265.452	94.6328
268.345	103.558
271.238	114.235
274.13	124.865
277.023	131.918
279.916	140.167
282.808	141.897
285.701	138.699
288.594	131.408
291.487	122.807
294.379	112.618
297.272	101.364
300.165	94.2109
303.057	85.6974
305.95	84.6063
308.843	82.9053
311.736	78.2553
314.628	73.7321
317.521	67.3102
320.414	55.5785
323.306	41.0749
326.199	29.5266
329.092	20.3403
331.984	12.8016
334.877	9.52545
337.77	6.75372
340.662	0.987976
343.555	0.447571
346.448	2.91705
349.341	4.63129
352.233	5.49835
355.126	3.24365
358.019	2.05756
360.911	1.39801
363.804	0.500366
366.697	0.315125
369.589	0.362
372.482	5.34253
375.375	3.84448
378.267	8.2171
381.16	11.5535
384.053	13.8138
386.946	16.8014
389.838	22.7504
392.731	24.8655
395.624	30.5538
398.516	34.5422
401.409	37.5065
404.302	50.1014
407.195	64.8989
410.087	82.9424
412.98	113.455
415.873	162.293
418.765	226.435
421.658	317.96
424.551	434.098
427.443	584.367
430.336	686.16
433.229	666.44
436.122	544.645
439.014	432.882
441.907	365.498
444.8	337.675
447.692	318.375
450.585	279.125
453.478	232.149
456.37	183.294
459.263	141.226
462.156	107.635
465.048	84.4206
467.941	62.5296
470.834	48.333
473.727	36.5867
476.619	27.6923
479.512	23.3395
482.405	15.064
485.297	11.3353
488.19	8.83148
491.083	9.56702
493.976	5.1026
496.868	4.24005
499.761	0.135254
502.654	1.98785
505.546	0.015381
508.439	0.723755
511.332	0.645386
514.224	3.32452
517.117	0.982727
520.01	0.979065
522.903	0.900085
525.795	0.811096
528.688	1.89374
531.581	1.74323
534.473	0.472534
537.366	3.63953
540.259	3.49896
543.151	6.33758
546.044	4.36401
548.937	16.939
551.83	16.6968
554.722	21.9185
557.615	23.4899
560.508	33.0006
563.4	47.2266
566.293	66.4341
569.186	95.1025
572.078	131.502
574.971	191.574
577.864	276.89
580.756	366.939
583.649	373.438
586.542	340.115
589.435	367.639
592.327	364.701
595.22	262.599
598.113	162.672
601.005	122.042
603.898	115.238
606.791	130.649
609.683	124.372
612.576	95.2872
615.469	88.7743
618.362	67.3733
621.254	33.608
624.147	13.9089
627.04	9.6983
629.932	5.57642
632.825	1.27496
635.718	2.96533
638.611	5.30536
641.503	2.56506
644.396	0.74646
647.289	0.230713
650.181	0.079407
653.074	0.147766
655.967	0.302734
658.859	0.019592
661.752	0.5802
664.645	1.25043
667.538	0.218018
670.43	4.62445
673.323	1.83032
676.216	2.06207
679.108	5.23572
682.001	9.26605
684.894	14.3648
687.786	19.0543
690.679	23.3086
693.572	16.6905
696.465	12.5881
699.357	9.6731
702.25	12.3312
705.143	11.7219
708.035	14.946
710.928	15.0961
713.821	20.1995
716.713	19.8221
719.606	15.4078
722.499	13.5704
725.391	6.88379
728.284	5.33093
731.177	7.38367
734.07	5.78607
736.962	3.70947
739.855	5.30096
742.748	3.0932
745.64	1.64099
748.533	0.45752
751.426	0.871948
754.318	0.014465
757.211	0.611816
760.104	1.2962
762.997	1.48572
765.889	2.14319
768.782	3.5404
771.675	1.9043
774.567	2.90393
777.46	1.24353
780.353	0.412415
783.245	2.16388
786.138	2.42365
789.031	0.55072
791.923	3.21808
794.816	6.94556
797.709	8.89026
800.602	6.9632
803.494	9.74524
806.387	12.3881
809.28	11.2858
812.172	6.67779
815.065	7.73193
817.958	5.20361
820.851	3.85956
823.743	8.66754
826.636	7.60303
829.529	6.7251
832.421	5.39014
835.314	5.18365
838.207	5.16516
841.099	2.19458
843.992	4.26032
846.885	0.650818
849.778	0.530457
852.67	2.08588
855.563	3.78235
858.456	4.64508
861.348	4.61133
864.241	9.64343
867.134	12.2701
870.026	7.30267
872.919	2.16162
875.812	1.86786
878.705	2.30756
881.597	0.08374
884.49	1.41272
887.383	1.47504
890.275	7.18115
893.168	0.294922
896.061	1.6167
898.953	6.18237
901.846	11.3967
904.739	5.8172
907.631	0.422546
910.524	3.68152
913.417	0.793213
916.31	4.85626
919.202	9.61365
922.095	9.13037
924.988	11.4343
927.88	14.4523
930.773	30.4992
933.666	36.9463
936.558	54.7625
939.451	88.3237
942.344	140.489
945.237	234.384
948.129	400.206
951.022	687.337
953.915	1196.52
956.807	1976.7
959.7	3174.64
962.593	4774.23
965.486	5559.11
968.378	3936.06
971.271	1900.9
974.164	807.693
977.056	331.34
979.949	145.62
982.842	70.4192
985.734	31.7882
988.627	15.7089
991.52	0.15863
994.413	1.77264
997.305	2.69788
1000.2	1.53406
1003.09	2.76819
1005.98	1.87012
1008.88	4.57135
1011.77	8.37018
1014.66	15.3403
1017.55	19.9056
1020.45	32.7117
1023.34	57.0953
1026.23	83.3354
1029.12	127.637
1032.02	170.261
1034.91	214.259
1037.8	246.441
1040.7	268.922
1043.59	278.809
1046.48	278.274
1049.37	295.063
1052.27	323.86
1055.16	322.835
1058.05	280.104
1060.94	263.435
1063.84	293.083
1066.73	366.382
1069.62	504.355
1072.52	615.251
1075.41	559.846
1078.3	413.345
1081.19	281.927
1084.09	175.256
1086.98	106.518
1089.87	65.0384
1092.76	38.557
1095.66	28.3758
1098.55	16.7069
1101.44	14.7503
1104.34	10.0936
1107.23	10.9781
1110.12	10.068
1113.01	6.59576
1115.91	4.68103
1118.8	1.15149
1121.69	0.463806
1124.58	2.12018
1127.48	0.406189
1130.37	2.02685
1133.26	1.80255
1136.15	2.37292
1139.05	2.49408
1141.94	0.511353
1144.83	2.81854
1147.73	3.58252
1150.62	4.79718
1153.51	5.67773
1156.4	8.64471
1159.3	7.35431
1162.19	7.85632
1165.08	12.5377
1167.97	8.52325
1170.87	6.1546
1173.76	5.40277
1176.65	6.35614
1179.55	5.646
1182.44	8.25067
1185.33	11.2794
1188.22	4.48309
1191.12	4.49976
1194.01	4.84619
1196.9	6.30212
1199.79	5.33258
1202.69	3.07904
1205.58	0.585144
1208.47	1.32556
1211.37	2.45776
1214.26	9.54327
1217.15	11.3739
1220.04	11.9001
1222.94	11.1392
1225.83	9.79321
1228.72	9.31464
1231.61	8.6626
1234.51	8.46551
1237.4	6.91785
1240.29	3.31799
1243.18	5.85034
1246.08	2.27557
1248.97	6.84491
1251.86	2.33337
1254.76	0.458557
1257.65	0.188354
1260.54	1.46863
1263.43	0.124451
1266.33	0.405762
1269.22	1.70752
1272.11	2.76221
1275	1.01434
1277.9	1.17664
1280.79	3.42102
1283.68	4.52844
1286.58	4.66052
1289.47	2.05676
1292.36	3.15466
1295.25	1.98877
1298.15	4.71008
1301.04	3.56854
