Measurement: Raman, 532 nm, unoriented, Raman Data Processed
Mineral: Fluorite
Rruff sample: R050045
Ideal chemistry: CaF_2_
Locality: Hunan Province, China
Source: Eugene Schlepp
Description: Pale green colored cubes
Measured chemistry: Ca_1.000_ F_2.000_
Raman shift (cm-1)	intensity
126.038	0
129.413	2.54233
132.788	10.6406
136.163	155.468
139.537	210.536
142.912	142.954
146.287	145.213
149.662	227.41
153.037	312.833
156.411	281.828
159.786	264.249
163.161	199.302
166.536	214.931
169.911	221.327
173.286	200.658
176.66	220.263
180.035	283.202
183.41	316.06
186.785	407.612
190.16	484.385
193.535	631.765
196.909	771.875
200.284	974.622
203.659	1050.79
207.034	772.028
210.409	659.575
213.783	645.62
217.158	448.458
220.533	321.376
223.908	212.742
227.283	147.279
230.657	92.441
234.032	14.7545
237.407	1.22876
240.782	11.2496
244.157	43.1101
247.532	28.7263
250.906	43.4474
254.281	161.787
257.656	280.136
261.031	252.835
264.406	215.584
267.781	215.835
271.155	215.886
274.53	274.033
277.905	406.285
281.28	393.192
284.655	288.705
288.029	323.464
291.404	330.369
294.779	321.878
298.154	479.324
301.529	844.403
304.904	1626.58
308.278	3042.27
311.653	5419.27
315.028	9466.77
318.403	15788
321.778	19221.7
325.152	11317.2
328.527	5328.93
331.902	2954.45
335.277	1880.1
338.652	1256.54
342.026	854.773
345.401	528.21
348.776	368.687
352.151	222.913
355.526	135.754
358.901	75.2488
362.275	4.44092
365.65	13.4992
369.025	7.77319
372.4	40.7794
375.775	24.8074
379.149	15.5537
382.524	14.0441
385.899	44.255
389.274	55.8225
392.649	90.6473
396.024	74.4713
399.398	39.3677
402.773	78.7047
406.148	101.769
409.523	121.865
412.898	164.693
416.272	155.759
419.647	244.706
423.022	246.328
426.397	276.112
429.772	337.517
433.147	360.589
436.521	439.807
439.896	544.596
443.271	587.055
446.646	573.868
450.021	541.528
453.396	494.974
456.77	395.973
460.145	349.668
463.52	254.49
466.895	189.311
470.27	181.437
473.644	129.522
477.019	55.8442
480.394	16.0568
483.769	5.97693
487.144	28.0865
490.519	30.8943
493.893	16.2383
497.268	113.175
500.643	177.314
504.018	364.122
507.393	566.855
510.767	751.813
514.142	832.545
517.517	690.21
520.892	571.435
524.267	342.346
527.641	178.3
531.016	76.4105
534.391	20.4727
537.766	7.26489
541.141	41.0316
544.516	45.0142
547.89	85.0925
551.265	124.281
554.64	151.865
558.015	209.678
561.39	226.644
564.764	372.676
568.139	459.529
571.514	423.68
574.889	342.909
578.264	191.802
581.639	89.0292
585.013	12.5974
588.388	45.4949
591.763	43.8771
595.138	39.4342
598.513	69.0358
601.888	112.835
605.262	123.257
608.637	241.735
612.012	304.394
615.387	265.434
618.762	224.313
622.136	303.795
625.511	405.341
628.886	425.169
632.261	331.44
635.636	370.697
639.01	470.8
642.385	659.925
645.76	1048.73
649.135	1515.79
652.51	1770.48
655.885	1556.48
659.259	1140.62
662.634	845.426
666.009	710.545
669.384	578.221
672.759	336.483
676.134	197.467
679.508	136.887
682.883	93.5851
686.258	115.083
689.633	100.058
693.008	73.1013
696.382	98.4717
699.757	99.9788
703.132	127.539
706.507	98.5018
709.882	73.9462
713.256	17.5085
716.631	10.2651
720.006	5.25122
723.381	3.03406
726.756	4.27222
730.131	24.4896
733.505	0.158203
736.88	3.85791
740.255	18.1388
743.63	16.6057
747.005	32.2274
750.38	14.358
753.754	37.3523
757.129	14.2346
760.504	35.2367
763.879	50.6793
767.254	27.0785
770.628	19.5414
774.003	21.2645
777.378	11.9645
780.753	15.0085
784.128	33.6296
787.503	25.8718
790.877	5.83301
794.252	12.8157
797.627	19.6986
801.002	24.339
804.377	11.9357
807.751	47.8165
811.126	15.8684
814.501	39.3628
817.876	46.7412
821.251	21.6419
824.625	29.5337
828	42.3766
831.375	13.0378
834.75	49.3048
838.125	31.8877
841.5	6.72485
844.874	12.5272
848.249	34.3143
851.624	32.7195
854.999	8.21118
858.374	0.448975
861.749	22.4006
865.123	10.2821
868.498	35.2584
871.873	23.9338
875.248	25.1847
878.623	43.6334
881.997	21.767
885.372	16.5431
888.747	7.65527
892.122	12.691
895.497	32.2648
898.871	28.2749
902.246	15.7352
905.621	4.42444
908.996	36.208
912.371	24.7233
915.746	6.79431
919.12	28.821
922.495	41.2112
925.87	52.7636
929.245	14.5793
932.62	62.3273
935.995	57.6012
939.369	56.6093
942.744	46.6775
946.119	49.8355
949.494	26.9618
952.869	13.5442
956.243	24.5293
959.618	56.9614
962.993	19.3496
966.368	26.4573
969.743	40.1539
973.117	53.0586
976.492	19.5693
979.867	27.3724
983.242	0.572266
986.617	41.7682
989.992	34.9335
993.366	26.4351
996.741	10.686
1000.12	14.6197
1003.49	11.9305
1006.87	43.2434
1010.24	18.5493
1013.62	17.1623
1016.99	15.2114
1020.37	31.9216
1023.74	10.3817
1027.12	16.3705
1030.49	15.0317
1033.86	52.8903
1037.24	27.3388
1040.61	41.3928
1043.99	11.3058
1047.36	47.6359
1050.74	16.4689
1054.11	24.8579
1057.49	3.42664
1060.86	17.3071
1064.24	11.684
1067.61	9.85754
1070.99	41.0792
1074.36	12.9557
1077.74	26.3667
1081.11	53.6998
1084.49	30.5907
1087.86	55.2642
1091.24	21.9924
1094.61	0.823853
1097.99	26.9606
1101.36	13.5923
1104.73	10.1021
1108.11	39.3812
1111.48	17.1497
1114.86	24.7135
1118.23	29.5536
1121.61	60.4379
1124.98	33.9301
1128.36	29.0083
1131.73	13.7151
1135.11	5.02417
1138.48	28.824
1141.86	34.3324
1145.23	11.5234
1148.61	11.3506
1151.98	1.71106
1155.36	41.5944
1158.73	37.4645
1162.11	38.0742
1165.48	45.0635
1168.86	26.5421
1172.23	35.7675
1175.61	2.07214
1178.98	5.5072
1182.36	24.0148
1185.73	18.1608
1189.11	14.8816
1192.48	38.2677
1195.86	1.60059
1199.23	53.9869
1202.61	23.3473
1205.98	28.2653
1209.36	22.3113
1212.73	4.12512
1216.1	27.7681
1219.48	28.0888
1222.85	9.3053
1226.23	23.9386
1229.6	17.6356
1232.98	46.2998
1236.35	34.2767
1239.73	21.2925
1243.1	36.5582
1246.48	71.5325
1249.85	37.5002
1253.23	28.4595
1256.6	70.5121
1259.98	8.65649
1263.35	30.1913
1266.73	27.7338
1270.1	36.7449
1273.48	48.1082
1276.85	35.3845
1280.23	35.1801
1283.6	44.0961
1286.98	33.7648
1290.35	1.71057
1293.72	46.4034
1297.1	22.0839
1300.47	45.8589
1303.85	11.8597
