Measurement: Raman, 514 nm, unoriented, Raman Data Processed
Mineral: Fluorapatite
Rruff sample: R050122
Ideal chemistry: Ca_5_(PO_4_)_3_F
Locality: Cruziero mine, San Jose, Minas Gerais, Brazil
Source: Carlos and Paulo Vasconcelos
Description: Green fragment
Measured chemistry: (Ca_4.99_Mn_0.01_)_Î£=5_(P_1.00_O_4_)_3_F_1.00_; trace amounts of Fe
Raman shift (cm-1)	intensity
100.34	0
104.516	17.424
108.691	148.729
112.864	80.417
117.034	121.368
121.203	135.515
125.369	128.215
129.534	139.5
133.696	445.757
137.857	603.59
142.016	489.666
146.172	346.55
150.327	215.676
154.48	526.053
158.63	425.177
162.779	315.977
166.926	351.167
171.07	193.835
175.213	169.442
179.354	189.584
183.493	121.002
187.63	189.966
191.765	134.837
195.898	8.515
200.029	134.065
204.158	53.292
208.285	64.912
212.41	54.68
216.533	104.295
220.654	83.064
224.773	103.559
228.891	169.327
233.006	252.047
237.119	225.645
241.231	190.511
245.34	35.438
249.448	140.427
253.553	106.818
257.657	189.437
261.758	321.012
265.858	321.518
269.956	146.118
274.052	75.523
278.146	111.143
282.237	32.175
286.327	54.55
290.416	79.934
294.502	145.269
298.586	122.882
302.668	96.825
306.749	59.116
310.827	104.445
314.903	15.877
318.978	116.998
323.051	122.194
327.121	35.885
331.19	13.022
335.257	115.509
339.322	5.248
343.385	68.932
347.446	77.827
351.505	102.229
355.563	205.675
359.618	31.54
363.672	55.847
367.723	54.314
371.773	104.94
375.821	115.558
379.866	6.84
383.91	42.537
387.952	128.887
391.992	35.362
396.031	147.084
400.067	342.233
404.101	124.751
408.134	185.947
412.165	184.687
416.193	247.148
420.22	136.424
424.245	214.473
428.268	480.448
432.289	436.975
436.309	577.026
440.326	726.231
444.342	1139.91
448.355	1040.99
452.367	703.56
456.377	352.035
460.385	190.028
464.391	328.299
468.395	253.697
472.398	8.801
476.398	154.874
480.397	229.81
484.394	49.472
488.389	228.03
492.382	60.865
496.373	146.585
500.362	229.859
504.349	149.446
508.335	208.511
512.319	262.502
516.3	98.158
520.28	105.938
524.259	170.26
528.235	222.033
532.209	97.488
536.182	117.902
540.152	224.057
544.121	183.684
548.088	281.105
552.053	48.41
556.017	37.635
559.978	169.031
563.938	88.58
567.895	68.631
571.851	345.857
575.805	831.094
579.758	1406.42
583.708	905.008
587.657	737.951
591.603	725.686
595.548	611.803
599.491	447.76
603.432	942.908
607.372	1189.2
611.309	537.916
615.245	646.162
619.179	340.293
623.111	472
627.041	31.512
630.97	143.105
634.896	231.02
638.821	268.025
642.744	241.066
646.665	265.752
650.584	420.707
654.502	143.76
658.418	285.207
662.331	257.697
666.244	375.828
670.154	343.645
674.062	239.752
677.969	171.48
681.874	21.383
685.777	193.447
689.678	327.773
693.577	109.965
697.475	279.564
701.371	168.588
705.265	161.535
709.157	68.695
713.047	372.279
716.936	166.838
720.823	317.645
724.708	140.73
728.591	200.887
732.472	4.633
736.352	217.168
740.23	366.549
744.106	214.58
747.98	47.262
751.853	311.512
755.723	69.746
759.592	0.598
763.459	355.709
767.325	378.697
771.188	103.309
775.05	61.781
778.91	171.551
782.768	110.158
786.625	143.213
790.479	70.43
794.332	54.566
798.183	169.678
802.033	146.998
805.88	58.506
809.726	190.037
813.57	191.996
817.413	64.855
821.253	199.158
825.092	260.113
828.929	101.795
832.764	35.645
836.598	1.393
840.429	304.24
844.259	219.785
848.088	471.135
851.914	434.203
855.739	229.85
859.562	124.188
863.383	2.197
867.203	250.379
871.02	151.189
874.836	323.83
878.65	339.266
882.463	320.807
886.274	379.555
890.083	581.482
893.89	178.789
897.695	61.668
901.499	273.816
905.301	179.59
909.102	253.299
912.9	469.605
916.697	578.84
920.492	428.936
924.285	722.422
928.077	552.062
931.867	679.25
935.655	872.25
939.442	585.422
943.226	886.594
947.009	1161.78
950.791	1158.98
954.57	1710.96
958.348	4923.01
962.124	22663.7
965.899	18443.3
969.671	4242.1
973.442	1548.45
977.211	860.367
980.979	438.395
984.745	140.066
988.509	115.477
992.271	421.516
996.032	482.43
999.791	154.031
1003.55	608.297
1007.3	709.242
1011.06	834.512
1014.81	454.023
1018.56	670.773
1022.31	739.277
1026.06	495.078
1029.8	1496.07
1033.55	1101.44
1037.29	707.465
1041.03	1246.19
1044.77	1089.07
1048.5	833.254
1052.24	1092.46
1055.97	852.438
1059.7	1293.02
1063.43	663.672
1067.16	636.289
1070.89	619.66
1074.61	623.059
1078.34	945.684
1082.06	725.691
1085.78	242.523
1089.5	309.211
1093.21	246.258
1096.93	204.586
1100.64	291.754
1104.35	20.68
1108.06	456.633
1111.77	256.23
1115.48	276.805
1119.18	248.82
1122.89	230.629
1126.59	232.891
1130.29	287.469
1133.99	141.32
1137.68	130.953
1141.38	140.52
1145.07	324.949
1148.76	261.512
1152.45	97.016
1156.14	349.52
1159.83	2.914
1163.51	101.742
1167.19	288.812
1170.88	212.41
1174.56	180.543
1178.23	70.062
1181.91	71.645
1185.59	185.727
1189.26	393.172
1192.93	557
1196.6	237.84
1200.27	640.297
1203.94	2.602
1207.6	691.426
1211.27	596.402
1214.93	437.871
1218.59	749.703
1222.25	645.18
1225.9	755.121
1229.56	681.977
1233.21	218.082
1236.86	273.934
1240.51	737.805
1244.16	574.223
1247.81	692.418
1251.45	265.879
1255.1	239.262
1258.74	727.93
1262.38	330.816
1266.02	0.109
