Measurement: Raman, 780 nm, unoriented, Raman Data Processed
Mineral: Fluoro-potassicrichterite
Rruff sample: R060034
Ideal chemistry: KNaCaMg_5_Si_8_O_22_F_2_
Locality: Walgidee, Western Australia, Australia
Source: University of Arizona Mineral Museum
Description: Transparent brown water worn crystal fragment, variety: titanian-fluoro-potassicrichterite
Measured chemistry: (K_0.98_Na_0.02_)_Σ=1_(Ca_1.10_Na_0.90_)_Σ=2_(Mg_4.69_Fe^2+^_0.30_Mn_0.01_)_Σ=5_(Si_7.50_Ti_0.40_Al_0.10_)_Σ=8_O_22_((F_0.74_(OH)_0.26_)_2_
Raman shift (cm-1)	intensity
182.679	0
185.572	0.336426
188.465	2.65985
191.358	2.87763
194.25	7.55899
197.143	10.2043
200.036	15.0811
202.928	19.0984
205.821	25.1419
208.714	31.9467
211.607	41.7705
214.499	49.3734
217.392	57.9504
220.285	72.2883
223.177	80.1275
226.07	88.4075
228.963	92.5169
231.855	83.2398
234.748	68.1092
237.641	52.2819
240.533	39.9759
243.426	25.951
246.319	18.0996
249.212	12.5441
252.104	8.396
254.997	4.49393
257.89	3.24857
260.782	1.35403
263.675	2.07333
266.568	1.27109
269.46	0.148315
272.353	0.363983
275.246	2.46121
278.139	1.39957
281.031	0.17157
283.924	1.17718
286.817	2.94388
289.709	3.91739
292.602	5.74442
295.495	6.94241
298.387	9.87933
301.28	12.2643
304.173	12.0109
307.065	11.1805
309.958	12.4873
312.851	11.6361
315.744	10.5587
318.636	9.21094
321.529	8.54187
324.422	7.52506
327.314	8.38486
330.207	8.14706
333.1	8.32663
335.993	7.61151
338.885	8.32941
341.778	9.17548
344.671	8.91721
347.563	9.58856
350.456	10.3004
353.349	12.9207
356.241	13.6681
359.134	16.9126
362.027	16.9161
364.92	18.6858
367.812	15.738
370.705	15.2819
373.598	15.0683
376.49	12.6096
379.383	11.8257
382.276	10.8077
385.168	9.74793
388.061	10.8454
390.954	10.7459
393.846	10.7036
396.739	9.34122
399.632	9.53278
402.525	11.3853
405.417	10.0025
408.31	9.3103
411.203	7.38406
414.095	8.66405
416.988	5.58739
419.881	6.89519
422.774	7.48639
425.666	7.4034
428.559	8.00754
431.452	5.94383
434.344	4.34801
437.237	1.58028
440.13	2.05528
443.022	0.279022
445.915	0.787659
448.808	1.28638
451.7	0.138168
454.593	0.006668
457.486	1.21652
460.379	0.174118
463.271	0.056747
466.164	1.09125
469.057	0.418442
471.949	2.69713
474.842	1.61227
477.735	2.21277
480.627	2.92798
483.52	3.31619
486.413	2.98045
489.305	2.86552
492.198	4.02267
495.091	4.87389
497.984	5.83238
500.876	6.58569
503.769	8.36836
506.662	9.07895
509.554	11.4334
512.447	13.8125
515.34	12.068
518.232	12.7116
521.125	12.7345
524.018	10.0609
526.911	7.317
529.803	6.77498
532.696	5.27962
535.589	2.89897
538.481	4.23341
541.374	3.42313
544.267	3.89088
547.159	2.46718
550.052	2.18721
552.945	1.73254
555.838	2.4098
558.73	2.08173
561.623	4.83986
564.516	2.74895
567.408	2.29181
570.301	3.22188
573.194	4.49712
576.087	2.97183
578.979	3.94423
581.872	0.850021
584.765	1.02641
587.657	0.166153
590.55	0.31366
593.443	1.34729
596.335	1.54463
599.228	0.086441
602.121	0.579391
605.014	0.287857
607.906	0.439651
610.799	0.281784
613.692	0.7211
616.584	0.096939
619.477	0.388397
622.37	0.049896
625.262	0.150742
628.155	0.155762
631.048	2.32803
633.941	0.559784
636.833	1.55774
639.726	1.189
642.619	1.93355
645.511	3.79379
648.404	3.9995
651.297	9.07585
654.189	12.2985
657.082	17.9781
659.975	29.2497
662.867	42.4034
665.76	63.5662
668.653	86.9515
671.546	117.735
674.438	149.691
677.331	180.183
680.224	186.947
683.116	156.906
686.009	102.235
688.902	61.1476
691.794	37.2661
694.687	23.5419
697.58	15.8765
700.473	11.5513
703.365	9.04779
706.258	8.7972
709.151	7.70102
712.043	7.64906
714.936	9.2444
717.829	10.5073
720.721	11.0755
723.614	12.4383
726.507	13.0397
729.399	11.2957
732.292	9.81552
735.185	9.68671
738.078	8.31146
740.97	8.03851
743.863	9.08092
746.756	8.84604
749.648	8.71284
752.541	10.7234
755.434	9.47931
758.327	10.4247
761.219	9.72293
764.112	9.29082
767.005	8.22111
769.897	7.49941
772.79	7.05455
775.683	5.29318
778.575	3.30518
781.468	3.66283
784.361	3.12463
787.254	0.034439
790.146	0.390976
793.039	0.305008
795.932	0.130692
798.824	0.779419
801.717	1.53253
804.61	0.592758
807.502	1.50729
810.395	0.070297
813.288	0.079834
816.181	1.43039
819.073	3.70723
821.966	5.01251
824.859	5.88896
827.751	6.59853
830.644	7.23366
833.537	8.71452
836.429	10.0705
839.322	8.96861
842.215	8.8158
845.107	9.47227
848	10.3862
850.893	7.89562
853.786	8.29105
856.678	6.62537
859.571	5.61708
862.464	4.93448
865.356	3.6454
868.249	4.88051
871.142	4.37079
874.034	3.87967
876.927	5.92822
879.82	6.44014
882.713	9.32457
885.605	11.7633
888.498	14.5576
891.391	15.432
894.283	17.3157
897.176	14.2872
900.069	12.8809
902.962	11.2231
905.854	9.7993
908.747	8.15073
911.64	9.40726
914.532	9.11548
917.425	10.2004
920.318	10.9856
923.21	13.1206
926.103	12.2078
928.996	12.1927
931.889	12.5667
934.781	11.6554
937.674	10.3673
940.567	9.74141
943.459	8.60248
946.352	6.86597
949.245	5.22722
952.137	3.70431
955.03	2.19263
957.923	1.85159
960.816	0.846786
963.708	0.909088
966.601	0.633041
969.494	0.876495
972.386	0.85611
975.279	1.07207
978.172	1.54741
981.064	0.393631
983.957	0.227127
986.85	0.509109
989.742	0.924316
992.635	1.3624
995.528	0.295288
998.421	0.233994
1001.31	1.32419
1004.21	1.69182
1007.1	1.70773
1009.99	2.02693
1012.88	3.40161
1015.78	1.83116
1018.67	4.92606
1021.56	4.17619
1024.45	5.58238
1027.35	6.46849
1030.24	6.69647
1033.13	8.3494
1036.03	7.81258
1038.92	9.56586
1041.81	10.9784
1044.7	10.2622
1047.6	11.2712
1050.49	13.9919
1053.38	16.1852
1056.28	18.9595
1059.17	20.9906
1062.06	23.096
1064.95	22.164
1067.85	21.4323
1070.74	20.7204
1073.63	15.8051
1076.52	14.8086
1079.42	11.5544
1082.31	10.0859
1085.2	10.9277
1088.09	7.25462
1090.99	5.95284
1093.88	4.37824
1096.77	5.46017
1099.66	2.23407
1102.56	2.28227
1105.45	1.98463
1108.34	1.11884
1111.24	1.82638
1114.13	1.39392
1117.02	0.555038
1119.91	0.23761
1122.81	0.536758
1125.7	0.318115
1128.59	1.02534
1131.48	0.171448
1134.38	1.18532
1137.27	0.83429
1140.16	0.036819
1143.06	1.99806
1145.95	0.51236
1148.84	1.07784
1151.73	0.461639
1154.63	1.99347
1157.52	0.987762
1160.41	0.795105
1163.3	0.514603
1166.2	0.220886
1169.09	0.799332
1171.98	2.08847
1174.88	0.814499
1177.77	1.62157
1180.66	1.5171
1183.55	0.436813
1186.45	1.83995
1189.34	1.45389
1192.23	1.75751
1195.12	0.730515
1198.02	2.33571
1200.91	2.87145
1203.8	1.15082
1206.69	1.7527
1209.59	1.07805
1212.48	0.798386
1215.37	1.95836
1218.27	2.32712
1221.16	2.45688
1224.05	1.80717
1226.94	0.611725
1229.84	1.18643
1232.73	2.35573
1235.62	0.893295
1238.52	1.26399
1241.41	0.729614
1244.3	0.138794
1247.19	0.149399
1250.09	0.729004
1252.98	1.35785
1255.87	1.66974
1258.76	1.25168
1261.66	0.739166
1264.55	1.15233
1267.44	1.35747
1270.33	0.990219
1273.23	2.02142
1276.12	0.363815
1279.01	1.84323
