Measurement: Raman, 785 nm, unoriented, Raman Data Processed
Mineral: Fluorapophyllite-(K)
Rruff sample: R050021
Ideal chemistry: KCa_4_Si_8_O_20_F8H_2_O
Locality: Poona, Maharashtra State, India
Source: Eugene Schlepp
Description: Colorless tetragonal prisms
Measured chemistry: (K_0.98_Na_0.02_)_Σ=1_Ca_4.00_Si_8.00_O_20_(F_0.84_(OH)_0.16_)_Σ=1_·8H_2_O
Raman shift (cm-1)	intensity
134.037	0
136.929	84.8376
139.822	360.035
142.715	183.953
145.607	118.268
148.5	174.9
151.393	366.652
154.286	457.1
157.178	440.433
160.071	654.555
162.964	1325.6
165.856	2571.56
168.749	2228.59
171.642	948.817
174.534	443.933
177.427	271.383
180.32	128.07
183.212	64.8195
186.105	107.341
188.998	167.301
191.891	338.87
194.783	513.082
197.676	639.217
200.569	774.773
203.461	820.27
206.354	686.741
209.247	571.211
212.139	508.899
215.032	351.117
217.925	293.471
220.818	261.173
223.71	305.175
226.603	411.984
229.496	534.931
232.388	469.97
235.281	259.098
238.174	95.0962
241.066	32.3663
243.959	14.2201
246.852	3.44173
249.745	2.29785
252.637	14.4515
255.53	27.1557
258.423	47.2824
261.315	92.5624
264.208	153.353
267.101	223.703
269.993	254.425
272.886	176.728
275.779	143.726
278.672	76.5153
281.564	67.8162
284.457	75.376
287.35	89.8021
290.242	125.739
293.135	198.686
296.028	310.54
298.921	381.981
301.813	405.895
304.706	507.361
307.599	614.76
310.491	730.284
313.384	819.67
316.277	896.227
319.169	1009.75
322.062	1059.54
324.955	938.569
327.847	756.076
330.74	630.456
333.633	583.4
336.526	610.559
339.418	621.342
342.311	538.556
345.204	347.432
348.096	222.987
350.989	165.502
353.882	122.071
356.774	53.1917
359.667	19.0607
362.56	9.2229
365.452	8.75116
368.345	7.00122
371.238	20.5674
374.131	49.6288
377.023	69.2001
379.916	91.6193
382.809	156.764
385.701	277.213
388.594	405.832
391.487	639.533
394.38	835.858
397.272	1081.6
400.165	1109.7
403.058	1027
405.95	837.861
408.843	656.278
411.736	559.047
414.628	509.573
417.521	590.688
420.414	804.602
423.307	1120.49
426.199	1701.12
429.092	2382.7
431.985	2689.29
434.877	1721.38
437.77	794.837
440.663	350.845
443.555	115.468
446.448	58.6993
449.341	33.6847
452.234	19.6741
455.126	16.2198
458.019	21.6262
460.912	34.5009
463.804	59.1762
466.697	91.2751
469.59	198.303
472.483	482.749
475.375	970.169
478.268	1731.89
481.161	2982.05
484.053	4426.49
486.946	4078.98
489.839	2359.75
492.731	1168.91
495.624	616.282
498.517	381.264
501.409	272.623
504.302	164.91
507.195	122.543
510.088	40.9364
512.98	51.9788
515.873	56.8118
518.766	151.827
521.658	376.761
524.551	642.029
527.444	1096.89
530.337	1569.74
533.229	2158.32
536.122	2540.7
539.015	2689.56
541.907	2517.24
544.8	2123.12
547.693	1809.34
550.585	1545.34
553.478	1405.6
556.371	1369.72
559.263	1472.67
562.156	1605.31
565.049	1972.41
567.942	2548.92
570.834	3410.04
573.727	4582.28
576.62	6089.15
579.512	7820.34
582.405	9015.9
585.298	8680.25
588.19	6791.67
591.083	4548.28
593.976	2902.67
596.869	1779.69
599.761	1176.57
602.654	752.822
605.547	460.637
608.439	252.614
611.332	147.464
614.225	97.4686
617.117	60.5675
620.01	30.8887
622.903	7.98445
625.795	-9.8408
628.688	-23.9795
631.581	-30.0993
634.474	-32.5773
637.366	-19.7971
640.259	-7.23672
643.152	8.96885
646.044	40.5001
648.937	70.2296
651.83	114.506
654.722	162.737
657.615	201.885
660.508	211.547
663.401	216.34
666.293	228.255
669.186	145.276
672.079	108.577
674.971	88.6584
677.864	65.8215
680.757	57.6025
683.649	26.7959
686.542	14.2078
689.435	6.84802
692.328	8.10675
695.22	1.47211
698.113	9.00067
701.006	27.3138
703.898	16.7723
706.791	8.19617
709.684	16.6316
712.577	22.4571
715.469	27.6547
718.362	7.3363
721.255	37.5599
724.147	21.001
727.04	37.5735
729.933	38.361
732.825	31.0913
735.718	33.8335
738.611	26.2741
741.504	27.3208
744.396	47.7634
747.289	30.9831
750.182	30.8803
753.074	26.1029
755.967	19.9175
758.86	19.9263
761.752	19.452
764.645	40.3366
767.538	21.6344
770.431	29.6512
773.323	36.532
776.216	23.8594
779.109	83.0961
782.001	73.2477
784.894	93.433
787.787	167.443
790.679	183.791
793.572	159.515
796.465	112.995
799.357	55.7956
802.25	19.9631
805.143	31.6086
808.036	28.4738
810.928	0.475586
813.821	3.6864
816.714	17.9605
819.606	3.55432
822.499	5.60834
825.392	19.5385
828.284	12.9431
831.177	6.83044
834.07	9.11682
836.963	0.291626
839.855	6.07959
842.748	2.48248
845.641	1.99487
848.533	11.9636
851.426	33.3724
854.319	36.1083
857.212	10.4097
860.104	20.9462
862.997	25.0834
865.89	6.85376
868.782	32.5519
871.675	4.07617
874.568	7.52673
877.46	25.8439
880.353	31.9034
883.246	17.6428
886.139	6.09271
889.031	11.4539
891.924	17.8224
894.817	30.7391
897.709	15.1435
900.602	32.3874
903.495	25.0076
906.388	20.6015
909.28	10.7615
912.173	37.3802
915.066	38.2846
917.958	29.665
920.851	31.4061
923.744	34.5185
926.636	18.6572
929.529	49.548
932.422	56.1564
935.314	0.99646
938.207	34.1836
941.1	11.6714
943.993	53.5424
946.885	25.3915
949.778	23.1426
952.671	4.69641
955.563	22.1888
958.456	15.6637
961.349	20.0176
964.241	6.74439
967.134	12.5276
970.027	3.23486
972.92	3.77393
975.812	4.43762
978.705	15.9707
981.598	3.05945
984.49	30.396
987.383	3.00977
990.276	0.895264
993.168	13.6328
996.061	4.68481
998.954	15.3825
1001.85	26.5242
1004.74	33.7161
1007.63	74.7267
1010.52	62.2764
1013.42	21.0337
1016.31	32.9648
1019.2	33.0757
1022.1	13.3821
1024.99	0.47168
1027.88	32.6585
1030.77	61.6588
1033.67	97.6328
1036.56	150.91
1039.45	274.516
1042.34	420.452
1045.24	756.26
1048.13	1274.7
1051.02	2379.02
1053.91	4154.83
1056.81	6932.31
1059.7	9102.62
1062.59	7697.38
1065.49	4795.97
1068.38	2868.92
1071.27	1732.06
1074.16	1170.41
1077.06	830
1079.95	648.237
1082.84	517.764
1085.73	473.452
1088.63	376.442
1091.52	343.262
1094.41	205.334
1097.31	173.624
1100.2	125.891
1103.09	81.943
1105.98	73.1255
1108.88	38.7772
1111.77	71.0845
1114.66	48.8603
1117.56	54.5686
1120.45	36.146
1123.34	18.1977
1126.23	29.0289
1129.12	23.2606
1132.02	11.2842
1134.91	7.68713
1137.8	18.8696
1140.7	7.71362
1143.59	9.20264
1146.48	6.50952
1149.37	4.31714
1152.27	30.7723
1155.16	23.9554
1158.05	42.1256
1160.94	11.5779
1163.84	32.1089
1166.73	25.227
1169.62	41.9275
1172.52	5.80017
1175.41	12.1797
1178.3	36.6506
1181.19	2.22119
1184.09	28.8969
1186.98	22.9302
1189.87	17.0503
1192.77	28.5041
1195.66	33.611
1198.55	44.1582
1201.44	35.0902
1204.34	36.819
1207.23	44.8168
1210.12	39.3148
1213.01	60.9898
1215.91	44.52
1218.8	47.8643
1221.69	26.9062
1224.58	35.7769
1227.48	47.1914
1230.37	20.8916
