Measurement: Raman, 532 nm, unoriented, Raman Data Processed
Mineral: Fluorapatite
Rruff sample: R050122
Ideal chemistry: Ca_5_(PO_4_)_3_F
Locality: Cruziero mine, San Jose, Minas Gerais, Brazil
Source: Carlos and Paulo Vasconcelos
Description: Green fragment
Measured chemistry: (Ca_4.99_Mn_0.01_)_Î£=5_(P_1.00_O_4_)_3_F_1.00_; trace amounts of Fe
Raman shift (cm-1)	intensity
135.771	0
138.663	728.088
141.556	908.613
144.449	82.8926
147.341	64.3154
150.234	31.0576
153.127	222.085
156.019	338.94
158.912	345.422
161.805	34.4815
164.698	220.79
167.59	242.126
170.483	286.691
173.376	160.442
176.268	170.692
179.161	158.647
182.054	97.4414
184.946	133.398
187.839	30.6455
190.732	7.8125
193.625	23.2188
196.517	24.0537
199.41	25.6807
202.303	5.87207
205.195	157.377
208.088	90.2539
210.981	94.5273
213.874	142.24
216.766	37.9043
219.659	13.291
222.552	56.6309
225.444	10.6113
228.337	66.1269
231.23	156.512
234.122	268.945
237.015	258.31
239.908	177.598
242.8	237.178
245.693	123.92
248.586	121.006
251.478	74.8652
254.371	147.535
257.264	100.787
260.157	290.981
263.049	383.248
265.942	390.578
268.835	304.049
271.727	264.426
274.62	111.207
277.513	166.912
280.406	121.799
283.298	145.291
286.191	79.7852
289.084	80.7188
291.976	120.871
294.869	124.512
297.762	189.74
300.654	228.217
303.547	153.363
306.44	189.865
309.332	313.043
312.225	146.715
315.118	309.252
318.011	205.389
320.903	286.438
323.796	263.84
326.689	202.707
329.581	232.307
332.474	280.289
335.367	248.441
338.26	250.461
341.152	388.981
344.045	277.518
346.938	215.787
349.83	267.236
352.723	209.82
355.616	138.635
358.508	111.519
361.401	7.42188
364.294	17.3906
367.187	81.084
370.079	79.2266
372.972	32.6523
375.865	56.6133
378.757	71.418
381.65	220.756
384.543	52.4746
387.435	30.3555
390.328	68.418
393.221	147.047
396.113	106.547
399.006	142.002
401.899	224.777
404.792	75.1992
407.684	102.004
410.577	76.7637
413.47	25.3691
416.362	278.852
419.255	281.465
422.148	398.113
425.041	459.969
427.933	502.994
430.826	609.088
433.719	708.287
436.611	704.627
439.504	939.732
442.397	1023.48
445.289	1261.51
448.182	1127.21
451.075	1015.65
453.967	678.992
456.86	484.166
459.753	247.565
462.646	292.422
465.538	205.986
468.431	270.367
471.324	78.3613
474.216	154.998
477.109	80.6523
480.002	143.697
482.894	144.492
485.787	97.7051
488.68	25.3418
491.572	106.877
494.465	50.4277
497.358	31.7031
500.251	77.5781
503.143	143.572
506.036	153.859
508.929	55.4844
511.821	295.193
514.714	226.08
517.607	106.873
520.5	112.801
523.392	96.2539
526.285	137.211
529.178	137.467
532.07	210.697
534.963	81.1523
537.856	6.26562
540.748	37.5742
543.641	38.6543
546.534	22.0449
549.427	6.27148
552.319	88.4766
555.212	130.141
558.105	106.09
560.997	85.5254
563.89	85.0742
566.783	135.514
569.675	335.545
572.568	375.861
575.461	856.144
578.354	1429.28
581.246	1973.54
584.139	1110.98
587.032	553.229
589.924	465.234
592.817	419.707
595.71	424.268
598.602	304.668
601.495	421.283
604.388	734.141
607.28	963.498
610.173	842.387
613.066	466.871
615.959	646.051
618.851	560.797
621.744	211.66
624.637	158.652
627.529	12.8945
630.422	65.0332
633.315	38.375
636.207	1.50391
639.1	17.957
641.993	11.9688
644.886	10.3242
647.778	121.465
650.671	149.334
653.564	94.0078
656.456	155.103
659.349	227.348
662.242	229.66
665.135	264.469
668.027	265.287
670.92	133.494
673.813	378.693
676.705	362.977
679.598	327.822
682.491	110.248
685.383	230.766
688.276	109.522
691.169	85.4512
694.062	112.879
696.954	271.488
699.847	206.674
702.74	181.879
705.632	226.74
708.525	211.738
711.418	124.728
714.31	198.522
717.203	108.4
720.096	101.439
722.988	169.957
725.881	90.9004
728.774	64.5391
731.667	84.3652
734.559	159.256
737.452	82.4414
740.345	72.3086
743.237	147.523
746.13	39.5391
749.023	113.246
751.915	105.285
754.808	96.3731
757.701	39.2109
760.593	2.88086
763.486	58.6523
766.379	96.7422
769.272	178.465
772.164	113.709
775.057	271.898
777.95	210.879
780.842	269.092
783.735	191.719
786.628	163.652
789.52	193.648
792.413	266.647
795.306	300.625
798.199	229.275
801.091	251.908
803.984	218.986
806.877	209.022
809.769	333.426
812.662	474.139
815.555	306.264
818.447	28.8164
821.34	49.1328
824.233	127.842
827.125	187.703
830.018	158.533
832.911	183.336
835.804	100.887
838.696	81.6035
841.589	196.58
844.482	120.582
847.375	131.815
850.267	15.1367
853.16	84.0488
856.053	155.131
858.945	21.5625
861.838	14.4102
864.731	128.451
867.623	238.412
870.516	78.8535
873.409	101.289
876.302	76.832
879.194	34.1758
882.087	79.4785
884.98	24.2617
887.872	72.4121
890.765	21.8965
893.658	28.5703
896.55	130.084
899.443	147.789
902.336	180.178
905.229	106.93
908.121	69.5801
911.014	1.29297
913.907	164.477
916.799	181.557
919.692	203.121
922.585	105.707
925.477	188.805
928.37	207.383
931.263	113.012
934.155	247.965
937.048	339.824
939.941	210.977
942.833	357.488
945.726	663.402
948.619	1097.66
951.512	2558.45
954.404	3921.7
957.297	6193.72
960.19	11182.5
963.082	22903.1
965.975	24307
968.868	7466.67
971.76	2275.27
974.653	897.266
977.546	665.66
980.439	318.512
983.331	291.258
986.224	85.4375
989.117	90.6562
992.009	0.875
994.902	51.9414
997.795	72.3398
1000.69	92.5742
1003.58	126.461
1006.47	28.3867
1009.37	46.5469
1012.26	117.387
1015.15	218.195
1018.04	56.8008
1020.94	178.176
1023.83	320.668
1026.72	449.414
1029.62	829.172
1032.51	1278.96
1035.4	733.965
1038.29	517.269
1041.18	312.211
1044.08	349.344
1046.97	531.598
1049.86	448.953
1052.76	497.012
1055.65	712.367
1058.54	716.629
1061.43	599.195
1064.33	333.215
1067.22	408.762
1070.11	267.144
1073.01	138.25
1075.9	214.871
1078.79	428.828
1081.68	416.07
1084.58	151.859
1087.47	15.5625
1090.36	4.71484
1093.25	18.4297
1096.15	53.6445
1099.04	52.0469
1101.93	88.6914
1104.83	71.2305
1107.72	139.633
1110.61	82.7891
1113.5	36.8477
1116.39	6.49609
1119.29	17.7383
1122.18	161.902
1125.07	189.926
1127.97	164.816
1130.86	144.574
1133.75	167.969
1136.64	146.609
1139.54	249.656
1142.43	114.309
1145.32	221.106
1148.21	109.246
1151.11	87.7188
1154	156.023
1156.89	258.297
1159.79	258.039
1162.68	115.957
1165.57	155.977
1168.46	55.5352
1171.36	103.441
1174.25	44.2266
1177.14	117.988
1180.04	15.0508
1182.93	86.5586
1185.82	132.84
1188.71	122.746
1191.61	83.168
1194.5	94.8984
1197.39	131.672
1200.28	123.891
1203.18	55.793
1206.07	173.66
1208.96	164.043
1211.85	175.981
1214.75	104.234
1217.64	55.0547
1220.53	131.977
1223.42	29.2148
1226.32	98.457
1229.21	52.0742
1232.1	98.3359
1235	79.6836
1237.89	99.5469
1240.78	226.668
1243.67	192.922
1246.57	118.379
1249.46	153.121
1252.35	234.066
1255.24	254.133
1258.14	124.672
1261.03	198.688
1263.92	56.6367
1266.82	111.863
1269.71	14.4648
1272.6	97.8047
1275.49	138.141
1278.39	192.746
1281.28	203.578
1284.17	197.035
1287.07	34.6758
1289.96	24.0938
