Measurement: Raman, 514 nm, unoriented, Raman Data Processed
Mineral: Fluor-uvite
Rruff sample: R050301
Ideal chemistry: CaMg_3_(Al_5_Mg)(Si_6_O_18_)(BO_3_)_3_(OH)_3_F
Locality: Brumado, Bahia, Brazil
Source: Eugene Schlepp
Description: Short prismatic green crystals
Measured chemistry: (Ca_0.68_Na_0.22_[box]_0.10_)(Mg_0.77_Al_0.16_Ti_0.03_[box]_0.04_)_3_(Mg_1.00_Al_5.00_)(BO_3_)_3_Si_6.00_O_18_((OH)_3_F)
Raman shift (cm-1)	intensity
52.866	0
57.065	388.435
61.262	217.185
65.458	11.566
69.651	10.808
73.842	24.769
78.031	35.165
82.218	199.852
86.404	3.752
90.587	351.681
94.768	245.995
98.947	575.073
103.124	745.484
107.3	1058.35
111.473	1260.33
115.644	1987.12
119.813	2598.45
123.981	4061
128.146	5303.72
132.309	5903.55
136.47	4841.35
140.63	4267.33
144.787	4315.8
148.942	4473.09
153.096	3976.21
157.247	2894.77
161.396	2129.72
165.544	1892.55
169.689	2497.64
173.833	2344.28
177.974	1246.11
182.114	1073.68
186.251	1360.96
190.387	2089.93
194.52	3742.59
198.652	6006.87
202.782	8595.76
206.909	12355.2
211.035	17055.2
215.159	15230.7
219.281	7898.58
223.4	4289.47
227.518	3153.34
231.634	4599.75
235.748	8108.08
239.86	11754.1
243.97	10121.2
248.079	5416.31
252.185	2191.47
256.289	864.128
260.391	488.515
264.492	632.875
268.59	1192.69
272.687	1643.93
276.781	1405.83
280.874	589.226
284.964	110.984
289.053	308.133
293.14	112.579
297.225	297.711
301.308	394.745
305.389	449.502
309.468	887.982
313.545	1984.19
317.62	3137.11
321.693	4541.75
325.765	5546.07
329.834	6276.07
333.902	6668.7
337.967	7066.62
342.031	7252.06
346.093	7582.09
350.153	7418.69
354.21	9024.82
358.267	12784.5
362.321	18801.6
366.373	26382.2
370.423	32948.3
374.471	32119.8
378.518	23246.7
382.563	14440
386.605	9017.97
390.646	5914.69
394.685	4146.18
398.722	2376.47
402.757	1718.5
406.79	1418.5
410.821	1223.63
414.851	1078.69
418.878	395.637
422.904	21.568
426.927	56.343
430.949	182.638
434.969	222.146
438.987	671.433
443.003	1108.28
447.018	1536.88
451.03	1760.86
455.041	1688.02
459.049	2061.14
463.056	2828.46
467.061	4485.97
471.064	7792.65
475.065	9798.48
479.064	9471.44
483.062	7759.52
487.057	6150.69
491.051	5523.93
495.043	5708.22
499.032	5961.56
503.02	5800.92
507.007	4735.28
510.991	4043.64
514.973	3895.96
518.954	4288.23
522.933	4896.43
526.91	4846.54
530.885	4939.54
534.858	4468.43
538.829	4187.17
542.799	4258.81
546.766	4290.48
550.732	4078.28
554.696	3483.32
558.658	2915.65
562.618	2026.25
566.576	1307.09
570.533	714.068
574.488	149.062
578.44	272.263
582.391	292.05
586.341	264.631
590.288	161.273
594.233	174.682
598.177	88.984
602.119	102.802
606.059	56.987
609.997	245.003
613.933	333.567
617.868	601.579
621.801	1060.01
625.731	2146.83
629.66	3102.03
633.588	2754.6
637.513	2372.51
641.437	2344.75
645.358	2256.31
649.278	1939.16
653.196	2350.3
657.113	2853.38
661.027	3411.35
664.94	3988.24
668.851	3807.34
672.76	3462.65
676.667	2960.14
680.572	2561.81
684.476	2644.65
688.378	3000.62
692.278	3788.73
696.176	5128.68
700.072	6774.63
703.967	8300.03
707.86	10827.9
711.751	14430.8
715.64	21824.5
719.527	29270.3
723.413	29493.3
727.297	25891.5
731.179	22319.2
735.059	17776.3
738.937	14337.7
742.814	13560.9
746.689	16025.4
750.562	19448.2
754.433	22097
758.303	22195.8
762.17	20008.9
766.036	16545.2
769.901	14597.7
773.763	13630.1
777.624	12754.4
781.482	11861.7
785.339	11481.9
789.195	11784.1
793.048	12531.2
796.9	11924.1
800.75	10884
804.598	10215.8
808.445	9153.45
812.289	8236.01
816.132	7435.44
819.973	6793.76
823.813	5764.94
827.65	4540.99
831.486	3424.9
835.32	2231.68
839.152	1396.3
842.983	587.773
846.812	287.091
850.639	142.233
854.464	74.95
858.288	98.836
862.11	122.671
865.93	204.625
869.748	126.853
873.564	149.311
877.379	166.933
881.192	45.573
885.004	14.189
888.813	44.765
892.621	134.899
896.427	145.637
900.232	184.649
904.034	231.216
907.835	449.382
911.634	537.051
915.432	667.034
919.227	988.023
923.021	1025.87
926.813	1099.57
930.604	1380.1
934.393	1536.47
938.18	1863.15
941.965	2127.74
945.749	2303.64
949.53	2880.37
953.311	3191.95
957.089	3723.37
960.866	4217.63
964.641	4405.73
968.414	4793.68
972.185	5134.47
975.955	5522.1
979.723	5907.58
983.49	6095.91
987.254	5489.08
991.017	5077.1
994.779	4651.97
998.538	4307.68
1002.3	3983.21
1006.05	3983.1
1009.81	4124.1
1013.56	4663.56
1017.31	5581.22
1021.06	6809.73
1024.81	8489.61
1028.55	10108.1
1032.3	12101.2
1036.04	14146.9
1039.78	15889.9
1043.52	16759.7
1047.26	17065
1050.99	16893.7
1054.73	16723.5
1058.46	17310.1
1062.19	18659.7
1065.92	20564.4
1069.65	21550.8
1073.37	21381.6
1077.1	19523.9
1080.82	16900.2
1084.54	13931.3
1088.26	11014.4
1091.97	8630.35
1095.69	6966.2
1099.4	5626.96
1103.12	4694.61
1106.83	3925.17
1110.54	3504.63
1114.24	3054
1117.95	3139.27
1121.65	3296.77
1125.35	3225.53
1129.06	3014.53
1132.75	2889.44
1136.45	2537.27
1140.15	1564.03
1143.84	975.73
1147.53	622.396
1151.22	472.091
1154.91	250.029
1158.6	142.293
1162.28	133.99
1165.97	108.129
1169.65	54.715
1173.33	28.752
1177.01	5.122
1180.69	78.356
1184.36	14.03
1188.04	120.754
1191.71	143.027
1195.38	86.891
1199.05	70.472
1202.71	1.664
1206.38	6.578
1210.04	51.526
1213.71	94.003
1217.37	97.351
1221.03	307.537
1224.68	334.56
1228.34	397.403
1231.99	473.058
1235.65	590.514
1239.3	724.756
1242.95	859.144
1246.59	818.88
1250.24	842.806
1253.88	881.638
1257.53	833.371
1261.17	920.007
1264.81	844.538
1268.45	948.017
1272.08	947.82
1275.72	992.1
1279.35	977.018
1282.98	943.213
1286.61	863.098
1290.24	823.257
1293.87	892.025
1297.49	871.671
1301.11	823.262
1304.73	754.515
1308.36	755.317
1311.97	710.822
1315.59	716.992
1319.2	695.948
1322.82	682.706
1326.43	693.95
1330.04	630.569
1333.65	494.304
1337.26	375.189
1340.86	494.733
1344.47	434.364
1348.07	434.13
1351.67	464.396
1355.27	422.159
1358.87	515.496
1362.46	494.665
1366.06	542.825
1369.65	647.363
1373.24	620.961
1376.83	510.725
1380.42	584.07
1384	519.895
1387.59	568.71
1391.17	539.277
1394.75	455.587
1398.33	371.628
1401.91	372.38
1405.49	344.791
1409.06	253.775
1412.64	221.971
1416.21	110.048
1419.78	129.451
1423.35	64.358
1426.91	65.7
1430.48	26.037
1434.05	9.044
1437.61	117.516
1441.17	8.943
1444.73	68.793
1448.29	10.098
1451.84	105.511
1455.4	84.822
1458.95	143.762
1462.5	92.609
1466.05	128.024
1469.6	50.462
1473.15	93.941
1476.69	75.062
1480.24	77.189
1483.78	55.715
1487.32	119.883
1490.86	152.162
1494.39	157.221
1497.93	127.544
1501.46	117.589
1505	3.707
1508.53	131.97
1512.06	195.788
1515.59	97.932
1519.11	81.973
1522.64	164.465
