Measurement: Raman, 532 nm, unoriented, Raman Data Processed
Mineral: Fluorophlogopite
Rruff sample: R040039
Ideal chemistry: KMg_3_(Si_3_Al)O_10_F_2_
Locality: Franklin, Sussex County, New Jersey, USA
Source: University of Arizona Mineral Museum
Description: Brown hexagonal sheets
Measured chemistry: (K_0.92_Na_0.06_[box]_0.02_)_Σ=1_(Mg_2.94_Fe_0.04_Ti_0.02_)_Σ=3_(Si_2.98_Al_1.02_)O_10_(F_1.24_(OH)_0.76_)_Σ=2_; OH estimated by charge balance
Raman shift (cm-1)	intensity
164.913	0
167.805	9.92383
170.698	168.48
173.591	535.364
176.483	1366.51
179.376	2783.57
182.269	5292.31
185.162	9383.46
188.054	15743.8
190.947	23571.8
193.84	30585
196.732	29244.5
199.625	18422.1
202.518	9532.92
205.411	5201.4
208.303	3109.23
211.196	2002.35
214.089	1468.27
216.981	1132.77
219.874	754.235
222.767	359.516
225.659	203.31
228.552	134.237
231.445	99.3232
234.338	19.1641
237.23	24.7959
240.123	65.9912
243.016	48.5879
245.908	25.6797
248.801	51.751
251.694	77.1328
254.587	15.2617
257.479	159.901
260.372	476.813
263.265	875.732
266.157	1491.79
269.05	2413.33
271.943	3794.46
274.835	5109.01
277.728	5865.12
280.621	4285.4
283.514	2447.57
286.406	1472.08
289.299	1041.51
292.192	701.501
295.084	518.617
297.977	617.564
300.87	1071.54
303.762	1514.84
306.655	1997.21
309.548	2649.81
312.44	3251.97
315.333	3479.26
318.226	3440.61
321.119	3305.91
324.011	2930.41
326.904	2224.94
329.797	1553.58
332.689	992.857
335.582	632.002
338.475	410.876
341.368	197.001
344.26	212.96
347.153	96.1484
350.046	248.028
352.938	277.651
355.831	407.329
358.724	519.825
361.616	697.63
364.509	595.085
367.402	535.894
370.295	493.986
373.187	333.166
376.08	246.141
378.973	154.836
381.865	14.5078
384.758	52.8935
387.651	68.3144
390.543	31.3154
393.436	6.56445
396.329	57.959
399.222	48.9053
402.114	4.72656
405.007	86.4238
407.9	8.86719
410.792	26.2383
413.685	89.3359
416.578	116.326
419.471	137.075
422.363	161.189
425.256	206.669
428.149	96.1621
431.041	230.493
433.934	191.088
436.827	198.992
439.719	316.803
442.612	304.813
445.505	419.498
448.397	387.662
451.29	454.551
454.183	408.241
457.076	362.589
459.968	227.001
462.861	172.667
465.754	162.207
468.646	123.89
471.539	185.302
474.432	99.4023
477.325	51.1445
480.217	19.7217
483.11	79.8379
486.003	185.001
488.895	107.693
491.788	150.962
494.681	2.16504
497.573	110.173
500.466	128.95
503.359	171.296
506.252	283.575
509.144	266.621
512.037	292.057
514.93	274.059
517.822	244.508
520.715	224.223
523.608	234.781
526.5	193.978
529.393	209.342
532.286	148.494
535.178	158.951
538.071	39.8457
540.964	140.363
543.857	205.217
546.749	82.0566
549.642	86.0098
552.535	131.897
555.427	66.0606
558.32	45.5996
561.213	11.7012
564.106	136.065
566.998	55.2695
569.891	198.418
572.784	49.918
575.676	14.4336
578.569	31.4082
581.462	1.25391
584.355	15.8477
587.247	3.26367
590.14	43.9102
593.033	83.2695
595.925	94.957
598.818	169.863
601.711	260.32
604.603	371.92
607.496	565.002
610.389	763.391
613.282	893.791
616.174	1079.89
619.067	1381.23
621.96	1735.32
624.852	2122.23
627.745	2686.78
630.638	2900.81
633.53	2966.22
636.423	2841.31
639.316	2495.75
642.208	2117.56
645.101	1914.96
647.994	1772.3
650.887	1808.12
653.779	1732.6
656.672	1908.2
659.565	2205.48
662.457	2678.02
665.35	3446.79
668.243	4599.18
671.135	6081.72
674.028	7923.33
676.921	9878.27
679.814	11452.4
682.706	11413.1
685.599	9853.18
688.492	7798.36
691.385	5713.77
694.277	3914.15
697.17	2442.48
700.063	1467.05
702.955	850.129
705.848	470.068
708.741	133.394
711.633	44.0391
714.526	44.4238
717.419	55.5098
720.312	85.1934
723.204	14.3691
726.097	21.5312
728.99	159.863
731.882	77.0762
734.775	35.6133
737.668	16.7246
740.56	4.63086
743.453	35.877
746.346	190.426
749.239	172.664
752.131	6.81641
755.024	60.2871
757.917	115.994
760.809	8.38281
763.702	51.0859
766.595	126.232
769.487	251.148
772.38	206.266
775.273	205.607
778.165	201.156
781.058	198.715
783.951	382.945
786.844	397.529
789.736	367.053
792.629	467.018
795.522	495.141
798.414	525.24
801.307	549.137
804.2	512.238
807.092	544.162
809.985	756.373
812.878	759.072
815.771	1018.38
818.663	1350.68
821.556	1496.91
824.449	1618.78
827.341	1629.99
830.234	1567.06
833.127	1427.51
836.019	1292.31
838.912	1377.08
841.805	1253.81
844.698	1089.16
847.59	889.248
850.483	717.535
853.376	617.383
856.268	589.951
859.161	701.566
862.054	534.922
864.947	420.344
867.839	365.08
870.732	332.99
873.625	301.307
876.517	343.617
879.41	267.394
882.303	251.484
885.195	363.994
888.088	214.891
890.981	342.111
893.874	437.312
896.766	433.076
899.659	295.315
902.552	206.1
905.444	187.609
908.337	184.926
911.23	162.086
914.122	209.135
917.015	109.148
919.908	142.664
922.801	192.697
925.693	223.467
928.586	218.035
931.479	155.141
934.371	78.2129
937.264	140.184
940.157	0.490234
943.049	48.5625
945.942	41.6367
948.835	44.668
951.728	21.4785
954.62	79.7012
957.513	22.3066
960.406	4.42773
963.298	25.8203
966.191	30.6953
969.084	61.1172
971.976	16.8477
974.869	53.5215
977.762	28.3086
980.655	131.477
983.547	207.125
986.44	45.8848
989.333	127.119
992.225	115.305
995.118	192.861
998.011	318.832
1000.9	489.924
1003.8	604.123
1006.69	621.578
1009.58	732.428
1012.47	783.99
1015.37	949.762
1018.26	1023.87
1021.15	1432.94
1024.05	2422.05
1026.94	3601.74
1029.83	5358.69
1032.72	6761.44
1035.62	6730.99
1038.51	5009.19
1041.4	3481.99
1044.29	2126.55
1047.19	1587.06
1050.08	1068.22
1052.97	989.168
1055.87	838.016
1058.76	643.006
1061.65	387.68
1064.54	298.688
1067.44	204.81
1070.33	80.3106
1073.22	28.6719
1076.11	8.83203
1079.01	90.2148
1081.9	67.3359
1084.79	152.664
1087.68	189.549
1090.58	155.016
1093.47	131.578
1096.36	352.685
1099.26	286.312
1102.15	295.938
1105.04	316.082
1107.93	338.609
1110.83	105.607
1113.72	137.4
1116.61	181.938
1119.5	8.35938
1122.4	50.3457
1125.29	171.963
1128.18	204.023
1131.08	274.853
1133.97	165.121
1136.86	221.848
1139.75	102.986
1142.65	164.836
1145.54	44.5957
1148.43	155.699
1151.32	245.426
1154.22	290.547
1157.11	282.809
1160	317.359
1162.89	136.916
1165.79	186.412
1168.68	187.088
1171.57	160.873
1174.47	310.725
1177.36	235.379
1180.25	288.283
1183.14	306.178
1186.04	209.682
1188.93	223.853
1191.82	74.5606
1194.71	113.408
1197.61	10.5586
1200.5	59.6777
1203.39	7.41406
1206.29	58.4473
1209.18	246.797
1212.07	133.19
1214.96	171.609
1217.86	67.3496
1220.75	65.4434
1223.64	106.398
1226.53	41.9844
1229.43	50.9238
1232.32	48.5527
1235.21	260.031
1238.11	80.5606
1241	109.414
1243.89	19.1348
1246.78	98.6152
1249.68	189.672
1252.57	152.045
1255.46	77.7519
1258.35	194.381
1261.25	144.131
1264.14	58.9004
1267.03	26.1387
1269.92	266.756
1272.82	372.697
1275.71	383.684
1278.6	334.93
1281.5	74.7695
1284.39	205.938
1287.28	68.0625
1290.17	107.404
1293.07	36.9258
