Measurement: Raman, 785 nm, unoriented, Raman Data Processed
Mineral: Fluorophlogopite
Rruff sample: R040039
Ideal chemistry: KMg_3_(Si_3_Al)O_10_F_2_
Locality: Franklin, Sussex County, New Jersey, USA
Source: University of Arizona Mineral Museum
Description: Brown hexagonal sheets
Measured chemistry: (K_0.92_Na_0.06_[box]_0.02_)_Σ=1_(Mg_2.94_Fe_0.04_Ti_0.02_)_Σ=3_(Si_2.98_Al_1.02_)O_10_(F_1.24_(OH)_0.76_)_Σ=2_; OH estimated by charge balance
Raman shift (cm-1)	intensity
163.472	0
166.365	52.1128
169.258	298.097
172.15	350.095
175.043	546.662
177.936	733.367
180.828	1240.22
183.721	2338.52
186.614	4192.95
189.507	7263.17
192.399	11038.4
195.292	13135.6
198.185	10471.1
201.077	5959.01
203.97	3263.23
206.863	2102.76
209.756	1463.34
212.648	1165.32
215.541	1301.18
218.434	1085.3
221.326	632.305
224.219	341.313
227.112	229.371
230.004	166.132
232.897	63.7022
235.79	51.3705
238.683	52.7089
241.575	18.6977
244.468	-6.35905
247.361	28.3568
250.253	23.2626
253.146	34.9362
256.039	93.1447
258.931	222.092
261.824	507.932
264.717	978.282
267.61	1756.02
270.502	2985.61
273.395	4665.83
276.288	6354.75
279.18	5989.18
282.073	3704.09
284.966	2125.91
287.858	1267.24
290.751	879.773
293.644	630.019
296.536	504.264
299.429	594.469
302.322	843.677
305.215	1285.57
308.107	2011.06
311	2714.75
313.893	3408.4
316.785	3958.7
319.678	4334.31
322.571	4378.05
325.464	3827.48
328.356	2913.01
331.249	2251.68
334.142	1444.45
337.034	978.205
339.927	670.679
342.82	453.511
345.712	470.591
348.605	487.586
351.498	626.911
354.39	922.72
357.283	1192.97
360.176	1314.99
363.069	1477.35
365.961	1483.95
368.854	1437.62
371.747	1245.6
374.639	857.782
377.532	521.287
380.425	383.069
383.317	263.22
386.21	32.8765
389.103	96.21
391.996	81.5112
394.888	62.1108
397.781	85.9326
400.674	19.2788
403.566	53.5625
406.459	30.8213
409.352	23.6729
412.245	86.6103
415.137	47.727
418.03	27.7466
420.923	26.9336
423.815	71.8403
426.708	134.065
429.601	226.24
432.493	269.582
435.386	368.233
438.279	441
441.171	476.725
444.064	608.763
446.957	722.622
449.85	782.115
452.742	878.444
455.635	743.381
458.528	604.375
461.42	521.961
464.313	459.556
467.206	341.215
470.098	158.455
472.991	62.2285
475.884	8.16455
478.777	4.56152
481.669	93.9653
484.562	68.2246
487.455	130.087
490.347	176.964
493.24	270.148
496.133	329.337
499.026	338.221
501.918	391.863
504.811	421.578
507.704	536.495
510.596	610.442
513.489	618.896
516.382	504.956
519.274	329.309
522.167	331.207
525.06	324.614
527.952	273.437
530.845	175.304
533.738	183.718
536.631	195.223
539.523	189.328
542.416	163.173
545.309	165.043
548.201	102.08
551.094	124.415
553.987	123.594
556.88	112.407
559.772	104.547
562.665	98.4648
565.558	75.6445
568.45	20.5064
571.343	19.0537
574.236	1.93506
577.128	26.8931
580.021	3.43359
582.914	6.63379
585.807	68.8379
588.699	21.2607
591.592	11.2017
594.485	20.3447
597.377	8.0874
600.27	13.624
603.163	104.071
606.055	42.0737
608.948	151.41
611.841	240.944
614.734	277.214
617.626	411.327
620.519	531.827
623.412	740.297
626.304	956.375
629.197	1194.92
632.09	1513.59
634.982	1641.31
637.875	1743.01
640.768	1724.16
643.66	1585.21
646.553	1644.25
649.446	1679.03
652.339	1732.03
655.231	1910.93
658.124	2187.26
661.017	2521.54
663.909	3020.4
666.802	3797.15
669.695	4972.88
672.587	6495.67
675.48	8753.19
678.373	10922
681.266	11995.5
684.158	11291.3
687.051	9648.44
689.944	7503.96
692.836	5433.06
695.729	3717.08
698.622	2484.2
701.514	1562.69
704.407	1440.56
707.3	564.065
710.193	410.856
713.085	293.223
715.978	155.807
718.871	55.7925
721.763	46.6504
724.656	40.0015
727.549	7.42041
730.442	12.4312
733.334	40.5073
736.227	47.46
739.12	64.4902
742.012	53.6343
744.905	2.18603
747.798	62.4819
750.69	42.1196
753.583	1.9043
756.476	18.8477
759.369	36.9756
762.261	8.61694
765.154	51.6668
768.047	0.562256
770.939	25.3013
773.832	104.252
776.725	172.674
779.617	233.609
782.51	300.03
785.403	355.819
788.295	411.915
791.188	450.978
794.081	501.086
796.974	415.065
799.866	361.048
802.759	337.264
805.652	282.43
808.544	313.269
811.437	244.84
814.33	233.547
817.222	190.385
820.115	167.19
823.008	92.0029
825.901	92.2383
828.793	75.2861
831.686	16.667
834.579	38.2322
837.471	23.7546
840.364	12.4006
843.257	57.9382
846.149	29.5991
849.042	43.7251
851.935	2.50781
854.827	37.5772
857.72	12.6277
860.613	31.1609
863.506	23.0107
866.398	60.7275
869.291	43.8972
872.184	37.5706
875.076	11.3779
877.969	45.9815
880.862	91.217
883.755	75.1328
886.647	68.8821
889.54	87.114
892.433	116.701
895.325	147.528
898.218	101.475
901.111	142.866
904.003	116.042
906.896	136.181
909.789	113.163
912.682	92.1958
915.574	76.1072
918.467	96.8237
921.36	64.2729
924.252	68.4241
927.145	76.583
930.038	0.540527
932.93	80.0952
935.823	48.457
938.716	37.3848
941.609	10.4028
944.501	3.74268
947.394	45.4573
950.287	50.387
953.179	1.19238
956.072	16.8865
958.965	4.80689
961.857	27.3755
964.75	35.377
967.643	35.4199
970.535	67.8887
973.428	116.518
976.321	139.472
979.214	215.082
982.106	254.557
984.999	199.755
987.892	219.255
990.784	209.005
993.677	243.149
996.57	302.248
999.462	395.754
1002.36	475.354
1005.25	605.153
1008.14	535.194
1011.03	578.998
1013.93	460.337
1016.82	336.977
1019.71	164.474
1022.6	156.848
1025.5	216.268
1028.39	435.659
1031.28	696.38
1034.17	798.784
1037.07	717.386
1039.96	476.632
1042.85	322.816
1045.75	182.625
1048.64	124.685
1051.53	147.748
1054.42	85.8669
1057.32	136.469
1060.21	130.651
1063.1	119.46
1065.99	164.239
1068.89	197.192
1071.78	235.458
1074.67	269.378
1077.57	413.687
1080.46	494.151
1083.35	687.514
1086.24	855.416
1089.14	802.859
1092.03	888.599
1094.92	921.389
1097.81	909.252
1100.71	901.453
1103.6	810.845
1106.49	651.337
1109.38	512.903
1112.28	398.404
1115.17	261.981
1118.06	193.261
1120.96	59.772
1123.85	71.082
1126.74	36.2681
1129.63	13.3279
1132.53	50.8103
1135.42	41.083
1138.31	3.67822
1141.2	2.50806
1144.1	16.9678
1146.99	11.9748
1149.88	2.84497
1152.78	17.4944
1155.67	19.0169
1158.56	65.5374
1161.45	28.5254
1164.35	75.1636
1167.24	56.8293
1170.13	24.0102
1173.03	25.0645
1175.92	55.4714
1178.81	53.9219
1181.7	53.6982
1184.6	119.719
1187.49	64.9446
1190.38	31.6396
1193.27	72.1509
1196.17	92.3203
1199.06	40.563
1201.95	29.291
1204.84	47.3533
1207.74	49.9275
1210.63	44.0156
1213.52	46.116
1216.41	82.4382
1219.31	66.3503
1222.2	89.7625
1225.09	34.9851
1227.99	73.4929
1230.88	49.0984
1233.77	28.7297
1236.66	19.5696
1239.56	28.1977
1242.45	24.7568
1245.34	70.7327
1248.23	29.47
1251.13	69.6616
1254.02	43.8745
1256.91	32.5134
1259.81	44.6367
1262.7	29.0127
1265.59	40.6301
