Measurement: Raman, 780 nm, unoriented, Raman Data Processed
Mineral: Fluorapatite
Rruff sample: R050529
Ideal chemistry: Ca_5_(PO_4_)_3_F
Locality: Limburg de an Lahn, Germany
Source: University of Arizona Mineral Museum
Description: Botryoidal aggregate
Measured chemistry: (Ca_4.68_[box]_0.32_)_Σ=5_((PO_4_)_2.36_(CO_3_)_0.64_)_Σ=3_F_1.00_
Raman shift (cm-1)	intensity
150.231	0
153.124	0.857697
156.016	0.189682
158.909	3.36839
161.802	3.66183
164.694	6.46933
167.587	7.48369
170.48	9.05902
173.373	11.5578
176.265	11.8883
179.158	12.2525
182.051	9.37808
184.943	7.1786
187.836	2.24944
190.729	0.366219
193.621	1.2164
196.514	2.31109
199.407	0.463257
202.299	3.2517
205.192	5.76088
208.085	9.40808
210.978	11.028
213.87	11.1539
216.763	11.1066
219.656	11.8292
222.548	14.2021
225.441	17.3181
228.334	20.7219
231.226	23.9199
234.119	24.9013
237.012	24.2453
239.905	23.9272
242.797	21.5824
245.69	20.8806
248.583	19.9462
251.475	21.3916
254.368	22.5132
257.261	24.0446
260.154	27.8377
263.046	32.1497
265.939	34.583
268.832	38.2929
271.724	40.269
274.617	40.9455
277.51	40.4313
280.402	39.5225
283.295	38.7476
286.188	38.5155
289.08	35.6653
291.973	33.9524
294.866	32.0184
297.759	28.7182
300.651	29.0102
303.544	27.3529
306.437	27.738
309.329	27.9428
312.222	27.2395
315.115	25.1214
318.007	22.2273
320.9	17.4988
323.793	12.2977
326.686	8.15099
329.578	5.97134
332.471	3.66607
335.364	1.72952
338.256	1.30886
341.149	0.43335
344.042	0.608047
346.935	0.207863
349.827	0.785278
352.72	0.692131
355.613	0.693954
358.505	0.028412
361.398	0.869484
364.291	0.952499
367.183	0.286873
370.076	0.517006
372.969	0.810532
375.861	0.995224
378.754	2.60147
381.647	3.71488
384.54	5.52187
387.432	5.61314
390.325	5.96589
393.218	7.66414
396.11	9.43759
399.003	9.99929
401.896	12.2077
404.788	14.8171
407.681	19.1791
410.574	26.4741
413.467	36.5297
416.359	48.3339
419.252	64.8135
422.145	88.9551
425.037	124.316
427.93	165.617
430.823	186.676
433.716	172.182
436.608	142.612
439.501	122.537
442.394	113.441
445.286	111.958
448.179	104.458
451.072	91.9617
453.964	75.617
456.857	57.9368
459.75	44.8583
462.642	34.7557
465.535	26.778
468.428	20.3402
471.321	16.3102
474.213	11.9289
477.106	8.68717
479.999	6.69483
482.891	4.8244
485.784	3.45145
488.677	3.21273
491.57	1.45334
494.462	1.51841
497.355	0.466499
500.248	0.850952
503.14	0.047012
506.033	0.364014
508.926	0.029972
511.818	0.098362
514.711	0.034714
517.604	0.947308
520.496	0.811466
523.389	0.202568
526.282	0.125027
529.175	0.312798
532.067	0.015579
534.96	0.444897
537.853	0.199364
540.745	0.885452
543.638	2.02389
546.531	2.88097
549.423	3.56648
552.316	5.17784
555.209	6.75774
558.102	9.32497
560.994	13.5434
563.887	19.0237
566.78	28.1849
569.672	36.6628
572.565	49.9039
575.458	72.0353
578.351	102.825
581.243	124.288
584.136	102.924
587.029	97.0016
589.921	109.925
592.814	100.697
595.707	74.9101
598.599	49.2893
601.492	44.4473
604.385	38.7573
607.278	30.7805
610.17	25.9732
613.063	20.6839
615.956	15.9851
618.848	11.132
621.741	8.02241
624.634	4.41923
627.526	2.54428
630.419	1.71018
633.312	1.20635
636.205	1.03566
639.097	2.68703
641.99	1.80248
644.883	0.11293
647.775	0.471451
650.668	0.5737
653.561	0.165604
656.453	0.305267
659.346	0.022938
662.239	0.10096
665.131	0.049076
668.024	0.296604
670.917	0.193153
673.81	0.634964
676.702	1.42717
679.595	2.2233
682.488	2.19128
685.38	4.58993
688.273	6.49772
691.166	7.13021
694.058	5.01219
696.951	3.17839
699.844	2.34144
702.737	2.68492
705.629	3.08902
708.522	4.14765
711.415	5.24674
714.307	5.19942
717.2	4.82693
720.093	4.00084
722.986	3.03645
725.878	1.64883
728.771	1.99244
731.664	1.25269
734.556	1.44262
737.449	0.906708
740.342	0.314995
743.234	0.471199
746.127	0.62595
749.02	0.771294
751.913	0.431755
754.805	0.470566
757.698	0.05508
760.591	0.004932
763.483	0.414257
766.376	0.253189
769.269	0.312515
772.161	0.040462
775.054	0.165531
777.947	0.081203
780.84	0.397499
783.732	0.066303
786.625	0.330399
789.518	0.725037
792.41	0.30093
795.303	0.917324
798.196	1.80518
801.088	2.15089
803.981	2.80287
806.874	3.26763
809.766	3.37517
812.659	1.76617
815.552	1.93657
818.445	1.78203
821.337	2.86491
824.23	2.44973
827.123	2.43479
830.015	1.38136
832.908	2.28497
835.801	1.5496
838.693	2.20654
841.586	1.8657
844.479	2.14209
847.372	1.06226
850.264	1.41804
853.157	1.94473
856.05	1.90556
858.942	1.57269
861.835	2.16108
864.728	3.54457
867.62	3.30408
870.513	2.47508
873.406	0.758755
876.299	0.692394
879.191	0.625607
882.084	0.051834
884.977	0.472099
887.869	0.117912
890.762	0.384739
893.655	0.314465
896.548	0.228592
899.44	0.243443
902.333	0.131721
905.226	0.418644
908.118	0.221439
911.011	0.273659
913.904	1.5183
916.796	1.30226
919.689	2.49766
922.582	2.57667
925.474	3.26335
928.367	4.99344
931.26	7.24654
934.153	11.5154
937.045	18.3543
939.938	29.3421
942.831	47.4574
945.723	79.7079
948.616	138.248
951.509	232.254
954.401	362.312
957.294	560.209
960.187	868.24
963.08	1219
965.972	1259.65
968.865	736.69
971.758	334.065
974.65	136.683
977.543	55.2757
980.436	25.6517
983.328	13.0462
986.221	6.24876
989.114	1.84817
992.006	0.841106
994.899	0.564117
997.792	0.44643
1000.68	0.136471
1003.58	0.798206
1006.47	1.01908
1009.36	1.63791
1012.25	3.02585
1015.15	5.06827
1018.04	6.66161
1020.93	11.159
1023.83	17.3967
1026.72	25.2928
1029.61	35.4921
1032.5	46.6763
1035.4	54.7587
1038.29	59.5401
1041.18	63.0054
1044.08	62.927
1046.97	62.2514
1049.86	69.8895
1052.75	79.5296
1055.65	77.006
1058.54	70.4071
1061.43	71.0548
1064.32	78.6812
1067.22	99.0088
1070.11	135.459
1073	148.905
1075.89	123.883
1078.79	91.2768
1081.68	62.0008
1084.57	37.1525
1087.47	24.1777
1090.36	14.8661
1093.25	13.2219
1096.14	6.79054
1099.04	4.20252
1101.93	3.34028
1104.82	2.78976
1107.71	2.64826
1110.61	2.46576
1113.5	1.89604
1116.39	1.57497
1119.29	0.126732
1122.18	0.241043
1125.07	0.645172
1127.96	0.372681
1130.86	0.673977
1133.75	0.397472
1136.64	0.235714
1139.53	0.875401
1142.43	0.213566
1145.32	0.432735
1148.21	0.550926
1151.11	0.940708
1154	0.838779
1156.89	0.757645
1159.78	1.04019
1162.68	1.58827
1165.57	0.865486
1168.46	1.60659
1171.35	1.28079
1174.25	1.36281
1177.14	1.4631
1180.03	1.1699
1182.92	1.42466
1185.82	2.46899
1188.71	2.02519
1191.6	0.708717
1194.49	0.448391
1197.39	0.460583
1200.28	0.653622
1203.17	0.254688
1206.07	0.618156
1208.96	0.616917
1211.85	0.900318
1214.74	1.90503
1217.64	1.87443
1220.53	2.66645
1223.42	2.41702
1226.32	2.44828
1229.21	2.44509
1232.1	1.65873
1234.99	0.630981
1237.89	2.04117
1240.78	1.18088
1243.67	1.10444
1246.56	0.017933
1249.46	0.414703
1252.35	0.178516
1255.24	0.201412
1258.13	0.301998
1261.03	0.295509
1263.92	0.425968
1266.81	0.031883
1269.71	0.882084
1272.6	0.253731
1275.49	0.864521
1278.38	1.22392
1281.28	3.64172
1284.17	0.634991
