Measurement: Raman, 532 nm, unoriented, Raman Data Processed
Mineral: Fluoro-potassic-magnesio-arfvedsonite
Rruff sample: R060915
Ideal chemistry: KNa_2_(Mg_4_Fe^3+^)Si_8_O_22_F_2_
Locality: Kipawa, Quebec, Canada
Source: Royal Ontario Museum
Description: Dark blue-green amphibole with pronounced cleavage, associated with white albite and red eudialyte
Measured chemistry: (K_0.44_Na_0.41_[box]_0.15_)_Σ=1_(Na_1.79_Ca_0.21_)_Σ=2_(Mg_3.10_Fe^3+^_0.82_Fe^2+^_0.54_Ca_0.27_Mn_0.15_Al_0.11_Ti_0.01_)_Σ=5_Si_8.00_O_22_(F_1.52_(OH)_0.48_)_Σ=2_
Raman shift (cm-1)	intensity
152.861	0
155.753	13.9331
158.646	13.1885
161.539	5.5105
164.431	168.186
167.324	318.212
170.217	468.752
173.109	498.954
176.002	452.313
178.895	308.502
181.788	256.059
184.68	212.871
187.573	247.383
190.466	431.144
193.358	587.273
196.251	805.864
199.144	945.455
202.036	1115.94
204.929	1207.42
207.822	1299.84
210.714	1413.56
213.607	1430.32
216.5	1572.43
219.393	1726.24
222.285	1807.82
225.178	1765.28
228.071	1762.05
230.963	1681.16
233.856	1513.05
236.749	1385.34
239.642	1139.63
242.534	949.635
245.427	791.936
248.32	673.371
251.212	570.156
254.105	453.515
256.998	344.398
259.89	318.322
262.783	168.355
265.676	151.397
268.568	69.1653
271.461	10.8374
274.354	40.5002
277.247	23.1257
280.139	79.029
283.032	42.9224
285.925	13.5247
288.817	41.5583
291.71	96.8188
294.603	160.653
297.495	289.844
300.388	377.284
303.281	464.799
306.174	524.676
309.066	615.472
311.959	593.426
314.852	561.061
317.744	475.01
320.637	485.979
323.53	481.875
326.422	506.754
329.315	443.613
332.208	402.413
335.101	346.717
337.993	293.22
340.886	284.726
343.779	346.887
346.671	362.939
349.564	444.922
352.457	565.327
355.349	704.082
358.242	810.269
361.135	901.254
364.027	972.076
366.92	917.419
369.813	874.074
372.706	773.787
375.598	773.112
378.491	709.125
381.384	605.395
384.276	589.195
387.169	568.09
390.062	595.815
392.954	557.176
395.847	546.712
398.74	572.069
401.633	489.723
404.525	513.709
407.418	484.666
410.311	510.887
413.203	513.974
416.096	609.928
418.989	668.659
421.881	624.16
424.774	612.122
427.667	411.41
430.56	270.738
433.452	132.778
436.345	70.3154
439.238	16.8171
442.13	0.798096
445.023	27.5483
447.916	68.9761
450.808	57.3125
453.701	33.7068
456.594	18.5615
459.486	49.0464
462.379	40.3701
465.272	59.6748
468.165	57.8547
471.057	76.0928
473.95	58.9648
476.843	63.8076
479.735	88.7371
482.628	115.407
485.521	141.561
488.413	88.543
491.306	64.814
494.199	169.752
497.092	201.953
499.984	241.94
502.877	312.415
505.77	366.976
508.662	385.135
511.555	472.047
514.448	488.084
517.341	556.73
520.233	603.833
523.126	592.877
526.019	671.093
528.911	712.26
531.804	793.497
534.697	795.135
537.589	949.148
540.482	1002.17
543.375	1033.73
546.268	1023.4
549.16	1023.17
552.053	946.208
554.946	911.885
557.838	858.12
560.731	745.082
563.624	690.249
566.516	663.133
569.409	618.366
572.302	605.165
575.194	617.89
578.087	566.432
580.98	535.777
583.872	487.171
586.765	361.89
589.658	248.565
592.551	140.478
595.443	63.6279
598.336	9.94019
601.229	16.3328
604.121	25.7085
607.014	21.2983
609.907	31.106
612.799	1.95093
615.692	16.002
618.585	1.11987
621.477	20.3608
624.37	25.3262
627.263	15.0952
630.156	57.6182
633.048	35.6968
635.941	49.0664
638.834	72.1606
641.726	128.729
644.619	143.42
647.512	205.182
650.404	265.415
653.297	356.56
656.19	413.497
659.083	578.059
661.975	756.523
664.868	1040.27
667.761	1526.92
670.653	2203.19
673.546	3205.5
676.439	4552.05
679.332	6412.18
682.224	8252.73
685.117	8473.45
688.01	6317.59
690.902	3781.95
693.795	2265.22
696.688	1404.46
699.58	961.686
702.473	678.403
705.366	451.229
708.259	345.352
711.151	274.06
714.044	251.268
716.937	225.536
719.829	206.361
722.722	237.207
725.615	187.307
728.507	191.775
731.4	193.682
734.293	252.83
737.185	253.047
740.078	291.738
742.971	234.922
745.864	214.415
748.756	125.632
751.649	77.9402
754.542	76.0374
757.434	104.405
760.327	41.6855
763.22	83.6802
766.112	17.1773
769.005	26.262
771.898	14.8291
774.79	0.134766
777.683	25.4748
780.576	28.5447
783.469	0.016113
786.361	0.080078
789.254	61.3708
792.147	39.0598
795.039	58.7502
797.932	46.8723
800.825	45.6143
803.717	39.3884
806.61	71.2434
809.503	62.8792
812.396	59.9294
815.288	41.7544
818.181	110.179
821.074	72.4592
823.966	71.4312
826.859	67.2559
829.752	85.8655
832.644	74.5933
835.537	36.9438
838.43	11.9209
841.323	55.4304
844.215	28.2639
847.108	24.9416
850.001	33.7703
852.893	14.4929
855.786	6.07056
858.679	17.3096
861.571	6.16846
864.464	14.8176
867.357	15.0889
870.25	43.1882
873.142	64.2454
876.035	79.4734
878.928	95.1128
881.82	149.875
884.713	176.795
887.606	204.213
890.498	284.881
893.391	319.02
896.284	388.926
899.177	395.044
902.069	432.279
904.962	400.536
907.855	517.591
910.747	388.609
913.64	393.718
916.533	332.915
919.425	316.418
922.318	387.606
925.211	409.522
928.104	325.812
930.996	366.091
933.889	319.971
936.782	297.189
939.674	254.864
942.567	264.019
945.46	239.86
948.352	239.932
951.245	227.941
954.138	251.063
957.03	286.089
959.923	236.39
962.816	235.319
965.709	421.885
968.601	430.621
971.494	585.068
974.387	656.593
977.279	740.713
980.172	780.456
983.065	785.515
985.957	733.296
988.85	622.699
991.743	504.829
994.635	393.761
997.528	342.385
1000.42	269.883
1003.31	178.282
1006.21	174.542
1009.1	126.602
1011.99	113.43
1014.88	43.221
1017.78	8.35693
1020.67	54.6435
1023.56	12.1951
1026.45	19.0469
1029.35	13.8828
1032.24	44.9673
1035.13	8.2002
1038.03	70.0471
1040.92	93.5029
1043.81	101.384
1046.7	99.4985
1049.6	156.782
1052.49	212.925
1055.38	271.017
1058.28	298.077
1061.17	353.978
1064.06	449.25
1066.95	648.471
1069.85	716.533
1072.74	834.875
1075.63	971.86
1078.52	977.418
1081.42	959.298
1084.31	835.425
1087.2	692.409
1090.09	535.038
1092.99	449.148
1095.88	370.234
1098.77	337.129
1101.66	291.383
1104.56	236.711
1107.45	247.209
1110.34	202.428
1113.24	207.868
1116.13	165.157
1119.02	121.669
1121.91	131.626
1124.81	116.783
1127.7	135.334
1130.59	142.72
1133.48	133.394
1136.38	162.077
1139.27	118.245
1142.16	132.339
1145.06	126.261
1147.95	62.6267
1150.84	152.089
1153.73	105.165
1156.63	96.9963
1159.52	36.2288
1162.41	48.2942
1165.31	45.5207
1168.2	37.4321
1171.09	20.2278
1173.98	10.2097
1176.88	2.06909
1179.77	5.2666
1182.66	2.75366
1185.55	14.7681
1188.45	34.1924
1191.34	6.14258
1194.23	16.0615
1197.12	59.4978
1200.02	47.1377
1202.91	69.8113
1205.8	63.2803
1208.69	64.9507
1211.59	57.4875
1214.48	43.7996
1217.37	79.2415
1220.27	94.1702
1223.16	87.3262
1226.05	74.9795
1228.94	44.0686
1231.84	126.435
1234.73	57.9067
1237.62	66.7573
1240.52	49.5166
1243.41	22.2981
1246.3	55.5369
1249.19	89.45
1252.09	85.7944
1254.98	33.0754
1257.87	56.835
1260.76	15.8203
1263.66	21.2918
1266.55	76.8953
1269.44	51.1457
1272.33	50.4512
1275.23	18.8294
1278.12	34.4988
1281.01	1.98657
1283.9	44.6145
1286.8	18.5632
