Measurement: Raman, 780 nm, unoriented, Raman Data Processed
Mineral: Fluorapatite
Rruff sample: R050194
Ideal chemistry: Ca_5_(PO_4_)_3_F
Locality: Siglo XX mine, Llallagua, Bolivia
Source: Dave Bunk Minerals
Description: Purple crystal fragments
Measured chemistry: Ca_5.00_(P_1.00_O_4_)_3_F_1.00_
Raman shift (cm-1)	intensity
147.445	0
150.338	0.125679
153.23	5.17507
156.123	24.4854
159.016	49.1126
161.909	36.7788
164.801	18.5751
167.694	26.9155
170.587	27.9964
173.479	24.6015
176.372	22.057
179.265	26.4354
182.157	30.5252
185.05	23.3997
187.943	6.3464
190.835	3.92423
193.728	1.91662
196.621	2.42468
199.514	5.94174
202.406	16.5469
205.299	23.1331
208.192	32.3417
211.084	39.1955
213.977	39.5319
216.87	32.7599
219.762	23.5439
222.655	21.4233
225.548	29.6841
228.441	37.3648
231.333	46.8855
234.226	51.0231
237.119	38.989
240.011	17.0804
242.904	4.72707
245.797	1.91946
248.69	4.57364
251.582	3.03534
254.475	5.26469
257.368	0.12851
260.26	10.749
263.153	29.8775
266.046	58.3449
268.938	67.9607
271.831	38.451
274.724	16
277.616	12.494
280.509	7.83385
283.402	11.9048
286.295	16.8052
289.187	12.3941
292.08	11.4771
294.973	7.29863
297.865	7.51295
300.758	13.4964
303.651	19.0106
306.543	31.7351
309.436	54.548
312.329	69.8277
315.221	57.2676
318.114	45.9618
321.007	40.9445
323.9	44.3998
326.792	52.8343
329.685	60.1864
332.578	66.879
335.47	68.0572
338.363	74.3062
341.256	72.0055
344.149	80.9764
347.041	88.9013
349.934	99.517
352.827	114.609
355.719	125.957
358.612	132.11
361.505	142.964
364.397	136.202
367.29	137.034
370.183	120.234
373.075	102.245
375.968	86.1554
378.861	67.3341
381.754	53.5191
384.646	34.3519
387.539	24.7578
390.432	13.8508
393.324	7.03209
396.217	0.176605
399.11	3.59595
402.002	4.62399
404.895	2.08473
407.788	6.51984
410.681	20.4289
413.573	37.9821
416.466	58.0066
419.359	87.8419
422.251	131.861
425.144	197.52
428.037	288.908
430.93	337.407
433.822	283.383
436.715	227.595
439.608	207.065
442.5	216.735
445.393	223.461
448.286	203.407
451.178	153.775
454.071	108.959
456.964	76.5884
459.856	48.8057
462.749	36.1476
465.642	20.1405
468.535	12.7464
471.427	7.74527
474.32	6.09763
477.213	0.743454
480.105	0.555298
482.998	1.81717
485.891	3.4364
488.783	2.43707
491.676	0.171555
494.569	0.473999
497.462	3.1524
500.354	3.46802
503.247	6.70165
506.14	6.31195
509.032	12.0107
511.925	13.9683
514.818	19.0098
517.71	21.8746
520.603	24.1164
523.496	28.2789
526.389	32.3581
529.281	31.7889
532.174	35.2558
535.067	33.884
537.959	32.263
540.852	35.968
543.745	33.358
546.638	32.6073
549.53	37.2021
552.423	35.2156
555.316	33.6073
558.208	36.0015
561.101	40.9896
563.994	49.7282
566.886	58.2486
569.779	62.1637
572.672	79.1497
575.564	118.782
578.457	214.564
581.35	309.242
584.243	166.558
587.135	108.213
590.028	152.922
592.921	134.076
595.813	51.184
598.706	28.6824
601.599	35.4332
604.491	62.073
607.384	88.494
610.277	48.3529
613.169	41.5668
616.062	62.1881
618.955	41.2272
621.848	11.286
624.74	6.32777
627.633	5.81059
630.526	3.56844
633.418	3.64349
636.311	4.35039
639.204	4.7608
642.096	5.52027
644.989	2.49185
647.882	2.26916
650.775	2.41009
653.667	0.704323
656.56	2.40485
659.453	0.804596
662.345	1.76012
665.238	0.371361
668.131	0.304314
671.024	0.506927
673.916	0.059822
676.809	0.887718
679.702	0.25869
682.594	0.858681
685.487	1.77083
688.38	0.078377
691.272	0.041542
694.165	0.424255
697.058	0.755409
699.951	1.68792
702.843	2.41628
705.736	3.73088
708.629	4.09367
711.521	3.92595
714.414	6.96875
717.307	7.62395
720.199	10.3849
723.092	12.6293
725.985	15.0674
728.877	15.0015
731.77	16.4855
734.663	18.3278
737.556	23.5325
740.448	25.0884
743.341	27.6208
746.234	29.4116
749.126	30.4812
752.019	30.3936
754.912	29.8085
757.804	30.8388
760.697	30.877
763.59	27.9587
766.482	25.7396
769.375	26.5298
772.268	21.635
775.161	21.7129
778.053	19.7249
780.946	16.9102
783.839	17.6053
786.731	15.7463
789.624	15.5004
792.517	10.9553
795.409	9.8819
798.302	9.17239
801.195	8.0304
804.088	7.24744
806.98	6.15819
809.873	5.9142
812.766	4.68033
815.658	5.27475
818.551	3.70206
821.444	3.41554
824.337	1.53677
827.229	2.51238
830.122	1.78767
833.015	2.31053
835.907	0.973858
838.8	1.53925
841.693	1.09831
844.585	1.64034
847.478	1.06742
850.371	0.014118
853.264	1.54319
856.156	0.69799
859.049	0.130989
861.942	0.077644
864.834	0.259521
867.727	0.854393
870.62	1.24082
873.512	1.95143
876.405	0.436802
879.298	1.05794
882.191	1.83568
885.083	1.0916
887.976	0.706177
890.869	1.26056
893.761	1.5744
896.654	1.23637
899.547	1.83529
902.439	0.365013
905.332	2.1547
908.225	3.00241
911.117	1.86481
914.01	2.60267
916.903	3.10743
919.796	3.95284
922.688	6.89615
925.581	6.80443
928.474	9.42297
931.366	10.5911
934.259	18.2374
937.152	24.0694
940.044	35.9797
942.937	55.9093
945.83	98.1848
948.723	187.189
951.615	414.493
954.508	559.842
957.401	810.001
960.293	1288.38
963.186	2659.94
966.079	3803.39
968.971	1149.55
971.864	330.001
974.757	128.771
977.65	62.4753
980.542	33.6279
983.435	21.4028
986.328	13.3141
989.22	6.87456
992.113	5.11975
995.006	0.845905
997.899	0.111683
1000.79	2.02166
1003.68	0.605587
1006.58	0.869339
1009.47	2.11287
1012.36	0.39677
1015.25	4.94323
1018.15	11.9768
1021.04	18.4331
1023.93	25.2106
1026.83	36.164
1029.72	58.3813
1032.61	108.912
1035.5	164.134
1038.4	107.68
1041.29	126.056
1044.18	118.605
1047.07	58.465
1049.97	60.0241
1052.86	87.6351
1055.75	85.2855
1058.64	95.6923
1061.54	122.703
1064.43	43.0538
1067.32	16.6331
1070.22	9.2732
1073.11	8.16567
1076	9.51308
1078.89	17.0422
1081.79	26.0912
1084.68	9.96142
1087.57	5.32072
1090.46	4.00162
1093.36	4.03014
1096.25	5.05656
1099.14	8.37427
1102.04	8.39124
1104.93	9.23676
1107.82	7.72559
1110.71	8.15042
1113.61	9.5011
1116.5	6.56363
1119.39	10.1265
1122.29	8.96558
1125.18	6.9051
1128.07	8.71259
1130.96	8.50906
1133.86	3.85539
1136.75	6.89813
1139.64	4.02293
1142.53	3.9601
1145.43	1.32729
1148.32	1.49234
1151.21	4.23094
1154.1	0.458679
1157	3.53725
1159.89	4.03879
1162.78	5.08215
1165.67	8.58464
1168.57	7.46315
1171.46	10.0542
1174.35	10.5303
1177.25	12.5461
1180.14	12.8226
1183.03	10.6339
1185.92	9.90189
1188.82	8.06854
1191.71	11.5731
1194.6	5.40921
1197.49	5.90259
1200.39	7.60098
1203.28	1.48386
1206.17	0.217865
1209.07	0.572174
