Measurement: Raman, 532 nm, unoriented, Raman Data Processed
Mineral: Fluor-uvite
Rruff sample: R100151
Ideal chemistry: CaMg_3_(Al_5_Mg)(Si_6_O_18_)(BO_3_)_3_(OH)_3_F
Locality: Mozambique
Source: William W. Pinch
Description: Yellow cut gemstone
Raman shift (cm-1)	intensity
132.979	0
136.354	4.61819
139.729	0.131964
143.104	1.47375
146.479	3.56761
149.853	0.454964
153.228	4.92051
156.603	12.5786
159.978	10.1992
163.353	6.27889
166.728	5.28837
170.102	11.516
173.477	9.48911
176.852	8.53172
180.227	3.72611
183.602	8.01994
186.976	17.1951
190.351	33.8957
193.726	57.3524
197.101	80.2518
200.476	105.885
203.851	147.505
207.225	213.564
210.6	305.137
213.975	394.674
217.35	420.999
220.725	351.325
224.1	267.48
227.474	238.158
230.849	242.884
234.224	261.341
237.599	291.092
240.974	320.324
244.348	324.58
247.723	283.81
251.098	215.965
254.473	152.988
257.848	109.646
261.223	88.3041
264.597	78.743
267.972	74.5659
271.347	72.4815
274.722	63.781
278.097	45.2317
281.471	29.533
284.846	13.2463
288.221	5.32715
291.596	6.01621
294.971	6.31491
298.346	5.3495
301.72	0.571152
305.095	2.92717
308.47	7.66388
311.845	25.1297
315.22	36.3391
318.594	26.6703
321.969	16.2116
325.344	23.2605
328.719	33.3299
332.094	49.6698
335.469	62.8899
338.843	78.01
342.218	87.903
345.593	100.888
348.968	117.13
352.343	138.333
355.717	181.629
359.092	246.675
362.467	334.486
365.842	453.35
369.217	590.003
372.592	654.22
375.966	552.304
379.341	376.021
382.716	239.758
386.091	160.27
389.466	114.297
392.841	85.1379
396.215	71.8046
399.59	62.5508
402.965	59.8362
406.34	55.9459
409.715	47.5488
413.089	36.9615
416.464	20.1054
419.839	10.6928
423.214	2.40437
426.589	2.37744
429.964	2.6552
433.338	0.015549
436.713	1.04601
440.088	1.58479
443.463	0.708313
446.838	1.78919
450.212	0.698441
453.587	1.83327
456.962	0.837296
460.337	1.84305
463.712	4.50869
467.087	9.34778
470.461	16.7988
473.836	24.6747
477.211	33.2417
480.586	39.7203
483.961	47.2709
487.336	54.366
490.71	61.6753
494.085	67.7107
497.46	71.3113
500.835	75.9353
504.21	77.872
507.584	74.9955
510.959	68.021
514.334	59.9843
517.709	46.2057
521.084	36.3433
524.458	30.7843
527.833	34.4959
531.208	39.9524
534.583	45.7191
537.958	46.8618
541.333	43.6371
544.707	37.1701
548.082	29.4063
551.457	21.7889
554.832	15.9078
558.207	10.7332
561.582	7.51072
564.956	4.68825
568.331	0.268166
571.706	0.978035
575.081	0.533234
578.456	0.832809
581.83	1.89181
585.205	1.91424
588.58	0.246605
591.955	0.192436
595.33	0.204643
598.705	0.202919
602.079	3.37942
605.454	2.95798
608.829	7.29997
612.204	9.90026
615.579	12.6073
618.953	13.2704
622.328	12.0804
625.703	10.9196
629.078	8.17433
632.453	9.89117
635.828	12.1023
639.202	14.2149
642.577	13.7664
645.952	16.1282
649.327	25.3228
652.702	38.2886
656.077	50.4684
659.451	58.5609
662.826	71.4704
666.201	86.7754
669.576	102.118
672.951	117.615
676.325	121.409
679.7	111.802
683.075	96.1439
686.45	86.3943
689.825	85.9115
693.199	95.8077
696.574	117.465
699.949	149.233
703.324	187.501
706.699	229.798
710.074	245.827
713.448	225.681
716.823	172.955
720.198	110.676
723.573	64.8133
726.948	31.4314
730.323	14.5358
733.697	5.62196
737.072	0.820435
740.447	2.36217
743.822	4.34605
747.197	0.95752
750.572	4.50412
753.946	12.4383
757.321	19.9681
760.696	22.476
764.071	18.5197
767.446	11.4469
770.82	3.87635
774.195	0.073006
777.57	0.254601
780.945	1.77801
784.32	3.93642
787.694	6.48299
791.069	7.93476
794.444	9.29069
797.819	7.31604
801.194	10.8826
804.569	14.1164
807.943	22.814
811.318	38.6144
814.693	50.8841
818.068	55.3581
821.443	57.2277
824.818	51.8377
828.192	48.0185
831.567	42.312
834.942	36.1294
838.317	30.0082
841.692	24.0715
845.067	16.8305
848.441	9.28352
851.816	2.56317
855.191	2.49337
858.566	0.816048
861.941	0.079655
865.315	1.18592
868.69	1.24487
872.065	0.822189
875.44	1.17069
878.815	0.421535
882.189	0.24699
885.564	1.29018
888.939	1.58273
892.314	1.21629
895.689	2.16956
899.064	1.90129
902.438	3.16359
905.813	3.85708
909.188	3.59507
912.563	5.72899
915.938	4.69122
919.312	3.58933
922.687	2.36074
926.062	2.26729
929.437	1.11004
932.812	0.113041
936.187	0.368744
939.562	0.25898
942.936	1.29206
946.311	0.291565
949.686	4.26243
953.061	5.80647
956.436	7.66888
959.81	10.2656
963.185	13.8
966.56	15.2059
969.935	17.3594
973.31	21.1417
976.684	19.2744
980.059	16.5525
983.434	15.4602
986.809	9.07313
990.184	7.04161
993.559	2.50642
996.933	0.374001
1000.31	2.01367
1003.68	2.53554
1007.06	1.00535
1010.43	1.13623
1013.81	4.22034
1017.18	8.28023
1020.56	10.7215
1023.93	19.3053
1027.31	23.6227
1030.68	27.0411
1034.06	33.7976
1037.43	39.8158
1040.81	48.5989
1044.18	56.167
1047.56	63.8414
1050.93	74.6958
1054.31	82.4613
1057.68	89.8255
1061.06	96.706
1064.43	105.26
1067.81	106.965
1071.18	103.617
1074.55	94.5446
1077.93	78.6578
1081.3	63.5193
1084.68	50.3199
1088.05	38.5886
1091.43	29.2478
1094.8	24.4254
1098.18	20.1855
1101.55	18.6748
1104.93	18.3355
1108.3	20.599
1111.68	20.735
1115.05	22.426
1118.43	25.0565
1121.8	24.622
1125.18	22.6992
1128.55	18.4858
1131.93	11.3995
1135.3	6.90274
1138.68	2.84893
1142.05	0.096214
1145.43	0.454227
1148.8	0.585159
1152.17	0.963902
1155.55	0.421261
1158.92	0.563866
1162.3	0.004513
1165.67	0.1464
1169.05	1.11565
1172.42	1.48266
1175.8	2.60843
1179.17	2.04191
1182.55	3.76252
1185.92	2.70303
1189.3	3.60007
1192.67	3.92792
1196.05	3.43683
1199.42	4.54019
1202.8	4.73156
1206.17	4.29227
1209.55	4.21779
1212.92	3.46559
1216.3	2.86739
1219.67	5.16427
1223.05	3.34822
1226.42	5.81821
1229.8	5.70628
1233.17	6.33521
1236.55	5.91768
1239.92	6.66814
1243.3	6.9319
1246.67	5.83574
1250.05	6.25865
1253.42	5.61082
1256.8	6.45699
1260.17	6.17189
1263.54	5.58397
1266.92	4.51044
1270.29	2.60123
1273.67	2.78825
1277.04	3.04476
1280.42	2.45262
1283.79	1.39233
1287.17	1.22743
1290.54	1.53772
1293.92	0.999683
1297.29	0.236073
1300.67	0.652554
