Measurement: Raman, 532 nm, unoriented, Raman Data Processed
Mineral: Fluorapatite
Rruff sample: R050274
Ideal chemistry: Ca_5_(PO_4_)_3_F
Locality: Minas Gerais, Brazil
Source: Marcus Origlieri
Description: Aggregate of blue crystal fragments separated by veins of quartz
Measured chemistry: Ca_5.00_((P_0.97_Si_0.02_S_0.01_)O_4_)_3_(F_0.90_Cl_0.10_)
Raman shift (cm-1)	intensity
141.235	0
144.128	78.1523
147.02	33.4473
149.913	159.125
152.806	419.291
155.699	306.566
158.591	292.523
161.484	148.588
164.377	146.43
167.269	308.594
170.162	151.793
173.055	337.51
175.947	365.81
178.84	295.449
181.733	182.844
184.626	172.459
187.518	142.51
190.411	100.363
193.304	0.259766
196.196	154.451
199.089	24.5137
201.982	44.0723
204.875	38.6641
207.767	73.8516
210.66	82.4785
213.553	6.71289
216.445	73.6309
219.338	181.973
222.231	14.0371
225.123	74.5625
228.016	5.47656
230.909	116.674
233.802	62.3359
236.694	24.3105
239.587	15.1621
242.48	117.416
245.372	137.74
248.265	74.7773
251.158	191.543
254.05	118.861
256.943	150.162
259.836	110.897
262.728	185.035
265.621	246.106
268.514	245.514
271.407	296.92
274.299	308.277
277.192	456.598
280.085	407.914
282.977	491.371
285.87	412.75
288.763	351.377
291.656	320.428
294.548	271.836
297.441	299.795
300.334	339.283
303.226	199.711
306.119	248.754
309.012	118.988
311.904	203.477
314.797	277.078
317.69	190.426
320.582	119.113
323.475	75.7773
326.368	24.3066
329.261	100.83
332.153	211.377
335.046	42.3477
337.939	20.5488
340.831	44.248
343.724	32.627
346.617	55.1934
349.509	13.1855
352.402	26.7969
355.295	145.545
358.188	195.445
361.08	70.4531
363.973	110.869
366.866	37.8535
369.758	139.182
372.651	65.2598
375.544	8.8457
378.436	4.40039
381.329	134
384.222	133.18
387.115	311.215
390.007	140.41
392.9	229.816
395.793	255.965
398.685	193.766
401.578	75.9961
404.471	14.25
407.363	392.441
410.256	357.746
413.149	485.742
416.041	642.719
418.934	792.293
421.827	1031.55
424.72	1573.46
427.612	1639.1
430.505	1765.18
433.398	1531.4
436.29	1271.71
439.183	999.559
442.076	707.391
444.969	680.926
447.861	657.098
450.754	663.449
453.647	734.609
456.539	472.41
459.432	329.16
462.325	304.731
465.217	245.242
468.11	111.773
471.003	120.801
473.896	124.219
476.788	122.289
479.681	114.426
482.574	41.0078
485.466	92.6211
488.359	84.0898
491.252	9.57812
494.144	57.0195
497.037	159.699
499.93	83.6875
502.822	217.996
505.715	47.2578
508.608	41.8203
511.501	89.9102
514.393	21.875
517.286	36.5898
520.179	144.066
523.071	125.418
525.964	63.418
528.857	147.523
531.75	90.3164
534.642	38.9102
537.535	135.312
540.428	112.453
543.32	127.207
546.213	222.144
549.106	94.6367
551.998	173.731
554.891	274.988
557.784	193.832
560.677	55.3789
563.569	168.383
566.462	195.25
569.355	188.981
572.247	444.391
575.14	660.637
578.033	920.703
580.925	1039.72
583.818	982.527
586.711	1141.81
589.604	1416.64
592.496	1068.06
595.389	796.367
598.282	518.758
601.174	652.488
604.067	668.894
606.96	621.121
609.852	702.551
612.745	464.852
615.638	503.914
618.53	437.441
621.423	229.148
624.316	180.606
627.209	120.281
630.101	200.082
632.994	228.227
635.887	261.894
638.779	142.172
641.672	104.754
644.565	65.2461
647.457	43.3086
650.35	113.82
653.243	72.1836
656.136	10.0156
659.028	155.191
661.921	389.496
664.814	350.324
667.706	373.844
670.599	108
673.492	79.918
676.385	359.449
679.277	264.945
682.17	165.34
685.063	179.754
687.955	219.578
690.848	71.2266
693.741	208.465
696.633	220.172
699.526	347.09
702.419	140.113
705.312	3.65234
708.204	229.445
711.097	214.027
713.99	106.66
716.882	133.039
719.775	4.24219
722.668	110.188
725.56	260.856
728.453	198.137
731.346	314.387
734.239	64.5117
737.131	53.9141
740.024	84.0898
742.917	229.656
745.809	231.809
748.702	127.688
751.595	122.383
754.487	19.043
757.38	139.086
760.273	71.0469
763.165	159.926
766.058	172.352
768.951	227.332
771.844	301.414
774.736	183.539
777.629	12.9922
780.522	168.723
783.414	166.777
786.307	242.992
789.2	153.176
792.092	354.402
794.985	188.547
797.878	58.3203
800.77	11.9961
803.663	167.109
806.556	79.1758
809.449	223.492
812.341	109.168
815.234	168.727
818.127	314.812
821.019	228.203
823.912	404.262
826.805	160.324
829.697	134.606
832.59	27.832
835.483	253.648
838.376	156.297
841.268	195.059
844.161	89.6406
847.054	139.445
849.946	155.762
852.839	195.84
855.732	212.711
858.625	9.75391
861.517	158.672
864.41	53.9258
867.303	186.734
870.195	117.93
873.088	364.199
875.981	203.027
878.873	137.305
881.766	183.273
884.659	61.4297
887.552	47.5508
890.444	208.316
893.337	47.5312
896.23	14.1406
899.122	16.1133
902.015	3.08984
904.908	46.8984
907.8	260.328
910.693	2.52734
913.586	47.0664
916.479	60.2773
919.371	197.793
922.264	168.238
925.157	35.5312
928.049	133.148
930.942	206.93
933.835	128.644
936.727	200.184
939.62	143.387
942.513	124.879
945.405	465.844
948.298	837.969
951.191	1565.27
954.084	2729.21
956.976	4440.62
959.869	6656.64
962.762	8110.23
965.654	5608.35
968.547	2925.19
971.44	1528.04
974.332	756.449
977.225	304.523
980.118	112.148
983.011	247.887
985.903	177.258
988.796	175.422
991.689	253.57
994.581	105.684
997.474	91.8828
1000.37	81.793
1003.26	91.2305
1006.15	13.1719
1009.04	156.875
1011.94	247.227
1014.83	425.285
1017.72	351.789
1020.62	203.812
1023.51	509.566
1026.4	518.883
1029.29	695.949
1032.19	634.934
1035.08	572.797
1037.97	848.648
1040.87	922.441
1043.76	917.078
1046.65	981.172
1049.54	1002.43
1052.43	878.016
1055.33	703.852
1058.22	569.098
1061.11	487.144
1064.01	482.121
1066.9	530.879
1069.79	381.519
1072.68	438.762
1075.58	260.152
1078.47	318.352
1081.36	535.676
1084.26	191.223
1087.15	273.375
1090.04	109.945
1092.93	85.9531
1095.83	119.519
1098.72	136.914
1101.61	223.227
1104.5	128.809
1107.4	50.1758
1110.29	47.7305
1113.18	20.5117
1116.08	2.32812
1118.97	174.332
1121.86	134.606
1124.75	222.434
1127.65	70.5938
1130.54	15.1836
1133.43	228.461
1136.32	208.914
1139.22	236.027
1142.11	203.953
1145	363.715
1147.89	181.027
1150.79	82.5859
1153.68	28.5391
1156.57	44.3555
1159.46	44.7812
1162.36	122.356
1165.25	322.418
1168.14	75.8398
1171.04	332.039
1173.93	280.676
1176.82	118.566
1179.71	111.965
1182.61	194.977
1185.5	65.8633
1188.39	127.316
1191.29	292.602
1194.18	285.914
1197.07	95.8242
1199.96	118.406
1202.86	240.148
1205.75	144.793
1208.64	349.207
1211.53	188.594
1214.43	185.797
1217.32	214.223
1220.21	190.863
1223.11	123.231
1226	52.7773
1228.89	102.332
1231.78	91.9492
1234.67	155.164
1237.57	49.6367
1240.46	118.965
1243.35	28.0273
1246.25	174.16
1249.14	287.629
1252.03	258.168
1254.92	323.707
1257.82	315.769
1260.71	261.25
1263.6	225.148
1266.49	227.543
1269.39	110.449
1272.28	145.133
1275.17	255.965
1278.07	103.812
1280.96	29.2109
1283.85	153.34
1286.74	88.5625
1289.64	69.2266
