Measurement: Raman, 780 nm, unoriented, Raman Data Processed
Mineral: Foitite
Rruff sample: R100088
Ideal chemistry: [box](Fe^2+^_2_Al)Al_6_(Si_6_O_18_)(BO_3_)_3_(OH)_3_OH
Locality: Oceanview mine, Chief Mountain, Pala District, San Diego County, California, USA
Source: Mark Mauthner
Description: Elongated prismatic purple to black to green crystals
Raman shift (cm-1)	intensity
136.37	0
139.263	3.54231
142.155	0.857895
145.048	1.28805
147.941	3.78967
150.834	5.48105
153.726	8.65212
156.619	10.8344
159.512	12.9015
162.404	9.76436
165.297	6.65514
168.19	2.30479
171.083	1.07399
173.975	0.537308
176.868	0.601791
179.761	2.9146
182.653	3.44109
185.546	4.98503
188.439	10.139
191.331	13.8958
194.224	22.9522
197.117	27.0715
200.01	40.1188
202.902	53.6181
205.795	74.4149
208.688	93.9658
211.58	121.008
214.473	159.106
217.366	205.655
220.258	256.882
223.151	282.823
226.044	261.334
228.936	218.057
231.829	196.859
234.722	174.34
237.615	168.222
240.507	166.558
243.4	164.259
246.293	155.757
249.185	144.889
252.078	132.136
254.971	126.596
257.863	109.176
260.756	97.9099
263.649	88.9085
266.542	80.5552
269.434	69.8976
272.327	61.3352
275.22	51.6804
278.112	41.1764
281.005	31.8505
283.898	21.1971
286.791	10.5242
289.683	6.78438
292.576	2.86646
295.469	4.78499
298.361	2.99667
301.254	2.70537
304.147	0.781738
307.039	1.72781
309.932	6.96849
312.825	12.3327
315.717	17.2304
318.61	14.6185
321.503	10.1249
324.396	6.2106
327.288	7.89654
330.181	13.5482
333.074	16.6362
335.966	24.6041
338.859	27.5082
341.752	32.8379
344.644	36.4404
347.537	49.4607
350.43	54.9499
353.323	68.589
356.215	88.2615
359.108	113.154
362.001	147.446
364.893	195.904
367.786	271.689
370.679	350.216
373.572	338.403
376.464	241.69
379.357	160.666
382.25	117.553
385.142	90.3668
388.035	75.0993
390.928	67.6883
393.82	66.6813
396.713	67.52
399.606	74.7974
402.498	82.2832
405.391	91.1252
408.284	91.9808
411.177	87.1658
414.069	67.4567
416.962	45.8382
419.855	27.5484
422.747	20.0636
425.64	12.1175
428.533	8.43794
431.425	3.74351
434.318	0.472366
437.211	2.30031
440.104	1.73233
442.996	1.17046
445.889	0.554489
448.782	0.336243
451.674	4.81436
454.567	0.680832
457.46	1.69728
460.353	1.57991
463.245	2.78972
466.138	1.8981
469.031	3.4915
471.923	3.71275
474.816	3.4557
477.709	4.03189
480.601	7.64414
483.494	11.2242
486.387	13.4668
489.279	16.9915
492.172	19.3072
495.065	24.4418
497.958	25.8964
500.85	27.3479
503.743	26.6059
506.636	28.1302
509.528	29.259
512.421	26.1678
515.314	23.9436
518.207	21.1166
521.099	13.9923
523.992	16.1742
526.885	10.4246
529.777	11.6625
532.67	10.546
535.563	10.9353
538.455	9.48976
541.348	8.25089
544.241	7.83768
547.134	5.98119
550.026	4.7083
552.919	5.85936
555.812	3.05907
558.704	3.51236
561.597	3.92813
564.49	2.94
567.382	0.270721
570.275	3.265
573.168	2.19344
576.061	1.74284
578.953	3.11585
581.846	1.12721
584.739	1.40825
587.631	1.2041
590.524	1.5572
593.417	1.20418
596.309	0.194305
599.202	0.757294
602.095	0.399612
604.987	0.020264
607.88	0.351089
610.773	4.69748
613.666	6.16635
616.558	11.6456
619.451	16.6892
622.344	21.5648
625.236	35.7925
628.129	52.5262
631.022	71.2609
633.915	71.3832
636.807	66.6315
639.7	57.4697
642.593	51.3086
645.485	41.4124
648.378	37.5974
651.271	33.6616
654.163	26.649
657.056	25.1966
659.949	24.2192
662.842	14.3689
665.734	11.6551
668.627	6.91635
671.52	8.03238
674.412	8.44482
677.305	3.86981
680.198	7.3723
683.091	17.3407
685.983	21.274
688.876	32.5792
691.769	47.0432
694.661	63.1211
697.554	86.5556
700.447	106.458
703.339	108.519
706.232	90.7643
709.125	67.4915
712.018	45.3673
714.91	27.3445
717.803	12.3386
720.696	6.8663
723.588	3.19003
726.481	2.06775
729.374	0.634491
732.266	2.28293
735.159	0.934975
738.052	2.72849
740.944	2.98379
743.837	7.78321
746.73	9.2982
749.623	13.5455
752.515	16.4727
755.408	13.289
758.301	6.40314
761.193	3.44416
764.086	2.53627
766.979	3.69976
769.871	3.44161
772.764	1.29299
775.657	1.87791
778.55	0.010063
781.442	2.35229
784.335	0.016083
787.228	0.607094
790.12	1.3053
793.013	0.946579
795.906	1.94373
798.798	3.03518
801.691	4.71549
804.584	4.5592
807.477	0.519341
810.369	6.17614
813.262	3.46275
816.155	5.76233
819.047	6.05662
821.94	6.9889
824.833	5.29329
827.726	6.47884
830.618	10.9411
833.511	9.43718
836.404	12.6807
839.296	8.39732
842.189	10.5177
845.082	11.3572
847.974	10.6573
850.867	8.60284
853.76	11.7709
856.653	8.99101
859.545	8.38385
862.438	6.32555
865.331	8.26599
868.223	4.90077
871.116	8.13702
874.009	9.82468
876.901	4.09476
879.794	5.46316
882.687	3.8577
885.58	5.87956
888.472	5.07082
891.365	2.38919
894.258	0.720589
897.15	1.10831
900.043	2.90041
902.936	1.80526
905.828	1.55395
908.721	0.726059
911.614	0.313438
914.506	0.308411
917.399	0.142021
920.292	0.272865
923.185	0.426224
926.077	0.683189
928.97	1.03906
931.863	1.50637
934.755	1.56882
937.648	0.540291
940.541	1.44913
943.433	0.948601
946.326	5.68032
949.219	4.03066
952.112	5.09811
955.004	6.82262
957.897	7.19137
960.79	9.17693
963.682	8.07522
966.575	7.07071
969.468	9.2852
972.361	6.29508
975.253	5.38238
978.146	3.97095
981.039	4.60902
983.931	0.233177
986.824	1.08385
989.717	3.28928
992.609	4.3258
995.502	5.35136
998.395	6.01161
1001.29	1.06428
1004.18	6.35479
1007.07	8.45084
1009.97	6.70938
1012.86	5.84716
1015.75	9.12755
1018.64	9.63691
1021.54	11.3015
1024.43	11.0426
1027.32	9.22749
1030.21	7.27824
1033.11	8.29469
1036	11.369
1038.89	10.1113
1041.79	11.2618
1044.68	13.9504
1047.57	16.793
1050.46	17.0084
1053.36	20.1328
1056.25	21.5465
1059.14	24.16
1062.03	20.7446
1064.93	19.2999
1067.82	16.856
1070.71	18.7037
1073.61	16.5096
1076.5	15.4864
1079.39	17.9429
1082.28	22.4372
1085.18	23.8183
1088.07	24.462
1090.96	17.3873
1093.85	12.9155
1096.75	8.59331
1099.64	5.88035
1102.53	9.31736
1105.42	4.52952
1108.32	4.13358
1111.21	1.02269
1114.1	0.671837
1116.99	0.450882
1119.89	1.03537
1122.78	1.19772
1125.67	1.55585
1128.57	0.744667
1131.46	2.04982
1134.35	0.617317
1137.24	0.502296
1140.14	0.721741
1143.03	0.147522
1145.92	1.60387
1148.82	0.936699
1151.71	1.63817
1154.6	2.27222
1157.49	2.76005
1160.39	4.00903
1163.28	0.561813
1166.17	0.540077
1169.06	4.1087
1171.96	3.51764
1174.85	2.55148
1177.74	5.03155
1180.63	4.00326
1183.53	3.13876
1186.42	2.56245
1189.31	5.26644
1192.21	2.11346
1195.1	6.69005
1197.99	3.89629
1200.88	4.74089
1203.78	1.76005
1206.67	3.48056
1209.56	6.11372
1212.45	5.28728
1215.35	4.36137
1218.24	1.34586
1221.13	2.63458
1224.03	4.0873
1226.92	4.62542
1229.81	0.53997
1232.7	2.03149
1235.6	2.82381
1238.49	4.57742
1241.38	4.43691
1244.27	1.68659
1247.17	1.17372
1250.06	3.88597
1252.95	3.03609
1255.85	4.61586
1258.74	5.59531
1261.63	2.2539
1264.52	2.4137
1267.42	4.234
1270.31	3.99984
1273.2	0.593987
1276.09	5.84909
1278.99	3.91482
1281.88	3.35271
1284.77	1.42062
