Measurement: Raman, 780 nm, unoriented, Raman Data Processed
Mineral: Foitite
Rruff sample: R050495
Ideal chemistry: [box](Fe^2+^_2_Al)Al_6_(Si_6_O_18_)(BO_3_)_3_(OH)_3_OH
Locality: Coahuila Mountain, California, USA
Source: California Institute of Technology
Description: Bluish black prismatic fragment
Measured chemistry: ([box]_0.54_Na_0.46_)_Σ=1_(Fe^2+^_1.75_Al_0.85_Mg_0.18_Li_0.14_Mn_0.08_)_Σ=3_Al_6.00_(BO_3_)_3_(Si_5.83_Al_0.17_)_Σ=6_O_18_(OH)_4_ ; B and Li not measured but estimated by charge balance
Raman shift (cm-1)	intensity
149.493	0
152.386	0.913315
155.278	1.84683
158.171	1.186
161.064	1.38731
163.956	1.35922
166.849	0.731766
169.742	0.122223
172.635	0.941238
175.527	1.04627
178.42	2.0325
181.313	2.244
184.205	3.36264
187.098	3.7164
189.991	5.48865
192.883	7.23689
195.776	11.5682
198.669	13.2776
201.561	16.7201
204.454	19.8685
207.347	23.4344
210.24	29.4564
213.132	33.3272
216.025	39.9133
218.918	45.4982
221.81	50.0177
224.703	51.5642
227.596	53.0857
230.488	52.0262
233.381	50.7759
236.274	49.8115
239.167	44.4907
242.059	38.7948
244.952	33.9412
247.845	31.1578
250.737	27.6616
253.63	24.6707
256.523	23.2008
259.416	20.6823
262.308	15.6685
265.201	12.0148
268.094	9.96654
270.986	7.18047
273.879	3.89626
276.772	3.5256
279.664	2.47147
282.557	1.00078
285.45	0.778915
288.342	1.03125
291.235	0.323196
294.128	0.012909
297.021	0.182846
299.913	0.499298
302.806	0.876465
305.699	0.9785
308.591	0.529739
311.484	0.390167
314.377	0.907501
317.269	0.938156
320.162	0.742813
323.055	0.836441
325.948	2.61269
328.84	3.9443
331.733	5.13368
334.626	8.82967
337.518	10.9031
340.411	14.7831
343.304	21.3767
346.197	28.7941
349.089	37.7383
351.982	45.9347
354.875	53.5949
357.767	59.431
360.66	65.7497
363.553	66.9678
366.445	62.5095
369.338	56.0975
372.231	45.5
375.123	40.1412
378.016	35.4045
380.909	30.794
383.802	30.7438
386.694	29.0205
389.587	27.2429
392.48	25.4928
395.372	25.4198
398.265	23.8762
401.158	20.8852
404.05	18.5894
406.943	15.8237
409.836	13.2263
412.729	10.2166
415.621	7.92967
418.514	7.45294
421.407	6.58278
424.299	6.35075
427.192	5.31558
430.085	6.34564
432.978	5.63411
435.87	6.64163
438.763	5.57169
441.656	4.41086
444.548	2.76508
447.441	1.02603
450.334	1.70192
453.226	1.16475
456.119	0.132263
459.012	0.950836
461.904	1.10167
464.797	0.194473
467.69	0.698334
470.583	0.372467
473.475	0.198257
476.368	0.410995
479.261	0.764816
482.153	2.07364
485.046	1.81108
487.939	3.32997
490.832	3.60477
493.724	4.70171
496.617	3.5929
499.51	3.8122
502.402	4.41191
505.295	3.15007
508.188	3.89667
511.08	3.96274
513.973	3.53467
516.866	3.86704
519.759	3.21806
522.651	3.90393
525.544	2.69011
528.437	3.09093
531.329	3.63065
534.222	3.48248
537.115	3.36282
540.007	3.16707
542.9	0.827332
545.793	0.977829
548.686	1.57039
551.578	0.071564
554.471	0.749878
557.364	0.386566
560.256	0.511261
563.149	0.414886
566.042	0.365311
568.934	0.730255
571.827	0.414093
574.72	0.048874
577.612	0.319366
580.505	0.144669
583.398	0.286285
586.291	0.797546
589.183	0.274475
592.076	0.87886
594.969	0.100479
597.861	0.862564
600.754	1.39023
603.647	0.589111
606.539	3.3291
609.432	3.30029
612.325	5.53401
615.217	7.72408
618.11	9.60678
621.003	13.0319
623.896	16.6179
626.788	19.0877
629.681	20.4144
632.574	20.2635
635.466	19.4437
638.359	16.6743
641.252	15.1529
644.144	12.4053
647.037	10.2117
649.93	9.91916
652.823	7.56636
655.715	7.69687
658.608	8.03546
661.501	8.34549
664.393	8.92471
667.286	9.24235
670.179	9.99756
673.072	10.8086
675.964	11.5015
678.857	12.7127
681.75	13.7985
684.642	15.1049
687.535	18.2156
690.428	18.913
693.32	19.5882
696.213	17.3117
699.106	14.5283
701.999	9.72177
704.891	7.49314
707.784	4.98128
710.677	3.83039
713.569	3.54075
716.462	1.9464
719.355	1.45397
722.247	1.27665
725.14	1.43483
728.033	0.267227
730.926	0.370178
733.818	0.739487
736.711	1.32562
739.604	1.06995
742.496	0.059669
745.389	0.465385
748.282	0.314774
751.174	0.007607
754.067	0.071953
756.96	0.248291
759.852	1.06081
762.745	1.17704
765.638	0.835129
768.531	1.679
771.423	0.902283
774.316	1.10584
777.209	0.099426
780.101	0.904755
782.994	1.08522
785.887	0.968895
788.779	0.218117
791.672	0.708862
794.565	0.106621
797.458	0.363129
800.35	0.684471
803.243	0.42807
806.136	1.31965
809.028	1.47575
811.921	2.31163
814.814	0.460258
817.707	1.34156
820.599	1.27335
823.492	1.26791
826.385	1.54815
829.277	1.57319
832.17	1.05697
835.063	1.40636
837.955	2.23151
840.848	2.15481
843.741	2.90084
846.634	1.83017
849.526	1.87228
852.419	2.40222
855.312	3.28638
858.204	2.30712
861.097	2.19474
863.99	1.65644
866.882	1.07252
869.775	2.42778
872.668	1.69074
875.561	1.41798
878.453	1.56259
881.346	0.873039
884.239	0.861366
887.131	1.14448
890.024	0.938774
892.917	0.919952
895.809	0.289742
898.702	0.052429
901.595	0.845284
904.487	1.10163
907.38	0.44352
910.273	0.09552
913.166	0.607353
916.058	0.173843
918.951	0.091293
921.844	0.215004
924.736	0.82737
927.629	0.345634
930.522	0.54818
933.414	0.015594
936.307	0.51358
939.2	0.631493
942.093	1.14973
944.985	1.3429
947.878	1.73722
950.771	2.12499
953.663	2.7003
956.556	2.73759
959.449	1.9052
962.341	2.84415
965.234	3.14671
968.127	2.64775
971.02	2.38502
973.912	2.11942
976.805	1.17623
979.698	1.55481
982.59	0.967537
985.483	2.42594
988.376	2.14169
991.269	2.34815
994.161	2.91326
997.054	3.79069
999.947	4.87974
1002.84	7.39125
1005.73	7.37559
1008.62	6.25445
1011.52	6.13224
1014.41	6.77117
1017.3	6.19068
1020.2	5.49503
1023.09	5.10349
1025.98	4.37418
1028.87	4.00445
1031.77	3.81966
1034.66	3.32281
1037.55	4.4174
1040.44	6.67342
1043.34	5.45972
1046.23	6.62608
1049.12	7.08427
1052.02	8.12318
1054.91	6.4762
1057.8	6.17602
1060.69	5.19179
1063.59	4.6458
1066.48	3.27798
1069.37	3.08842
1072.26	2.0693
1075.16	2.19775
1078.05	0.752213
1080.94	0.872131
1083.84	1.39013
1086.73	1.44638
1089.62	0.739838
1092.51	0.733353
1095.41	1.16273
1098.3	0.135788
1101.19	0.249985
1104.08	0.541847
1106.98	0.330574
1109.87	0.304558
1112.76	0.034172
1115.65	0.549232
1118.55	0.65403
1121.44	0.702965
1124.33	0.352844
1127.22	1.17917
1130.12	0.588638
1133.01	0.635124
1135.9	0.438255
1138.8	0.184845
1141.69	0.780647
1144.58	0.866837
1147.47	0.481407
1150.37	1.06669
1153.26	0.817734
1156.15	0.898911
1159.05	0.846268
1161.94	1.39257
1164.83	1.17451
1167.72	1.47604
1170.62	1.26968
1173.51	0.074379
1176.4	0.727707
1179.29	1.07941
1182.19	1.57146
1185.08	1.1146
1187.97	0.956116
1190.87	1.91261
1193.76	0.948685
1196.65	0.500031
1199.54	0.617966
1202.44	0.946075
1205.33	1.74065
1208.22	0.741264
1211.11	1.26936
1214.01	0.620781
1216.9	0.649788
1219.79	0.515587
1222.68	0.131546
1225.58	0.17469
1228.47	0.446419
1231.36	0.295769
1234.26	1.0017
1237.15	0.807587
1240.04	0.779099
1242.93	0.431885
1245.83	0.224335
1248.72	0.202904
1251.61	0.864487
1254.5	2.33596
1257.4	1.32436
1260.29	0.209961
1263.18	1.1764
1266.08	0.965759
1268.97	0.356285
1271.86	0.762184
1274.75	1.16667
1277.65	0.197266
