Measurement: Raman, 532 nm, unoriented, Raman Data Processed
Mineral: Foitite
Rruff sample: R050356
Ideal chemistry: [box](Fe^2+^_2_Al)Al_6_(Si_6_O_18_)(BO_3_)_3_(OH)_3_OH
Locality: Fano mine, Cahuilla Mountain, Riverside County, California, USA
Source: George Rossman
Description: Black prismatic, elongated and striated fragment
Measured chemistry: (Na_0.50_[box]_0.50_)_Σ=1_(Fe^2+^_1.94_Al_0.77_Li_0.15_Mn_0.10_Mg_0.04_)_Σ=3.00_Al_6.00_(BO_3_)_3_(Si_5.88_Al_0.12_)_Σ=6_O_18_(OH)_4_ ; B and Li not measured but estimated by charge balance
Raman shift (cm-1)	intensity
139.119	0
142.012	0.094635
144.904	0.235352
147.797	0.340637
150.69	0.93808
153.582	6.89685
156.475	6.24606
159.368	6.44717
162.26	7.8045
165.153	7.37125
168.046	9.18335
170.939	10.235
173.831	9.62128
176.724	10.076
179.617	6.39789
182.509	6.02579
185.402	6.7652
188.295	9.13065
191.187	12.9379
194.08	22.5485
196.973	33.4436
199.865	48.3508
202.758	58.5251
205.651	69.714
208.544	78.715
211.436	96.179
214.329	117.327
217.222	147.464
220.114	177.72
223.007	208.493
225.9	230.04
228.792	248.486
231.685	267.711
234.578	284.416
237.471	282.553
240.363	255.478
243.256	208.684
246.149	170.849
249.041	149.486
251.934	141.146
254.827	128.456
257.719	117.345
260.612	104.644
263.505	86.0601
266.398	67.5165
269.29	51.4778
272.183	36.0496
275.076	25.3975
277.968	14.3669
280.861	6.86392
283.754	2.11412
286.647	2.99464
289.539	5.09644
292.432	7.50021
295.325	2.76637
298.217	0.525299
301.11	2.88458
304.003	9.20184
306.895	15.269
309.788	21.2654
312.681	26.177
315.574	24.121
318.466	19.3868
321.359	13.4342
324.252	14.7712
327.144	16.7035
330.037	21.9365
332.93	28.2285
335.822	34.6971
338.715	42.9928
341.608	57.4126
344.5	69.4466
347.393	91.5635
350.286	118.336
353.179	154.793
356.071	197.695
358.964	251.538
361.857	320.719
364.749	377.521
367.642	378.875
370.535	324.705
373.428	253.379
376.32	206.741
379.213	171.836
382.106	151.378
384.998	131.526
387.891	116.803
390.784	109.007
393.676	103.136
396.569	99.8909
399.462	101.925
402.354	98.1073
405.247	90.8278
408.14	77.531
411.033	63.9066
413.925	46.2641
416.818	32.4822
419.711	20.0147
422.603	13.3164
425.496	8.35394
428.389	2.72083
431.281	1.07042
434.174	1.28095
437.067	0.699966
439.96	0.105881
442.852	0.041916
445.745	1.84073
448.638	0.187943
451.53	0.646622
454.423	1.35492
457.316	2.55162
460.209	1.26527
463.101	1.33107
465.994	2.37254
468.887	1.04283
471.779	3.93451
474.672	6.59993
477.565	10.3145
480.457	13.1551
483.35	19.1655
486.243	24.5461
489.135	30.2261
492.028	32.0589
494.921	33.2295
497.814	36.1319
500.706	34.5131
503.599	28.2813
506.492	22.6437
509.384	21.0394
512.277	18.8341
515.17	12.7925
518.063	10.9417
520.955	9.87656
523.848	8.03951
526.741	6.27605
529.633	6.35292
532.526	9.96103
535.419	10.7115
538.312	13.3106
541.204	11.2271
544.097	10.8055
546.99	9.73795
549.882	9.19876
552.775	7.93431
555.668	7.92438
558.56	5.79868
561.453	5.98566
564.346	3.79715
567.239	2.34112
570.131	2.71758
573.024	1.9286
575.917	0.23291
578.809	0.160492
581.702	2.18456
584.595	0.33168
587.487	2.27376
590.38	1.38977
593.273	0.397263
596.165	0.298615
599.058	0.693634
601.951	1.44019
604.843	3.63464
607.736	4.41379
610.629	7.39473
613.522	17.2126
616.414	27.6855
619.307	41.1394
622.2	58.016
625.092	83.4708
627.985	115.597
630.878	141.877
633.77	146.016
636.663	132.282
639.556	116.455
642.449	100.268
645.341	86.9894
648.234	76.4938
651.127	63.9115
654.019	57.6335
656.912	54.3285
659.805	53.7934
662.697	54.0126
665.59	58.9869
668.483	63.4907
671.376	71.0361
674.268	75.8999
677.161	78.8436
680.054	75.3313
682.946	77.2112
685.839	85.7052
688.732	100.416
691.625	118.669
694.517	132.601
697.41	127.312
700.303	105.264
703.195	66.2608
706.088	40.0204
708.981	22.8268
711.873	14.6227
714.766	6.74811
717.659	2.884
720.552	1.04394
723.444	0.482574
726.337	0.930756
729.23	2.37491
732.122	1.42882
735.015	0.23851
737.908	5.38948
740.8	7.81035
743.693	11.8727
746.586	14.5295
749.479	13.6341
752.371	9.71378
755.264	8.34732
758.157	7.50726
761.049	8.61394
763.942	7.72231
766.835	9.60773
769.727	12.2509
772.62	15.7575
775.513	15.5764
778.405	13.9232
781.298	11.2212
784.191	8.7379
787.084	6.57156
789.976	3.12737
792.869	1.28735
795.762	0.34314
798.654	1.58508
801.547	0.744598
804.44	1.87714
807.332	1.36168
810.225	2.12115
813.118	1.65007
816.011	1.51529
818.903	4.15675
821.796	2.08093
824.689	3.73874
827.581	0.812012
830.474	2.41097
833.367	1.54414
836.26	3.80667
839.152	3.71683
842.045	3.0117
844.938	5.70601
847.83	4.29495
850.723	5.56043
853.616	6.68669
856.508	6.66756
859.401	5.72925
862.294	4.6181
865.187	4.53725
868.079	6.1337
870.972	3.78757
873.865	2.41823
876.757	4.65236
879.65	1.52849
882.543	1.84909
885.435	1.66724
888.328	1.53331
891.221	1.82671
894.114	1.08772
897.006	0.573822
899.899	0.301071
902.792	0.499908
905.684	0.550049
908.577	0.537964
911.47	0.302185
914.362	0.487167
917.255	1.7412
920.148	0.488007
923.04	0.714981
925.933	0.067871
928.826	0.172592
931.719	0.354095
934.611	1.35777
937.504	0.29068
940.397	0.736298
943.289	3.77245
946.182	4.25699
949.075	7.28606
951.967	11.6385
954.86	12.2209
957.753	14.3532
960.646	18.0087
963.538	16.6746
966.431	14.0083
969.324	14.351
972.216	13.4723
975.109	14.6176
978.002	12.0287
980.894	12.4706
983.787	12.4556
986.68	12.9257
989.573	14.4848
992.465	15.0819
995.358	17.4179
998.251	21.669
1001.14	25.6522
1004.04	29.1079
1006.93	33.2398
1009.82	38.0924
1012.71	42.4493
1015.61	44.8447
1018.5	44.2137
1021.39	44.1816
1024.29	40.5036
1027.18	35.3913
1030.07	32.5056
1032.96	30.7919
1035.86	32.6022
1038.75	33.8799
1041.64	40.7018
1044.53	49.8852
1047.43	58.363
1050.32	65.4027
1053.21	67.2134
1056.11	64.2469
1059	55.0619
1061.89	43.6746
1064.78	36.1909
1067.68	27.8462
1070.57	19.3524
1073.46	14.7561
1076.35	10.4122
1079.25	6.3349
1082.14	4.5613
1085.03	3.27371
1087.92	2.39458
1090.82	0.223145
1093.71	1.467
1096.6	0.842239
1099.49	0.302505
1102.39	0.691254
1105.28	0.591995
1108.17	1.40843
1111.07	0.096054
1113.96	1.12222
1116.85	1.17029
1119.74	0.464828
1122.64	1.46497
1125.53	0.857941
1128.42	0.373245
1131.32	1.05292
1134.21	2.48727
1137.1	0.779221
1139.99	2.54523
1142.89	1.31874
1145.78	1.76442
1148.67	3.27911
1151.56	2.26566
1154.46	2.0856
1157.35	2.16791
1160.24	4.68579
1163.13	2.47391
1166.03	3.72839
1168.92	3.29184
1171.81	4.15013
1174.7	3.16695
1177.6	2.52841
1180.49	3.54091
1183.38	2.91658
1186.28	3.32677
1189.17	4.46565
1192.06	4.56479
1194.95	2.61067
1197.85	3.16957
1200.74	2.97357
1203.63	3.03188
1206.53	2.60547
1209.42	2.80736
1212.31	2.72118
1215.2	2.90364
1218.1	2.00314
1220.99	0.987228
1223.88	2.03693
1226.77	1.19847
1229.67	0.858658
1232.56	1.35678
1235.45	1.49129
1238.35	0.751266
1241.24	0.777725
1244.13	0.58728
1247.02	1.48956
1249.92	2.40019
1252.81	2.59044
1255.7	3.02997
1258.59	0.406525
1261.49	1.06668
1264.38	0.542374
1267.27	1.28624
1270.16	1.03014
1273.06	1.39069
1275.95	1.57362
1278.84	0.877975
