Measurement: Raman, 532 nm, unoriented, Raman Data Processed
Mineral: Foitite
Rruff sample: R050495
Ideal chemistry: [box](Fe^2+^_2_Al)Al_6_(Si_6_O_18_)(BO_3_)_3_(OH)_3_OH
Locality: Coahuila Mountain, California, USA
Source: California Institute of Technology
Description: Bluish black prismatic fragment
Measured chemistry: ([box]_0.54_Na_0.46_)_Σ=1_(Fe^2+^_1.75_Al_0.85_Mg_0.18_Li_0.14_Mn_0.08_)_Σ=3_Al_6.00_(BO_3_)_3_(Si_5.83_Al_0.17_)_Σ=6_O_18_(OH)_4_ ; B and Li not measured but estimated by charge balance
Raman shift (cm-1)	intensity
149.328	0
152.221	0.022079
155.114	1.07907
158.006	0.769104
160.899	0.257599
163.792	0.049301
166.684	0.435059
169.577	0.2883
172.47	1.24187
175.363	1.65294
178.255	2.80846
181.148	3.5197
184.041	6.12103
186.933	8.05327
189.826	9.70409
192.719	11.0043
195.611	16.5315
198.504	21.9713
201.397	30.0984
204.29	32.0729
207.182	33.5535
210.075	39.0272
212.968	46.6774
215.86	53.96
218.753	61.5705
221.646	73.3338
224.538	81.5267
227.431	84.0636
230.324	83.4165
233.216	87.0662
236.109	86.5743
239.002	83.9326
241.894	74.2842
244.787	61.4157
247.68	49.4457
250.573	46.2264
253.465	42.3424
256.358	41.6605
259.251	38.3678
262.143	33.6936
265.036	27.2392
267.929	21.11
270.822	15.5646
273.714	12.6275
276.607	8.43896
279.5	5.01672
282.392	2.11881
285.285	1.03841
288.178	0.939941
291.07	0.838943
293.963	0.616882
296.856	1.23412
299.748	0.488174
302.641	0.551239
305.534	0.277481
308.427	2.41
311.319	4.01502
314.212	5.17349
317.105	3.64358
319.997	0.060699
322.89	0.090576
325.783	1.04793
328.675	1.13658
331.568	4.37738
334.461	7.78192
337.354	12.0616
340.246	16.7636
343.139	22.423
346.032	32.7129
348.924	43.5333
351.817	56.9231
354.71	71.2595
357.603	78.2321
360.495	88.3779
363.388	101.165
366.281	108.706
369.173	100.567
372.066	81.5212
374.959	62.7812
377.851	47.494
380.744	39.657
383.637	33.0198
386.529	29.539
389.422	26.173
392.315	24.8673
395.208	24.8431
398.1	23.1462
400.993	22.2785
403.886	20.5892
406.778	19.9457
409.671	16.4222
412.564	14.2032
415.457	9.02879
418.349	7.08383
421.242	5.30926
424.135	5.73431
427.027	4.61206
429.92	8.20116
432.813	10.1154
435.705	12.3393
438.598	13.3924
441.491	9.2699
444.384	5.00577
447.276	2.77445
450.169	1.60164
453.062	0.752975
455.954	0.641632
458.847	0.30864
461.74	1.50949
464.632	1.10329
467.525	0.59584
470.418	0.195435
473.31	1.24768
476.203	1.8737
479.096	1.71431
481.989	4.21414
484.881	5.82225
487.774	5.13631
490.667	7.54596
493.559	8.61221
496.452	8.20686
499.345	8.12617
502.238	9.50787
505.13	6.76067
508.023	6.01825
510.916	5.93137
513.808	3.71248
516.701	3.6553
519.594	3.03006
522.486	1.6929
525.379	0.378082
528.272	1.65234
531.164	2.05867
534.057	2.39356
536.95	2.99503
539.843	1.99788
542.735	1.75342
545.628	2.84004
548.521	1.6787
551.413	3.11417
554.306	1.88792
557.199	0.836197
560.091	1.73933
562.984	0.544617
565.877	0.227982
568.77	0.471069
571.662	0.258774
574.555	0.043152
577.448	0.329727
580.34	0.330627
583.233	0.789291
586.126	0.006149
589.018	0.012482
591.911	0.633301
594.804	0.408447
597.697	0.1586
600.589	0.685242
603.482	2.16444
606.375	2.02429
609.267	2.42508
612.16	3.53004
615.053	6.19075
617.945	9.74358
620.838	14.8753
623.731	19.7644
626.624	27.0351
629.516	33.7337
632.409	38.2674
635.302	37.9038
638.194	35.0053
641.087	30.0588
643.98	27.6411
646.872	23.586
649.765	21.2113
652.658	19.0454
655.551	17.4584
658.443	15.986
661.336	15.2036
664.229	17.715
667.121	17.1959
670.014	18.4359
672.907	21.0568
675.799	21.013
678.692	23.5041
681.585	21.4206
684.477	21.9102
687.37	27.1898
690.263	30.49
693.156	34.6398
696.048	38.0718
698.941	33.6299
701.834	27.2983
704.726	18.6535
707.619	11.7578
710.512	7.5751
713.404	4.11427
716.297	2.52843
719.19	0.16391
722.083	0.065842
724.975	0.738892
727.868	0.528519
730.761	1.29274
733.653	0.068481
736.546	1.47055
739.439	2.61104
742.332	3.32796
745.224	4.1369
748.117	4.75928
751.01	5.01419
753.902	5.43716
756.795	5.31604
759.688	6.51994
762.58	6.35657
765.473	7.80821
768.366	9.6356
771.259	12.483
774.151	14.3134
777.044	14.5677
779.937	14.3812
782.829	11.0444
785.722	7.58118
788.615	6.05173
791.507	4.03514
794.4	1.82278
797.293	0.143265
800.186	1.19902
803.078	1.77965
805.971	1.08144
808.864	1.79622
811.756	2.84198
814.649	1.96275
817.542	3.1481
820.434	2.3916
823.327	2.17123
826.22	1.94684
829.112	0.236313
832.005	2.69527
834.898	1.31802
837.791	0.781174
840.683	1.76302
843.576	0.86557
846.469	0.4991
849.361	1.33606
852.254	1.44212
855.147	1.06308
858.039	1.00594
860.932	0.804657
863.825	0.1008
866.718	1.72366
869.61	1.4657
872.503	0.603439
875.396	0.772858
878.288	1.71742
881.181	2.22194
884.074	1.24594
886.966	1.12839
889.859	1.67629
892.752	1.13336
895.645	0.261673
898.537	1.23964
901.43	0.391754
904.323	0.042267
907.215	0.060196
910.108	0.501663
913.001	0.56398
915.894	0.710602
918.786	1.28551
921.679	0.240479
924.572	0.303131
927.464	1.23416
930.357	1.0849
933.25	0.856522
936.142	0.891388
939.035	1.08725
941.928	1.37717
944.821	2.14035
947.713	2.4817
950.606	3.97636
953.499	3.27605
956.391	5.62431
959.284	5.73224
962.177	5.42532
965.069	5.58324
967.962	7.74153
970.855	8.79671
973.747	8.10097
976.64	6.91379
979.533	4.59273
982.426	5.40204
985.318	5.94606
988.211	6.69502
991.104	9.8138
993.996	13.5341
996.889	18.8102
999.782	26.5734
1002.67	37.2858
1005.57	45.1246
1008.46	31.7608
1011.35	19.8823
1014.25	15.7851
1017.14	14.1873
1020.03	13.0431
1022.92	11.6701
1025.82	11.7178
1028.71	9.27785
1031.6	8.66057
1034.49	8.90915
1037.39	9.31183
1040.28	9.93874
1043.17	11.2814
1046.07	11.6309
1048.96	14.7208
1051.85	16.8755
1054.74	15.0045
1057.64	13.6314
1060.53	13.3055
1063.42	10.3866
1066.31	7.7012
1069.21	6.86865
1072.1	4.21332
1074.99	3.20494
1077.88	2.26645
1080.78	2.25816
1083.67	1.19617
1086.56	0.694733
1089.45	0.355713
1092.35	0.119949
1095.24	0.117798
1098.13	0.752213
1101.03	0.144257
1103.92	0.217728
1106.81	0.727127
1109.7	1.26033
1112.6	0.356003
1115.49	0.153427
1118.38	0.181503
1121.28	1.23767
1124.17	1.63588
1127.06	0.208557
1129.95	0.547592
1132.85	1.27418
1135.74	0.503082
1138.63	1.40962
1141.52	1.04588
1144.42	2.20764
1147.31	1.82317
1150.2	0.921295
1153.1	0.472809
1155.99	0.540756
1158.88	1.32913
1161.77	1.24501
1164.67	0.937714
1167.56	1.39485
1170.45	1.22888
1173.34	1.71079
1176.24	1.9501
1179.13	2.64244
1182.02	1.48215
1184.91	2.02722
1187.81	1.37833
1190.7	2.18878
1193.59	1.95068
1196.48	1.23013
1199.38	1.38835
1202.27	1.90697
1205.16	1.08012
1208.06	0.136078
1210.95	1.14914
1213.84	1.05879
1216.73	0.756302
1219.63	1.3416
1222.52	0.920792
1225.41	2.44276
1228.31	1.15112
1231.2	1.45827
1234.09	1.02571
1236.98	1.13344
1239.88	1.10622
1242.77	0.48941
1245.66	0.980621
1248.55	0.491577
1251.45	0.41571
1254.34	0.920181
1257.23	2.06488
1260.12	0.036148
1263.02	0.794266
1265.91	1.83196
1268.8	1.44679
1271.7	1.79256
1274.59	0.606583
1277.48	1.74516
1280.37	2.56146
1283.27	1.38548
1286.16	0.25354
1289.05	0.28801
