Measurement: Raman, 532 nm, unoriented, Raman Data Processed
Mineral: Foitite
Rruff sample: R100088
Ideal chemistry: [box](Fe^2+^_2_Al)Al_6_(Si_6_O_18_)(BO_3_)_3_(OH)_3_OH
Locality: Oceanview mine, Chief Mountain, Pala District, San Diego County, California, USA
Source: Mark Mauthner
Description: Elongated prismatic purple to black to green crystals
Raman shift (cm-1)	intensity
136.775	0
140.15	0.100521
143.525	9.07957
146.9	18.4559
150.275	30.1568
153.649	71.5607
157.024	90.1052
160.399	95.1763
163.774	106.061
167.149	105.147
170.524	107.924
173.898	103.583
177.273	94.3206
180.648	89.8422
184.023	85.9674
187.398	82.8806
190.773	76.6796
194.147	77.3734
197.522	78.061
200.897	85.5067
204.272	101.836
207.647	124.15
211.021	157.613
214.396	197.371
217.771	247.068
221.146	290.734
224.521	283.263
227.895	229.372
231.27	189.528
234.645	160.739
238.02	146.644
241.395	143.649
244.769	135.13
248.144	119.679
251.519	104.116
254.894	91.5917
258.269	76.6868
261.644	71.4879
265.018	64.699
268.393	56.3762
271.768	50.6566
275.143	40.7555
278.518	29.8486
281.892	18.28
285.267	7.30441
288.642	2.25215
292.017	9.08872
295.392	9.41486
298.767	8.66302
302.141	3.81812
305.516	1.55879
308.891	6.85928
312.266	14.6148
315.641	22.5227
319.015	25.5473
322.39	29.0533
325.765	38.3431
329.14	50.0568
332.515	56.1959
335.89	63.6444
339.264	72.0049
342.639	77.0824
346.014	87.1382
349.389	91.2237
352.764	102.08
356.139	128.838
359.513	164.657
362.888	218.865
366.263	298.921
369.638	400.536
373.012	424.508
376.387	309.521
379.762	205.676
383.137	142.809
386.512	110.508
389.887	87.6656
393.261	84.9454
396.636	83.2185
400.011	86.9913
403.386	98.4147
406.761	105.966
410.135	101.108
413.51	76.7204
416.885	50.0277
420.26	29.3995
423.635	18.2885
427.01	8.97151
430.384	2.23515
433.759	3.09578
437.134	0.029572
440.509	0.190491
443.884	3.76927
447.259	1.33049
450.633	0.146118
454.008	2.32796
457.383	0.548782
460.758	1.72551
464.133	2.51076
467.507	0.162994
470.882	1.15813
474.257	4.70584
477.632	2.71922
481.007	9.06847
484.382	16.1287
487.756	23.2749
491.131	30.7713
494.506	34.4086
497.881	34.9245
501.256	37.7367
504.63	31.8634
508.005	29.1779
511.38	26.9413
514.755	24.7709
518.13	17.1193
521.505	8.11069
524.879	7.28157
528.254	3.57427
531.629	5.75591
535.004	0.308807
538.379	1.16652
541.753	0.821808
545.128	1.00366
548.503	0.423294
551.878	1.15776
555.253	0.341888
558.628	2.57283
562.002	3.12154
565.377	4.22418
568.752	2.30319
572.127	0.902161
575.502	1.51985
578.876	2.47652
582.251	0.828369
585.626	4.23466
589.001	1.94716
592.376	0.970261
595.75	1.89392
599.125	3.42206
602.5	0.705307
605.875	0.44722
609.25	0.951721
612.625	1.96861
615.999	6.58061
619.374	14.7674
622.749	24.49
626.124	41.6206
629.499	63.4066
632.873	75.8674
636.248	62.9284
639.623	52.2615
642.998	36.0581
646.373	29.0128
649.747	26.9172
653.122	23.3392
656.497	19.5584
659.872	18.2634
663.247	13.1202
666.622	8.08119
669.996	0.251999
673.371	2.76451
676.746	3.67342
680.121	4.30165
683.496	11.7433
686.87	25.3347
690.245	46.8704
693.62	78.9224
696.995	119.65
700.37	156.863
703.745	159.019
707.119	133.236
710.494	87.7479
713.869	48.8676
717.244	23.3671
720.619	7.09653
723.994	0.048584
727.368	2.3813
730.743	1.08137
734.118	1.20714
737.493	9.00973
740.868	23.4987
744.242	38.0299
747.617	65.2897
750.992	81.5346
754.367	74.4376
757.742	54.1294
761.116	35.4558
764.491	26.3696
767.866	19.457
771.241	14.5032
774.616	16.9044
777.99	9.44321
781.365	6.46173
784.74	5.73029
788.115	2.02815
791.49	0.981613
794.865	0.166565
798.239	2.47169
801.614	0.560242
804.989	1.03003
808.364	2.9017
811.739	3.0622
815.114	4.19971
818.488	4.81166
821.863	9.98016
825.238	18.143
828.613	29.4371
831.988	48.208
835.362	63.3489
838.737	63.3016
842.112	58.2711
845.487	41.3679
848.862	34.0575
852.236	24.1545
855.611	22.6512
858.986	20.5176
862.361	15.081
865.736	9.85185
869.111	7.483
872.485	8.86205
875.86	6.55159
879.235	5.75604
882.61	2.7076
885.985	2.47638
889.36	2.47946
892.734	3.80176
896.109	1.73061
899.484	1.31113
902.859	1.75847
906.234	2.75487
909.608	0.721359
912.983	2.76656
916.358	0.898132
919.733	1.43343
923.108	2.94745
926.482	1.45401
929.857	2.9203
933.232	0.150131
936.607	1.44626
939.982	2.81052
943.357	2.24414
946.731	2.88327
950.106	5.00871
953.481	8.75598
956.856	9.07735
960.231	10.0671
963.606	9.53308
966.98	7.80287
970.355	11.4493
973.73	9.64448
977.105	6.46284
980.48	6.98729
983.854	5.52997
987.229	6.06538
990.604	4.87982
993.979	2.75861
997.354	1.00716
1000.73	3.78418
1004.1	2.53091
1007.48	5.4183
1010.85	7.71252
1014.23	11.5744
1017.6	13.4233
1020.98	15.4852
1024.35	17.9539
1027.73	12.909
1031.1	20.1423
1034.48	31.2679
1037.85	35.0884
1041.23	46.3398
1044.6	63.6974
1047.98	85.1955
1051.35	102.235
1054.73	112.316
1058.1	110.859
1061.47	94.6128
1064.85	79.7035
1068.22	56.12
1071.6	41.7086
1074.97	37.2914
1078.35	36.2929
1081.72	40.7454
1085.1	43.4279
1088.47	34.1776
1091.85	26.6021
1095.22	15.1338
1098.6	12.5592
1101.97	8.69736
1105.35	3.68419
1108.72	2.07597
1112.1	1.70866
1115.47	3.19707
1118.85	0.979279
1122.22	0.237473
1125.6	0.22345
1128.97	0.942627
1132.35	2.10266
1135.72	0.059113
1139.1	0.723892
1142.47	0.508179
1145.85	2.68582
1149.22	3.50468
1152.6	0.921265
1155.97	1.19931
1159.35	3.64458
1162.72	1.59685
1166.09	4.66905
1169.47	5.22942
1172.84	4.85782
1176.22	3.32617
1179.59	4.42462
1182.97	7.87709
1186.34	4.99699
1189.72	6.0014
1193.09	4.46964
1196.47	5.79024
1199.84	6.30212
1203.22	3.78896
1206.59	2.5499
1209.97	6.10675
1213.34	4.23543
1216.72	6.0854
1220.09	4.66353
1223.47	5.74766
1226.84	5.13274
1230.22	4.78778
1233.59	1.21039
1236.97	3.58133
1240.34	1.90489
1243.71	2.30869
1247.09	4.90593
1250.46	1.58592
1253.84	4.71056
1257.21	5.83164
1260.59	2.41737
1263.96	4.20944
1267.34	3.30141
1270.71	4.00444
1274.09	3.29623
1277.46	2.71669
1280.84	0.93251
1284.21	3.92603
1287.59	4.78214
1290.96	0.911453
1294.34	2.60626
1297.71	0.077545
1301.09	3.32881
