Measurement: Raman, 780 nm, unoriented, Raman Data Processed
Mineral: Foordite
Rruff sample: R130012
Ideal chemistry: Sn^2+^Nb_2_O_6_
Locality: Manono, Shaba, Congo
Source: Michael Scott
Description: Brown massive, strong cleavage, yellowish-brown when thin
Raman shift (cm-1)	intensity
103.252	0
106.627	10.8392
110.002	34.3009
113.377	55.5895
116.752	68.6695
120.127	92.269
123.501	116.981
126.876	94.2113
130.251	49.8921
133.626	13.5319
137.001	1.45989
140.375	5.85374
143.75	1.62801
147.125	15.6759
150.5	39.535
153.875	73.6441
157.25	79.3337
160.624	35.1352
163.999	14.0356
167.374	5.4343
170.749	6.36682
174.124	5.59233
177.498	6.76935
180.873	5.94118
184.248	8.3765
187.623	13.69
190.998	21.6557
194.373	22.7976
197.747	17.2363
201.122	15.026
204.497	23.1867
207.872	33.6882
211.247	49.7882
214.621	74.7457
217.996	93.1021
221.371	90.1588
224.746	63.9262
228.121	43.5652
231.495	38.2386
234.87	42.6063
238.245	50.7574
241.62	57.6426
244.995	78.0344
248.369	108.232
251.744	140.455
255.119	127.184
258.494	80.5278
261.869	47.1865
265.244	24.2883
268.618	8.6573
271.993	0.193695
275.368	0.026581
278.743	8.21947
282.118	15.4037
285.493	27.6683
288.867	45.2319
292.242	71.6103
295.617	96.5053
298.992	88.5209
302.366	47.4745
305.741	17.2538
309.116	4.08496
312.491	2.29152
315.866	2.77771
319.241	2.2662
322.615	0.712219
325.99	1.87564
329.365	8.05545
332.74	11.9619
336.115	17.6609
339.49	20.5185
342.864	21.0696
346.239	21.032
349.614	21.3202
352.989	22.5195
356.364	26.8888
359.738	33.5982
363.113	42.18
366.488	53.1836
369.863	65.481
373.238	70.9371
376.613	64.743
379.987	46.2989
383.362	28.8879
386.737	14.3624
390.112	7.24858
393.486	2.23834
396.861	0.43644
400.236	0.163277
403.611	0.268112
406.986	0.507385
410.361	2.24039
413.735	5.59956
417.11	10.4738
420.485	16.5658
423.86	19.0416
427.235	21.1719
430.61	26.7198
433.984	28.9162
437.359	27.7374
440.734	23.5962
444.109	20.5847
447.484	21.0904
450.858	20.8289
454.233	20.901
457.608	19.8187
460.983	17.7658
464.358	14.7966
467.733	13.1823
471.107	10.3817
474.482	8.89805
477.857	7.6047
481.232	6.05182
484.606	7.12344
487.981	6.57388
491.356	5.8047
494.731	4.85595
498.106	3.63254
501.481	1.06072
504.855	0.990952
508.23	0.131546
511.605	1.40221
514.98	1.04089
518.355	2.02151
521.73	0.775406
525.104	1.25159
528.479	0.108246
531.854	0.630486
535.229	2.89987
538.604	5.16417
541.978	8.18693
545.353	11.6802
548.728	15.5635
552.103	22.2392
555.478	28.0726
558.852	35.5096
562.227	43.1705
565.602	47.8638
568.977	51.8419
572.352	50.8096
575.726	47.7071
579.101	42.5848
582.476	34.0145
585.851	28.2571
589.226	24.3195
592.601	22.9043
595.975	20.7857
599.35	19.9971
602.725	20.7942
606.1	18.1285
609.475	16.1155
612.85	15.0408
616.224	11.8988
619.599	11.1017
622.974	11.569
626.349	13.4863
629.723	16.0313
633.098	21.952
636.473	26.8914
639.848	33.4635
643.223	41.654
646.598	49.8083
649.972	57.5209
653.347	61.0956
656.722	61.6153
660.097	58.7802
663.472	52.1419
666.846	44.7533
670.221	35.3432
673.596	27.335
676.971	20.5535
680.346	14.8223
683.721	12.8622
687.095	8.19159
690.47	5.56983
693.845	3.07523
697.22	2.1606
700.595	2.14499
703.97	0.302704
707.344	0.383324
710.719	0.418373
714.094	1.50003
717.469	2.25025
720.843	1.16735
724.218	1.32638
727.593	0.150299
730.968	1.18803
734.343	2.72925
737.718	7.05145
741.092	6.56522
744.467	9.03864
747.842	13.0846
751.217	15.5063
754.592	20.7029
757.966	25.7081
761.341	33.5431
764.716	43.4602
768.091	54.6839
771.466	67.0902
774.841	84.6144
778.215	104.722
781.59	130.761
784.965	154.07
788.34	185.045
791.715	212.715
795.089	223.747
798.464	222.619
801.839	206.75
805.214	185.749
808.589	155.774
811.963	126.295
815.338	100.504
818.713	80.2927
822.088	62.6154
825.463	47.6439
828.838	35.5144
832.212	27.2793
835.587	20.3782
838.962	13.7095
842.337	10.2212
845.712	6.29955
849.087	3.50227
852.461	2.64493
855.836	0.105881
859.211	0.671272
862.586	0.581215
865.961	0.746544
869.335	1.58012
872.71	1.90493
876.085	2.44346
879.46	2.29924
882.835	3.62613
886.209	6.61629
889.584	9.41237
892.959	11.4344
896.334	17.5018
899.709	22.9817
903.083	17.4319
906.458	8.15362
909.833	2.42515
913.208	0.265518
916.583	0.639091
919.958	0.05809
923.332	0.830338
926.707	0.990452
930.082	0.143005
933.457	0.401817
936.832	0.760399
940.207	0.427395
943.581	0.74271
946.956	1.49927
950.331	1.77757
953.706	2.77273
957.081	3.62234
960.455	2.89156
963.83	3.53767
967.205	4.32097
970.58	3.96597
973.955	4.07251
977.329	4.57728
980.704	5.14424
984.079	3.90189
987.454	3.43567
990.829	2.99066
994.203	3.1896
997.578	2.51437
1000.95	1.48804
1004.33	1.48393
1007.7	1.7779
1011.08	1.75831
1014.45	0.936741
1017.83	1.47187
1021.2	1.12045
1024.58	1.06546
1027.95	1.01947
1031.33	1.35939
1034.7	0.222183
1038.08	1.31939
1041.45	1.22444
1044.83	0.640831
1048.2	1.1697
1051.58	0.818577
1054.95	1.36716
1058.33	1.87834
1061.7	1.03134
1065.08	0.299644
1068.45	0.226048
1071.82	0.765522
1075.2	0.093189
1078.57	0.15387
1081.95	0.856503
1085.32	1.25337
1088.7	0.643272
1092.07	0.885201
1095.45	0.839691
1098.82	0.515945
1102.2	0.429726
1105.57	0.238781
1108.95	0.561878
1112.32	0.145462
1115.7	0.084888
1119.07	0.436081
1122.45	0.658031
1125.82	0.877697
1129.2	0.263748
1132.57	0.261452
1135.95	0.573059
1139.32	0.302105
1142.69	0.101089
1146.07	0.694027
1149.44	0.49971
1152.82	0.582409
1156.19	0.435905
1159.57	0.508667
1162.94	0.3713
1166.32	0.357006
1169.69	0.926506
1173.07	0.749527
1176.44	0.757053
1179.82	0.616554
1183.19	0.796349
1186.57	1.48451
1189.94	1.10394
1193.32	0.692333
1196.69	0.964333
1200.07	0.183964
1203.44	1.35145
1206.82	0.086864
1210.19	0.306671
1213.57	0.546677
1216.94	0.248356
1220.32	0.315907
1223.69	0.538071
1227.07	0.930809
1230.44	0.156216
1233.82	0.065269
1237.19	0.342949
1240.57	0.327969
1243.94	0.718975
1247.32	0.170261
1250.69	0.122795
1254.06	0.278816
1257.44	0.266064
1260.81	0.328495
1264.19	1.34503
1267.56	0.906242
1270.94	0.237701
1274.31	0.789112
1277.69	0.051907
1281.06	0.439648
