Measurement: Raman, 532 nm, unoriented, Raman Data Processed
Mineral: Foordite
Rruff sample: R130012
Ideal chemistry: Sn^2+^Nb_2_O_6_
Locality: Manono, Shaba, Congo
Source: Michael Scott
Description: Brown massive, strong cleavage, yellowish-brown when thin
Raman shift (cm-1)	intensity
202.177	0
205.07	0.444916
207.962	7.91043
210.855	21.2584
213.748	47.5708
216.64	84.0865
219.533	120.314
222.426	133.255
225.319	108.308
228.211	77.2001
231.104	61.9332
233.997	62.7482
236.889	71.9391
239.782	83.8358
242.675	97.6024
245.567	115.8
248.46	155.051
251.353	209
254.245	241.491
257.138	199.248
260.031	130.204
262.924	87.8266
265.816	58.1142
268.709	34.3291
271.602	15.7672
274.494	4.55118
277.387	2.53705
280.28	6.08482
283.173	13.5861
286.065	26.2118
288.958	39.4881
291.851	60.6268
294.743	91.1688
297.636	119.883
300.529	106.902
303.421	63.1607
306.314	28.4531
309.207	10.2329
312.099	1.54317
314.992	2.5695
317.885	3.62209
320.778	2.786
323.67	0.782623
326.563	2.33356
329.456	4.64365
332.348	8.6714
335.241	13.0593
338.134	18.6787
341.026	22.8803
343.919	23.5659
346.812	22.7232
349.705	20.4309
352.597	19.058
355.49	16.5222
358.383	18.8762
361.275	20.5113
364.168	25.8045
367.061	30.758
369.954	37.4648
372.846	47.2838
375.739	49.8497
378.632	44.0684
381.524	30.6435
384.417	19.6473
387.31	9.592
390.202	5.50351
393.095	2.25162
395.988	0.661331
398.88	0.165588
401.773	0.116837
404.666	0.840164
407.559	3.06702
410.451	6.76225
413.344	13.0169
416.237	18.7929
419.129	27.6671
422.022	36.1596
424.915	38.4487
427.808	45.6983
430.7	54.3935
433.593	61.8562
436.486	61.566
439.378	54.0156
442.271	44.843
445.164	36.5879
448.056	30.4336
450.949	27.3863
453.842	25.5611
456.735	24.1132
459.627	23.0444
462.52	20.8396
465.413	19.7424
468.305	15.2454
471.198	12.6772
474.091	13.1855
476.983	12.1478
479.876	11.5136
482.769	12.7743
485.661	11.5047
488.554	12.1299
491.447	11.9124
494.34	9.18045
497.232	6.92734
500.125	5.0947
503.018	3.08318
505.91	2.00415
508.803	1.46506
511.696	0.38765
514.589	2.63805
517.481	2.8752
520.374	2.45755
523.267	2.67258
526.159	1.37688
529.052	0.367859
531.945	1.68207
534.837	4.86899
537.73	7.19502
540.623	10.3775
543.516	14.0045
546.408	19.9257
549.301	29.7238
552.194	40.7641
555.086	52.8732
557.979	66.9364
560.872	82.626
563.764	98.8019
566.657	113.462
569.55	124.264
572.442	129.051
575.335	127.201
578.228	116.896
581.121	102.371
584.013	86.529
586.906	75.2763
589.799	62.6569
592.691	55.9297
595.584	51.5801
598.477	51.5345
601.37	49.649
604.262	48.6668
607.155	45.8379
610.048	41.5747
612.94	36.3036
615.833	31.0989
618.726	26.7017
621.618	22.6478
624.511	20.8863
627.404	20.5699
630.297	22.2543
633.189	28.7455
636.082	34.0323
638.975	42.3723
641.867	54.5277
644.76	70.6368
647.653	87.6213
650.545	105.145
653.438	119.043
656.331	127.464
659.223	131.019
662.116	123.951
665.009	111.502
667.902	93.8872
670.794	78.8714
673.687	60.7219
676.58	48.2514
679.472	35.6031
682.365	24.8013
685.258	17.3247
688.15	12.5551
691.043	8.21298
693.936	4.18532
696.829	3.59224
699.721	0.982513
702.614	0.122055
705.507	1.40694
708.399	0.628342
711.292	4.29303
714.185	4.70912
717.077	4.76915
719.97	3.01312
722.863	3.12964
725.756	0.64917
728.648	3.4895
731.541	5.72951
734.434	11.3424
737.326	16.8223
740.219	24.068
743.112	31.5129
746.005	41.3336
748.897	51.8946
751.79	66.9318
754.683	78.604
757.575	97.8654
760.468	116.924
763.361	143.854
766.253	172.523
769.146	211.685
772.039	254.675
774.932	313.603
777.824	380.439
780.717	462.249
783.61	560.522
786.502	671.871
789.395	784.423
792.288	889.936
795.18	966.6
798.073	987.153
800.966	956.26
803.859	872.125
806.751	765.457
809.644	650.04
812.537	538.401
815.429	439.992
818.322	353.763
821.215	286.225
824.107	228.502
827	181.344
829.893	141.39
832.785	109.455
835.678	84.4832
838.571	64.1634
841.464	47.8075
844.356	34.931
847.249	24.2785
850.142	13.6005
853.034	6.55795
855.927	2.91527
858.82	0.374496
861.712	2.46614
864.605	4.28616
867.498	2.36266
870.391	0.902588
873.283	0.820465
876.176	3.32903
879.069	6.34409
881.961	5.78772
884.854	8.36757
887.747	12.3196
890.639	16.3717
893.532	22.2893
896.425	29.8926
899.318	40.2332
902.21	46.8864
905.103	38.3065
907.996	18.6877
910.888	9.57198
913.781	5.2132
916.674	2.86711
919.567	1.64778
922.459	0.998672
925.352	0.437286
928.245	0.865875
931.137	1.6582
934.03	0.063736
936.923	0.022522
939.815	0.955582
942.708	2.77162
945.601	3.41481
948.494	3.74028
951.386	4.259
954.279	2.90155
957.172	3.40405
960.064	4.73009
962.957	6.26717
965.85	7.67673
968.742	7.4225
971.635	8.726
974.528	8.63564
977.42	9.07791
980.313	9.43925
983.206	8.81644
986.099	8.58916
988.991	7.85442
991.884	7.17081
994.777	6.93498
997.669	5.44331
1000.56	5.23801
1003.46	5.41946
1006.35	4.74545
1009.24	4.19247
1012.13	4.99515
1015.03	3.77301
1017.92	4.73445
1020.81	1.75409
1023.7	3.11737
1026.6	1.98343
1029.49	2.52351
1032.38	1.89311
1035.28	1.54564
1038.17	1.91153
1041.06	1.76674
1043.95	1.07932
1046.85	0.970016
1049.74	1.52452
1052.63	1.31226
1055.52	1.07292
1058.42	1.92377
1061.31	0.166367
1064.2	1.55206
1067.09	2.68262
1069.99	1.48529
1072.88	0.673492
1075.77	0.434891
1078.66	0.69809
1081.56	0.80484
1084.45	1.2704
1087.34	1.63783
1090.24	0.445099
1093.13	1.19218
1096.02	0.910309
1098.91	0.634232
1101.81	0.89859
1104.7	0.797989
1107.59	0.780487
1110.48	0.274979
1113.38	0.390488
1116.27	0.231873
1119.16	0.426727
1122.06	0.217346
1124.95	0.537079
1127.84	0.946854
1130.73	1.22141
1133.63	0.111954
1136.52	1.14667
1139.41	0.779724
1142.3	0.827423
1145.2	0.324631
1148.09	0.959732
1150.98	0.739746
1153.88	0.260132
1156.77	0.37178
1159.66	0.446884
1162.55	0.702377
1165.45	0.210861
1168.34	0.364761
1171.23	0.060028
1174.12	4.43712
1177.02	1.37203
1179.91	1.11211
1182.8	0.66066
1185.69	1.18501
1188.59	0.639816
1191.48	1.35138
1194.37	0.669952
1197.27	0.541595
1200.16	1.51354
1203.05	3.37418
1205.94	0.161362
1208.84	0.915833
1211.73	0.749146
1214.62	0.052353
1217.52	0.919403
1220.41	0.592804
1223.3	1.64761
1226.19	0.250977
1229.09	0.470337
1231.98	0.786438
1234.87	0.88588
1237.76	1.14784
1240.66	0.296417
1243.55	0.418198
1246.44	0.892227
1249.33	0.939087
1252.23	1.14087
1255.12	1.90741
1258.01	2.9086
1260.9	1.82922
1263.8	2.43597
1266.69	2.76016
1269.58	1.97658
1272.48	0.491882
1275.37	1.70093
1278.26	0.058105
1281.15	1.32124
1284.05	1.5836
1286.94	0.955246
1289.83	0.683624
1292.72	1.20396
1295.62	1.22864
1298.51	0.971863
1301.4	0.500977
