Measurement: Raman, 532 nm, unoriented, Raman Data Processed
Mineral: Footemineite
Rruff sample: R090005
Ideal chemistry: Ca_2_Mn^2+^_5_Be_4_(PO_4_)_6_(OH)_4_6H_2_O
Locality: Foote mine, North Carolina, USA
Source: Luiz Menezes
Description: Pale yellow to light green prismatic or barrel-shaped crystals associated with colorless albite.
Raman shift (cm-1)	intensity
130.059	0
133.434	0.503876
136.809	15.2713
140.184	33.4544
143.559	54.2671
146.933	71.7519
150.308	23.4819
153.683	38.3321
157.058	81.7537
160.433	131.977
163.807	198.77
167.182	306.345
170.557	406.935
173.932	373.321
177.307	281.704
180.681	164.758
184.056	144.636
187.431	159.634
190.806	156.583
194.181	100.493
197.556	46.241
200.93	36.5339
204.305	45.3612
207.68	59.5198
211.055	47.4875
214.43	14.1024
217.804	2.44601
221.179	7.29211
224.554	4.88628
227.929	15.8598
231.304	43.5703
234.679	47.4918
238.053	53.99
241.428	84.8401
244.803	123.389
248.178	118.906
251.553	87.7433
254.928	72.0923
258.302	68.3259
261.677	72.6625
265.052	62.7349
268.427	29.9829
271.802	12.1611
275.176	7.32031
278.551	6.38136
281.926	7.49178
285.301	7.87669
288.676	13.3613
292.05	19.8645
295.425	26.8857
298.8	18.0453
302.175	6.4162
305.55	2.30481
308.925	1.11624
312.299	14.361
315.674	25.2289
319.049	14.141
322.424	10.6219
325.799	14.3215
329.173	28.167
332.548	34.6986
335.923	24.0308
339.298	8.07921
342.673	5.43004
346.048	6.58093
349.422	4.33597
352.797	34.7259
356.172	80.4275
359.547	153.009
362.922	232.309
366.296	323.322
369.671	406.111
373.046	426.665
376.421	326.855
379.796	188.981
383.171	101.311
386.545	67.0616
389.92	60.1287
393.295	74.726
396.67	96.2898
400.045	98.6938
403.419	81.1028
406.794	57.5901
410.169	60.9237
413.544	92.3474
416.919	121.807
420.293	132.705
423.668	184.938
427.043	264.204
430.418	311.748
433.793	244.426
437.168	132.392
440.542	58.7561
443.917	21.0145
447.292	0.216629
450.667	4.48665
454.042	1.6808
457.416	6.24295
460.791	19.151
464.166	22.7105
467.541	21.3169
470.916	18.6408
474.291	20.7203
477.665	26.8742
481.04	39.8063
484.415	56.3385
487.79	80.616
491.165	110.992
494.539	101.659
497.914	55.9329
501.289	18.2184
504.664	4.86903
508.039	1.45831
511.413	1.06155
514.788	4.02759
518.163	12.8084
521.538	31.2759
524.913	42.0597
528.288	28.6648
531.663	4.83116
535.037	6.12589
538.412	4.64215
541.787	4.69984
545.162	20.9177
548.537	37.977
551.911	66.2111
555.286	91.9905
558.661	92.3131
562.036	66.7037
565.411	50.267
568.785	52.9507
572.16	64.7966
575.535	64.2424
578.91	46.3418
582.285	21.565
585.659	13.1256
589.034	19.7998
592.409	27.4721
595.784	45.3232
599.159	74.2737
602.534	85.3377
605.908	41.5133
609.283	9.26709
612.658	7.3418
616.033	24.5552
619.408	58.6946
622.783	107.422
626.157	179.461
629.532	242.28
632.907	238.133
636.282	159.952
639.657	100.659
643.031	54.8114
646.406	28.4275
649.781	15.5732
653.156	8.47821
656.531	5.43176
659.905	5.44409
663.28	8.45889
666.655	10.779
670.03	15.485
673.405	17.6708
676.779	15.5869
680.154	13.2225
683.529	8.07231
686.904	3.44395
690.279	0.71312
693.654	0.895157
697.028	2.12961
700.403	2.60237
703.778	2.57806
707.153	0.899689
710.528	0.486069
713.903	3.61545
717.277	6.44658
720.652	8.37592
724.027	10.821
727.402	8.49926
730.777	6.98692
734.151	5.23905
737.526	3.98395
740.901	5.4594
744.276	6.40974
747.651	9.3652
751.025	14.2797
754.4	19.5387
757.775	23.0337
761.15	23.6519
764.525	25.2614
767.9	27.724
771.274	29.2045
774.649	30.1102
778.024	32.9273
781.399	30.8098
784.774	31.9996
788.149	29.821
791.523	27.8981
794.898	24.1014
798.273	17.7303
801.648	13.2752
805.023	7.6041
808.397	5.98982
811.772	2.91994
815.147	2.25999
818.522	1.15536
821.897	1.3149
825.271	0.759216
828.646	0.761909
832.021	1.63582
835.396	1.68088
838.771	2.31943
842.146	6.25404
845.52	5.80421
848.895	7.8505
852.27	10.748
855.645	13.4674
859.02	14.6646
862.394	15.1045
865.769	15.5196
869.144	13.94
872.519	13.2105
875.894	13.101
879.269	10.7461
882.643	9.3129
886.018	7.68506
889.393	7.1563
892.768	4.08225
896.143	0.840958
899.518	0.698982
902.892	3.37134
906.267	3.76928
909.642	5.40283
913.017	6.06856
916.391	3.1022
919.766	1.19284
923.141	8.65189
926.516	22.7188
929.891	47.7407
933.266	85.1848
936.64	138.649
940.015	198.162
943.39	241.767
946.765	234.093
950.14	199.612
953.514	182.195
956.889	188.142
960.264	236.661
963.639	339.233
967.014	524.189
970.389	810.601
973.763	1209.63
977.138	1626.13
980.513	1576.97
983.888	1093.13
987.263	710.756
990.638	460.007
994.012	324.221
997.387	262.057
1000.76	237.378
1004.14	236.538
1007.51	245.796
1010.89	253.673
1014.26	238.202
1017.64	217.81
1021.01	199.049
1024.39	177.995
1027.76	175.885
1031.13	161.019
1034.51	136.174
1037.88	156.738
1041.26	162.209
1044.63	108.006
1048.01	51.9612
1051.38	21.7386
1054.76	9.37436
1058.13	3.30386
1061.51	8.1542
1064.88	2.3956
1068.26	3.80664
1071.63	1.91948
1075.01	1.02312
1078.38	9.26805
1081.76	26.0925
1085.13	36.8536
1088.51	28.0005
1091.88	12.7423
1095.26	7.6863
1098.63	15.3424
1102.01	31.4011
1105.38	53.7259
1108.76	71.3312
1112.13	62.7778
1115.51	38.9897
1118.88	20.6433
1122.26	11.2006
1125.63	7.14114
1129.01	4.4262
1132.38	1.2984
1135.76	0.362457
1139.13	0.689476
1142.5	0.604439
1145.88	0.78775
1149.25	2.97505
1152.63	1.41759
1156	2.28355
1159.38	2.95062
1162.75	4.08132
1166.13	5.20132
1169.5	7.45393
1172.88	7.72768
1176.25	9.72448
1179.63	9.53926
1183	11.9837
1186.38	11.8509
1189.75	10.3695
1193.13	10.5827
1196.5	10.8992
1199.88	9.5417
1203.25	8.99004
1206.63	8.35974
1210	8.13713
1213.38	9.58369
1216.75	8.49686
1220.12	8.04966
1223.5	6.68725
1226.88	5.43075
1230.25	5.37374
1233.62	2.70198
1237	4.05596
1240.37	3.21575
1243.75	2.95682
1247.12	3.40479
1250.5	2.69063
1253.87	4.76966
1257.25	4.57768
1260.62	4.55632
1264	3.31257
1267.37	4.43828
1270.75	3.61349
1274.12	1.43225
1277.5	2.4985
1280.87	1.99551
1284.25	0.743202
1287.62	0.157883
1291	1.72438
1294.37	1.23985
1297.75	0.539528
1301.12	0.990089
