Measurement: Raman, 780 nm, unoriented, Raman Data Processed
Mineral: Footemineite
Rruff sample: R090005
Ideal chemistry: Ca_2_Mn^2+^_5_Be_4_(PO_4_)_6_(OH)_4_6H_2_O
Locality: Foote mine, North Carolina, USA
Source: Luiz Menezes
Description: Pale yellow to light green prismatic or barrel-shaped crystals associated with colorless albite.
Raman shift (cm-1)	intensity
117.407	0
120.782	0.231842
124.157	4.24817
127.531	8.71056
130.906	8.41623
134.281	11.6121
137.656	27.2458
141.031	33.3284
144.405	40.2663
147.78	39.0692
151.155	34.7841
154.53	57.0496
157.905	82.7641
161.28	120.78
164.654	166.824
168.029	226.836
171.404	239.015
174.779	177.228
178.154	119.928
181.529	90.7448
184.903	82.4578
188.278	79.7769
191.653	68.338
195.028	37.2196
198.403	21.5825
201.777	22.305
205.152	29.6576
208.527	44.7568
211.902	32.1381
215.277	10.322
218.651	5.43875
222.026	4.08069
225.401	7.97021
228.776	24.3507
232.151	35.7281
235.526	38.7215
238.9	44.6997
242.275	54.5113
245.65	56.5193
249.025	42.2447
252.4	35.5143
255.774	29.3931
259.149	26.6122
262.524	21.1853
265.899	15.0738
269.274	5.68477
272.649	3.605
276.023	3.47272
279.398	4.3176
282.773	3.85751
286.148	3.55466
289.523	5.68394
292.897	8.30545
296.272	7.52982
299.647	4.11212
303.022	0.152893
306.397	1.70903
309.772	0.983978
313.146	2.84285
316.521	3.5869
319.896	2.74838
323.271	2.50676
326.646	2.09085
330.021	8.76576
333.395	8.73248
336.77	3.37865
340.145	2.42088
343.52	2.1514
346.895	2.6972
350.269	12.7191
353.644	31.0575
357.019	48.9492
360.394	76.5747
363.769	103.228
367.144	126.401
370.518	134.823
373.893	125.391
377.268	84.3266
380.643	56.6483
384.018	38.797
387.392	43.4584
390.767	56.1659
394.142	76.8649
397.517	96.1669
400.892	93.2086
404.267	73.3048
407.641	58.1369
411.016	58.865
414.391	73.359
417.766	76.7782
421.141	76.4581
424.515	90.0628
427.89	101.166
431.265	96.5867
434.64	65.7931
438.015	31.541
441.389	11.2658
444.764	3.17674
448.139	1.437
451.514	2.63042
454.889	3.32303
458.264	5.34905
461.639	10.227
465.013	12.1538
468.388	9.8638
471.763	10.2752
475.138	12.7211
478.512	15.7162
481.887	15.9419
485.262	18.5034
488.637	22.8129
492.012	30.1449
495.387	23.9691
498.761	6.8504
502.136	1.95081
505.511	0.659378
508.886	1.04124
512.261	0.950195
515.636	2.7683
519.01	2.65292
522.385	9.27975
525.76	8.62369
529.135	3.42545
532.51	0.47403
535.885	2.58935
539.259	21.6141
542.634	45.5769
546.009	65.5974
549.384	83.8311
552.759	104.436
556.133	106.192
559.508	81.0187
562.883	52.0046
566.258	37.5222
569.633	36.9412
573.007	41.756
576.382	36.3185
579.757	20.9447
583.132	8.3766
586.507	4.6514
589.882	6.63544
593.256	9.82239
596.631	18.3848
600.006	32.5156
603.381	28.7272
606.756	12.7986
610.13	5.55023
613.505	13.7044
616.88	31.0864
620.255	50.1463
623.63	69.2846
627.005	89.4122
630.379	101.427
633.754	80.9437
637.129	53.7529
640.504	31.7281
643.879	15.5551
647.254	7.83891
650.628	3.67598
654.003	0.447021
657.378	0.150513
660.753	0.896194
664.128	1.24318
667.502	1.45735
670.877	3.71269
674.252	3.61313
677.627	2.14421
681.002	0.343063
684.376	0.4254
687.751	0.532043
691.126	0.755241
694.501	0.088188
697.876	0.757233
701.251	0.349487
704.625	2.08682
708	1.98174
711.375	2.22633
714.75	2.26903
718.125	2.25667
721.5	1.5217
724.874	1.99453
728.249	0.828278
731.624	0.480057
734.999	0.514381
738.374	1.68308
741.748	0.651939
745.123	1.68898
748.498	4.14707
751.873	6.35498
755.248	9.2363
758.622	11.5076
761.997	12.7737
765.372	13.5098
768.747	15.0002
772.122	17.0764
775.497	17.4215
778.871	16.4485
782.246	17.8174
785.621	16.5076
788.996	13.3659
792.371	11.6708
795.745	8.23727
799.12	5.86848
802.495	3.85171
805.87	3.23585
809.245	1.22823
812.62	2.31653
815.994	0.896309
819.369	0.523628
822.744	1.02155
826.119	0.760231
829.494	0.84095
832.869	1.57667
836.243	1.97071
839.618	3.49995
842.993	2.48975
846.368	4.52678
849.743	6.29057
853.117	8.06483
856.492	8.64815
859.867	8.97365
863.242	7.98334
866.617	9.41572
869.991	7.85744
873.366	7.07304
876.741	5.03814
880.116	5.80049
883.491	3.69329
886.866	3.09929
890.24	1.86024
893.615	2.44346
896.99	0.486145
900.365	0.838882
903.74	1.79182
907.115	4.04124
910.489	2.06773
913.864	1.26364
917.239	0.506027
920.614	2.26162
923.989	6.95325
927.364	16.5148
930.738	30.3981
934.113	48.8828
937.488	64.9061
940.863	83.6702
944.237	90.5605
947.612	86.3588
950.987	83.4222
954.362	92.7133
957.737	116.92
961.112	172.671
964.486	275.83
967.861	412.624
971.236	567.046
974.611	714.997
977.986	769.435
981.361	622.67
984.735	424.086
988.11	281.58
991.485	193.365
994.86	139.547
998.235	119.178
1001.61	108.962
1004.98	105.648
1008.36	101.245
1011.73	93.7718
1015.11	87.084
1018.48	82.0502
1021.86	75.4972
1025.23	71.5374
1028.61	69.8759
1031.98	57.8612
1035.36	49.6022
1038.73	49.1001
1042.11	37.6891
1045.48	19.7189
1048.86	6.04904
1052.23	2.13983
1055.61	4.17715
1058.98	4.83747
1062.36	1.2538
1065.73	1.49204
1069.11	1.00986
1072.48	3.49469
1075.86	7.25108
1079.23	16.2395
1082.61	19.9399
1085.98	16.8415
1089.36	8.79816
1092.73	3.83382
1096.1	6.83147
1099.48	12.8492
1102.85	20.452
1106.23	25.7331
1109.6	27.8574
1112.98	19.6163
1116.35	9.50889
1119.73	1.92705
1123.1	0.503578
1126.48	0.625145
1129.85	0.233055
1133.23	0.291771
1136.6	1.78819
1139.98	0.936035
1143.35	2.45583
1146.73	2.33421
1150.1	2.20153
1153.48	2.73257
1156.85	2.32072
1160.23	3.26448
1163.6	5.61862
1166.98	5.32584
1170.35	5.32421
1173.72	7.60863
1177.1	7.47209
1180.47	7.28108
1183.85	6.30608
1187.22	5.97044
1190.6	6.28936
1193.97	7.70412
1197.35	5.08078
1200.72	5.90239
1204.1	6.58524
1207.47	5.72102
1210.85	4.29099
1214.22	5.11313
1217.6	4.65056
1220.97	4.60977
1224.35	4.67883
1227.72	4.61964
1231.1	3.37085
1234.47	2.50893
1237.85	2.25075
1241.22	0.962563
1244.6	2.51675
1247.97	4.00234
1251.35	0.744865
1254.72	2.30985
1258.1	1.24757
1261.47	0.046303
1264.85	1.29739
1268.22	2.46955
1271.6	1.19935
1274.97	0.007027
1278.35	1.07149
1281.72	1.53948
1285.09	0.928955
