Measurement: Raman, 785 nm, unoriented, Raman Data Processed
Mineral: Fornacite
Rruff sample: R060986
Ideal chemistry: Cu^2+^Pb^2+^_2_(Cr^6+^O_4_)(As^5+^O_4_)(OH)
Locality: Tombstone, Arizona, USA
Source: Bob Jenkins
Description: Deep olive-green tabular plates on calcite crystals
Measured chemistry: Cu_1.00_Pb_2.00_(Cr_1.00_O_4_)(As_1.00_O_4_)(OH); OH estimated by difference and charge balance
Raman shift (cm-1)	intensity
123.457	0
126.349	112.302
129.242	561.934
132.135	1174.67
135.027	707.219
137.92	326.449
140.813	340.116
143.705	738.827
146.598	1212.01
149.491	1521.67
152.383	1487.74
155.276	1215.76
158.169	1107.45
161.062	1151.8
163.954	1149.65
166.847	1121.73
169.74	1048.05
172.632	979.657
175.525	871.976
178.418	799.933
181.31	716.673
184.203	662.791
187.096	596.518
189.989	550.894
192.881	507.269
195.774	456.443
198.667	461.217
201.559	394.496
204.452	377.215
207.345	341.967
210.238	293.053
213.13	234.106
216.023	216.128
218.916	174.428
221.808	151.492
224.701	142.699
227.594	83.3337
230.486	71.7101
233.379	36.4043
236.272	55.6346
239.164	11.2799
242.057	49.5087
244.95	49.8435
247.843	49.409
250.735	23.2517
253.628	33.0667
256.521	5.59994
259.413	31.8266
262.306	45.5161
265.199	22.25
268.091	23.8501
270.984	39.3418
273.877	51.6984
276.769	87.2123
279.662	182.723
282.555	295.364
285.448	405.66
288.34	633.776
291.233	806.577
294.126	1023.2
297.018	1192.43
299.911	1297.6
302.804	1388.22
305.697	1507.41
308.589	1573.13
311.482	1768.34
314.375	2069.23
317.267	2583.93
320.16	3395.25
323.053	4584.76
325.945	6012.8
328.838	7251.11
331.731	7894.63
334.623	7955.81
337.516	7776.24
340.409	7965.2
343.302	8468.33
346.194	8871.25
349.087	8651.48
351.98	7608.74
354.872	6026.05
357.765	4611.91
360.658	3590.31
363.55	3066.66
366.443	2937.39
369.336	2957.62
372.229	2956.45
375.121	2713.99
378.014	2218.05
380.907	1612.83
383.799	1144.44
386.692	812.724
389.585	596.711
392.477	495.103
395.37	471.006
398.263	447.231
401.156	453.276
404.048	399.972
406.941	319.643
409.834	289.635
412.726	164.121
415.619	134.107
418.512	124.34
421.404	119.376
424.297	116.966
427.19	108.583
430.082	87.2249
432.975	74.6764
435.868	48.9285
438.761	68.392
441.653	55.2382
444.546	28.9019
447.439	48.1159
450.331	26.7585
453.224	47.0371
456.117	55.6857
459.01	36.6109
461.902	23.2486
464.795	45.7541
467.688	31.315
470.58	32.5463
473.473	64.3186
476.366	63.572
479.258	69.275
482.151	84.74
485.044	51.4798
487.937	61.2452
490.829	84.9374
493.722	35.4267
496.615	14.1248
499.507	30.4973
502.4	20.3195
505.293	8.92792
508.185	5.15991
511.078	14.2842
513.971	22.8803
516.864	24.1484
519.756	17.3016
522.649	33.0336
525.542	43.5283
528.434	27.1726
531.327	19.1793
534.22	17.8993
537.112	25.2004
540.005	26.5348
542.898	31.5665
545.79	32.2159
548.683	32.1071
551.576	26.7068
554.469	21.1794
557.361	8.69446
560.254	29.0216
563.147	13.7099
566.039	44.1103
568.932	15.9141
571.825	15.9895
574.717	28.4892
577.61	36.582
580.503	47.5452
583.395	34.2634
586.288	31.3694
589.181	55.2585
592.074	48.3662
594.966	57.6863
597.859	54.2882
600.752	48.693
603.644	46.9339
606.537	58.7623
609.43	50.2454
612.322	39.6766
615.215	57.9963
618.108	42.9584
621.001	49.5026
623.893	47.9674
626.786	40.6462
629.679	41.9077
632.571	66.6558
635.464	56.5638
638.357	48.7586
641.25	58.7205
644.142	43.7234
647.035	48.9365
649.928	61.9075
652.82	63.8013
655.713	52.939
658.606	65.8605
661.498	45.79
664.391	60.731
667.284	72.3158
670.177	54.9795
673.069	73.3275
675.962	50.7397
678.855	57.1432
681.747	68.2673
684.64	64.4899
687.533	75.6544
690.425	66.6901
693.318	51.8872
696.211	56.0389
699.104	62.2664
701.996	59.1578
704.889	56.5969
707.782	57.47
710.674	79.96
713.567	56.1782
716.46	66.3878
719.352	61.8787
722.245	61.256
725.138	60.0553
728.03	66.3006
730.923	63.6632
733.816	73.4368
736.709	66.2556
739.601	69.5013
742.494	60.4963
745.387	73.7788
748.279	73.1564
751.172	84.1824
754.065	92.3401
756.957	105.055
759.85	215.671
762.743	301.024
765.635	408.497
768.528	536.724
771.421	683.941
774.314	841.364
777.206	919.059
780.099	1076.07
782.992	1201.81
785.884	1448.04
788.777	1673.72
791.67	1981.05
794.562	2406.86
797.455	2945.34
800.348	3642.59
803.241	4562.99
806.133	5744.33
809.026	7073.85
811.919	8635.8
814.811	10211.6
817.704	11694.2
820.597	12791
823.49	13568.5
826.382	13730.5
829.275	13254.9
832.168	12397.4
835.06	11121.9
837.953	9548.51
840.846	7962.64
843.738	6457.61
846.631	5007.92
849.524	3900.97
852.416	3015.87
855.309	2220.98
858.202	1727.52
861.095	1330.61
863.987	1098.07
866.88	951.97
869.773	943.451
872.665	969.879
875.558	1083.47
878.451	1265.4
881.343	1529.96
884.236	1837.63
887.129	2010.11
890.021	2083.31
892.914	1858.68
895.807	1457.15
898.7	991.368
901.592	625.012
904.485	338.933
907.378	153.332
910.27	62.0137
913.163	38.6193
916.056	39.4276
918.948	31.3442
921.841	27.5248
924.734	30.954
927.627	38.0637
930.519	35.0938
933.412	24.0284
936.305	33.0001
939.197	39.4727
942.09	32.3888
944.983	22.8997
947.875	45.266
950.768	35.8784
953.661	42.9529
956.554	36.0836
959.446	32.9189
962.339	18.573
965.232	22.5046
968.124	27.298
971.017	35.5313
973.91	32.3715
976.803	31.6788
979.695	32.1061
982.588	36.8028
985.481	31.7417
988.373	26.7396
991.266	29.4381
994.159	36.5216
997.051	19.5851
999.944	36.9999
1002.84	16.6917
1005.73	35.8478
1008.62	30.3728
1011.51	32.0284
1014.41	29.6525
1017.3	26.1879
1020.19	22.9076
1023.09	19.0905
1025.98	17.5989
1028.87	23.035
1031.76	16.5768
1034.66	17.6498
1037.55	34.1587
1040.44	28.337
1043.34	33.8135
1046.23	25.7041
1049.12	19.0376
1052.01	17.1102
1054.9	21.8112
1057.8	7.63305
1060.69	18.0291
1063.58	21.6755
1066.48	20.3799
1069.37	27.2012
1072.26	24.6404
1075.15	9.64822
1078.05	29.2952
1080.94	6.71767
1083.83	14.2293
1086.72	18.3404
1089.62	22.3676
1092.51	12.3465
1095.4	10.6938
1098.3	3.25051
1101.19	5.77546
1104.08	25.0228
1106.97	16.8346
1109.87	4.23663
1112.76	4.51269
1115.65	3.99481
1118.55	12.9858
1121.44	4.43161
1124.33	2.97177
1127.22	7.59403
1130.12	4.14822
1133.01	10.3206
1135.9	15.7281
1138.79	1.15362
1141.69	9.09332
1144.58	1.10547
1147.47	12.9904
1150.36	7.08814
1153.26	11.3841
1156.15	20.3009
1159.04	8.79376
1161.93	7.22049
1164.83	5.98422
1167.72	22.9416
1170.61	18.3931
1173.51	4.6029
1176.4	18.9451
1179.29	29.9559
1182.18	20.5471
1185.08	44.8581
1187.97	21.3241
1190.86	8.82822
1193.76	18.7952
1196.65	24.4895
1199.54	26.8333
1202.43	1.65405
1205.33	5.97971
1208.22	17.6467
1211.11	27.3932
1214	21.8528
1216.9	30.9322
1219.79	36.8788
1222.68	19.3734
1225.58	28.0861
1228.47	44.7513
1231.36	21.509
1234.25	21.3246
1237.14	0.518524
1240.04	0.8685
1242.93	30.8139
1245.82	13.8846
1248.72	6.46838
1251.61	22.1524
1254.5	28.048
1257.39	5.76779
1260.29	14.4894
1263.18	27.6652
