Measurement: Raman, 532 nm, unoriented, Raman Data Processed
Mineral: Fornacite
Rruff sample: R060986
Ideal chemistry: Cu^2+^Pb^2+^_2_(Cr^6+^O_4_)(As^5+^O_4_)(OH)
Locality: Tombstone, Arizona, USA
Source: Bob Jenkins
Description: Deep olive-green tabular plates on calcite crystals
Measured chemistry: Cu_1.00_Pb_2.00_(Cr_1.00_O_4_)(As_1.00_O_4_)(OH); OH estimated by difference and charge balance
Raman shift (cm-1)	intensity
122.487	0
125.862	245.118
129.237	415.006
132.612	506.053
135.987	476.259
139.361	533.907
142.736	635.472
146.111	662.67
149.486	578.306
152.861	509.077
156.235	446.364
159.61	408.792
162.985	422.627
166.36	357.799
169.735	238.764
173.109	189.745
176.484	158.745
179.859	112.279
183.234	75.062
186.609	109.993
189.983	68.0618
193.358	22.542
196.733	53.922
200.108	71.0772
203.483	61.1239
206.858	100.865
210.232	121.851
213.607	106.877
216.982	91.6327
220.357	64.0179
223.732	56.7743
227.107	37.182
230.481	34.3648
233.856	44.7349
237.231	11.5244
240.606	1.5304
243.981	6.92664
247.355	2.61255
250.73	6.28052
254.105	70.0464
257.48	38.7192
260.855	61.5413
264.229	41.0493
267.604	54.6327
270.979	47.8976
274.354	4.97144
277.729	71.7662
281.103	179.159
284.478	241.427
287.853	360.165
291.228	540.737
294.603	676.351
297.978	743.813
301.352	859.46
304.727	967.052
308.102	1115.76
311.477	1351.79
314.852	1671.71
318.226	2346.95
321.601	3343.36
324.976	4612.84
328.351	5962.33
331.726	6970.9
335.101	7637.59
338.475	8235.85
341.85	9365.6
345.225	10251.3
348.6	10602.2
351.975	9547.65
355.349	7479.59
358.724	5489.65
362.099	4288.5
365.474	3802.69
368.849	3622.91
372.224	3676.83
375.598	3400.66
378.973	2812.36
382.348	2030.64
385.723	1380.84
389.098	1025.03
392.472	765.329
395.847	654.818
399.222	604.803
402.597	540.087
405.972	501.758
409.346	383.286
412.721	301.903
416.096	180.125
419.471	110.073
422.846	27.6731
426.221	30.7029
429.595	42.9431
432.97	54.5876
436.345	43.7766
439.72	65.9822
443.094	19.3252
446.469	3.2959
449.844	36.8202
453.219	62.7317
456.594	127.128
459.969	124.818
463.343	112.348
466.718	67.3601
470.093	76.0099
473.468	32.0048
476.843	7.1781
480.217	8.67188
483.592	1.38916
486.967	40.8236
490.342	40.5409
493.717	0.108765
497.092	2.16638
500.466	1.95373
503.841	3.19202
507.216	2.15124
510.591	7.06384
513.966	5.58728
517.341	11.9998
520.715	33.4869
524.09	50.4946
527.465	25.1949
530.84	19.8243
534.215	33.8346
537.589	11.059
540.964	4.51208
544.339	14.0654
547.714	5.38403
551.089	35.2285
554.463	24.9537
557.838	24.4419
561.213	51.1405
564.588	42.0297
567.963	68.4438
571.337	109.027
574.712	68.7257
578.087	89.089
581.462	97.951
584.837	121.813
588.212	152.223
591.586	154.595
594.961	177.127
598.336	219.933
601.711	237.014
605.086	244.2
608.46	286.4
611.835	304.482
615.21	308.597
618.585	348.325
621.96	373.765
625.335	503.413
628.709	454.682
632.084	483.067
635.459	546.069
638.834	585.956
642.209	599.316
645.583	661.225
648.958	703.554
652.333	748.673
655.708	796.844
659.083	824.496
662.457	848.561
665.832	874.02
669.207	907.549
672.582	941.082
675.957	956.128
679.332	968.399
682.706	961.161
686.081	979.659
689.456	892.69
692.831	841.997
696.206	755.868
699.58	686.369
702.955	564.948
706.33	464.789
709.705	358.857
713.08	267.62
716.455	161.66
719.829	92.4976
723.204	37.4224
726.579	41.1755
729.954	98.8306
733.328	162.236
736.703	177.909
740.078	230.934
743.453	215.519
746.828	190.677
750.203	99.9614
753.577	125.664
756.952	91.6016
760.327	230.691
763.702	508.042
767.077	784.587
770.452	1240.33
773.826	1695.28
777.201	2116.51
780.576	2656.28
783.951	3378.67
787.326	4310.1
790.7	5451.31
794.075	7124.98
797.45	9129.98
800.825	11879.6
804.2	15485.6
807.574	19915.6
810.949	25163.4
814.324	31095.5
817.699	36769.6
821.074	40994.9
824.448	42967.5
827.823	42117.8
831.198	39068.3
834.573	34541.9
837.948	29292.9
841.323	23741.2
844.697	18864.4
848.072	14510.1
851.447	11035.1
854.822	8472.12
858.197	6890.11
861.571	5771.25
864.946	5117.55
868.321	4774.14
871.696	4788.31
875.071	5045.53
878.446	5465.41
881.82	5889.56
885.195	6065.9
888.57	5904.9
891.945	5175.9
895.32	3935
898.694	2548.93
902.069	1399.63
905.444	695.373
908.819	283.757
912.194	25.8374
915.568	165.358
918.943	184.2
922.318	230.473
925.693	215.25
929.068	193.774
932.442	152.465
935.817	120.635
939.192	50.0034
942.567	39.583
945.942	158.843
949.317	217.145
952.691	345.422
956.066	444.93
959.441	535.661
962.816	665.828
966.191	768.923
969.566	900.558
972.94	964.875
976.315	1030.19
979.69	1047.27
983.065	1074.45
986.439	1087.57
989.814	1060.09
993.189	1005.92
996.564	965.235
999.939	872.424
1003.31	858.748
1006.69	796.983
1010.06	755.359
1013.44	707.866
1016.81	694.749
1020.19	671.414
1023.56	647.18
1026.94	621.17
1030.31	572.163
1033.69	529.956
1037.06	507.718
1040.44	464.723
1043.81	406.224
1047.19	375.352
1050.56	322.658
1053.94	325.283
1057.31	305.261
1060.68	265.157
1064.06	236.541
1067.43	232.657
1070.81	167.649
1074.18	156.865
1077.56	157.798
1080.93	134.34
1084.31	102.371
1087.68	91.9904
1091.06	57.3418
1094.43	50.7533
1097.81	31.3658
1101.18	33.7689
1104.56	43.5573
1107.93	17.2964
1111.31	8.4884
1114.68	2.07165
1118.06	38.157
1121.43	4.38855
1124.81	10.5229
1128.18	2.44006
1131.56	3.73181
1134.93	24.245
1138.31	14.9796
1141.68	22.9524
1145.06	12.9938
1148.43	7.11011
1151.81	2.25708
1155.18	29.0207
1158.56	60.3234
1161.93	47.2019
1165.31	71.4908
1168.68	51.5399
1172.05	68.6154
1175.43	54.7018
1178.8	68.4152
1182.18	62.6237
1185.55	62.3978
1188.93	58.1322
1192.3	67.0425
1195.68	46.3554
1199.05	26.0109
1202.43	32.5185
1205.8	41.772
1209.18	34.8027
1212.55	54.2239
1215.93	57.8513
1219.3	28.7696
1222.68	50.8461
1226.05	46.3922
1229.43	9.57861
1232.8	51.7769
1236.18	26.6332
1239.55	52.5792
1242.92	53.7031
1246.3	51.1323
1249.67	82.4613
1253.05	69.745
1256.42	62.4634
1259.8	78.0222
1263.17	75.0212
1266.55	4.54907
1269.92	19.1113
1273.3	26.3646
1276.67	16.6248
1280.05	12.2916
1283.42	9.0647
1286.8	24.4241
1290.17	30.2921
