Measurement: Raman, 532 nm, unoriented, Raman Data Processed
Mineral: Fornacite
Rruff sample: R060932
Ideal chemistry: Cu^2+^Pb^2+^_2_(Cr^6+^O_4_)(As^5+^O_4_)(OH)
Locality: Tiger, Arizona, USA
Source: Bob Jenkins
Description: Groups of tabular olive-green crystals
Measured chemistry: Cu_1.00_(Pb_1.99_Fe_0.01_)_Σ=2_(Cr_1.00_O_4_)((As_0.97_P_0.03_)_Σ=1_O_4_)(OH)
Raman shift (cm-1)	intensity
120.077	0
123.451	174.86
126.826	176.541
130.201	120.501
133.576	331.634
136.951	554.67
140.326	740.625
143.7	713.918
147.075	631.327
150.45	549.789
153.825	499.035
157.2	498.81
160.574	514.652
163.949	565.38
167.324	459.555
170.699	409.569
174.074	331.944
177.448	376.882
180.823	456.405
184.198	311.468
187.573	261.878
190.948	296.251
194.323	209.066
197.697	167.881
201.072	196.655
204.447	228.499
207.822	226.369
211.197	182.396
214.571	158.076
217.946	146.727
221.321	124.676
224.696	45.542
228.071	98.0615
231.446	78.9092
234.82	59.2685
238.195	30.2432
241.57	38.0786
244.945	45.6245
248.32	30.8423
251.694	34.6558
255.069	16.7188
258.444	79.9463
261.819	58.7559
265.194	10.2852
268.568	2.73975
271.943	118.506
275.318	1.9043
278.693	36.542
282.068	130.05
285.442	173.427
288.817	280.31
292.192	359.634
295.567	395.901
298.942	495.416
302.317	486.14
305.691	737.025
309.066	899.056
312.441	1100.89
315.816	1435.24
319.191	1957.28
322.565	2753.25
325.94	3731.65
329.315	4434.72
332.69	4497.76
336.065	4254.64
339.44	4095.85
342.814	3999.39
346.189	4072.54
349.564	4016.3
352.939	3679.31
356.314	3226.41
359.688	2884.55
363.063	2898
366.438	3119.4
369.813	3259.57
373.188	3277.43
376.562	3075.21
379.937	2519.13
383.312	1953.18
386.687	1376.95
390.062	1032.2
393.437	821.144
396.811	587.577
400.186	469.141
403.561	333.984
406.936	303.697
410.311	233.236
413.685	166.09
417.06	120.38
420.435	78.606
423.81	81.4331
427.185	16.8335
430.56	14.0933
433.934	50.9248
437.309	14.4448
440.684	67.8252
444.059	32.0679
447.434	30.5395
450.808	20.5264
454.183	36.835
457.558	53.4912
460.933	13.5337
464.308	35.5122
467.683	23.5376
471.057	46.6611
474.432	25.3833
477.807	26.251
481.182	38.9258
484.557	37.21
487.931	27.8115
491.306	22.2593
494.681	35.686
498.056	6.5708
501.431	17.9546
504.805	9.04736
508.18	10.8013
511.555	43.831
514.93	78.0781
518.305	70.4853
521.679	114.078
525.054	60.9413
528.429	79.3849
531.804	61.181
535.179	60.3447
538.554	17.6685
541.928	74.3462
545.303	47.5625
548.678	95.1465
552.053	64.5293
555.428	67.1533
558.802	20.0815
562.177	155.556
565.552	61.377
568.927	103.066
572.302	116.84
575.677	111.481
579.051	163.523
582.426	158.647
585.801	204.166
589.176	189.972
592.551	190.555
595.925	256.664
599.3	286.027
602.675	316.861
606.05	359.869
609.425	377.859
612.799	454.24
616.174	470.031
619.549	527.471
622.924	596.447
626.299	597.901
629.673	616.134
633.048	685.852
636.423	665.77
639.798	745.166
643.173	740.406
646.548	845.484
649.922	876.888
653.297	892.162
656.672	941.713
660.047	1010.78
663.422	1003.9
666.797	1001.87
670.171	1051.22
673.546	994.562
676.921	988.949
680.296	950.341
683.67	961.263
687.045	914.371
690.42	824.579
693.795	752.561
697.17	612.296
700.545	488.258
703.919	331.24
707.294	243.383
710.669	115.177
714.044	81.106
717.419	28.4736
720.793	28.5049
724.168	72.313
727.543	163.409
730.918	180.453
734.293	217.009
737.668	237.134
741.042	297.072
744.417	147.867
747.792	10.3408
751.167	96.96
754.542	234.41
757.916	511.478
761.291	856.063
764.666	1226.86
768.041	1819.3
771.416	2442.62
774.79	3128.78
778.165	3971.12
781.54	4977.79
784.915	6236.25
788.29	7722.14
791.665	9607.9
795.039	12181.9
798.414	15543.4
801.789	19481.2
805.164	24597.8
808.539	30534.2
811.913	37006
815.288	43342.4
818.663	48325.9
822.038	50757.2
825.413	50259.5
828.788	46660.8
832.162	41152
835.537	34689.3
838.912	28440.5
842.287	22733.6
845.662	17775.2
849.036	13611.9
852.411	10560.6
855.786	8419.17
859.161	7107.79
862.536	6271.62
865.91	5687.03
869.285	5334.31
872.66	5017.48
876.035	4702.56
879.41	4243.5
882.784	3632.28
886.159	2945.88
889.534	2356.91
892.909	1693.51
896.284	1203.93
899.659	663.779
903.033	250.032
906.408	6.51074
909.783	228.398
913.158	263.478
916.533	284.688
919.908	290.442
923.282	187.31
926.657	110.284
930.032	112.527
933.407	15.5947
936.782	45.1309
940.156	172.585
943.531	239.084
946.906	389.158
950.281	491.085
953.656	563.962
957.03	660.16
960.405	828.428
963.78	900.408
967.155	983.555
970.53	1080.51
973.904	1117.54
977.279	1025.16
980.654	1007.46
984.029	993.911
987.404	967.016
990.779	931.613
994.153	864.83
997.528	825.867
1000.9	811.04
1004.28	753.281
1007.65	716.091
1011.03	712.523
1014.4	704.235
1017.78	600.603
1021.15	629.719
1024.53	606.072
1027.9	571.07
1031.28	538.297
1034.65	465.106
1038.03	491.273
1041.4	416.827
1044.78	330.257
1048.15	352.394
1051.53	325.887
1054.9	339.212
1058.28	234.983
1061.65	201.307
1065.03	192.081
1068.4	162.063
1071.77	161.371
1075.15	109.897
1078.52	60.6987
1081.9	90.5063
1085.27	71.9565
1088.65	51.0537
1092.02	38.8355
1095.4	20.9683
1098.77	50.6504
1102.15	81.021
1105.52	61.3481
1108.9	6.79004
1112.27	43.4424
1115.65	27.6826
1119.02	7.7583
1122.4	22.3579
1125.77	23.5977
1129.15	6.83301
1132.52	35.9902
1135.9	6.41504
1139.27	31.2842
1142.64	4.76465
1146.02	41.1938
1149.39	34.9995
1152.77	40.3833
1156.14	82.9185
1159.52	54.4849
1162.89	100.733
1166.27	97.5547
1169.64	49.6348
1173.02	92.1963
1176.39	66.4312
1179.77	86.6352
1183.14	112.789
1186.52	87.5459
1189.89	118.762
1193.27	174.227
1196.64	100.54
1200.02	157.423
1203.39	128.376
1206.77	69.9214
1210.14	77.7607
1213.52	155.015
1216.89	148.784
1220.27	86.2891
1223.64	88.4722
1227.02	115.221
1230.39	103.632
1233.77	78.5059
1237.14	77.4951
1240.52	134.719
1243.89	116.127
1247.26	100.271
1250.64	158.932
1254.01	117.755
1257.39	84.5596
1260.76	66.8755
1264.14	62.356
1267.51	46.937
1270.89	72.5239
1274.26	59.5957
1277.64	42.7695
1281.01	39.2393
1284.39	17.2329
1287.76	24.1562
1291.14	59.3213
1294.51	8.09131
