Measurement: Raman, 785 nm, unoriented, Raman Data Processed
Mineral: Fornacite
Rruff sample: R060932
Ideal chemistry: Cu^2+^Pb^2+^_2_(Cr^6+^O_4_)(As^5+^O_4_)(OH)
Locality: Tiger, Arizona, USA
Source: Bob Jenkins
Description: Groups of tabular olive-green crystals
Measured chemistry: Cu_1.00_(Pb_1.99_Fe_0.01_)_Σ=2_(Cr_1.00_O_4_)((As_0.97_P_0.03_)_Σ=1_O_4_)(OH)
Raman shift (cm-1)	intensity
145.152	0
148.044	156.095
150.937	162.311
153.83	16.3787
156.723	0.299316
159.615	50.1511
162.508	207.962
165.401	299.55
168.293	325.271
171.186	278.324
174.079	206.797
176.971	111.92
179.864	158.045
182.757	117.788
185.65	183.102
188.542	178.925
191.435	151.839
194.328	234.662
197.22	214.724
200.113	219.188
203.006	210.018
205.899	204.041
208.791	165.983
211.684	115.305
214.577	128.117
217.469	75.2231
220.362	114.759
223.255	76.7991
226.147	44.5593
229.04	44.759
231.933	42.9202
234.825	38.8792
237.718	11.7932
240.611	10.5271
243.504	22.9133
246.396	28.1438
249.289	16.0347
252.182	35.9102
255.074	41.0869
257.967	20.874
260.86	23.9109
263.752	16.7539
266.645	31.648
269.538	16.74
272.43	9.99243
275.323	92.5544
278.216	137.952
281.109	226.002
284.001	324.943
286.894	472.286
289.787	578.278
292.679	671.791
295.572	818.46
298.465	915.374
301.358	987.035
304.25	1023.39
307.143	1038.67
310.036	1060.65
312.928	1162.39
315.821	1434.06
318.714	1968.44
321.606	2694.42
324.499	3883.11
327.392	5124.3
330.284	6006.37
333.177	6366.76
336.07	6312.27
338.963	6557.31
341.855	7417.69
344.748	8834.95
347.641	9985.94
350.533	10244.6
353.426	9124.46
356.319	7181.15
359.212	5288.38
362.104	4132.75
364.997	3587.3
367.89	3575.09
370.782	3968.68
373.675	4626.68
376.568	5045
379.46	4806.3
382.353	3701.34
385.246	2458.4
388.139	1587.39
391.031	1069.7
393.924	773.777
396.817	593.579
399.709	469.712
402.602	403.651
405.495	374.514
408.387	252.925
411.28	192.763
414.173	169.967
417.065	92.2593
419.958	17.6006
422.851	2.40698
425.744	47.449
428.636	75.6648
431.529	34.7693
434.422	60.2026
437.314	45.3877
440.207	73.7969
443.1	16.2009
445.993	12.321
448.885	36.4297
451.778	87.7554
454.671	130.535
457.563	102.772
460.456	170.554
463.349	158.573
466.241	149.842
469.134	100.06
472.027	96.6265
474.92	80.3044
477.812	125.112
480.705	90.3516
483.598	106.081
486.49	92.2854
489.383	100.491
492.276	125.341
495.168	53.6536
498.061	34.8618
500.954	34.8957
503.846	22.2058
506.739	23.6794
509.632	47.3535
512.524	41.8174
515.417	25.5881
518.31	16.0828
521.203	54.6094
524.095	53.9839
526.988	61.3364
529.881	50.0369
532.773	29.0664
535.666	18.7888
538.559	36.9993
541.452	47.052
544.344	33.2268
547.237	51.4255
550.13	34.3213
553.022	14.5124
555.915	21.3843
558.808	57.0862
561.7	43.4487
564.593	8.25391
567.486	15.1323
570.379	28.0933
573.271	24.4985
576.164	18.9648
579.057	12.4976
581.949	44.2512
584.842	40.0276
587.735	54.9414
590.627	35.5381
593.52	39.4536
596.413	71.3616
599.306	67.2983
602.198	81.8435
605.091	121.541
607.984	106.76
610.876	93.531
613.769	72.2859
616.662	77.1248
619.554	131.94
622.447	104.335
625.34	128.457
628.232	120.486
631.125	141.032
634.018	177.008
636.911	174.056
639.803	155.899
642.696	174.071
645.589	216.935
648.481	163.571
651.374	183.564
654.267	241.974
657.159	244.871
660.052	259.801
662.945	259.951
665.838	259.969
668.73	270.169
671.623	275.879
674.516	276.957
677.408	338.675
680.301	341.136
683.194	312.236
686.087	378.253
688.979	373.541
691.872	365.719
694.765	396.882
697.657	376.44
700.55	370.094
703.443	326.101
706.335	276.644
709.228	258.892
712.121	248.171
715.014	232.556
717.906	190.042
720.799	164.738
723.692	105.384
726.584	51.2754
729.477	36.6094
732.37	9.57739
735.262	21.8581
738.155	47.7285
741.048	83.4346
743.941	51.5283
746.833	97.3623
749.726	59.9736
752.619	73.9578
755.511	77.9919
758.404	35.5447
761.297	7.15649
764.189	24.5935
767.082	123.948
769.975	195.868
772.867	321.779
775.76	406.011
778.653	503.99
781.546	587.114
784.438	814.387
787.331	977.119
790.224	1196.68
793.116	1475.38
796.009	1788.4
798.902	2327.15
801.794	2880.93
804.687	3741.73
807.58	4793.27
810.473	6254.64
813.365	7932.39
816.258	9665.96
819.151	11643.2
822.043	13190.8
824.936	14177.1
827.829	14407.9
830.721	14033
833.614	13225.3
836.507	12175.1
839.399	10944.6
842.292	9444.19
845.185	7979.29
848.078	6722.84
850.97	5572.16
853.863	4791.44
856.756	4234.67
859.648	3895.97
862.541	3825.03
865.434	3834.11
868.327	4100.67
871.219	4371.73
874.112	4641.9
877.005	4691.08
879.897	4515.24
882.79	4173.27
885.683	3747.83
888.575	3187.45
891.468	2730.46
894.361	2168.17
897.254	1697.42
900.146	1166.89
903.039	850.112
905.932	533.42
908.824	326.353
911.717	164.506
914.61	7.03833
917.502	14.3223
920.395	62.7451
923.288	141.47
926.181	91.7339
929.073	66.4812
931.966	121.073
934.859	61.3052
937.751	12.8804
940.644	14.2031
943.537	12.2078
946.429	4.59717
949.322	23.5007
952.215	81.5625
955.107	77.3391
958	135.28
960.893	170.091
963.786	192.356
966.678	248.482
969.571	281.799
972.464	306.111
975.356	295.986
978.249	360.877
981.142	343.189
984.034	334.46
986.927	344.094
989.82	293.193
992.713	271.006
995.605	276.91
998.498	313.9
1001.39	307.31
1004.28	261.559
1007.18	259.529
1010.07	264.79
1012.96	248.979
1015.85	211.312
1018.75	220.893
1021.64	226.766
1024.53	144.937
1027.42	162.163
1030.32	208.728
1033.21	211.806
1036.1	165.94
1039	137.306
1041.89	158.481
1044.78	148.875
1047.67	119.121
1050.57	145.022
1053.46	113.18
1056.35	103.052
1059.24	92.7104
1062.14	83.1633
1065.03	51.9656
1067.92	71.9664
1070.82	81.4799
1073.71	45.3424
1076.6	45.8621
1079.49	59.6174
1082.39	37.1146
1085.28	21.2281
1088.17	30.5454
1091.06	52.7983
1093.96	44.4985
1096.85	3.48108
1099.74	32.297
1102.63	17.7015
1105.53	20.3192
1108.42	6.44067
1111.31	21.9288
1114.21	7.21338
1117.1	32.4569
1119.99	2.01733
1122.88	27.1594
1125.78	23.7485
1128.67	5.98755
1131.56	11.2266
1134.45	27.1291
1137.35	32.7698
1140.24	31.7138
1143.13	25.7505
1146.03	4.1709
1148.92	12.8701
1151.81	2.17578
1154.7	9.18872
1157.6	18.5032
1160.49	23.7635
1163.38	12.3043
1166.28	22.9468
1169.17	24.3964
1172.06	10.7474
1174.95	42.3469
1177.85	27.1345
1180.74	15.3193
1183.63	18.2098
1186.52	33.2111
1189.42	60.4171
1192.31	30.4098
1195.2	38.8784
1198.09	54.825
1200.99	27.7703
1203.88	13.5679
1206.77	12.9133
1209.66	25.9558
1212.56	27.2656
1215.45	34.1841
1218.34	44.8783
1221.24	20.0087
1224.13	36.9973
1227.02	45.4128
1229.91	14.7289
1232.81	9.47986
1235.7	2.49036
1238.59	25.7207
1241.48	22.601
1244.38	53.6344
1247.27	49.8241
1250.16	40.8635
1253.06	39.2041
1255.95	33.2434
1258.84	3.79846
1261.73	21.8866
1264.63	1.08533
1267.52	17.0664
1270.41	20.8568
