Measurement: Raman, 514 nm, unoriented, Raman Data Processed
Mineral: Forsterite
Rruff sample: R050117
Ideal chemistry: Mg_2_SiO_4_
Locality: Sapat, Gilgit, Pakistan
Source: Farooq and Nazia Sawal
Description: Fragment of a green crystal
Measured chemistry: (Mg_1.81_Fe_0.18_Ni_0.01_)_Î£=2_Si_1.00_O_4_
Raman shift (cm-1)	intensity
98.947	0
103.124	61.973
107.3	70.891
111.473	101.983
115.644	393.361
119.813	177.236
123.981	120.046
128.146	173.19
132.309	170.68
136.47	238.866
140.63	211.257
144.787	230.406
148.942	206.92
153.096	160.65
157.247	168.517
161.396	182.381
165.544	206.168
169.689	231.792
173.833	235.118
177.974	259.05
182.114	229.493
186.251	237.958
190.387	124.481
194.52	166.18
198.652	133.245
202.782	190.184
206.909	177
211.035	138.704
215.159	233.868
219.281	451.296
223.4	562.502
227.518	580.59
231.634	593.885
235.748	504.811
239.86	381.625
243.97	244.361
248.079	152.2
252.185	148.123
256.289	121.117
260.391	88.17
264.492	105.096
268.59	121.294
272.687	165.033
276.781	174.653
280.874	185.924
284.964	187.706
289.053	410.902
293.14	1069.44
297.225	2599.68
301.308	4136.17
305.389	3031.09
309.468	1497.93
313.545	816.136
317.62	710.925
321.693	739.382
325.765	685.399
329.834	386.509
333.902	167.684
337.967	101.432
342.031	107.86
346.093	47.033
350.153	1.89
354.21	12.435
358.267	67.703
362.321	7.643
366.373	80.16
370.423	33.251
374.471	14.638
378.518	53.045
382.563	78.768
386.605	156.927
390.646	185.216
394.685	30.305
398.722	60.349
402.757	179.356
406.79	275.305
410.821	691.189
414.851	991.606
418.878	925.751
422.904	470.422
426.927	414.026
430.949	390.906
434.969	314.219
438.987	190.087
443.003	131.292
447.018	90.753
451.03	18.153
455.041	72.517
459.049	68.423
463.056	9.652
467.061	16.882
471.064	39.193
475.065	38.265
479.064	13.186
483.062	50.98
487.057	31.655
491.051	51.656
495.043	13.189
499.032	105.366
503.02	83.706
507.007	12.277
510.991	22.38
514.973	44.712
518.954	111.506
522.933	62.542
526.91	54.745
530.885	79.353
534.858	89.759
538.829	158.911
542.799	271.812
546.766	239.892
550.732	177.816
554.696	214.762
558.658	194.179
562.618	217.705
566.576	313.979
570.533	327.095
574.488	615.053
578.44	715.853
582.391	857.495
586.341	1154.98
590.288	1503.32
594.233	2175.49
598.177	3690.52
602.119	5696.39
606.059	6559.11
609.997	5058.69
613.933	2893.29
617.868	1723.31
621.801	990.633
625.731	657.119
629.66	410.646
633.588	264.845
637.513	199.31
641.437	150.596
645.358	32.849
649.278	2.116
653.196	47.107
657.113	72.735
661.027	28.463
664.94	61.256
668.851	60.214
672.76	93.918
676.667	63.247
680.572	33.258
684.476	47.021
688.378	59.552
692.278	50.317
696.176	74.489
700.072	32.979
703.967	18.437
707.86	55.917
711.751	34.377
715.64	69.786
719.527	130.141
723.413	78.483
727.297	129.818
731.179	224.149
735.059	103.484
738.937	207.824
742.814	243.177
746.689	250.546
750.562	265.936
754.433	283.35
758.303	356.794
762.17	300.334
766.036	401.922
769.901	556.64
773.763	618.548
777.624	632.629
781.482	790.853
785.339	920.208
789.195	1116.7
793.048	1370.29
796.9	1765.04
800.75	2227.56
804.598	3334.78
808.445	4978.68
812.289	8256.56
816.132	16196.5
819.973	34333.3
823.813	42991.7
827.65	26790.4
831.486	15153.9
835.32	10198.2
839.152	9116.77
842.983	10476.4
846.812	16200.3
850.639	30678
854.464	46567.2
858.288	37823.7
862.11	20782.1
865.93	10957.4
869.748	6664.67
873.564	4337.69
877.379	3713.96
881.192	3745.4
885.004	2591.04
888.813	1689.86
892.621	1061.86
896.427	681.023
900.232	511.357
904.034	496.856
907.835	393.52
911.634	226.761
915.432	369.084
919.227	290.647
923.021	226.19
926.813	149.65
930.604	229.157
934.393	237.927
938.18	375.52
941.965	477.472
945.749	751.904
949.53	1313.97
953.311	2314.4
957.089	4076.4
960.866	5685.79
964.641	5672.69
968.414	4304.02
972.185	2662.27
975.955	1680.73
979.723	1089.72
983.49	857.258
987.254	596.285
991.017	480.656
994.779	413.641
998.538	426.424
1002.3	291.548
1006.05	225.52
1009.81	168.287
1013.56	195.875
1017.31	162.484
1021.06	171.051
1024.81	212.789
1028.55	101.562
1032.3	80.62
1036.04	70.454
1039.78	134.766
1043.52	73.038
1047.26	88.108
1050.99	42.007
1054.73	38.906
1058.46	32.697
1062.19	15.416
1065.92	7.416
1069.65	31.963
1073.37	20.325
1077.1	15.403
1080.82	67.772
1084.54	25.875
1088.26	47.905
1091.97	41.86
1095.69	19.735
1099.4	66.358
1103.12	51.08
1106.83	53.476
1110.54	72.729
1114.24	84.062
1117.95	7.162
1121.65	249.936
1125.35	258.851
1129.06	80.839
1132.75	59.07
1136.45	213.459
1140.15	25.599
1143.84	24.118
1147.53	54.411
1151.22	61.553
1154.91	53.56
1158.6	83.729
1162.28	92.681
1165.97	203.572
1169.65	540.189
1173.33	133.911
1177.01	219.014
1180.69	51.946
1184.36	145.207
1188.04	127.789
1191.71	198.041
1195.38	190.462
1199.05	176.991
1202.71	344.646
1206.38	286.436
1210.04	181.534
1213.71	239.454
1217.37	257.612
1221.03	340.338
1224.68	421.853
1228.34	282.321
1231.99	238.111
1235.65	321.351
1239.3	351.601
1242.95	267.652
1246.59	361.466
1250.24	359.891
1253.88	237.859
1257.53	294.801
1261.17	126.345
1264.81	233.228
1268.45	143.39
1272.08	221.267
1275.72	135.389
1279.35	251.915
1282.98	179.483
1286.61	81.231
1290.24	110.8
1293.87	117.745
1297.49	7.858
1301.11	11.85
1304.73	100.247
1308.36	113.903
1311.97	31.509
1315.59	154.698
1319.2	17.582
1322.82	16.082
1326.43	177.37
1330.04	31.062
1333.65	33.919
1337.26	25.381
1340.86	195.371
1344.47	36.251
1348.07	91.062
1351.67	122.642
1355.27	82.794
1358.87	138.913
1362.46	99.992
1366.06	182.027
1369.65	228.978
1373.24	147.738
1376.83	78.187
1380.42	162.266
1384	227.993
1387.59	134.837
1391.17	203.573
1394.75	213.934
1398.33	107.385
1401.91	264.597
1405.49	176.102
1409.06	144.918
1412.64	147.204
1416.21	289.421
1419.78	244.659
1423.35	117.163
1426.91	113.61
1430.48	106.513
1434.05	115.439
1437.61	196.544
1441.17	219.877
1444.73	181.151
1448.29	227.174
1451.84	220.107
1455.4	291.782
1458.95	318.153
1462.5	186.87
1466.05	136.188
1469.6	135.523
1473.15	125.277
1476.69	224.594
1480.24	235.761
1483.78	173.513
1487.32	169.162
1490.86	52.444
1494.39	158.92
1497.93	23.02
1501.46	27.925
1505	83.625
1508.53	15.473
1512.06	22.106
1515.59	104.231
1519.11	41.48
1522.64	0
