Measurement: Raman, 780 nm, unoriented, Raman Data Processed
Mineral: Forsterite
Rruff sample: R060535
Ideal chemistry: Mg_2_SiO_4_
Locality: unknown
Source: Gemological Institute of America
Description: Transparent brown gemstone
Measured chemistry: (Mg_1.81_Fe_0.18_Ni_0.01_)_Î£=2_Si_1.00_O_4_
Raman shift (cm-1)	intensity
103.295	0
106.669	0.324623
110.044	2.58488
113.419	0.114067
116.794	0.811871
120.169	0.524433
123.544	0.193394
126.918	1.44735
130.293	1.67655
133.668	0.095379
137.043	1.5865
140.418	1.03147
143.792	0.048409
147.167	1.20266
150.542	0.076738
153.917	0.76762
157.292	0.85479
160.667	0.640644
164.041	0.205862
167.416	0.343899
170.791	0.91894
174.166	0.624462
177.541	0.46567
180.916	1.56172
184.29	0.760294
187.665	1.07957
191.04	0.576487
194.415	0.958317
197.79	1.74738
201.164	0.864605
204.539	2.10055
207.914	3.51901
211.289	5.86919
214.664	8.18155
218.038	11.8969
221.413	14.5206
224.788	13.9751
228.163	10.8259
231.538	7.95278
234.912	5.90069
238.287	5.26339
241.662	4.32011
245.037	3.13078
248.412	1.34455
251.787	0.603546
255.161	0.251171
258.536	0.148142
261.911	0.713612
265.286	0.403658
268.661	0.011082
272.036	0.474079
275.41	1.47992
278.785	1.92157
282.16	2.54402
285.535	2.63405
288.909	3.9845
292.284	3.90345
295.659	5.82869
299.034	9.2812
302.409	11.6934
305.784	10.042
309.158	9.13822
312.533	12.403
315.908	13.8285
319.283	13.0486
322.658	16.9947
326.033	19.04
329.407	16.7391
332.782	12.5146
336.157	13.0831
339.532	10.7012
342.907	4.80885
346.281	2.58698
349.656	2.63083
353.031	2.62269
356.406	3.47454
359.781	5.29707
363.155	6.47628
366.53	10.9309
369.905	14.3947
373.28	9.82941
376.655	5.25863
380.029	1.3295
383.404	0.618876
386.779	0.943766
390.154	0.232874
393.529	0.04129
396.904	0.546791
400.278	2.49584
403.653	4.68629
407.028	7.54111
410.403	5.11662
413.778	2.70493
417.152	3.68878
420.527	5.78768
423.902	7.21188
427.277	12.63
430.652	15.2021
434.027	8.34949
437.401	4.47825
440.776	1.64343
444.151	1.28014
447.526	0.13121
450.901	0.123573
454.275	0.103153
457.65	0.294275
461.025	0.151806
464.4	0.377769
467.775	0.063011
471.149	0.792988
474.524	0.650005
477.899	0.282572
481.274	0.737041
484.649	1.10133
488.024	0.446741
491.398	0.388956
494.773	0.205017
498.148	0.063349
501.523	0.066568
504.898	0.010231
508.272	0.576437
511.647	0.292679
515.022	1.25217
518.397	0.676506
521.772	2.46399
525.146	4.71335
528.521	6.54583
531.896	9.10276
535.271	15.7822
538.646	23.9149
542.021	30.6
545.395	20.4277
548.77	8.85983
552.145	4.9634
555.52	4.02994
558.895	2.84446
562.269	3.07752
565.644	4.44894
569.019	6.76881
572.394	9.81444
575.769	13.8741
579.144	18.1412
582.518	23.2754
585.893	30.7883
589.268	34.8506
592.643	26.0327
596.018	13.5015
599.393	8.73468
602.767	7.06308
606.142	6.42307
609.517	4.56574
612.892	5.73889
616.266	2.98434
619.641	0.954805
623.016	1.47348
626.391	1.53258
629.766	0.131245
633.141	0.088869
636.515	0.249277
639.89	0.630438
643.265	0.14831
646.64	1.04144
650.015	0.533901
653.389	0.942772
656.764	0.97389
660.139	0.91927
663.514	1.47039
666.889	0.915316
670.264	1.86674
673.638	0.789822
677.013	0.570185
680.388	1.29679
683.763	0.512362
687.138	1.05203
690.513	0.856089
693.887	0.456476
697.262	1.18337
700.637	0.028244
704.012	0.414057
707.386	0.150253
710.761	0.494493
714.136	1.16273
717.511	0.041309
720.886	0.307211
724.261	0.459518
727.635	1.15137
731.01	1.15484
734.385	0.953985
737.76	1.43801
741.135	0.749777
744.51	1.87972
747.884	2.03394
751.259	2.65496
754.634	1.99546
758.009	1.01938
761.384	0.284698
764.758	0.129017
768.133	0.935646
771.508	0.70792
774.883	1.26576
778.258	1.26794
781.632	1.18935
785.007	1.39602
788.382	2.04353
791.757	5.40475
795.132	8.74345
798.506	15.302
801.881	25.5921
805.256	46.3418
808.631	84.0762
812.006	128.745
815.381	190.441
818.755	291.717
822.13	393.33
825.505	319.753
828.88	176.966
832.255	108.026
835.63	84.1302
839.004	83.2505
842.379	93.6559
845.754	115.909
849.129	155.067
852.504	207.828
855.878	216.805
859.253	143.682
862.628	79.5919
866.003	47.0014
869.378	26.3189
872.752	16.1453
876.127	11.3205
879.502	10.3412
882.877	7.76223
886.252	1.60744
889.626	1.4718
893.001	1.79172
896.376	1.31664
899.751	0.65065
903.126	4.41253
906.5	14.2656
909.875	23.8989
913.25	39.3489
916.625	61.5172
920	59.5129
923.375	19.9387
926.75	5.96785
930.124	0.608082
933.499	0.867283
936.874	1.2854
940.249	3.65654
943.624	5.1208
946.998	9.39104
950.373	13.0468
953.748	16.6141
957.123	21.2395
960.498	23.5611
963.872	20.0084
967.247	12.6779
970.622	8.34277
973.997	4.72302
977.372	2.5694
980.746	0.489313
984.121	0.640493
987.496	0.226135
990.871	0.692879
994.246	0.208157
997.62	0.06921
1001	1.04079
1004.37	0.22743
1007.75	0.961163
1011.12	0.698599
1014.5	0.950138
1017.87	1.22982
1021.24	1.13448
1024.62	0.832897
1027.99	1.46913
1031.37	0.413019
1034.74	0.914249
1038.12	2.25071
1041.49	2.48173
1044.87	1.21301
1048.24	2.91419
1051.62	2.02924
1054.99	0.89135
1058.37	1.81086
1061.74	1.02663
1065.12	0.737799
1068.49	0.524836
1071.87	2.00079
1075.24	0.442703
1078.62	1.06807
1081.99	0.253616
1085.37	1.34489
1088.74	0.137527
1092.12	1.47247
1095.49	0.715206
1098.87	0.441019
1102.24	0.186899
1105.62	0.803783
1108.99	1.33964
1112.36	0.981886
1115.74	0.972755
1119.11	0.456629
1122.49	0.881704
1125.86	0.711168
1129.24	1.3758
1132.61	0.848475
1135.99	0.802532
1139.36	0.508427
1142.74	1.20418
1146.11	0.040071
1149.49	0.841562
1152.86	1.08488
1156.24	1.57542
1159.61	0.51582
1162.99	0.154432
1166.36	1.61997
1169.74	1.33529
1173.11	1.41498
1176.49	0.992157
1179.86	0.957144
1183.23	0.964439
1186.61	0.886145
1189.98	0.971653
1193.36	1.08997
1196.73	1.2506
1200.11	1.66041
1203.48	1.0652
1206.86	1.21732
1210.23	1.99777
1213.61	1.3442
1216.98	1.77158
1220.36	1.09703
1223.73	0.72084
1227.11	1.38956
1230.48	1.0258
1233.86	1.51535
1237.23	0.829113
1240.61	0.701366
1243.98	1.08266
1247.36	1.29224
1250.73	1.09737
1254.11	0.7502
1257.48	0.933729
1260.86	1.61689
1264.23	1.61457
1267.61	0.807512
1270.98	0.660625
1274.36	0.00906
1277.73	0.863562
1281.11	0.731035
1284.48	0.860064
