Measurement: Raman, 780 nm, unoriented, Raman Data Processed
Mineral: Forsterite
Rruff sample: R100100
Ideal chemistry: Mg_2_SiO_4_
Locality: Scott Creek, Jackson County,  North Carolina, USA
Source: American Museum of Natural History
Description: Pale greenish-yellow fragments
Measured chemistry: (Mg_1.832_Fe_0.153_Ni_0.008_Mn_0.002_Zn_0.001_)_Î£=1.996_Si_1.000_O_4_
Raman shift (cm-1)	intensity
112.264	0
115.639	2.61633
119.014	0.776207
122.389	2.3016
125.763	2.51073
129.138	4.51521
132.513	1.43706
135.888	0.701797
139.263	0.845589
142.638	2.80575
146.012	1.78638
149.387	1.95579
152.762	3.79607
156.137	3.30858
159.512	3.11121
162.887	1.92461
166.261	3.26686
169.636	2.93134
173.011	3.06647
176.386	5.6754
179.761	4.0907
183.135	3.51775
186.51	0.167328
189.885	0.689556
193.26	2.05671
196.635	2.73684
200.01	2.29843
203.384	3.19137
206.759	3.40117
210.134	6.37265
213.509	11.6497
216.884	21.3231
220.258	32.8823
223.633	46.4438
227.008	41.9052
230.383	33.098
233.758	33.3406
237.132	29.0671
240.507	25.7049
243.882	18.2706
247.257	10.5996
250.632	7.11294
254.006	4.89252
257.381	0.651077
260.756	1.46487
264.131	0.056152
267.506	0.771458
270.881	0.322334
274.255	0.225819
277.63	0.534103
281.005	3.92497
284.38	6.912
287.755	11.4129
291.13	20.2211
294.504	39.7166
297.879	86.674
301.254	157.773
304.629	143.509
308.004	66.4416
311.378	37.3222
314.753	32.1386
318.128	27.7883
321.503	26.0335
324.878	34.6141
328.252	30.789
331.627	14.619
335.002	14.9398
338.377	13.3956
341.752	7.44027
345.127	5.65125
348.501	4.20695
351.876	2.57359
355.251	3.52642
358.626	5.00293
362.001	5.27349
365.375	2.13197
368.75	5.84705
372.125	7.17525
375.5	2.597
378.875	0.7882
382.25	1.41654
385.624	1.4156
388.999	1.87995
392.374	0.805222
395.749	0.677883
399.124	2.11089
402.498	4.19643
405.873	8.73737
409.248	12.6685
412.623	22.5323
415.998	35.0841
419.373	37.2393
422.747	32.1553
426.122	38.2358
429.497	56.0449
432.872	65.4723
436.247	63.915
439.622	47.9487
442.996	25.5192
446.371	12.0068
449.746	6.33285
453.121	4.25504
456.496	2.72644
459.87	3.03313
463.245	0.650154
466.62	0.985397
469.995	1.15393
473.37	0.771744
476.745	3.11572
480.119	2.28946
483.494	1.48483
486.869	1.16163
490.244	1.38263
493.619	0.105499
496.993	0.231621
500.368	1.05058
503.743	0.550022
507.118	0.019703
510.493	0.553513
513.867	0.19566
517.242	1.06899
520.617	0.589333
523.992	1.43479
527.367	2.60495
530.741	1.8241
534.116	0.61409
537.491	6.12482
540.866	9.50877
544.241	10.973
547.616	5.64201
550.99	3.91378
554.365	2.84785
557.74	2.69811
561.115	3.45631
564.49	6.11394
567.865	9.13815
571.239	16.8232
574.614	26.1416
577.989	44.0599
581.364	69.347
584.739	84.6806
588.114	77.3449
591.488	63.7746
594.863	64.8562
598.238	84.6244
601.613	119.785
604.987	150.649
608.362	143.146
611.737	100.245
615.112	61.4293
618.487	36.3232
621.862	22.6237
625.236	14.9036
628.611	10.3094
631.986	6.98555
635.361	5.68052
638.736	4.24057
642.111	1.7145
645.485	1.09905
648.86	0.234562
652.235	0.173565
655.61	0.919455
658.985	2.22845
662.359	0.866455
665.734	1.3495
669.109	1.87746
672.484	0.573986
675.859	0.811802
679.234	0.137402
682.608	1.37044
685.983	1.97786
689.358	2.24883
692.733	1.67275
696.108	0.761307
699.482	2.04664
702.857	3.42953
706.232	2.62348
709.607	3.71206
712.982	3.14384
716.356	3.83909
719.731	4.36981
723.106	3.96471
726.481	3.81887
729.856	3.65178
733.231	2.56788
736.605	2.53791
739.98	1.72197
743.355	1.24683
746.73	0.249958
750.105	0.744579
753.48	0.092422
756.854	2.26998
760.229	0.344479
763.604	0.486771
766.979	0.611671
770.354	1.51249
773.728	0.354973
777.103	0.249146
780.478	0.130825
783.853	0.504814
787.228	3.30613
790.602	7.32815
793.977	10.735
797.352	19.3396
800.727	30.5346
804.102	49.9264
807.477	85.9504
810.851	147.055
814.226	258.701
817.601	492.996
820.976	890.02
824.351	1058.09
827.726	665.707
831.1	376.405
834.475	265.675
837.85	235.627
841.225	256.033
844.6	349.103
847.974	564.107
851.349	996.215
854.724	1457.49
858.099	1285.98
861.474	726.173
864.848	390.889
868.223	231.112
871.598	151.815
874.973	133.018
878.348	161.908
881.722	205.831
885.097	131.257
888.472	50.7719
891.847	21.6536
895.222	8.85735
898.597	1.61822
901.971	0.646744
905.346	1.10151
908.721	0.968102
912.096	8.18432
915.471	25.5351
918.846	44.7707
922.22	21.3201
925.595	2.45114
928.97	1.48704
932.345	3.79279
935.72	1.53245
939.094	0.621841
942.469	2.71766
945.844	7.72665
949.219	13.7656
952.594	24.3235
955.968	43.6078
959.343	65.2392
962.718	76.3632
966.093	68.8066
969.468	47.47
972.843	31.644
976.217	19.7838
979.592	15.7901
982.967	11.4481
986.342	8.55609
989.717	6.20122
993.091	3.57035
996.466	2.53125
999.841	3.52515
1003.22	0.911016
1006.59	1.21158
1009.97	1.38076
1013.34	0.244781
1016.72	3.25502
1020.09	0.141266
1023.47	1.51199
1026.84	1.44839
1030.21	2.28868
1033.59	1.91561
1036.96	1.98754
1040.34	1.15236
1043.71	1.81481
1047.09	1.98407
1050.46	0.306612
1053.84	0.666029
1057.21	0.566269
1060.59	1.93974
1063.96	1.25426
1067.34	0.59436
1070.71	0.372046
1074.09	0.111942
1077.46	0.477751
1080.84	1.33566
1084.21	0.169476
1087.59	1.54675
1090.96	0.819252
1094.34	0.541922
1097.71	1.06838
1101.09	0.887421
1104.46	1.66024
1107.84	1.88535
1111.21	2.49516
1114.59	1.7281
1117.96	1.66289
1121.34	0.893375
1124.71	1.09491
1128.08	0.528021
1131.46	1.34975
1134.83	0.679554
1138.21	0.501585
1141.58	1.46742
1144.96	1.89876
1148.33	1.61257
1151.71	0.540895
1155.08	1.83436
1158.46	1.13132
1161.83	1.40762
1165.21	1.61499
1168.58	1.8415
1171.96	1.20916
1175.33	0.325918
1178.71	1.95015
1182.08	0.847256
1185.46	1.92064
1188.83	1.87507
1192.21	2.29516
1195.58	0.088242
1198.95	2.0355
1202.33	0.432169
1205.7	0.782904
1209.08	2.52749
1212.45	1.67405
1215.83	2.66654
1219.2	3.70484
1222.58	1.61448
1225.95	2.63925
1229.33	2.53962
1232.7	2.46602
1236.08	2.88538
1239.45	1.49665
1242.83	2.13025
1246.2	1.92154
1249.58	2.79487
1252.95	0.393545
1256.33	2.12554
1259.7	2.19108
1263.08	1.36982
1266.45	0.580084
1269.83	2.29119
1273.2	1.37421
1276.58	2.37973
1279.95	0.331594
1283.33	0.859602
