Measurement: Raman, 514 nm, unoriented, Raman Data Processed
Mineral: Forsterite
Rruff sample: R040057
Ideal chemistry: Mg_2_SiO_4_
Locality: Trudy's mine, San Carlos, Gila County, Arizona, USA
Source: Bob Downs
Description: Dark green crystal fragments from xenoliths in a basalt flow
Measured chemistry: (Mg_1.67_Fe_0.32_Ni_0.01_)_Î£=2_Si_1.00_O_4_; trace amounts of Mn and Ca
Raman shift (cm-1)	intensity
129.534	0
133.696	7.98
137.857	157.327
142.016	130.156
146.172	132.503
150.327	113.646
154.48	43.361
158.63	39.332
162.779	68.697
166.926	64.496
171.07	57.554
175.213	58.564
179.354	96.544
183.493	88.44
187.63	107.251
191.765	85.54
195.898	119.56
200.029	130.967
204.158	255.639
208.285	460.629
212.41	551.574
216.533	702.718
220.654	748.924
224.773	629.028
228.891	597.813
233.006	598.448
237.119	492.021
241.231	331.567
245.34	218.154
249.448	144.217
253.553	62.331
257.657	68.42
261.758	82.414
265.858	42.747
269.956	46.215
274.052	43.976
278.146	95.782
282.237	165.948
286.327	156.196
290.416	250.878
294.502	385.331
298.586	572.511
302.668	438.531
306.749	388.196
310.827	579.771
314.903	956.02
318.978	1562.27
323.051	1716.79
327.121	1543.38
331.19	1349.15
335.257	1167.08
339.322	718.219
343.385	433.512
347.446	201.97
351.505	187.469
355.563	77.951
359.618	143.207
363.672	117.683
367.723	51.097
371.773	71.483
375.821	20.798
379.866	3.958
383.91	20.202
387.952	2.768
391.992	35.125
396.031	8.892
400.067	45.545
404.101	8.112
408.134	12.581
412.165	103.949
416.193	225.03
420.22	262.799
424.245	265.967
428.268	256.028
432.289	88.601
436.309	56.906
440.326	58.33
444.342	58.66
448.355	23.894
452.367	2.988
456.377	10.989
460.385	23.809
464.391	85.478
468.395	116.796
472.398	125.212
476.398	60.815
480.397	200.957
484.394	173.399
488.389	129.439
492.382	73.909
496.373	168.794
500.362	163.215
504.349	253.571
508.335	253.484
512.319	319.853
516.3	316.645
520.28	519
524.259	630.398
528.235	876.252
532.209	1631.5
536.182	2934.3
540.152	3405.08
544.121	1989.99
548.088	941.156
552.053	595.629
556.017	423.558
559.978	317.422
563.938	256.847
567.895	260.76
571.851	332.371
575.805	381.319
579.758	361.13
583.708	365.814
587.657	374.37
591.603	345.797
595.548	277.974
599.491	252.375
603.432	242.856
607.372	235.907
611.309	288.09
615.245	213.116
619.179	171.786
623.111	61.916
627.041	122.27
630.97	40.466
634.896	8.417
638.821	30.317
642.744	38.04
646.665	5.514
650.584	56.291
654.502	9.721
658.418	27.655
662.331	56.73
666.244	28.148
670.154	66.329
674.062	22.741
677.969	66.36
681.874	8.725
685.777	41.615
689.678	3.595
693.577	59.137
697.475	48.783
701.371	95.404
705.265	40.034
709.157	132.684
713.047	172.356
716.936	153.016
720.823	87.663
724.708	198.307
728.591	218.946
732.472	152.579
736.352	163.211
740.23	207.841
744.106	156.476
747.98	274.117
751.853	295.706
755.723	397.472
759.592	539.192
763.459	562.943
767.325	641.762
771.188	747.64
775.05	912.591
778.91	991.479
782.768	1082.89
786.625	1218.25
790.479	1526.17
794.332	1956.19
798.183	2578.5
802.033	3543.92
805.88	5480.13
809.726	8433.17
813.57	15658.4
817.413	32015
821.253	49377.8
825.092	38421.8
828.929	21732.5
832.764	14178.2
836.598	10859.7
840.429	9846.3
844.259	11137
848.088	15792.2
851.914	21523
855.739	19224.4
859.562	11867
863.383	6909.81
867.203	4066.74
871.02	2663.86
874.836	1765.11
878.65	1374.17
882.463	1004.1
886.274	695.376
890.083	601.5
893.89	419.562
897.695	373.014
901.499	275.407
905.301	499.146
909.102	519.075
912.9	716.965
916.697	1204.06
920.492	995.146
924.285	557.672
928.077	509.216
931.867	601.819
935.655	761.723
939.442	1102.71
943.226	1393.92
947.009	1847.96
950.791	2699.55
954.57	3465.85
958.348	3679.04
962.124	3403.78
965.899	2672.39
969.671	1859.15
973.442	1210.19
977.211	836.446
980.979	562.922
984.745	478.641
988.509	350.211
992.271	288.396
996.032	267.73
999.791	267.2
1003.55	91.879
1007.3	147.703
1011.06	30.899
1014.81	62.05
1018.56	131.359
1022.31	103.379
1026.06	121.078
1029.8	99.746
1033.55	41.591
1037.29	12.53
1041.03	81.438
1044.77	11.216
1048.5	30.906
1052.24	35.913
1055.97	8.713
1059.7	77.531
1063.43	0.18
1067.16	63.851
1070.89	9.438
1074.61	13.743
1078.34	40.963
1082.06	16.305
1085.78	5.432
1089.5	49.751
1093.21	47.066
1096.93	51.936
1100.64	17.211
1104.35	111.898
1108.06	24.563
1111.77	74.834
1115.48	120.592
1119.18	114.976
1122.89	177.048
1126.59	114.106
1130.29	21.097
1133.99	109.712
1137.68	275.117
1141.38	165.86
1145.07	229.398
1148.76	130.425
1152.45	52.633
1156.14	5.708
1159.83	75.579
1163.51	96.303
1167.19	180.928
1170.88	162.241
1174.56	154.939
1178.23	137.095
1181.91	225.347
1185.59	221.637
1189.26	196.008
1192.93	207.421
1196.6	185.891
1200.27	223.04
1203.94	264.038
1207.6	235.114
1211.27	271.027
1214.93	220.973
1218.59	214.666
1222.25	191.098
1225.9	191.647
1229.56	238.964
1233.21	254.793
1236.86	221.384
1240.51	222.616
1244.16	138.429
1247.81	90.088
1251.45	111.309
1255.1	147.011
1258.74	41.516
1262.38	53.551
1266.02	48.521
1269.66	91.234
1273.29	81.654
1276.93	17.83
1280.56	36.734
1284.19	83.781
1287.82	46.209
1291.45	33.471
1295.07	1.432
1298.7	79.107
1302.32	27.994
1305.94	62.506
1309.56	96.816
1313.18	7.054
1316.8	71.282
1320.41	1.896
1324.02	38.534
1327.63	115.788
1331.24	27.962
1334.85	28.132
1338.46	101.82
1342.06	135.579
1345.67	127.471
1349.27	149.172
1352.87	231.798
1356.47	283.621
1360.07	241.895
1363.66	238.697
1367.25	216.25
1370.85	297.863
1374.44	249.266
1378.03	255.716
1381.61	231.309
1385.2	285.832
1388.78	193.024
1392.37	195.339
1395.95	316.84
1399.53	254.065
1403.1	288.512
1406.68	247.095
1410.26	263.378
1413.83	346.662
1417.4	302.66
1420.97	252.738
1424.54	260.321
1428.1	254.903
1431.67	244.366
1435.23	194.299
1438.8	188.059
1442.36	376.623
1445.91	336.921
1449.47	279.969
1453.03	291.68
1456.58	340.852
1460.13	227.504
1463.68	301.093
1467.23	206.814
1470.78	196.595
1474.33	130.289
1477.87	186.61
1481.42	122.006
1484.96	102.538
1488.5	111.377
1492.04	74.857
1495.57	191.331
1499.11	118.806
1502.64	111.354
1506.17	137.509
1509.71	66.938
1513.23	6.319
1516.76	22.562
1520.29	0
