Measurement: Raman, 532 nm, unoriented, Raman Data Processed
Mineral: Forsterite
Rruff sample: R060535
Ideal chemistry: Mg_2_SiO_4_
Locality: unknown
Source: Gemological Institute of America
Description: Transparent brown gemstone
Measured chemistry: (Mg_1.81_Fe_0.18_Ni_0.01_)_Î£=2_Si_1.00_O_4_
Raman shift (cm-1)	intensity
92.1094	0
95.4842	1.15094
98.859	1.79227
102.234	2.92007
105.609	1.87633
108.984	0.566434
112.358	0.129178
115.733	1.61721
119.108	2.69836
122.483	3.40137
125.858	7.39043
129.232	10.7613
132.607	13.208
135.982	15.9855
139.357	21.9612
142.732	20.8719
146.106	22.9267
149.481	22.5408
152.856	22.4225
156.231	20.8028
159.606	17.2829
162.981	17.1099
166.355	13.8207
169.73	13.5767
173.105	12.5247
176.48	12.4644
179.855	12.2939
183.229	11.7539
186.604	13.0641
189.979	11.7255
193.354	11.9801
196.729	11.0878
200.103	10.5971
203.478	12.259
206.853	15.4542
210.228	22.6048
213.603	30.8246
216.978	43.3344
220.352	57.7745
223.727	64.3481
227.102	50.3972
230.477	35.0231
233.852	24.4526
237.226	19.1128
240.601	12.0094
243.976	5.9467
247.351	2.79464
250.726	1.15674
254.101	0.119991
257.475	0.636162
260.85	1.74805
264.225	0.74242
267.6	0.855042
270.975	0.385193
274.349	1.15605
277.724	1.74517
281.099	3.02308
284.474	6.94153
287.849	9.84457
291.224	15.1185
294.598	21.5291
297.973	36.3973
301.348	56.7888
304.723	55.3969
308.098	35.8252
311.473	36.0095
314.847	48.5224
318.222	44.4599
321.597	49.6344
324.972	66.2803
328.347	66.6589
331.721	54.3802
335.096	55.5191
338.471	54.8917
341.846	37.4446
345.221	20.6747
348.595	13.2931
351.97	12.1337
355.345	12.6902
358.72	15.0451
362.095	19.336
365.469	28.5631
368.844	43.903
372.219	47.0874
375.594	25.3429
378.969	10.6167
382.344	4.4935
385.718	1.85217
389.093	0.342411
392.468	0.583557
395.843	0.228378
399.218	3.03819
402.592	10.1396
405.967	21.3312
409.342	22.3871
412.717	13.2271
416.092	14.91
419.467	19.2462
422.841	22.2477
426.216	29.9157
429.591	42.5174
432.966	38.0726
436.341	22.2495
439.716	13.2333
443.09	6.18849
446.465	2.30814
449.84	0.357521
453.215	0.714314
456.59	1.56589
459.964	0.388596
463.339	0.035233
466.714	0.743683
470.089	0.834862
473.464	1.30618
476.839	1.99873
480.213	2.81975
483.588	4.89395
486.963	7.03935
490.338	4.57307
493.713	5.50951
497.087	4.62021
500.462	2.96676
503.837	2.72009
507.212	1.6178
510.587	0.677315
513.962	1.46458
517.336	2.61662
520.711	4.96528
524.086	11.5396
527.461	20.2579
530.836	33.5194
534.21	48.3172
537.585	71.6702
540.96	98.8591
544.335	93.19
547.71	41.8073
551.085	15.2052
554.459	5.94603
557.834	4.08966
561.209	4.32994
564.584	6.47982
567.959	10.3293
571.333	15.3395
574.708	25.4787
578.083	41.506
581.458	59.2242
584.833	84.4831
588.207	108.575
591.582	106.054
594.957	65.9319
598.332	40.6836
601.707	35.2263
605.082	34.6097
608.456	31.3473
611.831	23.3347
615.206	16.7869
618.581	9.96569
621.956	5.61733
625.33	2.68443
628.705	1.49318
632.08	0.26453
635.455	0.837643
638.83	0.735439
642.205	0.495255
645.579	1.69796
648.954	2.99067
652.329	2.08019
655.704	2.03157
659.079	2.01622
662.453	0.809929
665.828	1.00957
669.203	0.286842
672.578	0.662323
675.953	0.713364
679.327	0.182186
682.702	0.042492
686.077	0.034237
689.452	0.116928
692.827	0.24482
696.202	0.106251
699.576	1.26108
702.951	0.069767
706.326	0.970474
709.701	1.98732
713.076	3.27442
716.45	5.84583
719.825	7.0097
723.2	10.8237
726.575	16.3577
729.95	22.5201
733.324	28.1085
736.699	34.6178
740.074	42.9803
743.449	56.6817
746.824	71.2031
750.199	85.0875
753.573	85.8354
756.948	72.2128
760.323	46.3294
763.698	25.4035
767.073	10.1944
770.447	1.62974
773.822	1.20401
777.197	1.43864
780.572	0.680008
783.947	1.71511
787.322	2.87814
790.696	1.2944
794.071	5.8111
797.446	21.6726
800.821	47.9112
804.196	93.5385
807.571	177.936
810.945	331.522
814.32	554.599
817.695	923.626
821.07	1432.48
824.445	1592.98
827.819	1032.97
831.194	588.799
834.569	411.617
837.944	369.606
841.319	422.801
844.693	568.159
848.068	824.553
851.443	1242.98
854.818	1608.47
858.193	1378.51
861.568	794.318
864.942	434.783
868.317	248.496
871.692	147.465
875.067	97.4454
878.442	76.9437
881.817	68.7608
885.191	39.7928
888.566	12.94
891.941	0.08326
895.316	6.08193
898.691	5.91251
902.065	0.492783
905.44	15.6477
908.815	46.3259
912.19	96.5337
915.565	203.317
918.939	326.189
922.314	191.439
925.689	57.0374
929.064	19.7709
932.439	14.0431
935.813	12.5131
939.188	19.3694
942.563	31.8481
945.938	49.8934
949.313	77.2121
952.688	110.111
956.062	146.246
959.437	180.452
962.812	180.335
966.187	140.68
969.562	89.9613
972.937	50.1839
976.311	25.3291
979.686	12.1527
983.061	6.22535
986.436	1.96516
989.811	0.298092
993.185	0.622952
996.56	0.979973
999.935	0.042072
1003.31	0.28685
1006.68	1.35609
1010.06	0.398262
1013.43	0.517281
1016.81	1.18033
1020.18	1.26153
1023.56	3.12641
1026.93	4.72216
1030.31	4.92533
1033.68	4.54015
1037.06	5.29595
1040.43	5.5242
1043.81	5.18976
1047.18	5.08799
1050.56	6.31757
1053.93	4.81802
1057.31	3.37647
1060.68	2.72973
1064.06	1.6161
1067.43	1.45891
1070.81	0.412514
1074.18	0.161926
1077.56	1.27529
1080.93	0.669338
1084.31	1.23285
1087.68	0.0737
1091.06	0.750648
1094.43	0.214676
1097.81	0.39484
1101.18	0.100803
1104.55	2.78315
1107.93	0.784611
1111.3	0.82333
1114.68	0.674725
1118.05	0.547855
1121.43	1.2477
1124.8	0.918285
1128.18	1.03484
1131.55	0.152107
1134.93	1.08841
1138.3	0.479843
1141.68	0.987717
1145.05	0.761795
1148.43	0.983253
1151.8	2.16525
1155.18	1.64993
1158.55	2.02458
1161.93	1.47758
1165.3	2.20438
1168.68	1.47187
1172.05	1.51149
1175.43	1.99335
1178.8	0.839367
1182.17	0.561987
1185.55	0.762768
1188.92	0.383732
1192.3	2.05868
1195.67	1.61052
1199.05	1.72238
1202.42	1.83553
1205.8	2.83849
1209.17	1.87653
1212.55	3.00306
1215.92	3.51679
1219.3	3.42397
1222.67	3.96109
1226.05	4.18955
1229.42	4.35083
1232.8	4.46962
1236.17	4.94984
1239.55	4.83888
1242.92	4.1384
1246.3	4.31285
1249.67	4.34333
1253.05	3.66493
1256.42	1.44751
1259.8	2.89364
1263.17	2.19675
1266.55	1.58942
1269.92	1.60787
1273.3	2.40361
1276.67	1.6275
1280.05	1.70689
1283.42	1.36487
1286.79	2.06969
1290.17	2.23032
1293.54	0.097534
1296.92	1.65616
1300.29	0.196352
1303.67	0.637243
