Measurement: Raman, 532 nm, unoriented, Raman Data Processed
Mineral: Forsterite
Rruff sample: R100099
Ideal chemistry: Mg_2_SiO_4_
Locality: Synthetic
Source: American Museum of Natural History
Description: Colorless fragments
Measured chemistry: (Mg_1.998_Ca_0.002_Zn_0.001_)_Î£=2.001_Si_1.000_O_4_
Raman shift (cm-1)	intensity
96.7597	0
100.135	0.469496
103.509	0.28249
106.884	3.00946
110.259	4.83911
113.634	3.92104
117.009	2.88296
120.383	3.53725
123.758	3.3491
127.133	1.60672
130.508	0.318331
133.883	0.127451
137.257	2.85899
140.632	2.07719
144.007	3.88875
147.382	3.38481
150.757	5.32865
154.132	8.95551
157.506	10.4336
160.881	10.1139
164.256	9.52059
167.631	12.0158
171.006	12.0647
174.381	10.9882
177.755	11.4375
181.13	11.5946
184.505	11.8538
187.88	10.2219
191.255	6.18773
194.629	4.05795
198.004	5.00561
201.379	5.01056
204.754	4.14081
208.129	6.56984
211.504	10.8075
214.878	15.2283
218.253	19.8663
221.628	27.7695
225.003	47.553
228.377	85.7152
231.752	28.0155
235.127	11.9047
238.502	12.7243
241.877	16.7227
245.252	17.8332
248.626	5.5411
252.001	2.31422
255.376	1.07893
258.751	0.668486
262.126	0.702797
265.5	0.017672
268.875	0.370901
272.25	0.092241
275.625	1.06072
279	2.58926
282.375	3.31056
285.75	4.23147
289.124	14.497
292.499	21.6668
295.874	30.1532
299.249	44.7387
302.623	78.6101
305.998	110.307
309.373	39.3957
312.748	12.74
316.123	11.4283
319.498	14.8583
322.872	19.022
326.247	33.3117
329.622	51.45
332.997	44.2374
336.372	37.438
339.747	46.2597
343.121	36.532
346.496	11.3621
349.871	4.95068
353.246	3.7545
356.621	0.687414
359.995	1.43708
363.37	2.40216
366.745	2.88228
370.12	1.66705
373.495	1.74323
376.87	0.450907
380.244	0.237326
383.619	0.617558
386.994	0.814224
390.369	0.049187
393.744	0.734863
397.118	2.79302
400.493	2.98916
403.868	4.59087
407.243	7.6537
410.618	10.7089
413.993	12.9835
417.367	20.5663
420.742	30.3421
424.117	32.4569
427.492	22.1499
430.866	21.9814
434.241	26.739
437.616	37.4822
440.991	38.3338
444.366	20.8511
447.741	10.3235
451.115	3.56733
454.49	1.75303
457.865	1.04881
461.24	1.53701
464.615	1.32823
467.99	0.544971
471.364	0.627476
474.739	1.54426
478.114	0.672314
481.489	0.791847
484.864	0.142677
488.238	1.08161
491.613	1.47943
494.988	0.875706
498.363	1.23413
501.738	0.226883
505.113	0.767212
508.487	0.588329
511.862	0.07814
515.237	1.47796
518.612	0.15696
521.987	0.293533
525.361	2.13894
528.736	2.18678
532.111	6.39463
535.486	12.3425
538.861	18.5132
542.236	29.5052
545.61	42.4168
548.985	27.5014
552.36	8.58266
555.735	2.5549
559.11	1.81015
562.484	0.601707
565.859	2.50443
569.234	3.82438
572.609	8.6022
575.984	16.3115
579.359	25.4156
582.733	41.2816
586.108	58.0096
589.483	53.1562
592.858	35.1935
596.232	31.9993
599.607	36.4418
602.982	49.8618
606.357	71.1971
609.732	83.6114
613.107	61.0814
616.481	32.1518
619.856	16.0329
623.231	7.26474
626.606	4.06086
629.981	2.4558
633.356	1.14008
636.73	0.477573
640.105	1.62118
643.48	0.013
646.855	0.126389
650.23	1.06639
653.604	1.11642
656.979	2.37349
660.354	1.34232
663.729	0.46151
667.104	1.90024
670.479	2.4697
673.853	1.75663
677.228	0.701786
680.603	1.19266
683.978	1.83736
687.353	0.151787
690.727	0.172127
694.102	2.07967
697.477	1.24759
700.852	3.30233
704.227	2.84809
707.601	2.58429
710.976	4.10967
714.351	3.57736
717.726	3.09962
721.101	2.95184
724.476	2.76585
727.85	3.38111
731.225	1.84858
734.6	2.39843
737.975	2.57446
741.35	0.938503
744.725	1.62163
748.099	0.580563
751.474	1.01771
754.849	0.305565
758.224	2.2362
761.599	0.644791
764.973	1.19407
768.348	0.55077
771.723	0.572006
775.098	1.15501
778.473	1.86409
781.847	1.11011
785.222	4.45689
788.597	4.40271
791.972	6.72312
795.347	10.0332
798.722	13.6852
802.096	23.1684
805.471	39.2285
808.846	73.2467
812.221	135.73
815.596	231.094
818.971	368.166
822.345	587.903
825.72	734.821
829.095	481.704
832.47	252.283
835.845	177.75
839.219	184.566
842.594	273.572
845.969	472.32
849.344	762.087
852.719	1213.06
856.093	1827.05
859.468	1741.02
862.843	825.874
866.218	389.932
869.593	238.994
872.967	188.017
876.342	185.156
879.717	229.244
883.092	269.287
886.467	158.559
889.842	60.7345
893.216	25.9612
896.591	12.3651
899.966	5.28201
903.341	1.07239
906.716	1.86604
910.091	3.43775
913.465	2.74966
916.84	1.98294
920.215	7.1176
923.59	4.34256
926.965	0.290367
930.339	1.00791
933.714	3.76917
937.089	8.57072
940.464	14.1005
943.839	23.9035
947.213	36.3844
950.588	57.2963
953.963	95.1412
957.338	146.329
960.713	212.839
964.088	296.504
967.462	309.899
970.837	170.363
974.212	72.1389
977.587	33.2944
980.962	16.223
984.337	8.3612
987.711	4.53487
991.086	9.50536
994.461	1.10587
997.836	1.46395
1001.21	0.441055
1004.59	0.547478
1007.96	2.00624
1011.34	0.578728
1014.71	0.178001
1018.09	0.302746
1021.46	0.41901
1024.83	1.14398
1028.21	2.43668
1031.58	2.66264
1034.96	3.11409
1038.33	3.26395
1041.71	3.47005
1045.08	4.21821
1048.46	3.70674
1051.83	3.89243
1055.21	3.57113
1058.58	2.48118
1061.96	2.98788
1065.33	2.92866
1068.71	2.99361
1072.08	3.19782
1075.46	2.05622
1078.83	1.39292
1082.21	0.193546
1085.58	0.119419
1088.96	0.771729
1092.33	1.19671
1095.7	0.394958
1099.08	0.776394
1102.45	0.759308
1105.83	0.123985
1109.2	0.426262
1112.58	0.798782
1115.95	0.832031
1119.33	2.16656
1122.7	0.090332
1126.08	2.49598
1129.45	0.927147
1132.83	1.30257
1136.2	1.42097
1139.58	1.37849
1142.95	1.60595
1146.33	0.159027
1149.7	2.12995
1153.08	1.37305
1156.45	3.20194
1159.83	2.82035
1163.2	2.01522
1166.58	2.26679
1169.95	2.5118
1173.33	3.72364
1176.7	1.65015
1180.08	1.79757
1183.45	2.88846
1186.83	1.53133
1190.2	0.533554
1193.58	0.47493
1196.95	0.482742
1200.33	1.38866
1203.7	0.081543
1207.07	0.149315
1210.45	1.2914
1213.82	0.651299
1217.2	0.5886
1220.57	1.3061
1223.95	3.77158
1227.32	3.78428
1230.7	4.70691
1234.07	3.15991
1237.45	2.48238
1240.82	3.12009
1244.2	2.68759
1247.57	2.12866
1250.95	2.76621
1254.32	1.91718
1257.7	1.78863
1261.07	1.74783
1264.45	2.49352
1267.82	0.732002
1271.2	2.1988
1274.57	2.62491
1277.95	2.03121
1281.32	2.09372
1284.69	0.139442
1288.07	0.700211
1291.44	2.17741
1294.82	0.351135
1298.19	1.98911
1301.57	0.287163
