Measurement: Raman, 532 nm, unoriented, Raman Data Processed
Mineral: Forsterite
Rruff sample: R060551
Ideal chemistry: Mg_2_SiO_4_
Locality: Kohiston, Pakistan
Source: Gemological Institute of America
Description: Pale green fragment
Measured chemistry: (Mg_1.82_Fe_0.18_)_Î£=2_Si_1.00_O_4_; trace amounts of Mn
Raman shift (cm-1)	intensity
91.6273	0
95.0021	1.42826
98.3769	1.55541
101.752	1.13259
105.126	1.02324
108.501	0.342499
111.876	0.450394
115.251	0.794416
118.626	0.316033
122.001	1.59557
125.375	3.02314
128.75	5.18384
132.125	6.40781
135.5	7.40839
138.875	10.2423
142.25	10.0152
145.624	12.064
148.999	12.185
152.374	11.6255
155.749	10.2556
159.124	7.85844
162.498	8.60178
165.873	7.41505
169.248	7.42508
172.623	6.5208
175.998	7.60051
179.373	7.32386
182.747	6.94371
186.122	5.65709
189.497	7.98301
192.872	3.30895
196.247	2.95589
199.621	4.49661
202.996	4.16357
206.371	7.11121
209.746	10.9408
213.121	16.8179
216.495	25.2198
219.87	32.6191
223.245	37.6786
226.62	31.8805
229.995	24.3426
233.37	19.9846
236.744	17.0944
240.119	12.3221
243.494	7.08436
246.869	4.00383
250.244	1.87346
253.619	0.602987
256.993	0.213079
260.368	0.789404
263.743	0.188627
267.118	0.70179
270.493	0.184544
273.867	0.391939
277.242	1.1551
280.617	3.20656
283.992	7.62805
287.367	13.753
290.741	21.6357
294.116	33.6444
297.491	56.7148
300.866	89.1399
304.241	89.6937
307.615	53.8884
310.99	40.1853
314.365	44.3505
317.74	45.0149
321.115	41.9595
324.49	47.8238
327.864	46.438
331.239	33.5046
334.614	27.8597
337.989	23.3386
341.364	14.9926
344.738	6.46607
348.113	2.66708
351.488	2.65806
354.863	2.23815
358.238	2.50688
361.613	3.32233
364.987	3.48892
368.362	6.57266
371.737	7.89361
375.112	3.25667
378.487	1.65707
381.861	1.01668
385.236	0.070164
388.611	0.540539
391.986	0.013506
395.361	0.516726
398.736	2.28515
402.11	5.31388
405.485	10.888
408.86	16.8267
412.235	23.6255
415.61	35.583
418.985	40.0018
422.359	43.3578
425.734	58.3691
429.109	75.813
432.484	68.4323
435.859	36.8151
439.233	20.4324
442.608	9.84348
445.983	4.95559
449.358	2.67656
452.733	1.72075
456.108	0.967533
459.482	0.066551
462.857	0.224531
466.232	1.0198
469.607	0.418961
472.982	0.674044
476.356	0.619866
479.731	1.3064
483.106	0.707112
486.481	0.330083
489.856	0.050633
493.231	0.081278
496.605	0.009543
499.98	0.001419
503.355	0.377621
506.73	0.854258
510.105	0.324211
513.479	0.211656
516.854	0.282345
520.229	0.145061
523.604	1.73459
526.979	4.57187
530.354	10.0389
533.728	15.7621
537.103	27.5535
540.478	43.766
543.853	46.7415
547.227	24.7647
550.602	11.5153
553.977	7.25183
557.352	5.57843
560.727	6.49308
564.102	8.31478
567.476	12.9888
570.851	19.65
574.226	29.4476
577.601	40.5516
580.976	49.5163
584.351	53.4116
587.725	55.6337
591.1	56.6549
594.475	59.2966
597.85	70.6765
601.225	91.7875
604.599	105.504
607.974	96.9821
611.349	69.2598
614.724	41.6167
618.099	25.8665
621.473	15.7251
624.848	10.8731
628.223	7.90675
631.598	5.40858
634.973	2.95287
638.348	1.66569
641.722	0.99258
645.097	0.236074
648.472	0.118208
651.847	0.084267
655.222	0.511156
658.596	0.29763
661.971	0.257677
665.346	0.490969
668.721	0.230992
672.096	0.04829
675.471	0.544739
678.845	0.23732
682.22	0.125211
685.595	0.748347
688.97	1.49268
692.345	1.19424
695.72	2.13636
699.094	2.13627
702.469	2.40022
705.844	2.69662
709.219	2.95781
712.594	2.70846
715.968	2.09425
719.343	2.61559
722.718	2.0386
726.093	2.12106
729.468	1.3926
732.842	0.882742
736.217	0.996191
739.592	0.34535
742.967	0.518341
746.342	1.15899
749.717	1.40229
753.091	0.865141
756.466	0.575155
759.841	1.22862
763.216	1.10212
766.591	0.145233
769.966	0.137333
773.34	1.35609
776.715	2.88465
780.09	4.25681
783.465	7.56739
786.84	11.2009
790.214	17.0158
793.589	25.6553
796.964	36.8788
800.339	58.1741
803.714	93.5177
807.088	160.018
810.463	281.269
813.838	464.298
817.213	767.088
820.588	1235.81
823.962	1466.08
827.337	978.967
830.712	552.519
834.087	378.932
837.462	321.432
840.837	326.759
844.211	404.527
847.586	570.578
850.961	853.082
854.336	1136.04
857.711	1031.96
861.086	629.881
864.46	371.704
867.835	226.915
871.21	136.143
874.585	93.3999
877.96	78.5137
881.334	76.6829
884.709	52.0115
888.084	21.7385
891.459	6.8542
894.834	0.075062
898.208	3.23353
901.583	4.10316
904.958	2.56775
908.333	2.63535
911.708	13.2822
915.083	31.751
918.457	60.2289
921.832	39.1463
925.207	8.15568
928.582	0.727062
931.957	0.248165
935.332	2.17582
938.706	5.82416
942.081	13.5322
945.456	23.8624
948.831	41.3486
952.206	64.6781
955.58	97.6366
958.955	131.114
962.33	144.292
965.705	122.504
969.08	87.8448
972.455	56.9575
975.829	34.3113
979.204	21.0107
982.579	12.5189
985.954	7.01745
989.329	4.66954
992.703	2.81347
996.078	1.7568
999.453	0.486261
1002.83	0.267448
1006.2	0.169167
1009.58	0.197567
1012.95	0.071617
1016.33	0.377535
1019.7	0.529896
1023.08	0.702101
1026.45	0.968758
1029.83	1.02092
1033.2	1.28133
1036.58	1.45653
1039.95	1.2993
1043.33	1.14907
1046.7	1.75232
1050.08	1.5742
1053.45	0.937602
1056.83	1.02249
1060.2	1.10721
1063.57	0.628806
1066.95	0.100101
1070.32	0.004578
1073.7	0.605599
1077.07	0.455016
1080.45	0.078418
1083.82	0.584611
1087.2	0.096601
1090.57	0.37196
1093.95	0.110171
1097.32	0.219858
1100.7	0.30343
1104.07	1.32774
1107.45	0.93574
1110.82	0.646799
1114.2	1.35716
1117.57	0.503657
1120.95	0.967754
1124.32	1.25359
1127.7	0.792363
1131.07	0.516776
1134.45	0.396233
1137.82	0.677701
1141.19	0.759924
1144.57	0.527385
1147.94	1.34277
1151.32	1.4664
1154.69	1.55519
1158.07	1.33929
1161.44	0.670164
1164.82	0.793722
1168.19	0.732696
1171.57	0.112205
1174.94	0.619097
1178.32	0.012017
1181.69	0.050299
1185.07	0.079118
1188.44	0.117994
1191.82	0.666868
1195.19	1.07616
1198.57	0.737286
1201.94	1.06555
1205.32	1.11592
1208.69	1.77822
1212.07	1.33197
1215.44	2.37607
1218.82	1.74032
1222.19	1.90056
1225.57	2.62451
1228.94	2.41915
1232.32	2.62702
1235.69	2.1929
1239.07	1.82206
1242.44	1.87053
1245.82	1.47167
1249.19	1.47473
1252.56	1.17214
1255.94	0.415781
1259.31	0.733141
1262.69	0.536784
1266.06	0.302854
1269.44	0.088358
1272.81	0.265244
1276.19	0.140192
1279.56	0.168726
1282.94	0.232347
1286.31	0.652776
1289.69	0.629972
1293.06	0.198631
1296.44	0.371636
1299.81	0.424913
1303.19	0.170445
