Measurement: Raman, 780 nm, unoriented, Raman Data Processed
Mineral: Forsterite
Rruff sample: R100140
Ideal chemistry: Mg_2_SiO_4_
Locality: Pakistan
Source: William W. Pinch
Description: Pale green cut gemstone
Raman shift (cm-1)	intensity
110.854	0
114.229	0.154854
117.604	1.71381
120.979	2.20073
124.354	2.85353
127.728	2.79072
131.103	2.14944
134.478	3.12372
137.853	4.45348
141.228	5.56998
144.602	2.6726
147.977	2.86168
151.352	4.25585
154.727	0.243603
158.102	1.31976
161.477	1.63502
164.851	0.182358
168.226	0.63496
171.601	0.345978
174.976	2.39608
178.351	2.47967
181.726	4.10145
185.1	3.23379
188.475	5.30521
191.85	3.95203
195.225	5.00954
198.6	5.50184
201.974	5.56265
205.349	8.22716
208.724	12.0788
212.099	17.0247
215.474	27.4573
218.848	43.0967
222.223	67.2224
225.598	67.9528
228.973	43.4599
232.348	30.2737
235.722	23.2209
239.097	18.7005
242.472	13.4296
245.847	7.34939
249.222	4.43126
252.597	3.76761
255.971	0.178211
259.346	0.77626
262.721	0.01804
266.096	1.25829
269.471	0.869892
272.846	2.21726
276.22	0.053341
279.595	2.01658
282.97	2.92362
286.345	4.80668
289.719	6.48716
293.094	7.91799
296.469	19.8474
299.844	45.3027
303.219	60.2556
306.594	34.661
309.968	20.5881
313.343	26.9316
316.718	28.2796
320.093	12.8363
323.468	5.26188
326.842	5.73339
330.217	2.60598
333.592	1.63044
336.967	1.59528
340.342	0.469238
343.717	1.26897
347.091	0.285629
350.466	1.77283
353.841	2.12688
357.216	4.56054
360.591	7.84722
363.965	12.2363
367.34	29.4115
370.715	56.4439
374.09	40.2737
377.465	15.333
380.839	6.51929
384.214	2.3893
387.589	2.96597
390.964	0.651226
394.339	0.360596
397.714	2.31481
401.088	5.80286
404.463	16.0542
407.838	30.1391
411.213	18.1387
414.588	9.78759
417.962	8.09681
421.337	12.6108
424.712	19.9664
428.087	39.5149
431.462	61.7486
434.837	48.6752
438.211	35.3455
441.586	20.4842
444.961	9.71148
448.336	5.17567
451.711	4.53742
455.085	2.5611
458.46	1.36964
461.835	0.393234
465.21	0.022442
468.585	2.01256
471.959	2.48935
475.334	0.039101
478.709	0.147823
482.084	2.48875
485.459	2.14589
488.834	0.610146
492.208	1.43036
495.583	1.5339
498.958	0.603886
502.333	0.514538
505.708	2.42535
509.082	0.608028
512.457	1.35379
515.832	0.382099
519.207	1.00493
522.582	1.24978
525.957	1.16582
529.331	0.07729
532.706	0.027843
536.081	0.506645
539.456	2.18167
542.831	5.57709
546.205	4.09785
549.58	2.9575
552.955	2.92243
556.33	1.77053
559.705	5.48656
563.08	6.22585
566.454	7.41801
569.829	16.2239
573.204	21.3859
576.579	39.7955
579.954	61.3456
583.328	88.0473
586.703	115.168
590.078	132.485
593.453	95.0234
596.828	51.6162
600.202	36.7055
603.577	34.1885
606.952	34.2001
610.327	28.4556
613.702	18.6759
617.077	11.3352
620.451	7.34089
623.826	5.71273
627.201	5.30692
630.576	3.19293
633.951	2.49313
637.325	2.33106
640.7	0.987377
644.075	0.529392
647.45	0.618366
650.825	0.872211
654.199	1.41407
657.574	0.625702
660.949	0.202194
664.324	1.54372
667.699	0.470112
671.073	0.461151
674.448	0.222816
677.823	2.07074
681.198	0.242199
684.573	1.40172
687.948	1.95126
691.322	0.404694
694.697	1.36958
698.072	2.3915
701.447	3.47299
704.822	3.83347
708.197	4.301
711.571	3.02326
714.946	3.09148
718.321	3.5771
721.696	4.25438
725.071	4.006
728.445	3.2048
731.82	1.92199
735.195	1.95076
738.57	1.9067
741.945	0.456261
745.319	0.157265
748.694	0.643158
752.069	1.06346
755.444	1.75759
758.819	2.30539
762.193	0.193913
765.568	1.63862
768.943	0.111111
772.318	0.086098
775.693	0.032444
779.068	1.99749
782.442	2.29253
785.817	3.52814
789.192	3.15898
792.567	8.28152
795.942	12.0966
799.317	23.0555
802.691	36.2956
806.066	61.7027
809.441	103.508
812.816	174.397
816.191	314.31
819.565	636.943
822.94	1036.94
826.315	814.998
829.69	434.546
833.065	269.2
836.439	218.449
839.814	215.381
843.189	255.734
846.564	363.831
849.939	624.07
853.313	1089.39
856.688	1265.44
860.063	793.03
863.438	416.791
866.813	240.309
870.188	143.154
873.562	98.3417
876.937	91.3864
880.312	119.503
883.687	107.243
887.062	42.8435
890.437	12.7575
893.811	3.21293
897.186	4.20741
900.561	2.66359
903.936	1.58765
907.311	6.49802
910.685	23.788
914.06	73.8377
917.435	207.821
920.81	202.058
924.185	57.0809
927.559	15.05
930.934	4.782
934.309	3.56854
937.684	4.50019
941.059	12.0003
944.433	21.809
947.808	34.7408
951.183	54.8688
954.558	87.6807
957.933	132.53
961.308	176.242
964.682	166.419
968.057	112.33
971.432	66.6247
974.807	33.6677
978.182	17.205
981.557	5.99653
984.931	3.68743
988.306	1.19317
991.681	0.723152
995.056	1.1618
998.431	1.06741
1001.8	0.969673
1005.18	2.39315
1008.55	0.884506
1011.93	1.07553
1015.3	0.449905
1018.68	1.43925
1022.05	0.206871
1025.43	0.596409
1028.8	3.7668
1032.18	5.41197
1035.55	4.85398
1038.93	2.94144
1042.3	2.79852
1045.68	5.30177
1049.05	4.91747
1052.43	4.62455
1055.8	4.14482
1059.18	4.69571
1062.55	4.38379
1065.93	3.65589
1069.3	2.89347
1072.68	0.484421
1076.05	1.11244
1079.43	3.02396
1082.8	1.85777
1086.18	1.09035
1089.55	1.86606
1092.92	1.60075
1096.3	0.976246
1099.67	1.90128
1103.05	0.392776
1106.42	1.96137
1109.8	1.27348
1113.17	3.34402
1116.55	2.03506
1119.92	0.311962
1123.3	0.303764
1126.67	1.73709
1130.05	2.12859
1133.42	0.911919
1136.8	2.4446
1140.17	0.062283
1143.55	1.81971
1146.92	2.88797
1150.3	1.45792
1153.67	2.81165
1157.05	1.47878
1160.42	3.91666
1163.8	1.7872
1167.17	1.25873
1170.55	2.61126
1173.92	1.3515
1177.3	1.29128
1180.67	1.82422
1184.05	0.73188
1187.42	0.462063
1190.8	1.65881
1194.17	1.17305
1197.55	1.95065
1200.92	2.13125
1204.29	2.35397
1207.67	1.73704
1211.04	2.15542
1214.42	1.34118
1217.79	1.39099
1221.17	2.00943
1224.54	2.75726
1227.92	5.1766
1231.29	2.51992
1234.67	0.448452
1238.04	4.89519
1241.42	1.28143
1244.79	1.30471
1248.17	2.15988
1251.54	0.945335
1254.92	1.30627
1258.29	1.13304
1261.67	0.707272
1265.04	0.89801
1268.42	1.63104
1271.79	1.38223
1275.16	0.516777
1278.54	0.686043
1281.91	1.08175
