Measurement: Raman, 532 nm, unoriented, Raman Data Processed
Mineral: Forsterite
Rruff sample: R050117
Ideal chemistry: Mg_2_SiO_4_
Locality: Sapat, Gilgit, Pakistan
Source: Farooq and Nazia Sawal
Description: Fragment of a green crystal
Measured chemistry: (Mg_1.81_Fe_0.18_Ni_0.01_)_Î£=2_Si_1.00_O_4_
Raman shift (cm-1)	intensity
94.0378	0
97.4127	0.818293
100.787	2.65836
104.162	2.59513
107.537	0.921496
110.912	0.339252
114.287	0.549674
117.662	1.04386
121.036	3.87455
124.411	8.19191
127.786	12.9971
131.161	20.1403
134.536	21.9659
137.911	22.9923
141.285	26.0755
144.66	30.243
148.035	31.3168
151.41	29.3148
154.785	26.3547
158.159	22.1856
161.534	21.3452
164.909	19.736
168.284	18.1066
171.659	15.8953
175.033	12.7768
178.408	12.5141
181.783	11.2607
185.158	9.72203
188.533	9.33475
191.907	7.75219
195.282	7.24162
198.657	8.66334
202.032	9.78081
205.407	11.4975
208.782	15.2474
212.156	21.2728
215.531	29.3257
218.906	37.1833
222.281	42.9607
225.656	39.2355
229.03	27.4191
232.405	21.835
235.78	20.5808
239.155	16.0738
242.53	10.7684
245.905	6.11011
249.279	3.64397
252.654	1.95062
256.029	2.91351
259.404	2.8684
262.779	1.33635
266.154	0.767582
269.528	0.70586
272.903	1.7664
276.278	0.83572
279.653	1.9478
283.028	6.49263
286.402	15.0178
289.777	23.8306
293.152	34.1483
296.527	54.4494
299.902	82.931
303.276	92.7506
306.651	56.1125
310.026	30.7722
313.401	22.2331
316.776	20.9481
320.151	24.9436
323.525	30.9793
326.9	31.9467
330.275	24.6091
333.65	23.773
337.025	25.9881
340.399	23.1471
343.774	15.451
347.149	10.4742
350.524	8.90153
353.899	8.43689
357.274	9.0249
360.648	8.10606
364.023	5.33863
367.398	3.19691
370.773	3.63536
374.148	2.91016
377.522	0.961624
380.897	0.868755
384.272	0.343464
387.647	1.41984
391.022	0.624893
394.397	0.661781
397.771	0.917336
401.146	1.77174
404.521	25.3535
407.896	20.9009
411.271	32.6525
414.645	35.8916
418.02	38.7452
421.395	32.8676
424.77	29.0956
428.145	36.6488
431.519	47.7693
434.894	59.1016
438.269	55.5746
441.644	32.2287
445.019	16.2019
448.394	8.6245
451.768	6.03297
455.143	3.66002
458.518	1.76136
461.893	2.52277
465.268	1.89577
468.642	1.69532
472.017	2.31101
475.392	1.49561
478.767	1.2588
482.142	1.25551
485.517	1.64364
488.891	1.37669
492.266	0.750591
495.641	0.327759
499.016	0.722755
502.391	0.515602
505.765	0.764729
509.14	0.790066
512.515	0.072392
515.89	0.61731
519.265	1.21338
522.64	2.64587
526.014	4.30056
529.389	7.20265
532.764	11.3165
536.139	16.5464
539.514	25.6862
542.889	29.5186
546.263	16.5061
549.638	6.86189
553.013	3.29021
556.388	3.17244
559.763	3.78266
563.137	5.91898
566.512	10.7691
569.887	18.7384
573.262	32.608
576.637	47.7487
580.011	70.2405
583.386	85.8485
586.761	79.3146
590.136	59.2356
593.511	51.5196
596.886	57.4935
600.26	71.2566
603.635	84.0507
607.01	82.4068
610.385	61.4569
613.76	40.5746
617.135	23.8212
620.509	14.4474
623.884	8.49437
627.259	6.00443
630.634	3.62019
634.009	1.84752
637.383	0.926701
640.758	0.810596
644.133	0.260601
647.508	0.447899
650.883	0.251125
654.257	0.782608
657.632	0.70919
661.007	0.247101
664.382	0.231209
667.757	0.099388
671.131	0.311653
674.506	0.128883
677.881	0.811974
681.256	0.848625
684.631	1.01751
688.006	1.2515
691.38	1.83708
694.755	1.44237
698.13	1.43002
701.505	2.10461
704.88	2.62716
708.255	3.21076
711.629	3.88114
715.004	3.86577
718.379	4.73247
721.754	3.51342
725.129	4.0919
728.503	3.03139
731.878	2.93641
735.253	2.19653
738.628	1.3094
742.003	1.54605
745.378	1.41162
748.752	0.035549
752.127	0.067497
755.502	0.392887
758.877	0.856281
762.252	0.911835
765.626	1.44762
769.001	1.34088
772.376	0.722435
775.751	0.107468
779.126	0.330788
782.5	0.741608
785.875	2.37659
789.25	4.58066
792.625	9.86602
796	15.3397
799.375	27.4032
802.749	48.5755
806.124	87.2116
809.499	158.794
812.874	268.735
816.249	433.622
819.624	679.118
822.998	869.541
826.373	693.133
829.748	423.968
833.123	306.776
836.498	296.655
839.872	370.083
843.247	554.64
846.622	837.446
849.997	1256.05
853.372	1727.13
856.746	1739.23
860.121	1119.89
863.496	603.009
866.871	354.03
870.246	250.692
873.62	218.272
876.995	235.592
880.37	288.726
883.745	251.076
887.12	112.673
890.495	45.2759
893.869	18.7579
897.244	6.35372
900.619	0.129669
903.994	2.9043
907.369	3.26651
910.744	0.175568
914.118	4.76575
917.493	13.3107
920.868	10.2937
924.243	0.623764
927.618	1.91927
930.992	1.80048
934.367	8.07769
937.742	14.9805
941.117	28.9013
944.492	47.6091
947.866	75.5441
951.241	114.097
954.616	159.635
957.991	206.036
961.366	224.502
964.741	190.706
968.115	133.494
971.49	80.7887
974.865	45.1911
978.24	23.7315
981.615	14.9097
984.99	7.79065
988.364	3.30931
991.739	1.45205
995.114	1.44614
998.489	0.870785
1001.86	0.081703
1005.24	0.459614
1008.61	0.788437
1011.99	0.417336
1015.36	0.052139
1018.74	1.8836
1022.11	1.46404
1025.49	2.36237
1028.86	2.45471
1032.24	3.19191
1035.61	3.11748
1038.99	4.92902
1042.36	4.06453
1045.74	5.09219
1049.11	4.31426
1052.49	3.72192
1055.86	3.50974
1059.23	4.3238
1062.61	2.47617
1065.98	1.64881
1069.36	1.32877
1072.73	0.628407
1076.11	3.11238
1079.48	0.0527
1082.86	0.753338
1086.23	0.810722
1089.61	0.585831
1092.98	0.553616
1096.36	1.0033
1099.73	1.71661
1103.11	0.050846
1106.48	1.1278
1109.86	0.236267
1113.23	1.37536
1116.61	0.878841
1119.98	1.81571
1123.36	0.066692
1126.73	1.96556
1130.11	1.2636
1133.48	1.1397
1136.86	0.404919
1140.23	1.12354
1143.61	1.63104
1146.98	2.24398
1150.36	1.6504
1153.73	2.5067
1157.11	1.4788
1160.48	2.18861
1163.86	2.06338
1167.23	1.1567
1170.6	0.870071
1173.98	0.69273
1177.35	0.717579
1180.73	0.334808
1184.1	0.313137
1187.48	1.11376
1190.85	0.09774
1194.23	1.13845
1197.6	0.026325
1200.98	0.824535
1204.35	0.837296
1207.73	1.05842
1211.1	1.95216
1214.48	2.22085
1217.85	2.31038
1221.23	2.35513
1224.6	2.20846
1227.98	2.7427
1231.35	3.36321
1234.73	2.17742
1238.1	1.84771
1241.48	2.98028
1244.85	1.66597
1248.22	1.30645
1251.6	1.5939
1254.97	0.374096
1258.35	0.574059
1261.72	1.03924
1265.1	0.258614
1268.47	0.106174
1271.85	1.35401
1275.22	0.650223
1278.6	0.055233
1281.97	0.654167
1285.35	0.181641
1288.72	1.02598
1292.1	0.530415
1295.47	0.88261
1298.85	0.530697
1302.22	1.29573
