Measurement: Raman, 532 nm, unoriented, Raman Data Processed
Mineral: Forsterite
Rruff sample: R100101
Ideal chemistry: Mg_2_SiO_4_
Locality: Yancey County,  North Carolina, USA
Source: American Museum of Natural History
Description: Pale green consolidated aggregate of grains
Measured chemistry: (Mg_1.809_Fe_0.183_Ni_0.008_Mn_0.003_)_Î£=2.003_Si_0.999_O_4_
Raman shift (cm-1)	intensity
126.651	0
130.026	1.56899
133.401	2.18178
136.775	0.344507
140.15	2.47146
143.525	4.83219
146.9	7.80746
150.275	14.6754
153.649	19.8513
157.024	25.8256
160.399	25.2782
163.774	29.3916
167.149	27.1663
170.524	28.7343
173.898	28.2452
177.273	26.4687
180.648	24.1197
184.023	24.3863
187.398	23.4183
190.773	23.377
194.147	23.2588
197.522	24.938
200.897	24.2643
204.272	28.4856
207.647	32.5989
211.021	40.6419
214.396	51.7059
217.771	61.3535
221.146	71.9739
224.521	69.9365
227.895	54.279
231.27	40.0882
234.645	32.5624
238.02	25.6927
241.395	16.5875
244.769	8.97055
248.144	7.52515
251.519	3.99923
254.894	1.84153
258.269	0.462795
261.644	1.18351
265.018	1.36606
268.393	0.178017
271.768	1.20496
275.143	0.28894
278.518	1.29905
281.892	4.57605
285.267	10.7291
288.642	20.663
292.017	33.0928
295.392	48.3204
298.767	74.4837
302.141	100.649
305.516	74.9975
308.891	42.5752
312.266	29.5231
315.641	32.1332
319.015	29.653
322.39	33.0413
325.765	36.7568
329.14	31.0723
332.515	26.2481
335.89	27.865
339.264	27.0255
342.639	17.8987
346.014	9.69877
349.389	7.42052
352.764	6.59823
356.139	7.45462
359.513	8.009
362.888	9.77469
366.263	10.5772
369.638	16.0529
373.012	17.0001
376.387	6.63016
379.762	2.9016
383.137	1.41928
386.512	0.22031
389.887	0.108997
393.261	1.17144
396.636	0.555889
400.011	3.28962
403.386	8.35644
406.761	14.3113
410.135	17.0571
413.51	21.5283
416.885	25.5477
420.26	28.7537
423.635	31.5674
427.01	41.0765
430.384	51.2501
433.759	54.3421
437.134	47.469
440.509	33.1514
443.884	16.2485
447.259	8.06803
450.633	4.72126
454.008	3.5811
457.383	1.58846
460.758	2.62805
464.133	0.240509
467.507	0.664356
470.882	2.25636
474.257	0.519005
477.632	1.71171
481.007	1.74595
484.382	1.28772
487.756	0.918079
491.131	0.562263
494.506	0.095757
497.881	0.846111
501.256	1.6054
504.63	0.660431
508.005	0.150246
511.38	1.55568
514.755	1.88689
518.13	2.70148
521.505	3.6051
524.879	7.15708
528.254	12.0187
531.629	15.289
535.004	21.1632
538.379	33.2116
541.753	41.5189
545.128	34.149
548.503	14.5655
551.878	6.73922
555.253	2.92197
558.628	2.08941
562.002	3.29089
565.377	8.01164
568.752	15.1467
572.127	26.2246
575.502	38.6505
578.876	58.7303
582.251	79.2937
585.626	90.9242
589.001	86.358
592.376	72.5002
595.75	56.728
599.125	56.6916
602.5	63.8321
605.875	68.9895
609.25	60.2363
612.625	41.2708
615.999	25.0281
619.374	15.3822
622.749	9.47629
626.124	7.36386
629.499	3.36074
632.873	2.86144
636.248	0.008003
639.623	0.166672
642.998	0.018814
646.373	0.118706
649.747	0.358276
653.122	0.655899
656.497	0.084282
659.872	1.57042
663.247	1.7798
666.622	0.880402
669.996	1.4294
673.371	1.98831
676.746	1.7844
680.121	2.63636
683.496	2.06976
686.87	3.17789
690.245	4.50766
693.62	3.06822
696.995	3.81268
700.37	4.38843
703.745	4.61777
707.119	6.55216
710.494	5.19684
713.869	5.03716
717.244	3.93937
720.619	4.13033
723.994	5.3271
727.368	4.94153
730.743	4.66395
734.118	2.28139
737.493	1.87416
740.868	2.74637
744.242	0.221024
747.617	1.22121
750.992	0.23777
754.367	0.654694
757.742	0.151268
761.116	2.17178
764.491	1.24298
767.866	1.43337
771.241	1.12485
774.616	0.385544
777.99	0.042389
781.365	0.406593
784.74	1.91036
788.115	3.55239
791.49	8.75021
794.865	16.1338
798.239	26.0415
801.614	45.8326
804.989	80.525
808.364	146.286
811.739	262.959
815.114	429.477
818.488	690.231
821.863	1021.32
825.238	1059.67
828.613	682.756
831.988	440.92
835.362	374.699
838.737	415.559
842.112	568.114
845.487	847.892
848.862	1259.08
852.236	1794.86
855.611	2147.09
858.986	1696.17
862.361	955.087
865.736	528.066
869.111	319.993
872.485	224.144
875.86	191.204
879.235	195.775
882.61	192.74
885.985	109.434
889.36	39.353
892.734	12.2837
896.109	0.997925
899.484	4.37506
902.859	8.33623
906.234	0.844162
909.608	15.229
912.983	41.7943
916.358	86.3857
919.733	124.169
923.108	55.369
926.482	12.6396
929.857	3.37457
933.232	6.05572
936.607	15.3389
939.982	28.8387
943.357	51.7533
946.731	82.5426
950.106	126.537
953.481	177.775
956.856	233.507
960.231	267.085
963.606	250.091
966.98	186.142
970.355	118.957
973.73	68.2364
977.105	36.3613
980.48	18.1282
983.854	8.41668
987.229	5.05919
990.604	0.84594
993.979	0.01442
997.354	0.10041
1000.73	2.03182
1004.1	0.166046
1007.48	1.12508
1010.85	1.12611
1014.23	0.40612
1017.6	0.236092
1020.98	1.98876
1024.35	3.30566
1027.73	5.04826
1031.1	5.29327
1034.48	6.76405
1037.85	6.25502
1041.23	6.48156
1044.6	7.6763
1047.98	7.20287
1051.35	5.85029
1054.73	7.53015
1058.1	6.99192
1061.47	4.79162
1064.85	2.1284
1068.22	3.20542
1071.6	1.4368
1074.97	1.93967
1078.35	1.3038
1081.72	1.46204
1085.1	0.634766
1088.47	0.036728
1091.85	1.63921
1095.22	1.58141
1098.6	1.57348
1101.97	1.56268
1105.35	0.289703
1108.72	1.498
1112.1	0.621758
1115.47	0.544395
1118.85	0.460205
1122.22	0.303337
1125.6	1.00255
1128.97	1.79229
1132.35	0.60038
1135.72	1.42357
1139.1	1.47884
1142.47	2.18754
1145.85	1.12808
1149.22	2.22247
1152.6	3.06974
1155.97	3.16434
1159.35	1.65615
1162.72	3.98495
1166.09	1.34453
1169.47	3.31907
1172.84	1.14741
1176.22	1.50832
1179.59	1.07999
1182.97	0.959534
1186.34	0.445534
1189.72	0.038612
1193.09	2.26532
1196.47	2.0046
1199.84	2.2395
1203.22	1.91328
1206.59	2.90118
1209.97	2.52317
1213.34	3.87556
1216.72	3.03249
1220.09	2.52544
1223.47	2.98418
1226.84	3.62257
1230.22	2.74181
1233.59	4.66705
1236.97	3.83457
1240.34	3.44234
1243.71	2.39928
1247.09	3.01492
1250.46	1.97907
1253.84	2.46112
1257.21	2.78229
1260.59	1.41617
1263.96	1.01787
1267.34	1.74078
1270.71	0.843163
1274.09	0.088081
1277.46	1.75421
1280.84	1.99905
1284.21	0.447266
1287.59	1.20628
1290.96	1.41535
1294.34	2.31432
1297.71	0.843529
1301.09	0.052765
