Measurement: Raman, 532 nm, unoriented, Raman Data Processed
Mineral: Forsterite
Rruff sample: R040057
Ideal chemistry: Mg_2_SiO_4_
Locality: Trudy's mine, San Carlos, Gila County, Arizona, USA
Source: Bob Downs
Description: Dark green crystal fragments from xenoliths in a basalt flow
Measured chemistry: (Mg_1.67_Fe_0.32_Ni_0.01_)_Î£=2_Si_1.00_O_4_; trace amounts of Mn and Ca
Raman shift (cm-1)	intensity
92.1094	0
95.4842	0.960582
98.859	1.51634
102.234	1.9161
105.609	0.219538
108.984	0.328055
112.358	0.19676
115.733	1.49809
119.108	1.44449
122.483	2.86613
125.858	5.97734
129.232	10.1229
132.607	12.41
135.982	13.7428
139.357	18.9254
142.732	20.9129
146.106	22.6271
149.481	22.4322
152.856	20.6671
156.231	17.2758
159.606	13.6401
162.981	12.8151
166.355	10.1138
169.73	8.86374
173.105	6.91001
176.48	6.07327
179.855	5.85825
183.229	3.54114
186.604	4.43663
189.979	3.82487
193.354	4.31747
196.729	5.06298
200.103	6.89822
203.478	9.67876
206.853	12.8468
210.228	19.2445
213.603	23.8753
216.978	26.0088
220.352	24.2304
223.727	20.5433
227.102	18.1398
230.477	15.6533
233.852	14.2947
237.226	13.9264
240.601	10.2686
243.976	6.1451
247.351	3.72338
250.726	1.61332
254.101	0.861561
257.475	0.474598
260.85	1.09275
264.225	0.892891
267.6	0.373409
270.975	0.919643
274.349	2.41276
277.724	4.89812
281.099	9.63389
284.474	18.6366
287.849	29.0789
291.224	44.5369
294.598	66.6632
297.973	91.0453
301.348	94.821
304.723	70.032
308.098	45.9792
311.473	36.835
314.847	32.5299
318.222	29.3912
321.597	24.8207
324.972	20.5084
328.347	15.003
331.721	14.3889
335.096	14.6478
338.471	14.1702
341.846	12.649
345.221	11.8999
348.595	11.0458
351.97	10.9284
355.345	7.78314
358.72	6.14946
362.095	3.27904
365.469	2.08562
368.844	1.63749
372.219	0.895216
375.594	0.608938
378.969	0.462599
382.344	0.692371
385.718	0.185841
389.093	0.20458
392.468	0.807373
395.843	3.52065
399.218	7.60739
402.592	12.6203
405.967	21.2957
409.342	30.2281
412.717	35.1094
416.092	30.5577
419.467	30.971
422.841	35.273
426.216	39.5832
429.591	42.1197
432.966	41.554
436.341	31.9984
439.716	18.7493
443.09	9.73919
446.465	4.98973
449.84	2.13811
453.215	1.18312
456.59	0.630163
459.964	1.05925
463.339	0.954563
466.714	1.33256
470.089	1.24209
473.464	1.19724
476.839	0.977594
480.213	1.28145
483.588	0.689047
486.963	0.052185
490.338	0.358337
493.713	0.063562
497.087	0.683121
500.462	0.401455
503.837	0.41925
507.212	0.578207
510.587	0.15736
513.962	0.663542
517.336	0.959768
520.711	1.46445
524.086	2.17831
527.461	3.6711
530.836	5.17511
534.21	8.64724
537.585	13.7706
540.96	16.3722
544.335	8.88617
547.71	4.43323
551.085	2.83527
554.459	3.04735
557.834	4.91143
561.209	8.46706
564.584	12.2826
567.959	19.6485
571.333	29.5386
574.708	42.2681
578.083	53.2226
581.458	62.3363
584.833	60.6777
588.207	60.4146
591.582	66.722
594.957	81.9817
598.332	96.5178
601.707	104.614
605.082	96.6276
608.456	74.0136
611.831	51.2661
615.206	32.9064
618.581	23.1099
621.956	14.5572
625.33	10.1706
628.705	7.1016
632.08	3.61539
635.455	2.46509
638.83	1.28461
642.205	0.984011
645.579	0.376883
648.954	0.014738
652.329	0.054529
655.704	0.150875
659.079	0.054411
662.453	0.185455
665.828	0.079191
669.203	0.107599
672.578	0.856165
675.953	1.00203
679.327	1.10887
682.702	2.05233
686.077	2.03372
689.452	2.85034
692.827	2.87229
696.202	3.66906
699.576	3.97867
702.951	4.19934
706.326	4.02492
709.701	4.02207
713.076	3.61498
716.45	3.79159
719.825	3.11547
723.2	1.59591
726.575	2.65716
729.95	1.53977
733.324	1.00229
736.699	0.457142
740.074	0.263409
743.449	0.052578
746.824	0.150753
750.199	0.85775
753.573	0.77784
756.948	0.717827
760.323	0.83527
763.698	0.334618
767.073	0.587971
770.447	1.31833
773.822	0.034996
777.197	1.20821
780.572	1.7133
783.947	3.71244
787.322	7.98357
790.696	12.45
794.071	21.8585
797.446	33.8678
800.821	56.6733
804.196	93.7404
807.571	163.655
810.945	282.636
814.32	458.129
817.695	733.348
821.07	988.968
824.445	869.207
827.819	561.73
831.194	388.245
834.569	337.94
837.944	366.118
841.319	467.96
844.693	658.646
848.068	952.132
851.443	1282.39
854.818	1331.32
858.193	978.97
861.568	596.794
864.942	358.087
868.317	231.321
871.692	165.955
875.067	140.073
878.442	141.379
881.817	133.627
885.191	75.8003
888.566	32.3938
891.941	12.7703
895.316	3.12335
898.691	1.47535
902.065	3.02739
905.44	3.01041
908.815	1.22445
912.19	3.63665
915.565	10.4248
918.939	12.5512
922.314	3.55994
925.689	0.620953
929.064	1.33295
932.439	5.80251
935.813	12.4375
939.188	23.9707
942.563	41.3781
945.938	62.7205
949.313	89.7141
952.688	117.526
956.062	132.162
959.437	127.344
962.812	108.031
966.187	82.621
969.562	57.495
972.937	36.3316
976.311	22.5242
979.686	14.3624
983.061	8.79839
986.436	5.10241
989.811	3.72874
993.185	1.69183
996.56	1.50035
999.935	0.252768
1003.31	0.657894
1006.68	0.210434
1010.06	0.173258
1013.43	0.25223
1016.81	0.497183
1020.18	0.864847
1023.56	1.86847
1026.93	2.43955
1030.31	2.80022
1033.68	2.26651
1037.06	2.88264
1040.43	3.12139
1043.81	1.6267
1047.18	2.36169
1050.56	2.49677
1053.93	2.25945
1057.31	1.17004
1060.68	1.14355
1064.06	0.11977
1067.43	0.187565
1070.81	0.353964
1074.18	0.176748
1077.56	0.008604
1080.93	0.030704
1084.31	0.115402
1087.68	0.569223
1091.06	0.514542
1094.43	0.392485
1097.81	0.543137
1101.18	0.6707
1104.55	0.860344
1107.93	0.472378
1111.3	0.834141
1114.68	0.637667
1118.05	0.532595
1121.43	0.86838
1124.8	1.35128
1128.18	0.903044
1131.55	0.613361
1134.93	0.564726
1138.3	1.45576
1141.68	0.930492
1145.05	1.04258
1148.43	1.39503
1151.8	1.41727
1155.18	1.26427
1158.55	0.921305
1161.93	0.858133
1165.3	0.996485
1168.68	0.232738
1172.05	0.082184
1175.43	0.050861
1178.8	0.549585
1182.17	0.402628
1185.55	0.706074
1188.92	0.816393
1192.3	0.827646
1195.67	1.28252
1199.05	0.983324
1202.42	1.44232
1205.8	1.83377
1209.17	1.6193
1212.55	1.65769
1215.92	2.34959
1219.3	2.48027
1222.67	2.54007
1226.05	2.77088
1229.42	1.97433
1232.8	2.99291
1236.17	1.79128
1239.55	1.57517
1242.92	1.11996
1246.3	1.75449
1249.67	1.67191
1253.05	0.594706
1256.42	0.562042
1259.8	0.848969
1263.17	0.33778
1266.55	0.330354
1269.92	0.002056
1273.3	0.230817
1276.67	0.297935
1280.05	0.354827
1283.42	0.485034
1286.79	0.589308
1290.17	0.688221
1293.54	0.585718
1296.92	0.390079
1300.29	0.239783
1303.67	0.633887
