Measurement: Raman, 780 nm, unoriented, Raman Data Processed
Mineral: Forsterite
Rruff sample: R060539
Ideal chemistry: Mg_2_SiO_4_
Locality: Sri Lanka
Source: Gemological Institute of America
Description: Brown cut gemstone
Measured chemistry: (Mg_1.67_Fe_0.33_)_Î£=2_Si_1.00_O_4_; trace amounts of Mn and Ca
Raman shift (cm-1)	intensity
96.5451	0
99.9199	1.92645
103.295	0.557926
106.669	2.3015
110.044	0.505886
113.419	0.267563
116.794	0.765793
120.169	1.4687
123.544	1.0387
126.918	1.16904
130.293	1.57098
133.668	1.29756
137.043	3.0449
140.418	4.45984
143.792	3.79417
147.167	3.68033
150.542	4.10881
153.917	3.04231
157.292	3.42186
160.667	1.72664
164.041	0.96003
167.416	0.076
170.791	0.957287
174.166	0.328136
177.541	0.036751
180.916	1.07738
184.29	1.35926
187.665	1.20256
191.04	1.48239
194.415	2.86204
197.79	4.33859
201.164	6.60546
204.539	7.98121
207.914	11.0769
211.289	15.2314
214.664	17.6978
218.038	16.7154
221.413	13.2806
224.788	11.0784
228.163	10.5685
231.538	10.1401
234.912	8.07864
238.287	7.31077
241.662	5.46202
245.037	4.85304
248.412	1.66049
251.787	0.820393
255.161	0.143982
258.536	0.272606
261.911	0.538717
265.286	0.295013
268.661	0.358198
272.036	0.037308
275.41	2.25789
278.785	3.69412
282.16	6.29117
285.535	8.63648
288.909	12.8134
292.284	17.707
295.659	27.2189
299.034	29.5214
302.409	26.3026
305.784	18.3984
309.158	17.4624
312.533	16.2157
315.908	11.2244
319.283	7.47228
322.658	4.63744
326.033	3.50376
329.407	3.8672
332.782	2.7147
336.157	3.49072
339.532	3.46881
342.907	4.27905
346.281	5.51129
349.656	5.6848
353.031	5.13079
356.406	4.97757
359.781	5.79361
363.155	4.8353
366.53	5.69348
369.905	4.89629
373.28	2.31309
376.655	2.00081
380.029	0.083416
383.404	0.263382
386.779	0.306896
390.154	0.959368
393.529	1.09254
396.904	3.21029
400.278	7.39804
403.653	11.3581
407.028	12.0454
410.403	15.8651
413.778	17.7619
417.152	22.305
420.527	28.2461
423.902	35.0694
427.277	34.6615
430.652	29.2436
434.027	24.7144
437.401	14.8445
440.776	7.15928
444.151	3.68568
447.526	1.2732
450.901	0.487743
454.275	0.408216
457.65	0.162527
461.025	0.495726
464.4	0.270203
467.775	1.14362
471.149	1.302
474.524	0.891104
477.899	1.019
481.274	1.33793
484.649	1.26726
488.024	2.22543
491.398	0.880342
494.773	0.442591
498.148	0.303507
501.523	0.474829
504.898	0.10293
508.272	0.44614
511.647	0.550533
515.022	0.907265
518.397	0.25148
521.772	0.875837
525.146	0.284531
528.521	0.095943
531.896	0.272787
535.271	1.63621
538.646	1.18062
542.021	1.59702
545.395	1.46522
548.77	2.39099
552.145	3.13339
555.52	5.27124
558.895	7.33117
562.269	10.669
565.644	14.9765
569.019	22.4786
572.394	29.3737
575.769	38.0384
579.144	45.1163
582.518	51.026
585.893	49.7346
589.268	43.3362
592.643	34.2357
596.018	30.5016
599.393	29.645
602.767	29.24
606.142	22.4567
609.517	17.1658
612.892	12.5007
616.266	8.60835
619.641	5.26388
623.016	4.6381
626.391	3.17607
629.766	1.50427
633.141	0.813042
636.515	0.321356
639.89	0.188728
643.265	0.996737
646.64	0.055162
650.015	0.153784
653.389	0.071045
656.764	0.57398
660.139	0.198767
663.514	0.645315
666.889	0.169397
670.264	1.56901
673.638	0.578642
677.013	0.533192
680.388	0.37384
683.763	1.55218
687.138	2.14692
690.513	0.698368
693.887	1.62165
697.262	2.44263
700.637	1.77387
704.012	1.86976
707.386	2.15809
710.761	1.70529
714.136	3.44056
717.511	2.06703
720.886	2.27542
724.261	2.58216
727.635	1.90575
731.01	2.52602
734.385	1.00093
737.76	2.02082
741.135	0.195946
744.51	1.06269
747.884	0.455669
751.259	0.719032
754.634	0.455708
758.009	0.195053
761.384	0.310991
764.758	0.751419
768.133	0.694841
771.508	0.956785
774.883	0.182316
778.258	0.221138
781.632	0.683357
785.007	2.27411
788.382	5.33404
791.757	7.88016
795.132	12.5596
798.506	21.4682
801.881	37.8387
805.256	66.1817
808.631	111.564
812.006	167.923
815.381	256.364
818.755	386.58
822.13	435.286
825.505	313.958
828.88	210.732
832.255	169.117
835.63	169.269
839.004	200.934
842.379	255.556
845.754	339.416
849.129	456.544
852.504	545.386
855.878	463.226
859.253	302.552
862.628	183.337
866.003	113.261
869.378	74.0059
872.752	55.0782
876.127	49.7432
879.502	50.0968
882.877	35.3815
886.252	12.3134
889.626	1.78169
893.001	1.98898
896.376	3.05562
899.751	0.998074
903.126	4.39813
906.5	13.4682
909.875	25.278
913.25	46.5359
916.625	70.5764
920	46.1995
923.375	15.1054
926.75	3.48308
930.124	0.951881
933.499	5.48716
936.874	9.13966
940.249	15.7465
943.624	25.7526
946.998	38.0311
950.373	48.5027
953.748	59.1882
957.123	59.4257
960.498	53.5645
963.872	40.2907
967.247	26.6785
970.622	18.2603
973.997	11.3299
977.372	6.38077
980.746	2.56244
984.121	1.53912
987.496	0.300516
990.871	0.663282
994.246	0.127264
997.62	0.899569
1001	1.0185
1004.37	0.604345
1007.75	0.42313
1011.12	0.830496
1014.5	0.077499
1017.87	1.29326
1021.24	1.87689
1024.62	1.87781
1027.99	2.71383
1031.37	1.43952
1034.74	2.58468
1038.12	3.43632
1041.49	2.18113
1044.87	2.68962
1048.24	4.11937
1051.62	2.07465
1054.99	1.68156
1058.37	0.903606
1061.74	1.09244
1065.12	0.765083
1068.49	0.337149
1071.87	2.87077
1075.24	0.658857
1078.62	1.61468
1081.99	0.594856
1085.37	1.19262
1088.74	0.994341
1092.12	3.33996
1095.49	0.714821
1098.87	0.817785
1102.24	0.221926
1105.62	0.635027
1108.99	1.27372
1112.36	0.918789
1115.74	0.298912
1119.11	0.305265
1122.49	0.160673
1125.86	1.17487
1129.24	0.538841
1132.61	0.55769
1135.99	0.172461
1139.36	0.041183
1142.74	1.07516
1146.11	0.227341
1149.49	1.47402
1152.86	1.3008
1156.24	1.43601
1159.61	0.985434
1162.99	0.830563
1166.36	1.23629
1169.74	0.244225
1173.11	1.37502
1176.49	0.798332
1179.86	1.40738
1183.23	0.129433
1186.61	0.606197
1189.98	1.46689
1193.36	0.126265
1196.73	1.23539
1200.11	1.27928
1203.48	0.616419
1206.86	0.908739
1210.23	1.95189
1213.61	1.3919
1216.98	2.24807
1220.36	1.35325
1223.73	1.20184
1227.11	0.815821
1230.48	2.02068
1233.86	2.10213
1237.23	0.877306
1240.61	0.041553
1243.98	0.453266
1247.36	0.748649
1250.73	1.2142
1254.11	0.870328
1257.48	0.267664
1260.86	1.49976
1264.23	1.3685
1267.61	1.45429
1270.98	0.026613
1274.36	0.061499
1277.73	0.952039
1281.11	0.993743
1284.48	0.193799
