Measurement: Raman, 780 nm, unoriented, Raman Data Processed
Mineral: Forsterite
Rruff sample: R100101
Ideal chemistry: Mg_2_SiO_4_
Locality: Yancey County,  North Carolina, USA
Source: American Museum of Natural History
Description: Pale green consolidated aggregate of grains
Measured chemistry: (Mg_1.809_Fe_0.183_Ni_0.008_Mn_0.003_)_Î£=2.003_Si_0.999_O_4_
Raman shift (cm-1)	intensity
140.227	0
143.12	0.783669
146.012	1.05443
148.905	1.08934
151.798	2.13973
154.69	1.44149
157.583	1.11503
160.476	1.40664
163.369	0.623623
166.261	3.59186
169.154	1.20685
172.047	2.13904
174.939	2.82374
177.832	2.13808
180.725	1.12341
183.618	0.736889
186.51	0.540579
189.403	0.661755
192.296	0.417379
195.188	1.05771
198.081	2.60813
200.974	2.0002
203.866	3.31534
206.759	3.55868
209.652	4.777
212.544	8.10026
215.437	11.1388
218.33	12.2943
221.223	13.7097
224.115	15.6828
227.008	13.1307
229.901	11.7733
232.793	12.8392
235.686	11.404
238.579	12.0814
241.471	8.8101
244.364	7.2166
247.257	3.7784
250.15	3.80351
253.042	1.88615
255.935	1.34298
258.828	0.659336
261.72	1.22624
264.613	0.508375
267.506	0.428989
270.399	0.634665
273.291	0.403336
276.184	0.107515
279.077	0.637611
281.969	1.76089
284.862	4.48077
287.755	6.64879
290.647	8.95419
293.54	13.0021
296.433	19.4842
299.325	32.2645
302.218	40.4515
305.111	31.0341
308.004	19.2574
310.896	14.1775
313.789	13.5752
316.682	13.6409
319.574	11.4412
322.467	11.2823
325.36	12.0783
328.252	9.69564
331.145	6.47059
334.038	7.31839
336.931	7.1166
339.823	5.79795
342.716	4.32596
345.609	3.89295
348.501	3.73755
351.394	2.3771
354.287	2.75707
357.18	3.49397
360.072	3.20835
362.965	2.53311
365.858	2.58562
368.75	2.83443
371.643	3.82335
374.536	1.36148
377.428	1.10819
380.321	1.05417
383.214	0.599289
386.106	0.479694
388.999	1.42878
391.892	0.422569
394.785	0.161163
397.677	1.70889
400.57	1.71557
403.463	2.76859
406.355	4.43062
409.248	5.319
412.141	8.51135
415.034	12.4948
417.926	13.7528
420.819	15.3479
423.712	18.9933
426.604	24.6705
429.497	31.4178
432.39	35.263
435.282	32.52
438.175	26.9069
441.068	16.9489
443.961	9.59272
446.853	4.64162
449.746	3.12019
452.639	1.7799
455.531	2.80426
458.424	1.41039
461.317	0.991876
464.209	0.3119
467.102	0.35664
469.995	1.22083
472.887	0.554748
475.78	1.01979
478.673	0.202794
481.566	0.704385
484.458	0.920726
487.351	0.412484
490.244	0.607449
493.136	0.040051
496.029	0.309546
498.922	0.275771
501.815	0.489808
504.707	0.137685
507.6	0.363913
510.493	0.627741
513.385	0.734023
516.278	0.535755
519.171	0.056724
522.063	0.901918
524.956	1.72124
527.849	2.70167
530.741	3.41485
533.634	3.72969
536.527	7.55148
539.42	11.1831
542.312	13.7603
545.205	9.61885
548.098	6.372
550.99	3.13201
553.883	1.51077
556.776	2.29096
559.668	2.57599
562.561	3.28407
565.454	4.77582
568.347	7.08764
571.239	11.2665
574.132	14.9161
577.025	22.3487
579.917	30.3057
582.81	38.0286
585.703	38.8735
588.596	35.194
591.488	29.2731
594.381	25.9699
597.274	25.8681
600.166	31.4329
603.059	35.5205
605.952	36.8526
608.845	33.2535
611.737	24.1947
614.63	16.0669
617.523	10.6295
620.415	6.87811
623.308	5.12148
626.201	2.6255
629.093	2.28659
631.986	1.607
634.879	1.46075
637.771	0.646421
640.664	0.157801
643.557	0.471109
646.45	0.093748
649.342	0.126154
652.235	0.1971
655.128	0.533672
658.02	1.66714
660.913	0.753517
663.806	1.00372
666.698	1.64118
669.591	1.21684
672.484	0.592087
675.377	0.816099
678.269	0.565244
681.162	0.742994
684.055	1.14867
686.947	0.966649
689.84	1.19536
692.733	1.19471
695.625	1.62439
698.518	1.10068
701.411	1.67129
704.304	2.26967
707.196	1.31284
710.089	1.68652
712.982	0.749303
715.874	1.67898
718.767	2.06058
721.66	1.16987
724.553	1.74541
727.445	1.03933
730.338	1.31083
733.231	1.25552
736.123	0.753233
739.016	0.832371
741.909	0.372343
744.801	0.30344
747.694	0.344164
750.587	0.51111
753.48	0.374935
756.372	0.01346
759.265	0.003674
762.158	0.1036
765.05	0.123297
767.943	0.358448
770.836	0.278774
773.728	0.051212
776.621	0.409403
779.514	0.344414
782.407	0.81566
785.299	0.8276
788.192	2.57612
791.085	2.53028
793.977	4.51095
796.87	6.91198
799.763	10.7824
802.655	18.0107
805.548	27.394
808.441	44.7186
811.333	67.7127
814.226	103.899
817.119	164.426
820.012	249.898
822.904	329.328
825.797	292.202
828.69	188.301
831.582	124.493
834.475	97.9995
837.368	94.8396
840.26	103.935
843.153	130.441
846.046	176.266
848.939	253.126
851.831	364.884
854.724	465.134
857.617	436.063
860.509	295.833
863.402	180.042
866.295	114.235
869.188	77.0685
872.08	58.4801
874.973	53.3094
877.866	59.644
880.758	75.6037
883.651	69.1016
886.544	38.025
889.436	14.8943
892.329	7.31769
895.222	2.19063
898.115	0.75421
901.007	1.10241
903.9	0.206909
906.793	0.486383
909.685	1.59319
912.578	5.36053
915.471	13.1383
918.363	22.844
921.256	18.782
924.149	5.30677
927.042	0.508915
929.934	1.08378
932.827	0.809572
935.72	0.626167
938.612	1.51084
941.505	4.68489
944.398	8.44817
947.29	13.216
950.183	19.9763
953.076	28.6295
955.968	38.7636
958.861	50.1428
961.754	54.6579
964.647	49.1821
967.539	39.2416
970.432	25.7067
973.325	16.3394
976.217	9.95411
979.11	6.88035
982.003	4.01298
984.895	2.24048
987.788	1.64696
990.681	0.593727
993.574	0.019136
996.466	0.575389
999.359	0.702712
1002.25	0.860946
1005.14	0.406289
1008.04	0.304651
1010.93	1.10367
1013.82	0.255143
1016.72	1.66234
1019.61	0.256782
1022.5	1.12
1025.39	1.48731
1028.29	1.39017
1031.18	1.14806
1034.07	1.29218
1036.96	1.68163
1039.86	1.03813
1042.75	0.75911
1045.64	1.41831
1048.54	1.81971
1051.43	1.90857
1054.32	0.937507
1057.21	1.30716
1060.11	1.48536
1063	1.06872
1065.89	0.299913
1068.78	0.59528
1071.68	0.567026
1074.57	0.409328
1077.46	0.257076
1080.36	0.986859
1083.25	0.103537
1086.14	0.939235
1089.03	0.614452
1091.92	0.519889
1094.82	0.952979
1097.71	1.26638
1100.6	0.55326
1103.5	0.397309
1106.39	0.900359
1109.28	1.6748
1112.17	0.03409
1115.07	0.992475
1117.96	0.373666
1120.85	1.86387
1123.74	0.516189
1126.64	0.509771
1129.53	1.6395
1132.42	1.34613
1135.32	0.25893
1138.21	0.257181
1141.1	1.05709
1143.99	1.354
1146.89	0.723599
1149.78	1.62895
1152.67	0.088213
1155.57	1.51153
1158.46	0.616699
1161.35	1.00885
1164.24	0.593442
1167.14	1.68009
1170.03	0.917832
1172.92	1.89532
1175.81	0.826338
1178.71	1.95781
1181.6	1.45742
1184.49	0.676551
1187.38	1.30687
1190.28	1.12011
1193.17	0.957779
1196.06	0.378643
1198.95	1.29402
1201.85	0.033339
1204.74	0.56794
1207.63	0.208198
1210.53	0.93661
1213.42	0.470036
1216.31	2.1861
1219.2	2.5428
1222.1	1.21038
1224.99	1.11729
1227.88	1.41718
1230.78	0.989925
1233.67	0.711884
1236.56	1.4918
1239.45	0.281133
1242.35	1.16149
1245.24	1.01591
1248.13	0.383129
1251.02	1.1937
1253.92	0.676661
1256.81	1.40257
1259.7	1.13638
1262.6	0.199209
1265.49	0.853679
1268.38	1.31171
1271.27	0.38677
1274.17	0.053905
1277.06	2.07674
1279.95	1.10247
1282.84	1.48973
1285.74	0
