Measurement: Raman, 780 nm, unoriented, Raman Data Processed
Mineral: Forsterite
Rruff sample: R050117
Ideal chemistry: Mg_2_SiO_4_
Locality: Sapat, Gilgit, Pakistan
Source: Farooq and Nazia Sawal
Description: Fragment of a green crystal
Measured chemistry: (Mg_1.81_Fe_0.18_Ni_0.01_)_Î£=2_Si_1.00_O_4_
Raman shift (cm-1)	intensity
113.419	0
116.794	4.88926
120.169	6.32499
123.544	3.80654
126.918	0.675452
130.293	1.79695
133.668	3.36448
137.043	2.76248
140.418	5.77001
143.792	1.52468
147.167	4.49306
150.542	1.54559
153.917	1.3188
157.292	0.727729
160.667	0.654098
164.041	0.023542
167.416	2.90625
170.791	5.54526
174.166	3.33526
177.541	2.9153
180.916	5.36933
184.29	3.43544
187.665	3.44267
191.04	5.20755
194.415	7.26218
197.79	9.2404
201.164	11.6202
204.539	14.3312
207.914	16.7296
211.289	21.0496
214.664	23.5561
218.038	24.2509
221.413	25.1976
224.788	23.1845
228.163	18.8474
231.538	17.8494
234.912	16.4157
238.287	12.8157
241.662	9.68693
245.037	6.33593
248.412	3.00935
251.787	1.92189
255.161	0.366982
258.536	0.114467
261.911	0.402235
265.286	0.609803
268.661	0.48458
272.036	1.22982
275.41	1.38873
278.785	2.36617
282.16	5.72969
285.535	10.5352
288.909	15.721
292.284	15.7746
295.659	20.9182
299.034	27.1065
302.409	24.7613
305.784	12.1935
309.158	5.80367
312.533	4.56149
315.908	6.66429
319.283	6.53831
322.658	8.66414
326.033	7.86653
329.407	7.30325
332.782	7.27133
336.157	6.17612
339.532	7.02708
342.907	3.79461
346.281	3.93066
349.656	2.57982
353.031	2.74897
356.406	3.94516
359.781	4.85082
363.155	0.747396
366.53	0.398145
369.905	0.601253
373.28	0.176391
376.655	0.448609
380.029	0.659133
383.404	0.183574
386.779	0.253341
390.154	0.204029
393.529	0.240745
396.904	0.9997
400.278	2.74102
403.653	4.74512
407.028	5.93969
410.403	8.46057
413.778	9.63617
417.152	15.4845
420.527	17.5371
423.902	19.7941
427.277	25.0467
430.652	30.8027
434.027	33.0656
437.401	27.8059
440.776	13.613
444.151	8.84517
447.526	4.74383
450.901	4.66427
454.275	3.15574
457.65	2.84735
461.025	2.51933
464.4	3.67197
467.775	3.94874
471.149	4.11954
474.524	3.97575
477.899	0.878773
481.274	0.570877
484.649	3.47329
488.024	2.89002
491.398	1.83995
494.773	0.951666
498.148	1.70141
501.523	0.189928
504.898	0.063028
508.272	0.574895
511.647	0.039375
515.022	0.029536
518.397	2.4647
521.772	2.83479
525.146	2.14899
528.521	2.72316
531.896	4.90551
535.271	8.02052
538.646	11.5299
542.021	13.6362
545.395	7.55378
548.77	3.39598
552.145	2.04041
555.52	0.031467
558.895	2.34305
562.269	3.72821
565.644	8.94259
569.019	14.4514
572.394	21.4792
575.769	26.1666
579.144	32.7067
582.518	36.8075
585.893	29.3274
589.268	22.6636
592.643	16.7906
596.018	16.7168
599.393	20.8297
602.767	22.2732
606.142	20.9957
609.517	12.6806
612.892	7.06619
616.266	5.40698
619.641	1.35758
623.016	2.23272
626.391	0.159388
629.766	1.7695
633.141	0.454056
636.515	2.28106
639.89	0.402632
643.265	0.658741
646.64	0.315278
650.015	0.686848
653.389	1.51163
656.764	0.785544
660.139	0.178847
663.514	0.557931
666.889	0.464604
670.264	1.28685
673.638	0.06774
677.013	3.47886
680.388	1.76883
683.763	3.20847
687.138	3.94166
690.513	0.719471
693.887	4.07453
697.262	3.99288
700.637	0.248415
704.012	0.189281
707.386	2.1751
710.761	3.1349
714.136	2.25941
717.511	1.9753
720.886	2.73645
724.261	2.77465
727.635	1.43644
731.01	4.70824
734.385	2.85608
737.76	1.68637
741.135	1.57926
744.51	2.61079
747.884	1.67282
751.259	2.37974
754.634	2.38022
758.009	0.218628
761.384	0.207477
764.758	0.773767
768.133	0.38693
771.508	0.07843
774.883	1.1458
778.258	1.4993
781.632	0.366161
785.007	0.0684
788.382	0.831328
791.757	3.60319
795.132	9.44123
798.506	10.5651
801.881	19.6939
805.256	40.9459
808.631	74.885
812.006	114.893
815.381	160.056
818.755	220.852
822.13	249.141
825.505	183.332
828.88	122.14
832.255	101.301
835.63	120.639
839.004	178.612
842.379	257.079
845.754	360.199
849.129	482.834
852.504	589.953
855.878	527.149
859.253	320.842
862.628	177.35
866.003	109.894
869.378	90.5586
872.752	81.821
876.127	88.8097
879.502	91.9642
882.877	67.4927
886.252	24.5085
889.626	9.65675
893.001	2.36909
896.376	1.13815
899.751	0.494013
903.126	1.2072
906.5	0.669782
909.875	2.23801
913.25	2.09275
916.625	3.77902
920	2.04169
923.375	2.61524
926.75	0.153388
930.124	2.41111
933.499	6.05876
936.874	8.19604
940.249	15.5012
943.624	24.5178
946.998	38.3537
950.373	49.4003
953.748	66.3934
957.123	80.3203
960.498	76.7869
963.872	59.0286
967.247	38.2968
970.622	22.8501
973.997	13.6396
977.372	5.84328
980.746	3.93185
984.121	1.21274
987.496	0.791951
990.871	0.563377
994.246	0.100966
997.62	0.705874
1001	0.362708
1004.37	0.151775
1007.75	1.76118
1011.12	1.18482
1014.5	1.05104
1017.87	3.05342
1021.24	4.00633
1024.62	2.167
1027.99	4.78391
1031.37	2.89419
1034.74	3.57841
1038.12	4.25819
1041.49	4.74167
1044.87	6.8495
1048.24	0.634924
1051.62	5.41623
1054.99	0.908082
1058.37	5.22888
1061.74	5.41218
1065.12	3.31981
1068.49	1.92046
1071.87	3.79962
1075.24	5.41038
1078.62	3.9757
1081.99	4.35387
1085.37	3.4176
1088.74	3.42199
1092.12	2.93431
1095.49	3.56206
1098.87	2.81465
1102.24	2.05496
1105.62	2.06174
1108.99	0.670607
1112.36	0.503144
1115.74	0.097899
1119.11	0.033736
1122.49	0.05189
1125.86	0.291696
1129.24	0.205428
1132.61	0.887412
1135.99	2.14032
1139.36	2.25051
1142.74	3.76865
1146.11	0.054466
1149.49	2.68983
1152.86	2.64165
1156.24	1.40471
1159.61	3.45813
1162.99	5.84898
1166.36	6.29548
1169.74	3.00055
1173.11	6.31973
1176.49	5.14702
1179.86	3.32503
1183.23	6.3363
1186.61	1.77327
1189.98	3.55065
1193.36	3.13201
1196.73	3.69503
1200.11	3.91671
1203.48	3.58598
1206.86	4.39382
1210.23	3.92143
1213.61	6.75835
1216.98	0.869608
1220.36	0.577804
1223.73	1.58029
1227.11	0.636167
1230.48	1.71625
1233.86	4.37086
1237.23	3.28783
1240.61	2.64493
1243.98	5.05154
1247.36	7.81905
1250.73	4.15839
1254.11	1.39731
1257.48	0.006832
1260.86	3.36136
1264.23	3.4516
1267.61	1.01155
1270.98	4.41078
1274.36	5.04202
1277.73	3.71073
1281.11	5.03529
1284.48	0.021635
