Measurement: Raman, 532 nm, unoriented, Raman Data Processed
Mineral: Forsterite
Rruff sample: R100140
Ideal chemistry: Mg_2_SiO_4_
Locality: Pakistan
Source: William W. Pinch
Description: Pale green cut gemstone
Raman shift (cm-1)	intensity
91.0352	0
94.41	2.62881
97.7848	2.40714
101.16	3.43258
104.534	6.98271
107.909	4.75684
111.284	8.14606
114.659	10.7934
118.034	9.22196
121.409	4.5524
124.783	3.82088
128.158	4.77398
131.533	1.54112
134.908	2.67715
138.283	0.274851
141.657	0.881422
145.032	3.70999
148.407	5.25259
151.782	16.7066
155.157	20.3895
158.532	27.7144
161.906	27.6078
165.281	30.2678
168.656	34.1985
172.031	37.5084
175.406	37.6907
178.78	36.213
182.155	33.591
185.53	32.0165
188.905	27.0074
192.28	22.3636
195.655	20.1993
199.029	20.4184
202.404	20.4844
205.779	23.2529
209.154	32.0137
212.529	42.2625
215.904	58.3618
219.278	79.8448
222.653	105.801
226.028	111.319
229.403	77.07
232.778	58.3857
236.152	48.4767
239.527	42.0335
242.902	27.9392
246.277	14.9641
249.652	7.29874
253.026	5.12711
256.401	0.10746
259.776	0.602898
263.151	1.14305
266.526	0.141788
269.901	1.35454
273.276	0.800068
276.65	0.536465
280.025	4.53569
283.4	10.667
286.775	25.5431
290.15	41.7471
293.524	66.5482
296.899	114.904
300.274	202.095
303.649	265.302
307.024	167.728
310.399	87.4879
313.773	75.6288
317.148	74.5713
320.523	49.0896
323.898	37.5135
327.273	36.6261
330.647	23.8868
334.022	12.4705
337.397	7.68914
340.772	5.21655
344.147	0.094776
347.522	0.184711
350.896	3.55281
354.271	4.99322
357.646	9.54413
361.021	13.9204
364.396	17.4483
367.77	30.6864
371.145	49.1735
374.52	36.9042
377.895	13.5229
381.27	5.74673
384.644	1.36396
388.019	1.08503
391.394	2.7172
394.769	0.321995
398.144	3.27563
401.519	10.9096
404.894	22.6257
408.268	39.0617
411.643	43.3983
415.018	55.0833
418.393	75.0848
421.767	81.2579
425.142	91.7027
428.517	135.731
431.892	173.682
435.267	142.525
438.642	100.81
442.017	57.6686
445.391	27.8137
448.766	14.1197
452.141	7.88019
455.516	3.59056
458.891	2.55525
462.265	1.32094
465.64	0.289436
469.015	3.53743
472.39	3.20712
475.765	2.43503
479.139	2.80525
482.514	4.5113
485.889	2.08133
489.264	1.40448
492.639	0.97065
496.014	2.29312
499.388	1.08615
502.763	0.395
506.138	0.777477
509.513	2.78233
512.888	0.035271
516.263	0.355549
519.637	1.03502
523.012	0.201393
526.387	2.50914
529.762	0.872952
533.137	1.95951
536.511	3.56474
539.886	10.0585
543.261	14.0855
546.636	10.6278
550.011	9.09028
553.386	6.88983
556.76	10.294
560.135	13.9593
563.51	21.0341
566.885	31.4882
570.26	51.2555
573.635	80.2676
577.009	118.13
580.384	163.105
583.759	207.067
587.134	222.56
590.509	215.386
593.883	192.253
597.258	183.644
600.633	222.787
604.008	287.512
607.383	301.011
610.758	233.888
614.132	144.929
617.507	85.9422
620.882	53.1255
624.257	34.6153
627.632	23.7106
631.006	14.9033
634.381	9.45907
637.756	5.76403
641.131	5.6804
644.506	3.10603
647.881	1.64686
651.255	1.34229
654.63	4.6515
658.005	0.705238
661.38	0.019203
664.755	0.448563
668.13	0.030216
671.504	0.527332
674.879	0.738079
678.254	0.507858
681.629	2.2225
685.004	0.422123
688.378	2.32762
691.753	3.76189
695.128	2.77974
698.503	4.45825
701.878	5.55188
705.253	7.78226
708.627	7.40234
712.002	7.37146
715.377	7.81704
718.752	6.97402
722.127	6.3963
725.501	7.29539
728.876	7.14226
732.251	5.83731
735.626	3.262
739.001	3.54514
742.375	2.56628
745.75	1.095
749.125	0.656693
752.5	0.225113
755.875	1.36837
759.25	3.26624
762.625	4.05985
765.999	1.18613
769.374	4.65097
772.749	1.36037
776.124	0.716141
779.499	4.59564
782.873	7.84331
786.248	8.89497
789.623	14.7686
792.998	30.6076
796.373	49.7844
799.747	80.5575
803.122	133.098
806.497	229.188
809.872	413.559
813.247	712.111
816.621	1168.14
819.996	1963.5
823.371	2706.46
826.746	2119.04
830.121	1173.29
833.496	750.441
836.87	636.113
840.245	659.26
843.62	847.744
846.995	1248.51
850.37	1948.45
853.745	2914.8
857.119	3130.95
860.494	2020
863.869	1097.53
867.244	652.108
870.619	421.577
873.994	324.446
877.368	328.122
880.743	391.377
884.118	326.546
887.493	137.971
890.868	46.7573
894.242	12.1224
897.617	4.38596
900.992	9.67604
904.367	7.73
907.742	16.3312
911.116	49.6895
914.491	119.561
917.866	239.075
921.241	215.155
924.616	57.4295
927.991	6.05154
931.365	4.31931
934.74	2.81129
938.115	4.01558
941.49	19.9538
944.865	41.2784
948.24	85.3546
951.614	142.18
954.989	231.879
958.364	345.398
961.739	439.546
965.114	425.163
968.489	303.934
971.863	185.313
975.238	106.022
978.613	61.6696
981.988	34.5239
985.362	21.6712
988.737	10.0057
992.112	5.00138
995.487	6.73513
998.862	0.964584
1002.24	0.345413
1005.61	0.234337
1008.99	3.11672
1012.36	1.88911
1015.74	1.27262
1019.11	1.16257
1022.49	2.44935
1025.86	1.2684
1029.23	3.79932
1032.61	3.18775
1035.98	3.24877
1039.36	5.57855
1042.73	7.875
1046.11	5.01733
1049.48	3.81513
1052.86	4.98854
1056.23	4.43916
1059.61	5.41744
1062.98	3.88596
1066.36	1.74906
1069.73	1.55416
1073.11	0.130882
1076.48	0.153091
1079.86	0.155712
1083.23	0.385307
1086.61	1.1568
1089.98	0.756561
1093.36	0.004284
1096.73	0.278267
1100.11	0.773674
1103.48	1.38123
1106.86	4.15568
1110.23	2.00718
1113.61	3.73574
1116.98	0.123016
1120.36	3.07111
1123.73	1.54958
1127.11	2.90525
1130.48	0.628998
1133.86	3.43727
1137.23	1.08686
1140.6	2.63136
1143.98	2.31477
1147.35	1.49281
1150.73	3.9839
1154.1	2.37123
1157.48	3.91641
1160.85	4.09289
1164.23	2.60438
1167.6	4.57528
1170.98	3.03361
1174.35	3.89958
1177.73	1.09047
1181.1	2.62247
1184.48	1.5139
1187.85	0.640274
1191.23	0.886887
1194.6	0.048058
1197.98	0.900459
1201.35	1.57891
1204.73	1.27079
1208.1	3.3922
1211.48	5.67785
1214.85	3.11909
1218.22	4.98493
1221.6	4.95483
1224.97	5.13321
1228.35	6.39874
1231.72	6.96396
1235.1	5.86631
1238.47	5.84884
1241.85	5.75989
1245.22	5.03813
1248.6	3.02221
1251.97	1.05397
1255.35	4.30021
1258.72	3.28726
1262.1	2.92432
1265.47	2.80555
1268.85	1.21931
1272.22	1.25895
1275.6	1.06856
1278.97	1.96291
1282.35	0.972897
1285.72	1.76552
1289.1	0.218437
1292.47	1.49236
1295.85	0.507973
1299.22	1.62371
1302.6	0
