Measurement: Raman, 532 nm, unoriented, Raman Data Processed
Mineral: Forsterite
Rruff sample: R060539
Ideal chemistry: Mg_2_SiO_4_
Locality: Sri Lanka
Source: Gemological Institute of America
Description: Brown cut gemstone
Measured chemistry: (Mg_1.67_Fe_0.33_)_Î£=2_Si_1.00_O_4_; trace amounts of Mn and Ca
Raman shift (cm-1)	intensity
92.1094	0
95.4842	1.01453
98.859	2.51253
102.234	3.40547
105.609	1.26269
108.984	0.412395
112.358	0.580124
115.733	1.45911
119.108	2.97167
122.483	3.50964
125.858	7.97581
129.232	13.2864
132.607	16.0037
135.982	18.6436
139.357	23.6535
142.732	25.643
146.106	29.6041
149.481	29.2791
152.856	27.2446
156.231	23.3535
159.606	20.6698
162.981	18.9991
166.355	16.7226
169.73	15.0729
173.105	12.6058
176.48	13.205
179.855	12.528
183.229	12.6947
186.604	13.27
189.979	12.3214
193.354	12.966
196.729	14.3279
200.103	17.1149
203.478	21.7768
206.853	29.074
210.228	39.9155
213.603	47.1791
216.978	50.6464
220.352	45.7542
223.727	39.2161
227.102	34.905
230.477	28.8324
233.852	26.1354
237.226	22.2212
240.601	16.5117
243.976	10.9917
247.351	6.07587
250.726	1.65026
254.101	1.26384
257.475	0.167046
260.85	2.04982
264.225	0.917324
267.6	0.546608
270.975	0.204769
274.349	2.66467
277.724	5.66022
281.099	9.86901
284.474	17.774
287.849	29.6976
291.224	44.428
294.598	68.7217
297.973	93.2608
301.348	97.2138
304.723	72.0013
308.098	53.1189
311.473	50.2953
314.847	41.1062
318.222	27.7339
321.597	18.2754
324.972	11.3349
328.347	6.25823
331.721	4.13321
335.096	3.76205
338.471	4.69437
341.846	5.8979
345.221	7.49528
348.595	9.20651
351.97	10.0168
355.345	10.7454
358.72	11.7496
362.095	13.9704
365.469	18.2745
368.844	16.6698
372.219	11.6321
375.594	5.55101
378.969	1.46965
382.344	0.49321
385.718	1.10487
389.093	0.01136
392.468	1.58163
395.843	5.22347
399.218	15.4879
402.592	25.339
405.967	30.9888
409.342	36.3797
412.717	40.7038
416.092	44.987
419.467	53.9028
422.841	68.4444
426.216	76.9552
429.591	69.0165
432.966	57.566
436.341	41.6155
439.716	23.7552
443.09	11.2151
446.465	4.97239
449.84	2.14253
453.215	0.004435
456.59	0.029388
459.964	1.21808
463.339	0.754705
466.714	2.17437
470.089	2.35942
473.464	1.5311
476.839	1.77023
480.213	2.38851
483.588	1.93815
486.963	1.66403
490.338	0.554613
493.713	0.685738
497.087	1.44581
500.462	0.246916
503.837	0.115406
507.212	0.802128
510.587	0.293682
513.962	1.59958
517.336	0.218481
520.711	0.242714
524.086	0.72596
527.461	0.543678
530.836	0.882471
534.21	0.138876
537.585	1.3915
540.96	2.44368
544.335	2.43866
547.71	2.23882
551.085	4.60476
554.459	7.17327
557.834	11.2928
561.209	17.0796
564.584	24.4305
567.959	37.1185
571.333	55.7764
574.708	78.0779
578.083	101.366
581.458	119.284
584.833	129.923
588.207	125.69
591.582	110.04
594.957	101.992
598.332	106.459
601.707	108.008
605.082	99.3823
608.456	77.1393
611.831	56.7338
615.206	37.7774
618.581	26.7877
621.956	17.6151
625.33	13.6677
628.705	9.19027
632.08	5.93386
635.455	3.28186
638.83	1.87998
642.205	0.834421
645.579	0.658911
648.954	0.445436
652.329	0.458456
655.704	0.213697
659.079	0.076618
662.453	0.174858
665.828	0.226324
669.203	0.2626
672.578	1.7988
675.953	1.70844
679.327	2.82359
682.702	3.07775
686.077	4.55126
689.452	5.75974
692.827	5.69991
696.202	7.41471
699.576	6.94638
702.951	7.59464
706.326	8.6217
709.701	7.79072
713.076	7.72326
716.45	7.308
719.825	5.74677
723.2	4.91716
726.575	4.6527
729.95	4.19074
733.324	2.29529
736.699	2.49973
740.074	2.08142
743.449	0.729012
746.824	0.269405
750.199	1.17192
753.573	0.518646
756.948	1.37481
760.323	1.55078
763.698	2.03665
767.073	0.813671
770.447	1.76883
773.822	0.494255
777.197	0.527046
780.572	1.23498
783.947	5.86195
787.322	11.078
790.696	17.9069
794.071	27.8263
797.446	47.7411
800.821	76.3239
804.196	132.977
807.571	232.659
810.945	397.389
814.32	654.533
817.695	1074.81
821.07	1476.52
824.445	1300.36
827.819	843.191
831.194	584.415
834.569	493.32
837.944	517.321
841.319	647.189
844.693	881.541
848.068	1263.69
851.443	1692.43
854.818	1751.29
858.193	1284.96
861.568	785.164
864.942	474.446
868.317	297.959
871.692	203.99
875.067	166.683
878.442	163.876
881.817	149.154
885.191	79.6152
888.566	24.1965
891.941	0.37413
895.316	6.88831
898.691	8.61357
902.065	1.64801
905.44	14.4777
908.815	45.5667
912.19	96.9514
915.565	176.845
918.939	191.891
922.314	84.3097
925.689	23.2724
929.064	6.81608
932.439	7.81029
935.813	15.4933
939.188	33.1668
942.563	55.9738
945.938	88.6582
949.313	132.857
952.688	174.22
956.062	196.791
959.437	189.315
962.812	159.252
966.187	123.074
969.562	84.1623
972.937	52.5697
976.311	30.8678
979.686	17.4539
983.061	9.12427
986.436	4.59614
989.811	2.2924
993.185	0.951382
996.56	0.779144
999.935	1.37648
1003.31	1.19579
1006.68	2.29064
1010.06	0.393456
1013.43	0.554787
1016.81	1.34282
1020.18	2.46147
1023.56	3.69969
1026.93	4.8104
1030.31	5.51732
1033.68	5.44706
1037.06	6.87689
1040.43	7.25218
1043.81	6.01642
1047.18	6.0231
1050.56	6.9259
1053.93	5.48305
1057.31	4.55669
1060.68	4.06451
1064.06	1.97128
1067.43	2.00606
1070.81	1.44435
1074.18	0.779936
1077.56	1.1082
1080.93	0.126427
1084.31	0.542044
1087.68	0.531887
1091.06	0.674868
1094.43	0.22006
1097.81	0.236443
1101.18	1.05867
1104.55	2.11695
1107.93	1.01748
1111.3	0.554951
1114.68	0.733294
1118.05	0.808474
1121.43	0.583055
1124.8	0.888109
1128.18	0.729189
1131.55	0.738176
1134.93	0.692184
1138.3	0.507725
1141.68	0.910776
1145.05	1.1809
1148.43	1.93899
1151.8	1.94006
1155.18	1.35285
1158.55	0.979733
1161.93	0.834425
1165.3	0.826622
1168.68	0.202511
1172.05	0.437405
1175.43	0.808422
1178.8	0.058405
1182.17	0.506565
1185.55	0.444448
1188.92	0.377958
1192.3	0.267653
1195.67	1.40289
1199.05	1.83068
1202.42	1.86187
1205.8	2.42345
1209.17	2.92431
1212.55	2.5224
1215.92	2.71467
1219.3	2.49022
1222.67	3.33259
1226.05	3.60071
1229.42	3.54791
1232.8	2.50928
1236.17	2.84269
1239.55	2.4213
1242.92	1.78481
1246.3	1.30792
1249.67	1.51868
1253.05	0.433741
1256.42	0.177372
1259.8	0.271557
1263.17	0.252888
1266.55	0.784246
1269.92	0.311861
1273.3	0.516846
1276.67	0.278349
1280.05	0.195873
1283.42	0.473639
1286.79	0.980595
1290.17	1.46444
1293.54	0.153448
1296.92	0.225525
1300.29	0.100574
1303.67	0.618389
