Measurement: Raman, 780 nm, unoriented, Raman Data Processed
Mineral: Forsterite
Rruff sample: R040057
Ideal chemistry: Mg_2_SiO_4_
Locality: Trudy's mine, San Carlos, Gila County, Arizona, USA
Source: Bob Downs
Description: Dark green crystal fragments from xenoliths in a basalt flow
Measured chemistry: (Mg_1.67_Fe_0.32_Ni_0.01_)_Î£=2_Si_1.00_O_4_; trace amounts of Mn and Ca
Raman shift (cm-1)	intensity
100.884	0
104.259	1.02435
107.634	1.95618
111.009	0.280476
114.383	0.175892
117.758	0.006802
121.133	0.604656
124.508	1.33796
127.883	1.83431
131.257	3.3237
134.632	2.69677
138.007	3.81175
141.382	4.9194
144.757	6.14733
148.131	6.65889
151.506	6.56999
154.881	7.76463
158.256	3.86587
161.631	3.53684
165.006	3.3391
168.38	2.64092
171.755	1.41843
175.13	2.03701
178.505	0.227983
181.88	1.00427
185.255	0.09837
188.629	0.253637
192.004	0.290823
195.379	0.635887
198.754	1.15786
202.129	1.78175
205.503	2.48838
208.878	4.14696
212.253	7.36404
215.628	8.80428
219.003	9.07477
222.377	9.08772
225.752	10.4046
229.127	10.9763
232.502	11.2508
235.877	11.4866
239.251	9.70409
242.626	9.05693
246.001	6.15754
249.376	3.96516
252.751	2.18797
256.126	2.0506
259.5	0.204954
262.875	0.620304
266.25	0.894308
269.625	1.15836
273	1.17314
276.375	5.25695
279.749	9.86033
283.124	16.1651
286.499	23.3984
289.874	31.3237
293.249	45.8456
296.623	62.5709
299.998	65.9225
303.373	47.7255
306.748	31.7563
310.123	24.4707
313.498	20.1007
316.872	17.2382
320.247	15.0191
323.622	10.4832
326.997	6.36376
330.372	5.13601
333.746	4.45343
337.121	4.61904
340.496	5.36842
343.871	5.2275
347.246	4.78013
350.62	5.46303
353.995	4.77362
357.37	2.88533
360.745	1.94809
364.12	0.978134
367.495	0.175522
370.869	0.478365
374.244	0.511982
377.619	0.673616
380.994	0.292128
384.369	0.107319
387.743	0.423492
391.118	2.27246
394.493	4.38026
397.868	6.77143
401.243	10.7718
404.617	16.5846
407.992	24.0765
411.367	28.1157
414.742	24.5406
418.117	24.1714
421.491	26.7528
424.866	30.0747
428.241	30.3692
431.616	27.448
434.991	21.7538
438.366	11.6867
441.74	6.07553
445.115	3.23451
448.49	2.66308
451.865	1.37509
455.24	1.42065
458.615	0.730053
461.989	1.45141
465.364	0.539063
468.739	1.70067
472.114	0.084272
475.489	0.467123
478.863	0.046265
482.238	1.02421
485.613	1.28026
488.988	1.26697
492.363	1.17463
495.737	0.536905
499.112	1.16722
502.487	0.117035
505.862	0.542509
509.237	0.671373
512.611	0.698664
515.986	0.152105
519.361	0.486191
522.736	0.805977
526.111	0.504847
529.486	1.08433
532.86	0.024817
536.235	2.47186
539.61	3.63488
542.985	2.45211
546.36	2.41944
549.734	2.90962
553.109	3.69241
556.484	4.70853
559.859	7.09132
563.234	9.62404
566.609	14.5755
569.983	20.4678
573.358	28.3927
576.733	36.7622
580.108	43.5309
583.483	46.6561
586.857	49.3184
590.232	56.9634
593.607	68.1388
596.982	82.1695
600.357	89.7523
603.731	84.3296
607.106	64.4841
610.481	44.8313
613.856	30.4193
617.231	19.5389
620.606	12.0279
623.98	8.86645
627.355	6.72621
630.73	3.26509
634.105	1.80261
637.48	1.47703
640.854	0.44754
644.229	0.229649
647.604	0.32618
650.979	0.331934
654.354	0.787966
657.729	0.359543
661.103	0.549917
664.478	1.36458
667.853	0.070454
671.228	0.304085
674.603	0.984221
677.977	0.147617
681.352	1.40482
684.727	1.88408
688.102	1.56412
691.477	1.35136
694.851	1.83915
698.226	1.31074
701.601	1.82831
704.976	1.3402
708.351	1.79361
711.726	1.57622
715.1	2.26325
718.475	1.46551
721.85	1.85559
725.225	1.29074
728.6	0.497704
731.974	1.23798
735.349	0.042185
738.724	0.370977
742.099	0.555258
745.474	0.046936
748.848	1.51637
752.223	0.003429
755.598	1.05207
758.973	0.279579
762.348	0.702301
765.723	0.601759
769.097	0.135818
772.472	0.278873
775.847	1.0782
779.222	2.67078
782.597	3.61444
785.971	7.75114
789.346	10.9158
792.721	16.4396
796.096	26.7009
799.471	42.4373
802.846	73.1081
806.22	124.27
809.595	195.311
812.97	290.716
816.345	442.663
819.72	597.15
823.094	542.975
826.469	348.774
829.844	237.843
833.219	197.339
836.594	203.444
839.968	244.11
843.343	313.937
846.718	428.687
850.093	561.015
853.468	595.611
856.843	449.427
860.217	277.549
863.592	169.1
866.967	112.909
870.342	81.1498
873.717	70.1057
877.091	73.2657
880.466	74.497
883.841	45.5057
887.216	20.0278
890.591	8.16617
893.966	3.38792
897.34	0.558151
900.715	0.596218
904.09	0.778641
907.465	1.48933
910.84	0.340328
914.214	3.06085
917.589	2.66075
920.964	0.387926
924.339	0.562035
927.714	1.09771
931.088	0.282085
934.463	3.4161
937.838	5.63968
941.213	13.8402
944.588	20.505
947.963	30.0489
951.337	41.8064
954.712	48.9923
958.087	50.9084
961.462	46.0874
964.837	36.8829
968.211	26.9595
971.586	19.6101
974.961	13.4519
978.336	10.2662
981.711	7.54634
985.086	5.07284
988.46	3.37478
991.835	2.31203
995.21	2.45271
998.585	1.51686
1001.96	0.720222
1005.33	1.95139
1008.71	1.10537
1012.08	0.121325
1015.46	0.579466
1018.83	0.42429
1022.21	0.172375
1025.58	1.39186
1028.96	1.86339
1032.33	0.623444
1035.71	1.3129
1039.08	1.23463
1042.46	0.449239
1045.83	0.693518
1049.21	1.31509
1052.58	0.062175
1055.96	0.018155
1059.33	0.02359
1062.71	0.460459
1066.08	1.20965
1069.46	0.711857
1072.83	0.310477
1076.21	0.320073
1079.58	0.933297
1082.95	0.780621
1086.33	1.26138
1089.7	1.22284
1093.08	2.23903
1096.45	0.858699
1099.83	0.739938
1103.2	1.32997
1106.58	0.858199
1109.95	1.85266
1113.33	0.908371
1116.7	1.48321
1120.08	0.551557
1123.45	0.304019
1126.83	1.40628
1130.2	0.018873
1133.58	1.6911
1136.95	0.856703
1140.33	0.581203
1143.7	0.883464
1147.08	0.0299
1150.45	0.769957
1153.83	0.605608
1157.2	0.331704
1160.58	0.805601
1163.95	0.222326
1167.33	0.204601
1170.7	0.207673
1174.08	0.243978
1177.45	0.428746
1180.83	0.576713
1184.2	1.04083
1187.57	0.778801
1190.95	1.58388
1194.32	0.779904
1197.7	1.01441
1201.07	1.28092
1204.45	1.06945
1207.82	1.01464
1211.2	1.15541
1214.57	0.107054
1217.95	1.37176
1221.32	1.35631
1224.7	1.81039
1228.07	1.44715
1231.45	1.51821
1234.82	0.632258
1238.2	0.478975
1241.57	0.686226
1244.95	1.05853
1248.32	0.766732
1251.7	0.717611
1255.07	0.957473
1258.44	0.499971
1261.82	0.623963
1265.19	0.682164
1268.57	0.382437
1271.94	0.967076
1275.32	0.270766
1278.69	0.662016
1282.07	0.094377
1285.44	0.369176
