Measurement: Raman, 532 nm, unoriented, Raman Data Processed
Mineral: Forsterite
Rruff sample: R040018
Ideal chemistry: Mg_2_SiO_4_
Locality: Trudy's mine, San Carlos, Gila County, Arizona, USA
Source: Bob Downs
Description: Green fragments from xenoliths in a basalt flow
Measured chemistry: (Mg_1.81_Fe_0.18_Ni_0.01_)_Î£=2_Si_1.00_O_4_; trace amounts of Mn and Ca
Raman shift (cm-1)	intensity
127.636	0
131.011	42.9888
134.386	2.76892
137.761	51.3702
141.136	65.1726
144.511	47.9858
147.885	21.7539
151.26	21.2021
154.635	12.6331
158.01	28.1536
161.385	6.91113
164.76	17.0903
168.134	16.2313
171.509	28.2935
174.884	2.72705
178.259	20.0491
181.634	26.4938
185.008	15.0897
188.383	13.0342
191.758	6.48846
195.133	3.30383
198.508	38.6187
201.882	32.4916
205.257	62.5672
208.632	92.8807
212.007	108.482
215.382	191.226
218.757	220.071
222.131	256.945
225.506	217.041
228.881	145.413
232.256	131.236
235.631	93.7919
239.006	80.9582
242.38	48.9721
245.755	34.2339
249.13	6.16248
252.505	1.7489
255.88	13.8865
259.254	0.478821
262.629	21.2402
266.004	10.3758
269.379	8.54462
272.754	16.6433
276.128	23.898
279.503	35.1364
282.878	58.6923
286.253	75.0571
289.628	91.3976
293.002	141.999
296.377	185.996
299.752	254.856
303.127	270.057
306.502	215.779
309.877	189.971
313.251	238.434
316.626	250.612
320.001	245.28
323.376	267.392
326.751	280.113
330.125	226.942
333.5	202.106
336.875	176.778
340.25	132.667
343.625	58.9476
347	33.1553
350.374	28.1542
353.749	25.592
357.124	34.9453
360.499	50.074
363.874	62.9674
367.248	117.084
370.623	114.731
373.998	66.2278
377.373	17.1836
380.748	14.7653
384.123	2.11316
387.497	7.17481
390.872	8.84277
394.247	11.4286
397.622	1.58179
400.997	41.0554
404.371	65.9576
407.746	82.8691
411.121	80.6843
414.496	114.875
417.871	155.108
421.245	203.93
424.62	293.025
427.995	397.376
431.37	386.726
434.745	220.038
438.12	126.95
441.494	52.1656
444.869	39.8296
448.244	21.8328
451.619	19.5939
454.994	15.9482
458.368	5.63257
461.743	9.40857
465.118	13.8906
468.493	17.8278
471.868	17.6654
475.243	14.0613
478.617	11.3491
481.992	20.058
485.367	32.5637
488.742	20.7561
492.117	17.3696
495.491	26.562
498.866	15.9239
502.241	10.0084
505.616	6.95654
508.991	3.44006
512.365	3.17224
515.74	7.16504
519.115	3.00732
522.49	28.4152
525.865	57.2545
529.24	104.916
532.614	151.51
535.989	248.606
539.364	360.046
542.739	395.278
546.114	235.572
549.489	99.4309
552.863	57.7123
556.238	35.9094
559.613	35.6626
562.988	45.7593
566.363	79.1796
569.737	134.665
573.112	207.359
576.487	303.975
579.862	364.139
583.237	398.242
586.611	448.261
589.986	422.024
593.361	318.124
596.736	222.528
600.111	208.143
603.486	222.64
606.86	205.785
610.235	155.473
613.61	92.6609
616.985	57.1986
620.36	41.9537
623.735	24.9916
627.109	19.9645
630.484	6.50415
633.859	10.0283
637.234	2.53857
640.609	7.703
643.983	16.5464
647.358	2.15124
650.733	2.50671
654.108	0.864746
657.483	10.5359
660.857	0.307617
664.232	12.6365
667.607	8.724
670.982	3.19006
674.357	7.86389
677.732	8.60461
681.106	15.1874
684.481	10.4233
687.856	10.5861
691.231	20.4863
694.606	29.3737
697.981	13.937
701.355	31.7428
704.73	20.3835
708.105	40.8438
711.48	31.8666
714.855	24.3669
718.229	27.7247
721.604	21.1533
724.979	24.6066
728.354	17.7794
731.729	17.0582
735.103	28.2628
738.478	3.91687
741.853	19.9056
745.228	16.3768
748.603	10.5464
751.977	0.585083
755.352	19.421
758.727	9.10864
762.102	4.33765
765.477	7.59448
768.852	2.44763
772.226	16.536
775.601	25.1592
778.976	17.4825
782.351	47.5898
785.726	59.6409
789.101	101.952
792.475	127.206
795.85	224.194
799.225	333.985
802.6	572.807
805.975	962.696
809.349	1756.88
812.724	2900.09
816.099	4442.14
819.474	6609.96
822.849	7963.91
826.223	5977.43
829.598	3475.81
832.973	2303.71
836.348	1894.06
839.723	1951.79
843.097	2388.25
846.472	3153.03
849.847	4330.6
853.222	5462.79
856.597	5165.82
859.972	3404.65
863.346	1998.92
866.721	1223.34
870.096	767.812
873.471	511.847
876.846	422.59
880.221	400.832
883.595	291.316
886.97	112.142
890.345	10.4983
893.72	39.0073
897.095	13.3789
900.469	24.8919
903.844	37.0007
907.219	141.118
910.594	280.05
913.969	508.988
917.343	829.664
920.718	715.288
924.093	205.488
927.468	48.6697
930.843	25.9099
934.218	26.4836
937.592	57.8652
940.967	92.3298
944.342	166.231
947.717	267.42
951.092	384.535
954.466	536.013
957.841	669.984
961.216	660.802
964.591	569.235
967.966	415.181
971.341	245.722
974.715	138.498
978.09	68.0745
981.465	36.3926
984.84	16.2441
988.215	2.21802
991.589	9.81006
994.964	6.40015
998.339	4.64648
1001.71	2.59985
1005.09	16.4248
1008.46	19.9605
1011.84	5.40137
1015.21	18.0964
1018.59	25.511
1021.96	13.1155
1025.34	35.5979
1028.71	36.1609
1032.09	60.4209
1035.46	39.3538
1038.84	32.0806
1042.21	39.2268
1045.59	49.6997
1048.96	35.1882
1052.34	34.4893
1055.71	25.1196
1059.09	10.062
1062.46	19.6018
1065.84	19.8535
1069.21	5.14307
1072.59	16.8713
1075.96	17.052
1079.34	30.1377
1082.71	10.6509
1086.08	22.6433
1089.46	21.4351
1092.83	20.1043
1096.21	9.82959
1099.58	5.7749
1102.96	0.299316
1106.33	13.0369
1109.71	13.686
1113.08	18.0142
1116.46	12.7642
1119.83	11.103
1123.21	2.90185
1126.58	5.59375
1129.96	41.2773
1133.33	1.47705
1136.71	20.9219
1140.08	30.2295
1143.46	16.5195
1146.83	28.0718
1150.21	35.6411
1153.58	35.0117
1156.95	24.2637
1160.33	19.2866
1163.7	16.6338
1167.08	27.3491
1170.45	13.2515
1173.83	4.47754
1177.2	25.5649
1180.58	15.4507
1183.95	29.3081
1187.33	0.715332
1190.7	3.24316
1194.08	17.667
1197.45	29.6631
1200.83	0.211426
1204.2	35.7871
1207.58	2.07519
1210.95	23.6714
1214.33	28.7275
1217.7	64.687
1221.08	50.9971
1224.45	58.6401
1227.83	34.7983
1231.2	18.9287
1234.58	27.6875
1237.95	3.74951
1241.33	22.6431
1244.7	12.3062
1248.08	19.8599
1251.45	7.86572
1254.83	0.965332
1258.2	29.5938
1261.58	35.8852
1264.95	33.0684
1268.32	31.5898
1271.7	50.8935
1275.07	35.6606
1278.45	26.4722
1281.82	23.6758
1285.2	30.1211
1288.57	39.4536
1291.95	33.5088
1295.32	25.8965
1298.7	19.2358
1302.07	6.74902
