Measurement: Raman, 514 nm, unoriented, Raman Data Processed
Mineral: Forsterite
Rruff sample: R040018
Ideal chemistry: Mg_2_SiO_4_
Locality: Trudy's mine, San Carlos, Gila County, Arizona, USA
Source: Bob Downs
Description: Green fragments from xenoliths in a basalt flow
Measured chemistry: (Mg_1.81_Fe_0.18_Ni_0.01_)_Î£=2_Si_1.00_O_4_; trace amounts of Mn and Ca
Raman shift (cm-1)	intensity
57.065	0
61.262	0.354
65.458	1.396
69.651	6.695
73.842	37.077
78.031	73.804
82.218	113.941
86.404	128.126
90.587	129.122
94.768	139.002
98.947	134.205
103.124	130.336
107.3	138.206
111.473	157.701
115.644	190.744
119.813	169.28
123.981	150.283
128.146	140.727
132.309	151.606
136.47	152.91
140.63	214.591
144.787	217.366
148.942	222.218
153.096	203.198
157.247	168.337
161.396	204.647
165.544	218.136
169.689	192.804
173.833	164.648
177.974	161.673
182.114	152.938
186.251	134.459
190.387	146.173
194.52	128.07
198.652	170.314
202.782	183.806
206.909	269.599
211.035	341.59
215.159	523.678
219.281	780.854
223.4	854.921
227.518	713.792
231.634	590.406
235.748	538.387
239.86	440.688
243.97	255.276
248.079	144.109
252.185	107.154
256.289	97.386
260.391	92.785
264.492	71.335
268.59	58.02
272.687	83.83
276.781	94.755
280.874	121.785
284.964	236.914
289.053	408.133
293.14	803.438
297.225	1863.34
301.308	3018.26
305.389	2103.2
309.468	1046.16
313.545	769.318
317.62	645.085
321.693	508.89
325.765	467.153
329.834	258.227
333.902	174.073
337.967	143.384
342.031	105.308
346.093	71.84
350.153	98.821
354.21	127.407
358.267	158.388
362.321	116.931
366.373	151.475
370.423	185.35
374.471	70.836
378.518	23.341
382.563	25.855
386.605	4.361
390.646	4.901
394.685	1.534
398.722	29.014
402.757	94.589
406.79	231.167
410.821	419.745
414.851	693.318
418.878	658.881
422.904	641.432
426.927	1076.97
430.949	1417.48
434.969	1359.98
438.987	968.447
443.003	374.891
447.018	143.305
451.03	64.688
455.041	2.962
459.049	16.338
463.056	12.416
467.061	1.273
471.064	5.21
475.065	13.208
479.064	9.72
483.062	13.146
487.057	2.423
491.051	34.861
495.043	25.315
499.032	2.208
503.02	0.436
507.007	23.483
510.991	30.966
514.973	3.265
518.954	41.409
522.933	46.18
526.91	34.729
530.885	75.195
534.858	66.883
538.829	121.021
542.799	134.494
546.766	106.631
550.732	98.865
554.696	120.869
558.658	151.873
562.618	228.83
566.576	304.715
570.533	508.527
574.488	907.267
578.44	1482.94
582.391	2000.54
586.341	1933.07
590.288	1630.53
594.233	1539.92
598.177	2075.24
602.119	3116.5
606.059	3394.7
609.997	2597.83
613.933	1631.72
617.868	945.399
621.801	604.047
625.731	392.134
629.66	317.334
633.588	221.109
637.513	132.841
641.437	103.509
645.358	48.47
649.278	45.561
653.196	12.778
657.113	17.896
661.027	2.981
664.94	15.59
668.851	10.782
672.76	34.933
676.667	37.916
680.572	22.252
684.476	45.792
688.378	39.436
692.278	1.122
696.176	0.355
700.072	1.145
703.967	29.654
707.86	60.178
711.751	71.722
715.64	81.288
719.527	69.876
723.413	150.49
727.297	143.133
731.179	166.808
735.059	154.517
738.937	206.263
742.814	244.049
746.689	290.878
750.562	317.752
754.433	323.674
758.303	399.652
762.17	443.7
766.036	480.854
769.901	554.133
773.763	640.572
777.624	740.168
781.482	827.898
785.339	962.759
789.195	1080.72
793.048	1338.78
796.9	1688.93
800.75	2109.21
804.598	2917.68
808.445	4522.23
812.289	7281.99
816.132	13893.5
819.973	29207.8
823.813	39838.9
827.65	24765.5
831.486	14221.4
835.32	10441.8
839.152	9879.15
842.983	11502.4
846.812	17101.9
850.639	31077.4
854.464	48906.3
858.288	41547.5
862.11	22402.8
865.93	12618.2
869.748	7838.74
873.564	5763.39
877.379	5912.15
881.192	7654.04
885.004	5371.05
888.813	2633.17
892.621	1640.42
896.427	1151.25
900.232	947.275
904.034	767.881
907.835	720.623
911.634	749.249
915.432	1179.87
919.227	1822.18
923.021	971.251
926.813	468.178
930.604	356.386
934.393	280.759
938.18	207.866
941.965	233.7
945.749	266.393
949.53	270.098
953.311	341.839
957.089	468.693
960.866	640.798
964.641	678.035
968.414	553.317
972.185	416.7
975.955	307.213
979.723	235.835
983.49	198.619
987.254	121.551
991.017	132.617
994.779	103.808
998.538	144.106
1002.3	107.494
1006.05	59.955
1009.81	30.498
1013.56	16.125
1017.31	70.82
1021.06	36.569
1024.81	63.365
1028.55	50.208
1032.3	36.114
1036.04	55.074
1039.78	41.066
1043.52	56.084
1047.26	41.125
1050.99	49.241
1054.73	20.318
1058.46	37.405
1062.19	14.516
1065.92	20.482
1069.65	26.318
1073.37	36.777
1077.1	0.194
1080.82	21.72
1084.54	10.643
1088.26	3.06
1091.97	9.817
1095.69	1.377
1099.4	6.478
1103.12	33.471
1106.83	13.382
1110.54	26.156
1114.24	23.904
1117.95	52.841
1121.65	99.526
1125.35	94.552
1129.06	36.332
1132.75	57.115
1136.45	52.045
1140.15	87.16
1143.84	96.065
1147.53	65.74
1151.22	74.627
1154.91	113.214
1158.6	124.423
1162.28	116.225
1165.97	90.891
1169.65	96.724
1173.33	82.084
1177.01	133.422
1180.69	118.935
1184.36	103.167
1188.04	99.406
1191.71	104.05
1195.38	77.818
1199.05	100.426
1202.71	117.779
1206.38	153.099
1210.04	130.848
1213.71	137.926
1217.37	151.326
1221.03	155.825
1224.68	119.219
1228.34	148.88
1231.99	131.787
1235.65	127.947
1239.3	116.926
1242.95	170.197
1246.59	84.297
1250.24	73.239
1253.88	67.407
1257.53	56.754
1261.17	42.991
1264.81	52.298
1268.45	38.484
1272.08	32.498
1275.72	53.362
1279.35	29.13
1282.98	29.782
1286.61	28.305
1290.24	13.261
1293.87	36.077
1297.49	24.343
1301.11	45.522
1304.73	34.603
1308.36	53.589
1311.97	70.487
1315.59	27.342
1319.2	46.094
1322.82	25.757
1326.43	19.318
1330.04	21.795
1333.65	30.21
1337.26	30.571
1340.86	32.881
1344.47	55.09
1348.07	37.309
1351.67	54.262
1355.27	71.781
1358.87	73.99
1362.46	78.191
1366.06	84.457
1369.65	66.803
1373.24	77.175
1376.83	56.187
1380.42	92.589
1384	86.551
1387.59	72.909
1391.17	54.293
1394.75	72.661
1398.33	81.742
1401.91	85.485
1405.49	45.878
1409.06	24.681
1412.64	68.956
1416.21	48.912
1419.78	76.246
1423.35	40.982
1426.91	95.75
1430.48	43.747
1434.05	61.835
1437.61	68.476
1441.17	65.269
1444.73	74.884
1448.29	47.285
1451.84	64.228
1455.4	64.384
1458.95	61.713
1462.5	51.705
1466.05	49.547
1469.6	57.99
1473.15	81.223
1476.69	84.859
1480.24	96.87
1483.78	57.946
1487.32	57.073
1490.86	64.166
1494.39	1.717
1497.93	79.203
1501.46	41.343
1505	17.848
1508.53	71.828
1512.06	45.154
1515.59	115.664
1519.11	75.683
1522.64	64.871
