Measurement: Raman, 780 nm, unoriented, Raman Data Processed
Mineral: Forsterite
Rruff sample: R040018
Ideal chemistry: Mg_2_SiO_4_
Locality: Trudy's mine, San Carlos, Gila County, Arizona, USA
Source: Bob Downs
Description: Green fragments from xenoliths in a basalt flow
Measured chemistry: (Mg_1.81_Fe_0.18_Ni_0.01_)_Î£=2_Si_1.00_O_4_; trace amounts of Mn and Ca
Raman shift (cm-1)	intensity
112.831	0
116.205	1.85062
119.58	1.085
122.955	1.32092
126.33	0.016922
129.705	3.67632
133.079	1.2262
136.454	4.46259
139.829	5.48179
143.204	2.1543
146.579	5.48963
149.953	4.90066
153.328	5.55482
156.703	4.04057
160.078	3.80345
163.453	2.38304
166.828	0.814552
170.202	2.39278
173.577	1.16103
176.952	1.80637
180.327	1.56464
183.702	2.14897
187.077	0.304054
190.451	2.25367
193.826	2.74709
197.201	2.53451
200.576	4.23927
203.951	6.14996
207.325	9.80061
210.7	12.2533
214.075	17.556
217.45	21.6814
220.825	27.1927
224.199	23.8947
227.574	17.9935
230.949	16.5596
234.324	15.3169
237.699	13.814
241.073	7.40101
244.448	2.71709
247.823	2.85435
251.198	3.38918
254.573	2.29199
257.948	0.226738
261.322	0.525024
264.697	0.416504
268.072	0.515076
271.447	0.549377
274.822	2.80589
278.197	5.02991
281.571	11.8842
284.946	15.3277
288.321	18.0007
291.696	25.8157
295.071	36.8616
298.445	52.6434
301.82	55.8655
305.195	41.5008
308.57	25.4399
311.945	20.8431
315.32	21.7487
318.694	15.9813
322.069	18.9233
325.444	18.0989
328.819	15.8407
332.194	12.0339
335.568	9.54637
338.943	9.57295
342.318	3.74265
345.693	4.51617
349.068	3.60843
352.442	4.02817
355.817	3.27446
359.192	2.82977
362.567	5.10092
365.942	3.98135
369.317	5.49004
372.691	2.76567
376.066	1.34394
379.441	0.49324
382.816	0.464989
386.191	0.887825
389.565	0.121559
392.94	1.64663
396.315	3.43115
399.69	5.20559
403.065	4.82005
406.44	11.3116
409.814	14.496
413.189	18.1041
416.564	23.6482
419.939	25.5967
423.314	30.0123
426.688	37.2929
430.063	39.7292
433.438	32.6722
436.813	29.0316
440.188	14.5351
443.562	8.01347
446.937	2.8893
450.312	1.72916
453.687	1.096
457.062	1.94148
460.437	2.02424
463.811	1.40982
467.186	0.185959
470.561	2.07021
473.936	1.28265
477.311	2.69859
480.685	2.81139
484.06	4.00597
487.435	0.342026
490.81	0.337883
494.185	1.42085
497.56	1.86837
500.934	1.80518
504.309	2.01792
507.684	3.31827
511.059	2.17094
514.434	1.55057
517.808	3.51476
521.183	2.08758
524.558	2.4279
527.933	4.74522
531.308	6.51691
534.683	9.72182
538.057	12.9054
541.432	13.7903
544.807	10.1996
548.182	4.09953
551.557	2.75748
554.932	2.95422
558.306	2.56272
561.681	6.73859
565.056	10.3792
568.431	13.5229
571.806	19.9102
575.18	29.577
578.555	37.7025
581.93	44.0488
585.305	45.7676
588.68	42.0643
592.054	35.9718
595.429	37.4542
598.804	39.2876
602.179	41.045
605.554	41.2016
608.928	29.9248
612.303	18.5413
615.678	10.887
619.053	9.0782
622.428	3.38908
625.803	3.96446
629.177	2.02434
632.552	3.82946
635.927	3.91337
639.302	0.858612
642.677	0.679985
646.052	0.001236
649.426	1.11253
652.801	0.694748
656.176	0.61657
659.551	0.348915
662.926	1.61668
666.3	1.88717
669.675	2.46239
673.05	1.59789
676.425	0.198853
679.8	0.30114
683.174	2.54825
686.549	0.185585
689.924	1.40761
693.299	1.06415
696.674	1.83159
700.049	1.94704
703.423	0.561928
706.798	2.36635
710.173	1.78046
713.548	2.80839
716.923	2.06397
720.298	3.48956
723.672	4.00043
727.047	2.35177
730.422	2.62386
733.797	2.99583
737.172	1.73515
740.546	0.572716
743.921	0.882278
747.296	0.25219
750.671	0.12104
754.046	1.22786
757.42	0.692375
760.795	0.169113
764.17	2.0368
767.545	1.48892
770.92	0.559532
774.295	1.72443
777.669	0.70874
781.044	3.76392
784.419	3.12084
787.794	4.47458
791.169	9.98037
794.543	15.6818
797.918	22.9416
801.293	38.9029
804.668	66.559
808.043	117.021
811.418	182.297
814.792	262.089
818.167	370.636
821.542	468.349
824.917	398.058
828.292	244.678
831.666	168.243
835.041	154.371
838.416	177.886
841.791	239.953
845.166	319.645
848.54	424.955
851.915	546.367
855.29	552.63
858.665	382.994
862.04	218.404
865.415	134.338
868.789	92.6004
872.164	70.7136
875.539	63.6356
878.914	67.4889
882.289	58.1926
885.663	29.3549
889.038	10.4881
892.413	2.71787
895.788	0.55645
899.163	0.13649
902.538	1.67376
905.912	3.91379
909.287	11.6964
912.662	17.7903
916.037	30.6425
919.412	33.4974
922.786	10.6549
926.161	0.508995
929.536	2.49219
932.911	1.42056
936.286	0.065536
939.66	1.62333
943.035	4.62177
946.41	8.32061
949.785	12.7357
953.16	18.1408
956.535	23.5037
959.909	26.4486
963.284	22.5398
966.659	17.5904
970.034	12.3095
973.409	6.52135
976.784	4.5743
980.158	0.446243
983.533	1.93851
986.908	0.171982
990.283	0.634758
993.658	1.67693
997.032	1.67368
1000.41	1.18529
1003.78	1.87415
1007.16	1.40172
1010.53	0.229523
1013.91	1.78082
1017.28	2.06715
1020.66	3.03625
1024.03	1.42408
1027.41	2.46497
1030.78	2.94428
1034.15	3.99252
1037.53	3.18602
1040.9	2.57289
1044.28	1.74681
1047.65	2.08981
1051.03	0.984344
1054.4	2.33313
1057.78	3.118
1061.15	1.62528
1064.53	2.59522
1067.9	0.580788
1071.28	3.67753
1074.65	1.94553
1078.03	1.41613
1081.4	0.957199
1084.78	0.85688
1088.15	0.206001
1091.53	2.79271
1094.9	2.82246
1098.28	0.903091
1101.65	1.51704
1105.03	2.18591
1108.4	2.05576
1111.78	3.9139
1115.15	1.22351
1118.53	2.46327
1121.9	0.73671
1125.28	1.23087
1128.65	1.62895
1132.03	1.92188
1135.4	1.71313
1138.78	0.115791
1142.15	0.747307
1145.52	2.31575
1148.9	1.57851
1152.27	0.004333
1155.65	0.191483
1159.02	0.956017
1162.4	0.753502
1165.77	0.503311
1169.15	1.91068
1172.52	1.71828
1175.9	0.695618
1179.27	0.354279
1182.65	3.1673
1186.02	0.129486
1189.4	2.34604
1192.77	0.664673
1196.15	0.816383
1199.52	1.2413
1202.9	1.71137
1206.27	1.66592
1209.65	0.269814
1213.02	1.97851
1216.4	3.60197
1219.77	1.48966
1223.14	1.42848
1226.52	1.76184
1229.89	2.03146
1233.27	1.0328
1236.64	3.59756
1240.02	0.536301
1243.39	0.529045
1246.77	2.88939
1250.14	1.47368
1253.52	1.59026
1256.89	1.76458
1260.27	1.21827
1263.64	2.88106
1267.02	1.57448
1270.39	1.72041
1273.77	1.40488
1277.14	0.765335
1280.52	2.23679
1283.89	0.928146
1287.27	0.009323
