Measurement: Raman, 780 nm, unoriented, Raman Data Processed
Mineral: Forsterite
Rruff sample: R060551
Ideal chemistry: Mg_2_SiO_4_
Locality: Kohiston, Pakistan
Source: Gemological Institute of America
Description: Pale green fragment
Measured chemistry: (Mg_1.82_Fe_0.18_)_Î£=2_Si_1.00_O_4_; trace amounts of Mn
Raman shift (cm-1)	intensity
98.9557	0
102.331	0.035078
105.705	1.14968
109.08	1.63077
112.455	0.41649
115.83	0.388246
119.205	0.375067
122.579	0.179667
125.954	0.8122
129.329	0.873677
132.704	0.672625
136.079	1.1412
139.453	1.45144
142.828	1.13583
146.203	1.94997
149.578	1.93052
152.953	2.0251
156.327	0.979746
159.702	1.28566
163.077	1.89279
166.452	0.962362
169.827	1.93277
173.202	1.39491
176.576	1.91678
179.951	1.38348
183.326	0.44707
186.701	0.158483
190.076	0.17114
193.451	0.131501
196.825	0.162004
200.2	0.503654
203.575	0.780871
206.95	1.96478
210.325	2.16534
213.699	4.42442
217.074	6.35217
220.449	6.88786
223.824	7.95505
227.199	6.60597
230.573	6.59426
233.948	5.72883
237.323	5.73948
240.698	4.56438
244.073	3.36957
247.447	1.99572
250.822	0.941044
254.197	0.315665
257.572	0.578914
260.947	0.084466
264.322	0.055217
267.696	0.016344
271.071	0.226587
274.446	1.50151
277.821	2.01113
281.196	4.10693
284.57	7.68198
287.945	10.6649
291.32	14.937
294.695	22.0422
298.07	36.503
301.445	47.469
304.819	32.2037
308.194	17.1064
311.569	13.9595
314.944	13.9096
318.319	10.9732
321.693	10.1086
325.068	9.66316
328.443	6.05582
331.818	4.04977
335.193	2.81881
338.567	1.92216
341.942	0.590775
345.317	0.293523
348.692	0.167525
352.067	0.732138
355.442	0.933428
358.816	1.07099
362.191	0.61422
365.566	0.456851
368.941	0.455918
372.316	0.232283
375.69	0.09913
379.065	0.226443
382.44	0.185228
385.815	0.071647
389.19	0.350228
392.565	0.497115
395.939	0.982358
399.314	2.07248
402.689	3.60103
406.064	5.22216
409.439	8.19659
412.813	13.0877
416.188	15.3586
419.563	14.632
422.938	14.6305
426.313	18.1845
429.688	23.4297
433.062	16.7035
436.437	11.0179
439.812	5.69108
443.187	2.81944
446.562	1.05275
449.936	0.499313
453.311	0.459352
456.686	0.12349
460.061	0.266295
463.436	0.648106
466.81	0.317502
470.185	0.820145
473.56	0.995834
476.935	0.729942
480.31	0.519905
483.685	0.453887
487.059	0.129899
490.434	0.702553
493.809	0.735001
497.184	0.371253
500.559	0.209168
503.933	0.099698
507.308	0.278486
510.683	0.208533
514.058	0.517605
517.433	0.474288
520.808	0.006156
524.182	0.073398
527.557	0.041058
530.932	0.005729
534.307	0.89325
537.682	1.43388
541.056	2.46594
544.431	1.57521
547.806	1.50261
551.181	1.11807
554.556	1.26281
557.93	1.21367
561.305	2.94623
564.68	3.96653
568.055	5.55587
571.43	7.96737
574.804	11.5028
578.179	15.4171
581.554	18.8821
584.929	20.4614
588.304	21.7609
591.679	25.4411
595.053	32.2744
598.428	42.7862
601.803	53.8574
605.178	57.2432
608.553	45.4938
611.928	30.5465
615.302	18.138
618.677	11.2953
622.052	7.72895
625.427	4.89978
628.802	3.03026
632.176	2.37222
635.551	1.52364
638.926	0.933759
642.301	0.591892
645.676	0.606723
649.05	0.300262
652.425	0.576591
655.8	0.056473
659.175	0.003735
662.55	0.183916
665.924	0.130703
669.299	0.072732
672.674	0.094596
676.049	0.019228
679.424	0.246013
682.799	0.04622
686.173	0.408246
689.548	0.251873
692.923	0.107859
696.298	0.208408
699.673	0.441024
703.048	0.658195
706.422	0.22597
709.797	0.896433
713.172	1.21321
716.547	0.580688
719.922	0.747972
723.296	1.08565
726.671	0.795831
730.046	0.774837
733.421	0.003403
736.796	0.0655
740.17	0.182246
743.545	0.345284
746.92	0.4615
750.295	0.27844
753.67	0.071918
757.044	0.536828
760.419	0.796713
763.794	0.149108
767.169	0.128748
770.544	0.666668
773.919	0.112432
777.293	0.437773
780.668	0.857227
784.043	2.09728
787.418	3.51147
790.793	4.47648
794.167	8.08723
797.542	13.4649
800.917	21.3665
804.292	36.2358
807.667	64.0376
811.042	100.254
814.416	147.578
817.791	227.792
821.166	327.156
824.541	300.445
827.916	176.459
831.29	114.055
834.665	95.009
838.04	100.39
841.415	124.486
844.79	162.731
848.164	227.111
851.539	326.511
854.914	379.083
858.289	278.695
861.664	157.494
865.039	92.8475
868.413	56.0316
871.788	37.303
875.163	30.5016
878.538	30.1424
881.913	27.8621
885.287	15.6855
888.662	7.0096
892.037	3.10731
895.412	1.70791
898.787	0.184627
902.162	0.592311
905.536	0.481569
908.911	0.08849
912.286	1.50447
915.661	2.04778
919.036	2.77342
922.41	0.196186
925.785	0.492015
929.16	1.07633
932.535	0.196921
935.91	0.421484
939.284	1.59207
942.659	4.22211
946.034	6.75054
949.409	11.3992
952.784	17.3845
956.159	25.2151
959.533	32.7224
962.908	31.7755
966.283	25.9249
969.658	19.176
973.033	12.7672
976.407	8.46044
979.782	5.88633
983.157	4.42318
986.532	3.08482
989.907	2.08984
993.282	1.4128
996.656	0.829473
1000.03	0.775215
1003.41	1.06942
1006.78	0.644572
1010.16	0.522555
1013.53	0.688039
1016.9	0.841424
1020.28	0.50947
1023.65	0.245912
1027.03	0.636272
1030.4	0.287471
1033.78	0.535581
1037.15	0.54456
1040.53	1.3488
1043.9	1.11766
1047.28	0.731427
1050.65	0.052118
1054.03	0.12437
1057.4	0.25023
1060.78	0.310794
1064.15	0.127743
1067.53	0.364841
1070.9	0.208739
1074.28	0.413836
1077.65	0.248644
1081.03	0.203135
1084.4	0.530698
1087.78	0.026507
1091.15	0.063603
1094.53	0.186306
1097.9	0.231453
1101.28	0.320106
1104.65	0.72946
1108.03	0.372629
1111.4	0.4921
1114.78	0.943491
1118.15	0.11212
1121.52	0.144658
1124.9	0.525798
1128.27	0.222204
1131.65	0.374883
1135.02	0.411323
1138.4	0.333846
1141.77	0.149267
1145.15	0.324239
1148.52	0.543169
1151.9	0.342451
1155.27	0.393248
1158.65	0.392731
1162.02	0.558738
1165.4	0.478722
1168.77	0.240112
1172.15	0.80256
1175.52	0.416046
1178.9	0.330436
1182.27	0.109872
1185.65	0.51917
1189.02	0.015771
1192.4	0.179189
1195.77	0.500063
1199.14	0.367509
1202.52	0.413405
1205.89	0.95454
1209.27	0.434737
1212.64	1.27253
1216.02	1.09255
1219.39	1.07094
1222.77	0.590988
1226.14	0.983582
1229.52	1.4053
1232.89	1.17673
1236.27	0.405392
1239.64	0.381182
1243.02	0.902431
1246.39	0.846452
1249.77	0.551302
1253.14	0.324853
1256.52	0.682366
1259.89	0.221522
1263.27	0.648137
1266.64	0.518114
1270.02	0.539968
1273.39	0.111074
1276.77	0.225012
1280.14	0.714968
1283.52	0.59697
