Measurement: Raman, 532 nm, unoriented, Raman Data Processed
Mineral: Forsterite
Rruff sample: R100100
Ideal chemistry: Mg_2_SiO_4_
Locality: Scott Creek, Jackson County,  North Carolina, USA
Source: American Museum of Natural History
Description: Pale greenish-yellow fragments
Measured chemistry: (Mg_1.832_Fe_0.153_Ni_0.008_Mn_0.002_Zn_0.001_)_Î£=1.996_Si_1.000_O_4_
Raman shift (cm-1)	intensity
162.328	0
165.22	3.06439
168.113	9.82094
171.006	19.3047
173.898	25.4528
176.791	17.684
179.684	13.9459
182.577	9.49532
185.469	10.3802
188.362	11.6793
191.255	13.2417
194.147	12.4992
197.04	14.7012
199.933	11.3439
202.825	11.4356
205.718	10.2335
208.611	14.5236
211.504	19.9242
214.396	28.4707
217.289	33.4929
220.182	41.7414
223.074	55.0377
225.967	48.0579
228.86	36.9207
231.752	32.6727
234.645	22.1354
237.538	21.8044
240.43	15.8111
243.323	12.8381
246.216	6.1552
249.109	6.89973
252.001	3.32046
254.894	1.49972
257.787	0.184341
260.679	1.03758
263.572	1.15208
266.465	0.209229
269.358	1.47565
272.25	1.21133
275.143	1.25377
278.036	1.37026
280.928	0.779617
283.821	3.54622
286.714	6.47176
289.606	10.8323
292.499	15.5427
295.392	27.8681
298.284	51.4625
301.177	87.713
304.07	92.1571
306.963	54.8973
309.855	39.3589
312.748	41.6621
315.641	55.6441
318.533	49.4108
321.426	37.1666
324.319	48.3941
327.212	45.1018
330.104	31.6729
332.997	24.9584
335.89	24.6017
338.782	22.2183
341.675	14.1256
344.568	11.1855
347.46	4.074
350.353	3.66827
353.246	1.87567
356.139	5.19421
359.031	4.54697
361.924	5.34799
364.817	7.27631
367.709	13.7043
370.602	20.4239
373.495	16.4707
376.387	10.3519
379.28	5.53345
382.173	3.39575
385.065	0.071381
387.958	1.83462
390.851	0.097137
393.744	1.66733
396.636	1.01254
399.529	1.53558
402.422	6.49991
405.314	13.9953
408.207	16.751
411.1	19.9399
413.993	24.0051
416.885	31.402
419.778	37.8823
422.671	45.7188
425.563	64.4232
428.456	93.2119
431.349	114.61
434.241	85.2549
437.134	56.5823
440.027	37.5455
442.92	20.4255
445.812	10.7673
448.705	7.42136
451.598	3.37176
454.49	1.13705
457.383	0.65152
460.276	2.27304
463.168	0.32608
466.061	3.90329
468.954	1.9231
471.846	1.82687
474.739	0.327667
477.632	3.21866
480.525	3.02304
483.417	1.14948
486.31	2.39258
489.203	1.22907
492.095	1.3107
494.988	2.82361
497.881	1.34088
500.774	1.8541
503.666	1.16431
506.559	0.580475
509.452	1.64145
512.344	1.19122
515.237	2.6091
518.13	0.380157
521.022	1.34167
523.915	3.83792
526.808	5.09152
529.701	7.51349
532.593	9.11108
535.486	18.0692
538.379	30.4151
541.271	41.5143
544.164	44.8511
547.057	25.8636
549.949	11.4968
552.842	8.55057
555.735	6.6235
558.628	5.44519
561.52	5.91684
564.413	9.22092
567.306	16.2309
570.198	21.3243
573.091	31.1187
575.984	42.8858
578.876	58.4965
581.769	77.0129
584.662	88.2725
587.554	89.9103
590.447	85.8562
593.34	72.3107
596.232	63.9058
599.125	65.2449
602.018	79.5094
604.911	90.6447
607.803	88.2811
610.696	71.6798
613.589	47.4873
616.481	30.2514
619.374	19.8801
622.267	14.2561
625.159	9.94037
628.052	7.94904
630.945	7.64639
633.838	5.42307
636.73	2.74765
639.623	1.96503
642.516	1.40653
645.408	0.655151
648.301	0.939667
651.194	0.227631
654.087	1.80527
656.979	1.73364
659.872	2.48715
662.765	2.03482
665.657	1.04593
668.55	0.580505
671.443	3.75696
674.335	0.527863
677.228	1.12628
680.121	2.93552
683.014	2.66779
685.906	4.77158
688.799	4.13406
691.692	5.17966
694.584	4.5882
697.477	3.00476
700.37	4.98135
703.263	2.51529
706.155	4.71832
709.048	3.77887
711.941	5.53201
714.833	3.35785
717.726	1.354
720.619	1.43964
723.511	5.16312
726.404	1.62753
729.297	2.32388
732.189	2.79248
735.082	1.38965
737.975	0.874237
740.868	1.51147
743.76	0.775879
746.653	0.822327
749.546	1.05212
752.438	1.16217
755.331	0.541687
758.224	0.239624
761.116	3.86383
764.009	0.88855
766.902	1.80945
769.795	1.01169
772.687	2.18649
775.58	1.50354
778.473	1.86621
781.365	2.82752
784.258	5.59207
787.151	7.64395
790.043	8.84619
792.936	13.5444
795.829	16.7808
798.722	25.3163
801.614	43.3478
804.507	66.9346
807.4	106.829
810.292	165.606
813.185	271.34
816.078	453.241
818.971	763.444
821.863	1196.91
824.756	1274.97
827.649	844.313
830.541	502.75
833.434	345.317
836.327	282.966
839.219	257.275
842.112	263.543
845.005	327.858
847.898	471.454
850.79	727.54
853.683	1061.16
856.576	1180.88
859.468	870.972
862.361	535.568
865.254	340.174
868.146	216.731
871.039	144.642
873.932	109.473
876.824	99.5178
879.717	119.415
882.61	130.79
885.503	80.7255
888.395	32.0038
891.288	11.8138
894.181	0.687592
897.073	1.07086
899.966	3.24362
902.859	4.62579
905.751	0.03064
908.644	7.6416
911.537	22.0928
914.43	48.857
917.322	104.761
920.215	133.337
923.108	56.4932
926	13.9467
928.893	2.02029
931.786	2.06802
934.678	2.01099
937.571	0.286926
940.464	0.962616
943.357	10.6442
946.249	17.0608
949.142	32.6842
952.035	51.412
954.927	78.3187
957.82	106.221
960.713	129.191
963.606	133.825
966.498	109.741
969.391	76.9405
972.284	53.2679
975.176	36.9278
978.069	23.4455
980.962	12.4015
983.854	14.6559
986.747	9.25812
989.64	5.10654
992.533	2.8382
995.425	0.085632
998.318	2.82062
1001.21	0.73761
1004.1	0.656982
1007	0.991028
1009.89	2.24487
1012.78	1.96365
1015.67	4.01196
1018.57	2.76016
1021.46	3.54547
1024.35	3.99387
1027.24	3.0419
1030.14	2.51764
1033.03	3.88205
1035.92	3.83432
1038.82	2.51446
1041.71	1.37231
1044.6	4.02783
1047.49	1.79523
1050.39	0.687988
1053.28	1.2457
1056.17	3.21152
1059.07	5.47324
1061.96	2.97067
1064.85	1.2774
1067.74	0.50238
1070.63	0.29657
1073.53	0.155945
1076.42	0.649506
1079.31	2.23926
1082.21	2.63983
1085.1	1.33304
1087.99	0.11084
1090.88	1.41946
1093.78	2.47177
1096.67	3.12985
1099.56	2.56326
1102.45	2.32019
1105.35	2.53522
1108.24	3.64844
1111.13	3.01831
1114.03	1.90057
1116.92	3.42206
1119.81	6.46643
1122.7	2.96381
1125.6	1.99246
1128.49	2.56751
1131.38	2.43533
1134.28	2.27417
1137.17	3.28909
1140.06	1.95996
1142.95	1.21756
1145.85	2.99158
1148.74	2.61774
1151.63	2.00558
1154.52	2.17502
1157.42	3.64581
1160.31	3.51111
1163.2	3.38498
1166.09	2.2085
1168.99	2.50964
1171.88	1.65292
1174.77	3.25079
1177.66	1.73502
1180.56	0.845673
1183.45	0.728394
1186.34	1.53
1189.24	2.19858
1192.13	2.94983
1195.02	0.40097
1197.91	1.67133
1200.81	3.8588
1203.7	2.91055
1206.59	4.27234
1209.48	1.62085
1212.38	5.69284
1215.27	3.16016
1218.16	3.45139
1221.06	2.46744
1223.95	5.58133
1226.84	4.41507
1229.73	2.17209
1232.63	2.69369
1235.52	6.01053
1238.41	0.950684
1241.31	4.44604
1244.2	3.51364
1247.09	4.76828
1249.98	2.91003
1252.88	6.36694
1255.77	1.53177
1258.66	2.23599
1261.55	3.98959
1264.45	1.42194
1267.34	3.94269
1270.23	3.27368
1273.12	4.02557
1276.02	2.93994
1278.91	3.86826
1281.8	2.8186
1284.69	2.26389
1287.59	2.21866
1290.48	1.89453
1293.37	5.72565
1296.27	4.27216
1299.16	4.94244
1302.05	0.006927
