Measurement: Raman, 532 nm, unoriented, Raman Data Processed
Mineral: Forsterite
Rruff sample: R040052
Ideal chemistry: Mg_2_SiO_4_
Locality: Synthetic, Czochralski method
Source: Hideki Kanazawa of Kyoto University, Japan
Description: Colorless crystal fragments obtained from a boule.
Measured chemistry: Mg_2.00_Si_1.00_O_4_
Raman shift (cm-1)	intensity
135.986	0
138.878	55.014
141.771	49.1237
144.664	83.1741
147.556	81.6538
150.449	51.9006
153.342	45.3734
156.235	64.5166
159.127	103.332
162.02	112.471
164.913	120.013
167.805	101.666
170.698	76.8477
173.591	84.7577
176.483	81.3514
179.376	108.108
182.269	101.032
185.162	143.017
188.054	98.8208
190.947	78.7173
193.84	61.698
196.732	57.4614
199.625	37.8877
202.518	50.2161
205.411	56.6958
208.303	72.4316
211.196	42.3599
214.089	47.5112
216.981	97.3799
219.874	232.714
222.767	341.604
225.659	625.988
228.552	965.059
231.445	174
234.338	92.5562
237.23	96.9031
240.123	160.199
243.016	182.848
245.908	145.118
248.801	85.407
251.694	26.2866
254.587	12.8855
257.479	14.583
260.372	10.6763
263.265	12.0696
266.157	9.87988
269.05	37.4302
271.943	0.143311
274.835	22.5762
277.728	13.0459
280.621	4.99072
283.514	4.16894
286.406	26.5
289.299	53.5098
292.192	71.5193
295.084	197.57
297.977	365.544
300.87	655.343
303.762	1170.1
306.655	1033.39
309.548	317.309
312.44	146.391
315.333	123.657
318.226	156.413
321.119	169.423
324.011	273.649
326.904	424.242
329.797	615.682
332.689	475.428
335.582	377.76
338.475	481.347
341.368	508.372
344.26	213.128
347.153	70.1455
350.046	8.76831
352.938	30.0071
355.831	52.2876
358.724	1.14893
361.616	35.9324
364.509	63.1116
367.402	45.707
370.295	97.2214
373.187	164.801
376.08	177.387
378.973	32.6113
381.865	1.61206
384.758	42.9297
387.651	9.11938
390.543	54.5337
393.436	0.441162
396.329	33.6863
399.221	7.86816
402.114	37.9412
405.007	55.2014
407.9	45.7268
410.792	112.89
413.685	175.003
416.578	240.363
419.47	330.537
422.363	426.989
425.256	344.799
428.149	279.904
431.041	366.298
433.934	517.812
436.827	584.51
439.719	581.362
442.612	380.69
445.505	204.933
448.397	108.731
451.29	92.5198
454.183	50.4094
457.076	32.2585
459.968	42.0657
462.861	11.1826
465.754	4.53906
468.646	51.1165
471.539	44.5764
474.432	28.9819
477.325	24.1841
480.217	10.4568
483.11	9.84863
486.003	27.4229
488.895	17.334
491.788	18.8193
494.681	13.0796
497.573	1.33106
500.466	5.18604
503.359	5.29004
506.252	40.1453
509.144	15.2315
512.037	3.59253
514.93	9.73145
517.822	24.2981
520.715	60.5991
523.608	27.1101
526.5	52.2803
529.393	91.3462
532.286	98.5012
535.178	150.228
538.071	266.779
540.964	424.598
543.857	603.576
546.749	529.617
549.642	240.638
552.535	129.414
555.427	68.8545
558.32	91.9665
561.213	81.6152
564.106	90.5579
566.998	146.355
569.891	168.137
572.784	205.357
575.676	362.141
578.569	530.114
581.462	801.571
584.354	1029.8
587.247	1245.11
590.14	1013.12
593.033	836.705
595.925	697.641
598.818	687.868
601.711	771.006
604.603	1076.75
607.496	1399.5
610.389	1353.01
613.281	973.964
616.174	656.151
619.067	487.18
621.96	452.471
624.852	402.889
627.745	395.238
630.638	353.933
633.53	294.087
636.423	236.332
639.316	179.12
642.208	89.2932
645.101	94.7944
647.994	94.6392
650.887	81.2163
653.779	68.2515
656.672	68.1155
659.565	25.6628
662.457	25.1294
665.35	14.5749
668.243	20.9705
671.135	7.85376
674.028	10.6558
676.921	9.5332
679.814	21.5125
682.706	24.1953
685.599	54.0925
688.492	50.9695
691.384	46.3828
694.277	25.075
697.17	64.7705
700.062	39.1462
702.955	56.1645
705.848	59.728
708.741	95.9058
711.633	90.0085
714.526	108.899
717.419	93.1096
720.311	118.681
723.204	61.7483
726.097	66.0432
728.99	68.5034
731.882	99.8191
734.775	79.5425
737.668	51.0979
740.56	25.1148
743.453	30.5217
746.346	65.4363
749.238	29.1811
752.131	44.4934
755.024	12.5832
757.917	36.0413
760.809	33.6609
763.702	20.9404
766.595	12.4856
769.487	12.6177
772.38	19.9321
775.273	14.9319
778.165	4.79224
781.058	59.6289
783.951	4.2688
786.844	47.6628
789.736	51.7781
792.629	111.273
795.522	115.315
798.414	185.496
801.307	315.301
804.2	477.539
807.092	758.708
809.985	1395.13
812.878	2167.36
815.771	3639.24
818.663	5873.4
821.556	8941.54
824.449	11440.6
827.341	8643.25
830.234	4718.85
833.127	3061.71
836.019	2510.02
838.912	2672.31
841.805	3561.45
844.698	5321.34
847.59	8367.13
850.483	12923.5
853.376	19342.5
856.268	24963.4
859.161	19449
862.054	9555.88
864.947	5011.63
867.839	3175.77
870.732	2457.68
873.625	2340.37
876.517	2755.3
879.41	3662.82
882.303	4553.06
885.195	2856.21
888.088	1165.83
890.981	504.348
893.874	325.102
896.766	105.383
899.659	16.8852
902.552	53.8081
905.444	54.5239
908.337	11.7979
911.23	79.9565
914.122	196.628
917.015	399.005
919.908	743.209
922.801	367.444
925.693	48.0767
928.586	26.5503
931.479	12.8242
934.371	3.72119
937.264	39.9639
940.157	140.756
943.049	214.05
945.942	321.647
948.835	513.607
951.727	758.352
954.62	1216.45
957.513	1744.56
960.406	2476.7
963.298	3422.29
966.191	3831.08
969.084	2457.74
971.976	1144.19
974.869	602.881
977.762	340.007
980.654	184.908
983.547	105.29
986.44	46.1494
989.333	28.6045
992.225	29.5312
995.118	9.57373
998.011	20.9424
1000.9	30.2349
1003.8	16.2617
1006.69	11.7627
1009.58	4.98291
1012.47	14.5562
1015.37	0.062988
1018.26	17.9648
1021.15	11.6694
1024.05	28.6631
1026.94	59.438
1029.83	129.632
1032.72	17.1562
1035.62	74.6821
1038.51	48.1948
1041.4	54.4341
1044.29	111.546
1047.19	93.9331
1050.08	92.7495
1052.97	77.5986
1055.87	96.6733
1058.76	74.1743
1061.65	65.4004
1064.54	5.76074
1067.44	46.248
1070.33	63.3887
1073.22	21.3467
1076.11	8.99268
1079.01	8.29248
1081.9	43.085
1084.79	74.0151
1087.68	53.6528
1090.58	36.9375
1093.47	22.6352
1096.36	52.148
1099.26	37.8232
1102.15	73.167
1105.04	1.45068
1107.93	46.4522
1110.83	69.7954
1113.72	49.6299
1116.61	43.5464
1119.5	22.4219
1122.4	47.77
1125.29	45.5947
1128.18	95.3506
1131.08	1.55957
1133.97	47.3345
1136.86	58.9346
1139.75	43.1846
1142.65	71.9019
1145.54	85.7295
1148.43	77.4238
1151.32	100.63
1154.22	56.0806
1157.11	106.235
1160	16.998
1162.89	63.9341
1165.79	118.811
1168.68	38.27
1171.57	83.1641
1174.47	42.2871
1177.36	49.8984
1180.25	57.4668
1183.14	63.5557
1186.04	25.3359
1188.93	32.6489
1191.82	15.7485
1194.71	27.9961
1197.61	14.4414
1200.5	2.26856
1203.39	6.37549
1206.29	10.0581
1209.18	10.9141
1212.07	83.2959
1214.96	71.7622
1217.86	31.3818
1220.75	44.5483
1223.64	59.7197
1226.53	13.7612
1229.43	13.7993
1232.32	62.331
1235.21	79.6362
1238.11	44.2959
1241	40.3931
1243.89	42.1069
1246.78	15.5947
1249.68	43.4326
1252.57	59.5298
