Measurement: Raman, 785 nm, unoriented, Raman Data Processed
Mineral: Forsterite
Rruff sample: R040052
Ideal chemistry: Mg_2_SiO_4_
Locality: Synthetic, Czochralski method
Source: Hideki Kanazawa of Kyoto University, Japan
Description: Colorless crystal fragments obtained from a boule.
Measured chemistry: Mg_2.00_Si_1.00_O_4_
Raman shift (cm-1)	intensity
92.6011	0
95.4938	6.27751
98.3865	24.7193
101.279	33.0674
104.172	11.9128
107.065	28.1653
109.957	21.7426
112.85	49.1009
115.743	72.2993
118.635	9.60039
121.528	3.35132
124.421	129.582
127.314	385.134
130.206	552.287
133.099	248.637
135.992	87.3251
138.884	110.87
141.777	198.041
144.67	303.948
147.562	299.003
150.455	220.183
153.348	198.608
156.24	245.905
159.133	215.846
162.026	245.82
164.919	226.649
167.811	215.27
170.704	187.982
173.597	156.889
176.489	165.621
179.382	156.199
182.275	156.477
185.167	191.695
188.06	131.023
190.953	77.4542
193.846	88.3288
196.738	77.894
199.631	74.0933
202.524	58.6792
205.416	42.713
208.309	56.3028
211.202	51.0076
214.095	57.5912
216.987	46.641
219.88	113.403
222.773	208.195
225.665	424.793
228.558	635.417
231.451	133.339
234.343	52.7614
237.236	87.6953
240.129	122.666
243.022	151.204
245.914	66.9811
248.807	38.4644
251.7	13.3654
254.592	19.7034
257.485	5.59827
260.378	3.64612
263.27	4.95728
266.163	4.99933
269.056	0.887939
271.949	4.73419
274.841	17.7581
277.734	7.89154
280.627	11.4092
283.519	11.5746
286.412	6.07611
289.305	3.84051
292.197	33.4951
295.09	119.727
297.983	323.654
300.875	665.334
303.768	1345.21
306.661	1103.51
309.554	300.086
312.446	126.203
315.339	87.3602
318.232	91.2294
321.124	40.7884
324.017	105.296
326.91	174.92
329.803	223.341
332.695	126.904
335.588	96.4188
338.481	105.712
341.373	96.4622
344.266	67.3907
347.159	44.3239
350.051	27.7479
352.944	0.008301
355.837	2.73248
358.729	15.8671
361.622	8.47339
364.515	26.9331
367.408	27.1872
370.3	51.136
373.193	51.3036
376.086	71.276
378.978	11.6404
381.871	9.10248
384.764	9.38074
387.656	6.51239
390.549	15.5122
393.442	5.89911
396.335	5.13477
399.227	16.387
402.12	17.9899
405.013	26.3887
407.905	38.7457
410.798	54.1943
413.691	61.4429
416.584	123.951
419.476	184.89
422.369	223.135
425.262	176.242
428.154	144.889
431.047	228.13
433.94	395.659
436.832	484.218
439.725	434.414
442.618	263.534
445.51	157.333
448.403	101.762
451.296	67.0538
454.189	43.0269
457.081	39.407
459.974	54.6348
462.867	49.4143
465.759	41.363
468.652	12.0867
471.545	14.2841
474.438	13.514
477.33	22.8947
480.223	3.89917
483.116	10.3994
486.008	17.2567
488.901	15.3636
491.794	5.59668
494.686	3.85626
497.579	18.3895
500.472	22.598
503.365	9.29553
506.257	9.60284
509.15	24.6143
512.043	8.2215
514.935	0.371765
517.828	7.19873
520.721	17.0398
523.613	4.92133
526.506	9.5968
529.399	14.8445
532.292	1.68347
535.184	4.91852
538.077	44.4238
540.97	53.5055
543.862	139.199
546.755	140.065
549.648	70.8797
552.54	25.0303
555.433	29.4413
558.326	25.3917
561.218	17.5559
564.111	23.9612
567.004	24.2965
569.897	30.422
572.789	89.9409
575.682	138.948
578.575	251.565
581.467	388.088
584.36	556.645
587.253	636.54
590.145	498.712
593.038	379.357
595.931	389.735
598.824	527.772
601.716	797.542
604.609	1258.61
607.502	1759.45
610.394	1710.64
613.287	1087.35
616.18	624.572
619.072	355.009
621.965	240.609
624.858	157.346
627.751	106.61
630.643	92.807
633.536	78.8669
636.429	34.0151
639.321	44.2745
642.214	26.9918
645.107	36.4929
648	23.6795
650.892	12.5753
653.785	34.2969
656.678	6.6792
659.57	14.753
662.463	24.7546
665.356	0.828003
668.248	1.23682
671.141	20.8326
674.034	5.86664
676.927	18.712
679.819	0.856567
682.712	5.82343
685.605	2.2489
688.497	3.55853
691.39	29.6947
694.283	19.6886
697.175	34.8462
700.068	36.8182
702.961	12.9172
705.854	30.4053
708.746	41.4243
711.639	33.0502
714.532	32.3023
717.424	33.7729
720.317	18.4565
723.21	22.427
726.102	0.067627
728.995	28.4956
731.888	28.5331
734.78	31.4751
737.673	31.3953
740.566	28.7253
743.459	26.3094
746.351	41.2681
749.244	2.18152
752.137	1.93689
755.029	3.36597
757.922	2.58398
760.815	9.01343
763.707	3.40442
766.6	18.9789
769.493	13.8473
772.386	12.7264
775.278	15.8908
778.171	29.8315
781.064	43.29
783.956	59.9183
786.849	62.2153
789.742	64.1967
792.635	84.047
795.527	140.204
798.42	137.225
801.313	187.209
804.205	322.369
807.098	541.798
809.991	801.936
812.883	1342.67
815.776	2288.23
818.669	4097.11
821.562	6976.3
824.454	9474.23
827.347	7170.19
830.24	3629.56
833.132	2048.45
836.025	1457.03
838.918	1238.23
841.81	1252.39
844.703	1729.78
847.596	2780.26
850.489	4951.43
853.381	8645.99
856.274	12519.3
859.167	10211.3
862.059	4976.44
864.952	2520.8
867.845	1576.62
870.737	1084.89
873.63	966.284
876.523	1131.09
879.415	1641.06
882.308	1999.96
885.201	1209.99
888.094	521.128
890.986	259.657
893.879	115.491
896.772	50.4498
899.664	9.21228
902.557	2.44458
905.45	12.2769
908.342	7.38586
911.235	7.25146
914.128	24.517
917.021	66.8158
919.913	135.049
922.806	43.425
925.699	3.68176
928.591	8.71106
931.484	9.89429
934.377	14.0566
937.269	20.9374
940.162	19.3395
943.055	49.4985
945.948	55.6405
948.84	126.245
951.733	179.267
954.626	288.326
957.518	514.264
960.411	910.788
963.304	1534.71
966.197	1932.03
969.089	1392.02
971.982	715.668
974.875	399.288
977.767	268.385
980.66	182.985
983.553	108.014
986.445	85.882
989.338	65.7845
992.231	52.7391
995.124	66.218
998.016	25.6503
1000.91	62.0779
1003.8	47.6185
1006.69	47.7117
1009.59	7.6991
1012.48	42.4595
1015.37	11.2615
1018.26	6.36609
1021.16	26.9807
1024.05	26.0426
1026.94	3.29675
1029.84	16.6129
1032.73	18.5579
1035.62	35.6815
1038.51	22.5898
1041.41	38.807
1044.3	23.1545
1047.19	32.4917
1050.09	20.4683
1052.98	34.5189
1055.87	20.0736
1058.76	41.045
1061.66	41.2335
1064.55	31.8696
1067.44	31.177
1070.33	55.9661
1073.23	16.3506
1076.12	25.2798
1079.01	31.4733
1081.9	14.5457
1084.8	2.5437
1087.69	17.5146
1090.58	10.0666
1093.47	18.5291
1096.37	11.9277
1099.26	2.17151
1102.15	40.0918
1105.05	31.1543
1107.94	19.7485
1110.83	23.7679
1113.72	34.3125
1116.62	22.121
1119.51	11.8518
1122.4	23.9852
1125.3	15.3674
1128.19	29.8204
1131.08	22.011
1133.97	15.7161
1136.87	18.1835
1139.76	46.7721
1142.65	11.0383
1145.54	30.4424
1148.44	6.59766
1151.33	19.5345
1154.22	55.9239
1157.12	16.4562
1160.01	2.70056
1162.9	32.7455
1165.79	24.9051
1168.68	23.148
1171.58	46.9355
1174.47	33.1835
1177.36	33.3073
1180.26	13.0372
