Measurement: Raman, 514 nm, unoriented, Raman Data Processed
Mineral: Forsterite
Rruff sample: R040052
Ideal chemistry: Mg_2_SiO_4_
Locality: Synthetic, Czochralski method
Source: Hideki Kanazawa of Kyoto University, Japan
Description: Colorless crystal fragments obtained from a boule.
Measured chemistry: Mg_2.00_Si_1.00_O_4_
Raman shift (cm-1)	intensity
115.644	0
119.813	76.043
123.981	3.958
128.146	49.868
132.309	189.096
136.47	334.103
140.63	704.084
144.787	479.333
148.942	227.331
153.096	67.988
157.247	49.274
161.396	43.728
165.544	61.286
169.689	17.032
173.833	48.799
177.974	171.014
182.114	322.451
186.251	340.439
190.387	77.48
194.52	102.433
198.652	55.768
202.782	37.55
206.909	124.648
211.035	46.983
215.159	65.543
219.281	158.399
223.4	893.398
227.518	1413.37
231.634	436.237
235.748	62.095
239.86	73.37
243.97	75.271
248.079	29.875
252.185	6.797
256.289	66.492
260.391	56.629
264.492	33.672
268.59	13.601
272.687	114.419
276.781	2.111
280.874	39.993
284.964	165.193
289.053	193.715
293.14	350.903
297.225	1045.86
301.308	3440.28
305.389	4916.92
309.468	1506.02
313.545	432.762
317.62	204.483
321.693	223.242
325.765	502.944
329.834	581.258
333.902	355.569
337.967	179.399
342.031	88.09
346.093	102.346
350.153	26.209
354.21	32.896
358.267	99.262
362.321	97.482
366.373	104.267
370.423	88.615
374.471	99.831
378.518	117.808
382.563	88.167
386.605	99.197
390.646	107.195
394.685	87.146
398.722	162.96
402.757	115.674
406.79	154.333
410.821	211.86
414.851	245.687
418.878	581.033
422.904	675.315
426.927	320.734
430.949	174.761
434.969	290.535
438.987	215.268
443.003	143.15
447.018	87.955
451.03	27.33
455.041	110.176
459.049	33.459
463.056	15.59
467.061	61.566
471.064	1.371
475.065	60.962
479.064	61.631
483.062	30.509
487.057	22.518
491.051	64.357
495.043	41.073
499.032	38.676
503.02	33.589
507.007	48.688
510.991	52.124
514.973	90.809
518.954	133.319
522.933	49.97
526.91	70.182
530.885	79.727
534.858	133.666
538.829	88.5
542.799	256.946
546.766	309.872
550.732	213.688
554.696	178.807
558.658	128.883
562.618	118.878
566.576	194.765
570.533	255.573
574.488	226.302
578.44	342.95
582.391	646.518
586.341	737.014
590.288	795.435
594.233	1036.5
598.177	1757.09
602.119	3531.31
606.059	6893.46
609.997	7971.43
613.933	4564.46
617.868	2135.18
621.801	1132.32
625.731	635.188
629.66	530.555
633.588	409.626
637.513	268.232
641.437	203.851
645.358	186.394
649.278	209.806
653.196	32.576
657.113	148.726
661.027	138.067
664.94	26.982
668.851	14.952
672.76	57.76
676.667	5.539
680.572	3.597
684.476	36.335
688.378	8.366
692.278	31.63
696.176	61.307
700.072	25.248
703.967	23.238
707.86	81.146
711.751	84.062
715.64	49.027
719.527	87.955
723.413	161.016
727.297	42.047
731.179	221.143
735.059	129.307
738.937	250.541
742.814	207.848
746.689	326.234
750.562	296.7
754.433	189.248
758.303	326.884
762.17	389.608
766.036	472.441
769.901	423.534
773.763	487.792
777.624	618.17
781.482	638.687
785.339	723.357
789.195	782.186
793.048	1023.19
796.9	1303.42
800.75	1523.92
804.598	2049.66
808.445	3204.58
812.289	4916.68
816.132	8755.56
819.973	19860.3
823.813	40385.1
827.65	34125.7
831.486	15030.6
835.32	7974.33
839.152	6005.12
842.983	6122.67
846.812	8713.67
850.639	16553.6
854.464	38817.7
858.288	53425.4
862.11	25029.3
865.93	10632.9
869.748	5621.64
873.564	3752.56
877.379	3375.64
881.192	4026.88
885.004	3321.26
888.813	1566.79
892.621	912.473
896.427	718.314
900.232	474.307
904.034	354.445
907.835	226.72
911.634	240.172
915.432	122.714
919.227	98.224
923.021	139.172
926.813	68.311
930.604	23.375
934.393	40.747
938.18	161.03
941.965	142.363
945.749	342.406
949.53	416.241
953.311	772.135
957.089	1516.97
960.866	3382.81
964.641	7965.87
968.414	9383.38
972.185	4370.25
975.955	2007.61
979.723	1008.17
983.49	529.873
987.254	472.986
991.017	330.347
994.779	390.342
998.538	218.121
1002.3	347.365
1006.05	185.068
1009.81	59.809
1013.56	128.258
1017.31	3.034
1021.06	7.435
1024.81	58.381
1028.55	166.282
1032.3	10.103
1036.04	123.602
1039.78	149.021
1043.52	104.114
1047.26	98.083
1050.99	183.106
1054.73	68.058
1058.46	11.18
1062.19	127.294
1065.92	106.127
1069.65	176.577
1073.37	185.724
1077.1	102.943
1080.82	128.109
1084.54	48.949
1088.26	205.525
1091.97	59.969
1095.69	21.758
1099.4	7.197
1103.12	36.169
1106.83	39.677
1110.54	53.043
1114.24	4.526
1117.95	13.135
1121.65	49.751
1125.35	107.123
1129.06	47.635
1132.75	102.224
1136.45	48.868
1140.15	158.542
1143.84	26.523
1147.53	133.603
1151.22	152.211
1154.91	131.746
1158.6	93.627
1162.28	69.391
1165.97	113.137
1169.65	139.828
1173.33	105.405
1177.01	121.475
1180.69	199.667
1184.36	155.601
1188.04	81.081
1191.71	97.352
1195.38	90.072
1199.05	168.597
1202.71	98.934
1206.38	243.614
1210.04	166.284
1213.71	265.572
1217.37	265.685
1221.03	186.429
1224.68	134.609
1228.34	182.721
1231.99	283.346
1235.65	338.03
1239.3	334.468
1242.95	373.724
1246.59	193.419
1250.24	76.125
1253.88	167.29
1257.53	161.36
1261.17	120.093
1264.81	195.062
1268.45	186.206
1272.08	111.185
1275.72	173.186
1279.35	79.331
1282.98	119.963
1286.61	90.365
1290.24	24.825
1293.87	26.214
1297.49	8.562
1301.11	21.937
1304.73	14.278
1308.36	29.613
1311.97	210.798
1315.59	39.985
1319.2	98.177
1322.82	45.606
1326.43	89.64
1330.04	0.476
1333.65	95.356
1337.26	126.125
1340.86	89.951
1344.47	70.95
1348.07	198.103
1351.67	86.19
1355.27	219.411
1358.87	183.616
1362.46	186.114
1366.06	238.32
1369.65	252.462
1373.24	277.859
1376.83	201.304
1380.42	111.924
1384	135.352
1387.59	238.131
1391.17	166.081
1394.75	179.652
1398.33	270.362
1401.91	209.71
1405.49	228.502
1409.06	49.745
1412.64	173.577
1416.21	319.086
1419.78	201.924
1423.35	257.662
1426.91	261.294
1430.48	216.621
1434.05	247.724
1437.61	367.79
1441.17	301.708
1444.73	260.501
1448.29	340.526
1451.84	217.231
1455.4	302.498
1458.95	251.454
1462.5	349.004
1466.05	211.203
1469.6	170.077
1473.15	268.973
1476.69	231.931
1480.24	240.412
1483.78	106.107
1487.32	147.115
1490.86	88.612
1494.39	296.95
1497.93	264.657
1501.46	118.648
1505	80.359
1508.53	67.281
1512.06	59.476
1515.59	173.256
1519.11	83.624
1522.64	0
