Measurement: Raman, 532 nm, unoriented, Raman Data Processed
Mineral: Foshagite
Rruff sample: R070098
Ideal chemistry: Ca_4_(SiO_3_)_3_(OH)_2_
Locality: Crestmore, Califonia, USA
Source: Michael Scott
Description: Silky white compact mass
Raman shift (cm-1)	intensity
151.146	0
154.521	346.586
157.896	217.555
161.271	236.824
164.646	817.746
168.02	1077.08
171.395	1471.68
174.77	1180.89
178.145	953.258
181.52	731.211
184.894	547.5
188.269	352.797
191.644	366.016
195.019	346.812
198.394	371.305
201.769	394.266
205.143	634.75
208.518	783.992
211.893	840.144
215.268	703.062
218.643	773.231
222.018	671.047
225.392	674.465
228.767	539.641
232.142	619.141
235.517	431.359
238.892	544.93
242.266	448.988
245.641	302.734
249.016	29.6914
252.391	155.828
255.766	261.566
259.14	100.856
262.515	15.6641
265.89	396.562
269.265	774.848
272.64	1319.2
276.014	1903.32
279.389	2227.63
282.764	2602.73
286.139	2281.08
289.514	2161.94
292.889	2259.71
296.263	2177.12
299.638	2290.58
303.013	2225.41
306.388	2328.75
309.763	2390.06
313.137	2187.48
316.512	2354.35
319.887	2507.23
323.262	2784.54
326.637	2699.02
330.012	2494.63
333.386	1872.8
336.761	1626.67
340.136	1189.22
343.511	1135.04
346.886	924.68
350.26	854.543
353.635	1008.62
357.01	989.461
360.385	904.148
363.76	941.863
367.134	845.129
370.509	371.055
373.884	145.938
377.259	52.5195
380.634	355.836
384.009	104.719
387.383	151.441
390.758	214.332
394.133	261.25
397.508	380.973
400.883	387.121
404.257	201.981
407.632	262.684
411.007	145.457
414.382	309.633
417.757	39.5586
421.131	248.648
424.506	439.988
427.881	487.348
431.256	918.082
434.631	1295.72
438.005	1454
441.38	1646.73
444.755	1855.04
448.13	1827.21
451.505	1894.36
454.88	1492.26
458.254	1438.72
461.629	1329.62
465.004	1225.84
468.379	1201.31
471.754	1113.84
475.128	1088.38
478.503	1513.76
481.878	1176.25
485.253	1129.57
488.628	808.312
492.002	683.473
495.377	353.527
498.752	188.449
502.127	164.922
505.502	159.734
508.877	68.6367
512.251	120.602
515.626	267.293
519.001	263.32
522.376	382.367
525.751	637.434
529.125	737.578
532.5	786.562
535.875	690.148
539.25	766.594
542.625	449.547
546	319.359
549.374	277.102
552.749	64.9375
556.124	77.2188
559.499	52.9844
562.874	30.8359
566.248	164.141
569.623	93.9922
572.998	46.4141
576.373	87.6016
579.748	71.8281
583.122	20.2969
586.497	100.367
589.872	88.4688
593.247	12.3203
596.622	163.461
599.996	170.414
603.371	281.43
606.746	578.125
610.121	456.742
613.496	798.391
616.871	839.625
620.245	1063.04
623.62	1132.59
626.995	1160.94
630.37	1553.69
633.745	1773.14
637.119	2166.71
640.494	3034.23
643.869	4343.63
647.244	5956.45
650.619	9074.28
653.994	13129.4
657.368	18504.9
660.743	23068.6
664.118	25540.9
667.493	23742.7
670.868	19083
674.242	14140.3
677.617	9929.81
680.992	7709.51
684.367	5647.31
687.742	4094.61
691.116	3034.59
694.491	2248.46
697.866	1762.69
701.241	1457.92
704.616	1283.26
707.99	1005.7
711.365	624.477
714.74	529.336
718.115	407.953
721.49	283.531
724.865	102.992
728.239	192.836
731.614	102.719
734.989	142.82
738.364	7.28125
741.739	14.1094
745.114	38.1172
748.488	92.7266
751.863	3.64062
755.238	57.8047
758.613	56.7109
761.987	126.195
765.362	121.133
768.737	105.305
772.112	366.672
775.487	350.445
778.862	614.594
782.236	762.164
785.611	1016.14
788.986	722.883
792.361	434.562
795.736	88.7344
799.111	218.352
802.485	223.289
805.86	451.727
809.235	159.18
812.61	212.781
815.985	219.406
819.359	294.641
822.734	226.367
826.109	302.461
829.484	366.961
832.859	193.977
836.233	460.359
839.608	539.227
842.983	371.742
846.358	397.016
849.733	448.312
853.107	665.922
856.482	658.109
859.857	740.945
863.232	539.766
866.607	523.07
869.981	480.07
873.356	122.633
876.731	301.445
880.106	135.773
883.481	214.656
886.856	332.195
890.23	113.906
893.605	179.977
896.98	35.3203
900.355	17.2344
903.73	4.73438
907.105	33.4766
910.479	101.93
913.854	2.03906
917.229	33.9531
920.604	21.8281
923.979	134.391
927.353	108.055
930.728	16.1641
934.103	297.867
937.478	1412.91
940.853	3178.02
944.227	4142.69
947.602	4537.16
950.977	1685.94
954.352	424.875
957.727	52.7266
961.101	202.031
964.476	59.8125
967.851	21.4922
971.226	17.5078
974.601	104.82
977.976	563.586
981.35	1338.34
984.725	2471.3
988.1	4019.49
991.475	5872.56
994.85	7059.74
998.224	7493.75
1001.6	6373.24
1004.97	5028.03
1008.35	3714.91
1011.72	2944.09
1015.1	2637.62
1018.47	2554.5
1021.85	2994.44
1025.22	3718.8
1028.6	4374.29
1031.97	4467.73
1035.35	4427.91
1038.72	3800.62
1042.1	3168.51
1045.47	2883.09
1048.85	2907.19
1052.22	2806.18
1055.6	2705.79
1058.97	2610.09
1062.35	2636.87
1065.72	2196.13
1069.1	1986.04
1072.47	1428.07
1075.85	1388.91
1079.22	1848.25
1082.6	2676.52
1085.97	3290.51
1089.34	1502.69
1092.72	200.172
1096.09	250.219
1099.47	123.391
1102.84	15.1172
1106.22	56.9375
1109.59	59.3438
1112.97	108.836
1116.34	83.8516
1119.72	110.383
1123.09	343.969
1126.47	143.297
1129.84	233.289
1133.22	454.828
1136.59	299.539
1139.97	268.172
1143.34	432.875
1146.72	252.352
1150.09	273.883
1153.47	196.242
1156.84	57.7969
1160.21	135.844
1163.59	137.414
1166.96	432.688
1170.34	402.523
1173.71	80.9453
1177.09	43.3047
1180.46	278.57
1183.84	96.1875
1187.21	140.258
1190.59	274.234
1193.96	287.383
1197.34	421.906
1200.71	242.234
1204.09	305.312
1207.46	222.453
1210.84	124.086
1214.21	187.25
1217.59	91.9375
1220.96	266.969
1224.34	208.75
1227.71	222.992
1231.09	142.82
1234.46	105.547
1237.84	144.383
1241.21	172.961
1244.59	136.406
1247.96	202.219
1251.34	197.227
1254.71	206.969
1258.09	321.602
1261.46	190.953
1264.84	183.883
1268.21	47.5
1271.58	147.805
1274.96	230.023
1278.33	260.742
1281.71	247.219
1285.08	477.844
1288.46	293.125
1291.83	178.141
1295.21	283.484
1298.58	191.18
1301.96	74.9922
1305.33	92.7422
1308.71	0
