Measurement: Raman, 785 nm, unoriented, Raman Data Processed
Mineral: Foshagite
Rruff sample: R070098
Ideal chemistry: Ca_4_(SiO_3_)_3_(OH)_2_
Locality: Crestmore, Califonia, USA
Source: Michael Scott
Description: Silky white compact mass
Raman shift (cm-1)	intensity
142.523	0
145.416	141.567
148.308	446.016
151.201	661.041
154.094	624.009
156.986	410.967
159.879	338.561
162.772	362.792
165.665	419.332
168.557	428.268
171.45	446.594
174.343	364.387
177.235	274.267
180.128	210.266
183.021	137.68
185.913	94.4075
188.806	67.4397
191.699	16.5476
194.591	6.45923
197.484	20.1899
200.377	101.364
203.27	57.6125
206.162	44.0335
209.055	78.0193
211.948	73.8308
214.84	26.1709
217.733	93.1956
220.626	59.6501
223.518	45.6587
226.411	37.7942
229.304	1.72192
232.197	36.2976
235.089	18.3473
237.982	19.9528
240.875	33.3679
243.767	50.819
246.66	28.3971
249.553	24.8054
252.446	35.9443
255.338	55.4456
258.231	41.2584
261.124	4.29614
264.016	112.621
266.909	194.728
269.802	333.402
272.694	433.16
275.587	596.046
278.48	737.795
281.373	824.758
284.265	824.806
287.158	746.976
290.051	697.781
292.943	633.862
295.836	660.726
298.729	683.697
301.621	708.421
304.514	659.82
307.407	695.227
310.3	673.899
313.192	645.882
316.085	672.37
318.978	667.002
321.87	658.85
324.763	756.83
327.656	737.202
330.548	674.395
333.441	573.541
336.334	470.138
339.226	382.023
342.119	339.12
345.012	250.557
347.905	233.497
350.797	249.955
353.69	221.791
356.583	248.833
359.475	279.487
362.368	248.699
365.261	202.994
368.154	161.634
371.046	84.9819
373.939	51.0134
376.832	26.0273
379.724	10.6116
382.617	29.5373
385.51	28.3317
388.402	53.2424
391.295	7.15662
394.188	57.5424
397.08	84.5447
399.973	110.986
402.866	78.3273
405.759	39.2671
408.651	35.6719
411.544	10.1595
414.437	8.34473
417.329	2.10754
420.222	1.45252
423.115	35.7312
426.007	117.466
428.9	102.668
431.793	186.725
434.686	230.569
437.578	296.999
440.471	353.533
443.364	400.738
446.256	420.284
449.149	437.781
452.042	371.447
454.935	350.225
457.827	299.753
460.72	322.137
463.613	294.403
466.505	262.516
469.398	244.725
472.291	267.861
475.183	273.18
478.076	284.303
480.969	284.209
483.861	277.093
486.754	266.502
489.647	209.293
492.54	138.191
495.432	84.814
498.325	49.0825
501.218	40.0222
504.111	65.5211
507.003	4.88098
509.896	0.623413
512.789	1.00598
515.681	54.0139
518.574	52.8648
521.467	69.1804
524.359	116.87
527.252	142.814
530.145	179.79
533.038	174.141
535.93	196.115
538.823	180.556
541.716	117.805
544.608	109.508
547.501	55.3231
550.394	21.3066
553.286	3.06
556.179	8.76569
559.072	5.92725
561.965	16.6244
564.857	17.067
567.75	14.4795
570.643	9.88422
573.535	13.0207
576.428	9.56335
579.321	3.30524
582.213	3.51379
585.106	22.5045
587.999	1.2428
590.891	3.77753
593.784	3.93408
596.677	12.1165
599.57	14.2946
602.462	31.325
605.355	57.365
608.248	72.7313
611.14	96.8407
614.033	105.467
616.926	111.208
619.818	125.699
622.711	168.189
625.604	207.981
628.497	214.554
631.389	244.037
634.282	286.38
637.175	400.691
640.067	549.435
642.96	716.216
645.853	975.536
648.745	1395.95
651.638	1962.49
654.531	2798.63
657.424	3798.9
660.316	4803.02
663.209	5654.76
666.102	5829.82
668.994	5333.73
671.887	4288.99
674.78	3236.1
677.673	2374.71
680.565	1846.87
683.458	1508.58
686.351	1144.15
689.243	847.624
692.136	657.678
695.029	488.401
697.921	400.747
700.814	320.031
703.707	287.405
706.6	221.814
709.492	226.318
712.385	219.138
715.278	127.584
718.17	90.9473
721.063	51.0422
723.956	88.7279
726.848	30.3215
729.741	10.8397
732.634	16.6706
735.527	25.2512
738.419	2.41412
741.312	40.0951
744.205	13.8061
747.097	4.58832
749.99	11.5077
752.883	16.1844
755.775	8.15979
758.668	22.2177
761.561	15.5979
764.454	25.5891
767.346	17.2585
770.239	14.3704
773.132	46.6569
776.024	84.9135
778.917	117.556
781.81	97.3386
784.702	170.646
787.595	182.27
790.488	125.827
793.381	90.0235
796.273	50.0655
799.166	55.0573
802.059	27.4894
804.951	20.2903
807.844	13.6973
810.737	15.984
813.63	51.2722
816.522	52.9208
819.415	10.2637
822.308	24.5972
825.2	30.2044
828.093	22.3362
830.986	69.4086
833.878	73.8414
836.771	53.3184
839.664	71.4407
842.557	78.9413
845.449	101.891
848.342	96.8344
851.235	93.1153
854.127	109.694
857.02	105.27
859.913	95.8524
862.805	77.4296
865.698	109.933
868.591	79.9334
871.484	42.6371
874.376	39.9536
877.269	54.5141
880.162	39.3734
883.054	39.6701
885.947	44.2958
888.84	8.33795
891.732	15.2332
894.625	36.3627
897.518	16.3172
900.41	19.1927
903.303	7.03442
906.196	13.8316
909.089	18.3705
911.981	3.11267
914.874	11.9321
917.767	6.84857
920.659	18.5001
923.552	31.5197
926.445	18.8861
929.337	23.5097
932.23	35.3997
935.123	59.0306
938.016	130.656
940.908	237.953
943.801	435.017
946.694	585.857
949.586	362.179
952.479	98.8807
955.372	29.2363
958.264	13.8407
961.157	27.1519
964.05	25.533
966.943	20.9045
969.835	16.8109
972.728	10.2989
975.621	41.8002
978.513	125.525
981.406	245.26
984.299	391.291
987.192	612.777
990.084	913.959
992.977	1213.69
995.87	1425.92
998.762	1478.48
1001.65	1343.84
1004.55	1064.68
1007.44	847.496
1010.33	679.619
1013.23	558.309
1016.12	491.017
1019.01	536.789
1021.9	562.641
1024.8	590.608
1027.69	689.137
1030.58	801.195
1033.47	842.461
1036.37	805.377
1039.26	778.006
1042.15	627.927
1045.05	544.299
1047.94	517.665
1050.83	514.219
1053.72	558.797
1056.62	477.771
1059.51	482.726
1062.4	459.936
1065.29	430.583
1068.19	379.205
1071.08	305.207
1073.97	273.172
1076.87	285.142
1079.76	322.206
1082.65	485.941
1085.54	854.86
1088.44	626.494
1091.33	179.183
1094.22	29.1186
1097.11	44.259
1100.01	13.7651
1102.9	4.01538
1105.79	24.1248
1108.68	8.05499
1111.58	15.3077
1114.47	5.10248
1117.36	12.5256
1120.26	1.87763
1123.15	16.234
1126.04	9.05634
1128.93	36.7217
1131.83	34.7161
1134.72	30.7186
1137.61	10.7979
1140.51	34.5118
1143.4	24.7656
1146.29	16.663
1149.18	12.6064
1152.08	33.1797
1154.97	45.6334
1157.86	68.5007
1160.75	46.9124
1163.65	53.9117
1166.54	51.8328
1169.43	43.8508
1172.32	71.8284
1175.22	63.394
1178.11	61.1519
1181	12.1893
1183.89	69.5551
1186.79	68.4291
1189.68	77.9863
1192.57	79.4086
1195.47	80.4567
1198.36	39.2636
1201.25	31.157
1204.14	19.9226
1207.04	69.6737
1209.93	60.4432
1212.82	86.225
1215.71	13.3691
1218.61	45.8229
1221.5	57.1219
1224.39	39.155
1227.29	36.3486
1230.18	16.9276
1233.07	6.23328
