Measurement: Raman, 532 nm, unoriented, Raman Data Processed
Mineral: Fourmarierite
Rruff sample: R100187
Ideal chemistry: Pb_1-x_O_3-2x_(UO_2_)_4_(OH)_4+2x_4H_2_O
Locality: Shinkolobwe mine, Kasolo, Katanga, Congo
Source: James Shigley
Description: Orange-yellow blocky to tabular crystals
Raman shift (cm-1)	intensity
174.924	0
177.816	4.18093
180.709	3.93097
183.602	0.060935
186.494	1.62095
189.387	2.29324
192.28	12.4421
195.173	7.26825
198.065	6.93117
200.958	5.21088
203.851	2.32649
206.743	3.93855
209.636	3.77047
212.529	8.7235
215.421	9.39341
218.314	9.52416
221.207	7.42401
224.1	13.5364
226.992	16.0703
229.885	18.2244
232.778	16.9585
235.67	18.7754
238.563	19.5424
241.456	16.034
244.348	17.6952
247.241	11.8493
250.134	14.7055
253.026	15.2003
255.919	13.6986
258.812	12.629
261.705	7.55602
264.597	5.80347
267.49	5.81997
270.383	3.88927
273.276	1.2377
276.168	0.89429
279.061	0.175175
281.954	3.17945
284.846	0.004832
287.739	3.95266
290.632	0.01833
293.524	0.706074
296.417	0.314883
299.31	0.282557
302.202	0.234452
305.095	0.12821
307.988	0.342952
310.881	0.009952
313.773	1.99721
316.666	2.32253
319.559	1.65283
322.451	2.78463
325.344	2.50358
328.237	7.18192
331.13	3.60771
334.022	7.01358
336.915	6.44029
339.808	2.23249
342.7	3.01048
345.593	6.78244
348.486	6.66851
351.378	8.53289
354.271	10.3745
357.164	13.4221
360.057	17.1767
362.949	21.8758
365.842	22.1151
368.735	28.3698
371.627	28.9261
374.52	28.7362
377.413	22.6803
380.305	13.4296
383.198	7.80221
386.091	5.51114
388.984	2.54282
391.876	1.99159
394.769	0.388842
397.662	0.696911
400.554	0.136749
403.447	0.013188
406.34	0.167093
409.233	0.027442
412.125	0.214328
415.018	0.140665
417.911	2.05583
420.803	2.82458
423.696	0.4198
426.589	5.42112
429.481	3.39575
432.374	5.00595
435.267	0.826264
438.159	2.11708
441.052	3.04416
443.945	4.28348
446.838	0.388883
449.73	7.5203
452.623	4.25156
455.516	9.36197
458.409	12.138
461.301	12.0227
464.194	15.2068
467.087	22.4685
469.979	23.3126
472.872	24.6161
475.765	27.6981
478.657	30.3976
481.55	35.5075
484.443	34.5942
487.336	33.0739
490.228	35.4437
493.121	36.5079
496.014	31.3792
498.906	30.3567
501.799	28.702
504.692	28.9427
507.584	22.2981
510.477	18.312
513.37	14.3997
516.263	7.8298
519.155	5.18011
522.048	2.81133
524.941	4.84349
527.833	2.04765
530.726	0.443138
533.619	0.322626
536.511	2.18729
539.404	0.568573
542.297	1.02528
545.19	2.77698
548.082	0.196428
550.975	0.970938
553.868	2.99637
556.76	0.079974
559.653	1.69891
562.546	1.2144
565.438	1.80256
568.331	1.17532
571.224	0.775836
574.117	2.97164
577.009	2.90216
579.902	2.44971
582.795	2.79483
585.687	2.20334
588.58	1.4651
591.473	3.18787
594.365	2.6355
597.258	4.70174
600.151	2.70392
603.044	3.35434
605.936	3.61959
608.829	1.33003
611.722	2.85143
614.614	1.87082
617.507	2.1403
620.4	0.193826
623.293	1.66283
626.185	1.50499
629.078	0.205556
631.971	0.146459
634.863	0.729301
637.756	0.391246
640.649	0.137856
643.542	0.240676
646.434	0.502954
649.327	0.907698
652.22	0.646464
655.112	0.285679
658.005	1.44665
660.898	0.222342
663.79	2.07264
666.683	5.93783
669.576	8.11303
672.468	9.1165
675.361	14.1927
678.254	23.357
681.147	35.197
684.039	45.6331
686.932	59.6482
689.825	79.7508
692.717	103.982
695.61	128.256
698.503	147.529
701.396	165.966
704.288	169.545
707.181	166.75
710.074	149.012
712.966	138.852
715.859	127.458
718.752	118.598
721.644	103.781
724.537	89.8197
727.43	73.1723
730.323	60.2598
733.215	50.0255
736.108	39.3016
739.001	28.3355
741.893	24.1584
744.786	17.5853
747.679	14.8576
750.572	11.9984
753.464	7.30215
756.357	8.89429
759.25	4.52458
762.142	2.35125
765.035	4.09295
767.928	5.03886
770.82	3.537
773.713	1.96852
776.606	0.844704
779.499	0.257919
782.391	0.342521
785.284	0.270009
788.177	0.393941
791.069	0.734509
793.962	0.476563
796.855	4.13328
799.747	4.54884
802.64	12.0468
805.533	14.7391
808.426	24.9221
811.318	31.0414
814.211	42.0097
817.104	54.3655
819.996	59.1024
822.889	61.4052
825.782	45.7614
828.674	29.2096
831.567	19.7102
834.46	11.276
837.353	6.36969
840.245	5.65628
843.138	1.44489
846.031	1.54091
848.923	0.068855
851.816	0.455295
854.709	0.132379
857.601	0.702584
860.494	0.11459
863.387	0.274657
866.28	0.472863
869.172	2.64727
872.065	0.93909
874.958	0.073866
877.851	2.03144
880.743	2.75677
883.636	2.9194
886.529	3.87778
889.421	4.16426
892.314	3.33094
895.207	3.10592
898.099	3.80915
900.992	5.85111
903.885	5.52011
906.778	6.05385
909.67	4.20278
912.563	4.21594
915.456	2.92337
918.348	3.37345
921.241	3.50533
924.134	2.02958
927.026	3.98535
929.919	2.4302
932.812	2.76885
935.705	0.221372
938.597	2.18202
941.49	2.96567
944.383	1.8927
947.275	1.8499
950.168	1.13311
953.061	0.327668
955.953	0.408306
958.846	1.31588
961.739	2.25601
964.631	2.06185
967.524	3.22432
970.417	0.784253
973.31	0.650622
976.202	3.97515
979.095	1.18981
981.988	1.38364
984.88	0.597611
987.773	2.59871
990.666	0.68539
993.559	2.21496
996.451	0.995972
999.344	3.56906
1002.24	3.6971
1005.13	2.36662
1008.02	2.23509
1010.91	1.11976
1013.81	0.11051
1016.7	0.849278
1019.59	1.89718
1022.49	0.326158
1025.38	2.36885
1028.27	0.398565
1031.16	0.663239
1034.06	0.099875
1036.95	0.14264
1039.84	0.067645
1042.73	2.85598
1045.63	0.189968
1048.52	3.28159
1051.41	0.891825
1054.31	1.7889
1057.2	2.96102
1060.09	0.758201
1062.98	0.266648
1065.88	2.0862
1068.77	1.65227
1071.66	3.25567
1074.55	1.55601
1077.45	0.052045
1080.34	4.235
1083.23	4.08151
1086.12	1.98036
1089.02	3.90396
1091.91	1.44711
1094.8	0.52686
1097.7	2.88569
1100.59	0.043058
1103.48	0.851501
1106.37	0.828132
1109.27	1.31126
1112.16	1.55344
1115.05	2.20848
1117.94	1.95824
1120.84	0.736118
1123.73	2.35486
1126.62	3.39988
1129.52	2.87843
1132.41	2.62557
1135.3	2.79349
1138.19	2.97525
1141.09	0.330036
1143.98	1.58999
1146.87	1.05516
1149.77	2.62022
1152.66	5.06157
1155.55	0.985205
1158.44	0.112814
1161.34	0.361078
1164.23	2.23207
1167.12	1.48725
1170.01	1.16318
1172.91	0.896905
1175.8	1.41934
1178.69	1.70434
1181.58	2.63325
1184.48	2.886
1187.37	1.94097
1190.26	1.79082
1193.15	0.200239
1196.05	2.89447
1198.94	0.167114
1201.83	1.63902
1204.73	0.088562
1207.62	1.5288
1210.51	0.845434
1213.4	0.825191
1216.3	2.42146
1219.19	0.104311
1222.08	1.92723
1224.97	2.13716
1227.87	3.09458
1230.76	2.36689
1233.65	2.52966
1236.55	4.0594
1239.44	1.23687
1242.33	0.03142
1245.22	0.469597
1248.12	0.051757
1251.01	1.53106
1253.9	2.16531
1256.8	1.85756
1259.69	3.1364
1262.58	1.52636
1265.47	1.8463
1268.37	1.53813
1271.26	2.50391
1274.15	1.46564
1277.04	2.23204
1279.94	0.733352
1282.83	4.60692
1285.72	4.2624
1288.61	0.704601
1291.51	2.0918
1294.4	1.0176
1297.29	2.33947
1300.18	0.827321
