Measurement: Raman, 780 nm, unoriented, Raman Data Processed
Mineral: Fourmarierite
Rruff sample: R100187
Ideal chemistry: Pb_1-x_O_3-2x_(UO_2_)_4_(OH)_4+2x_4H_2_O
Locality: Shinkolobwe mine, Kasolo, Katanga, Congo
Source: James Shigley
Description: Orange-yellow blocky to tabular crystals
Raman shift (cm-1)	intensity
161.477	0
164.369	3.05569
167.262	0.743767
170.155	3.14331
173.047	0.560127
175.94	0.264725
178.833	1.91511
181.726	3.56159
184.618	3.12193
187.511	2.15607
190.404	1.35628
193.296	3.36729
196.189	0.697014
199.082	1.69651
201.974	0.35862
204.867	0.210037
207.76	0.245277
210.652	3.24319
213.545	3.26421
216.438	3.05633
219.331	4.79744
222.223	3.06153
225.116	5.30996
228.009	5.34695
230.901	7.54951
233.794	6.35185
236.687	9.16315
239.579	7.81318
242.472	8.021
245.365	10.8353
248.257	8.28337
251.15	8.24677
254.043	6.20075
256.936	4.96259
259.828	3.92395
262.721	1.52584
265.614	2.87132
268.506	1.96424
271.399	1.06947
274.292	4.09385
277.185	0.660645
280.077	0.872932
282.97	1.22253
285.863	2.98373
288.755	2.94917
291.648	0.23278
294.541	2.43183
297.433	3.68713
300.326	2.87459
303.219	5.12763
306.111	2.92308
309.004	5.98486
311.897	4.15481
314.79	2.12662
317.682	4.73783
320.575	3.30042
323.468	4.12675
326.36	0.653915
329.253	5.00017
332.146	3.2337
335.038	3.76397
337.931	5.06869
340.824	3.85548
343.717	6.96053
346.609	6.17829
349.502	9.72957
352.395	8.61885
355.287	8.37308
358.18	9.43475
361.073	10.0261
363.965	7.58273
366.858	5.92196
369.751	4.30385
372.644	4.4542
375.536	1.06411
378.429	0.322708
381.322	0.603592
384.214	1.87949
387.107	0.11792
390	0.759819
392.892	1.00439
395.785	3.96179
398.678	3.88944
401.57	6.13086
404.463	6.27523
407.356	6.9163
410.249	6.72944
413.141	8.65349
416.034	9.94703
418.927	10.015
421.819	8.45466
424.712	11.359
427.605	11.1632
430.498	12.2608
433.39	13.3365
436.283	12.4302
439.176	13.5316
442.068	13.1442
444.961	13.3331
447.854	17.6548
450.746	18.0201
453.639	17.9713
456.532	21.6363
459.425	20.9463
462.317	21.7134
465.21	21.3661
468.103	23.7463
470.995	22.7739
473.888	22.8856
476.781	24.4134
479.673	21.0821
482.566	19.7485
485.459	18.2297
488.351	16.98
491.244	15.3346
494.137	11.4399
497.029	9.6212
499.922	7.19349
502.815	7.18392
505.708	7.00576
508.6	3.63385
511.493	5.18288
514.386	3.73566
517.278	2.32682
520.171	0.225628
523.064	3.40868
525.957	1.23709
528.849	1.23901
531.742	1.06217
534.635	1.60634
537.527	0.970249
540.42	1.66215
543.313	1.63944
546.205	0.76828
549.098	1.18232
551.991	2.66479
554.884	0.447838
557.776	0.949955
560.669	1.8244
563.562	1.84925
566.454	1.50813
569.347	0.930027
572.24	2.33603
575.132	2.23298
578.025	2.24599
580.918	2.87468
583.811	0.759155
586.703	0.150146
589.596	1.77026
592.489	0.88995
595.381	1.02009
598.274	0.189865
601.167	1.36747
604.059	1.70695
606.952	0.050148
609.845	0.10305
612.737	1.96151
615.63	0.651432
618.523	1.0552
621.416	2.09664
624.308	1.19817
627.201	0.800133
630.094	1.22887
632.986	0.991119
635.879	0.290733
638.772	1.83788
641.664	0.233902
644.557	0.929375
647.45	3.66401
650.342	3.08689
653.235	3.46343
656.128	5.94828
659.021	9.13199
661.913	10.9394
664.806	12.7161
667.699	18.1541
670.591	21.1571
673.484	26.9882
676.377	32.8903
679.269	36.7876
682.162	42.4111
685.055	47.6973
687.948	54.5434
690.84	57.0774
693.733	57.4019
696.626	59.8772
699.518	58.3932
702.411	56.5183
705.304	52.4727
708.197	48.3046
711.089	44.5741
713.982	40.2203
716.875	35.3117
719.767	33.6568
722.66	28.8516
725.553	25.3187
728.445	20.6843
731.338	17.1198
734.231	13.5369
737.124	13.1834
740.016	8.25787
742.909	8.46432
745.802	7.90607
748.694	4.78145
751.587	5.96112
754.48	4.3795
757.372	0.41671
760.265	3.51653
763.158	1.19799
766.051	2.53544
768.943	0.446434
771.836	2.02765
774.729	0.552326
777.621	0.752186
780.514	1.12571
783.407	0.24741
786.299	0.744106
789.192	1.73037
792.085	3.37499
794.977	4.92751
797.87	8.73399
800.763	13.5771
803.655	17.9536
806.548	22.8188
809.441	22.3214
812.334	22.0628
815.226	20.2544
818.119	16.0571
821.012	10.9129
823.904	7.87396
826.797	6.63774
829.69	4.57383
832.582	3.01178
835.475	1.62121
838.368	1.2526
841.261	3.02521
844.153	2.55829
847.046	1.59791
849.939	0.548208
852.831	1.00077
855.724	0.707249
858.617	0.556925
861.51	0.523884
864.402	0.726542
867.295	0.022778
870.188	0.592825
873.08	1.00361
875.973	1.76057
878.866	1.95228
881.758	2.07196
884.651	1.67777
887.544	2.70835
890.437	1.86451
893.329	3.08114
896.222	1.89885
899.115	2.17046
902.007	2.1744
904.9	2.38464
907.793	1.29832
910.685	2.51144
913.578	3.11332
916.471	2.56992
919.364	3.20668
922.256	2.21588
925.149	2.65808
928.042	1.1431
930.934	2.6665
933.827	2.48663
936.72	2.7738
939.612	3.82702
942.505	0.927603
945.398	0.090693
948.29	2.98977
951.183	2.40689
954.076	0.103268
956.968	1.15834
959.861	1.07565
962.754	2.43024
965.647	2.40704
968.539	2.09057
971.432	2.59967
974.325	1.76276
977.217	0.696762
980.11	0.873106
983.003	2.0975
985.895	0.316852
988.788	2.31283
991.681	2.55448
994.574	2.48137
997.466	1.82079
1000.36	2.10456
1003.25	0.620211
1006.14	1.57102
1009.04	1.35594
1011.93	0.512237
1014.82	1.1768
1017.72	0.783101
1020.61	0.866009
1023.5	0.763557
1026.39	0.094964
1029.29	0.514083
1032.18	1.74355
1035.07	0.358783
1037.96	2.35317
1040.86	0.431112
1043.75	0.191343
1046.64	1.5672
1049.54	1.21335
1052.43	1.14107
1055.32	1.49479
1058.21	0.449409
1061.11	0.697798
1064	2.81755
1066.89	1.37467
1069.78	1.28499
1072.68	0.597054
1075.57	1.87307
1078.46	0.621721
1081.35	1.32786
1084.25	0.581762
1087.14	0.224751
1090.03	0.674235
1092.92	1.53396
1095.82	2.30322
1098.71	1.31598
1101.6	1.04456
1104.5	1.68227
1107.39	0.570835
1110.28	0.126547
1113.17	2.07592
1116.07	1.75778
1118.96	2.11882
1121.85	2.36357
1124.74	1.90947
1127.64	0.246592
1130.53	1.52997
1133.42	1.19259
1136.32	1.66138
1139.21	3.62732
1142.1	1.38779
1144.99	1.52839
1147.89	0.451005
1150.78	1.94164
1153.67	1.7894
1156.57	2.13871
1159.46	0.1424
1162.35	2.3977
1165.24	1.13208
1168.13	1.95991
1171.03	1.95734
1173.92	1.47529
1176.81	1.75342
1179.71	0.060022
1182.6	2.79549
1185.49	1.27229
1188.38	1.12609
1191.28	1.33482
1194.17	1.57648
1197.06	0.625593
1199.95	0.746428
1202.85	1.4197
1205.74	0.533504
1208.63	2.7029
1211.53	2.06326
1214.42	2.49198
1217.31	3.28982
1220.2	2.70124
1223.1	1.98529
1225.99	0.484785
1228.88	0.48439
1231.78	1.30315
1234.67	1.41061
1237.56	3.51407
1240.45	1.88086
1243.35	2.84171
1246.24	1.39433
1249.13	1.87863
1252.02	2.9356
1254.92	0.421752
1257.81	3.15476
1260.7	2.53214
1263.59	1.05767
1266.49	3.28563
1269.38	0.253813
1272.27	1.98879
1275.16	1.59087
1278.06	1.65061
1280.95	1.38394
1283.84	0.219459
