Measurement: Raman, 785 nm, unoriented, Raman Data Processed
Mineral: Franklinite
Rruff sample: R070137
Ideal chemistry: ZnFe^3+^_2_O_4_
Locality: Franklin mine, Franklin, Sussex County, New Jersey, USA
Source: Michael Scott
Description: Gray semi-metallic octahedral crystals associated with calcite
Measured chemistry: (Zn_0.63_Mn_0.36_Mg_0.01_)_Σ=1_(Fe^3+^_1.96_Al_0.04_)_Σ=2_O_4_
Raman shift (cm-1)	intensity
150.719	0
153.612	42.8347
156.505	37.4512
159.397	2.62585
162.29	89.407
165.183	171.035
168.075	211.219
170.968	173.125
173.861	235.896
176.753	289.76
179.646	339.517
182.539	411.769
185.431	337.77
188.324	223.192
191.217	216.981
194.11	130.648
197.002	80.83
199.895	105.061
202.788	83.5905
205.68	44.6709
208.573	64.8835
211.466	34.391
214.358	55.7865
217.251	35.4963
220.144	50.1257
223.037	7.47559
225.929	5.54822
228.822	8.93213
231.715	33.2825
234.607	48.5154
237.5	55.5212
240.393	114.56
243.286	42.3171
246.178	89.46
249.071	33.6726
251.964	3.5105
254.856	37.9119
257.749	17.9448
260.642	52.1284
263.534	22.8547
266.427	15.4578
269.32	21.0781
272.212	38.407
275.105	15.6982
277.998	55.5569
280.891	70.1389
283.783	84.0618
286.676	126.326
289.569	190.69
292.461	221.805
295.354	249.489
298.247	284.658
301.139	344.725
304.032	402.654
306.925	497.95
309.818	533.891
312.71	545.516
315.603	653.343
318.496	752.868
321.388	792.088
324.281	886.616
327.174	1078.3
330.067	1242.56
332.959	1429.28
335.852	1751.91
338.745	2165.96
341.637	2594.24
344.53	3049.28
347.423	3504.27
350.315	3735.41
353.208	3372.49
356.101	2716.4
358.993	1980.33
361.886	1497.61
364.779	1077.71
367.672	806.699
370.564	658.041
373.457	516.432
376.35	414.962
379.242	291.055
382.135	204.757
385.028	137.641
387.921	80.2275
390.813	58.1807
393.706	66.543
396.599	20.321
399.491	14.2568
402.384	30.6045
405.277	4.57129
408.169	35.4148
411.062	33.8889
413.955	31.6084
416.848	9.13281
419.74	4.72974
422.633	26.8938
425.526	65.4983
428.418	146.927
431.311	141.413
434.204	278.612
437.096	362.931
439.989	471.81
442.882	604.367
445.774	651.977
448.667	668.796
451.56	732.288
454.453	671.05
457.345	627.288
460.238	528.616
463.131	477.828
466.023	367.374
468.916	406.455
471.809	351.633
474.702	326.194
477.594	308.194
480.487	311.815
483.38	283.989
486.272	248.351
489.165	239.914
492.058	201.568
494.95	158.388
497.843	132.098
500.736	125.924
503.628	52.1101
506.521	86.9768
509.414	6.99243
512.307	34.0154
515.199	6.23608
518.092	17.2085
520.985	5.92676
523.877	36.1331
526.77	37.4165
529.663	95.0491
532.556	130.61
535.448	84.3796
538.341	50.0967
541.234	34.9026
544.126	55.3088
547.019	84.2966
549.912	19.354
552.804	53.3152
555.697	6.27197
558.59	23.273
561.482	63.7371
564.375	66.0886
567.268	74.5488
570.16	46.5696
573.053	49.0701
575.946	171.141
578.839	469.994
581.731	875.374
584.624	1444.82
587.517	2063.6
590.409	2710.76
593.302	3175.98
596.195	3549.57
599.087	3700.5
601.98	3591
604.873	3501.52
607.766	3296.99
610.658	3201.98
613.551	3062.63
616.444	2963.32
619.336	2953.85
622.229	2954.85
625.122	2959.52
628.014	2912.64
630.907	2898.87
633.8	2854.73
636.693	2812.44
639.585	2806.05
642.478	2756.71
645.371	2707.28
648.263	2667.85
651.156	2653.09
654.049	2804.73
656.942	2685.95
659.834	2791.72
662.727	2708.63
665.62	2566.18
668.512	2464.58
671.405	2300.38
674.298	2106.41
677.19	1844.02
680.083	1560.35
682.976	1344.4
685.869	1133.6
688.761	978.009
691.654	821.897
694.547	593.663
697.439	471.018
700.332	331.092
703.225	249.489
706.117	143.904
709.01	108.864
711.903	81.488
714.795	32.0117
717.688	31.3093
720.581	5.44739
723.474	45.9971
726.366	43.7698
729.259	37.12
732.152	34.0024
735.044	28.183
737.937	55.8641
740.83	25.3166
743.722	0.187988
746.615	33.127
749.508	66.8285
752.401	69.1528
755.293	93.4894
758.186	95.8374
761.079	126.23
763.971	136.182
766.864	168.788
769.757	189.187
772.649	174.987
775.542	232.002
778.435	218.854
781.328	178.007
784.22	198.284
787.113	226.022
790.006	186.858
792.898	179.506
795.791	172.475
798.684	171.679
801.577	134.082
804.469	123.966
807.362	113.907
810.255	114.769
813.147	138.556
816.04	95.4077
818.933	116.97
821.825	87.7435
824.718	94.0131
827.611	127.68
830.504	81.8062
833.396	101.383
836.289	63.0837
839.182	67.0946
842.074	24.2239
844.967	76.7823
847.86	73.7848
850.752	56.3431
853.645	57.2047
856.538	45.5131
859.431	33.8761
862.323	61.0361
865.216	3.38135
868.109	55.7532
871.001	52.8794
873.894	61.5022
876.787	29.6245
879.679	28.5765
882.572	42.488
885.465	71.6909
888.357	16.3269
891.25	54.1089
894.143	21.3109
897.036	30.1831
899.928	15.6867
902.821	22.1928
905.714	4.51208
908.606	24.1106
911.499	35.3975
914.392	47.9083
917.284	24.8374
920.177	24.5292
923.07	2.48743
925.963	24.7426
928.855	13.1414
931.748	26.6971
934.641	11.1578
937.533	45.5808
940.426	10.6834
943.319	29.1174
946.211	59.1956
949.104	30.7196
951.997	7.40637
954.889	30.2664
957.782	71.262
960.675	74.3833
963.568	59.579
966.46	44.2793
969.353	0.968628
972.246	36.0065
975.138	30.4119
978.031	97.9651
980.924	18.7759
983.817	65.6345
986.709	37.7371
989.602	9.08508
992.495	10.9849
995.387	42.0714
998.28	15.3582
1001.17	37.0909
1004.07	4.81238
1006.96	11.8107
1009.85	21.8131
1012.74	22.1912
1015.64	33.9531
1018.53	41.1652
1021.42	6.77051
1024.31	11.6085
1027.21	26.8407
1030.1	4.94348
1032.99	9.5636
1035.88	31.0516
1038.78	51.9672
1041.67	24.3197
1044.56	43.8694
1047.46	48.3508
1050.35	44.2747
1053.24	39.3708
1056.13	39.5026
1059.03	4.81555
1061.92	74.9778
1064.81	32.1858
1067.7	47.9701
1070.6	54.9445
1073.49	1.63147
1076.38	44.4482
1079.28	3.36047
1082.17	55.9554
1085.06	44.9408
1087.95	27.4956
1090.85	57.1139
1093.74	29.5527
1096.63	120.407
1099.53	84.2117
1102.42	42.3439
1105.31	75.3345
1108.2	42.7793
1111.1	36.8639
1113.99	35.7227
1116.88	42.8916
1119.77	85.8765
1122.67	65.3016
1125.56	10.3123
1128.45	25.1584
1131.34	39.0002
1134.24	28.3221
1137.13	47.5847
1140.02	11.6182
1142.91	6.81934
1145.81	45.2087
1148.7	39.0005
1151.59	17.4985
1154.49	36.0375
1157.38	5.33582
1160.27	20.3877
1163.16	34.6263
1166.06	27.8667
1168.95	67.0601
1171.84	65.3772
1174.73	6.23621
1177.63	65.441
1180.52	68.8817
1183.41	63.4303
1186.31	37.6063
1189.2	67.4921
1192.09	66.2731
1194.98	84.8272
1197.88	68.2224
1200.77	61.4684
1203.66	51.1634
1206.55	20.5707
1209.45	25.0826
1212.34	31.9158
1215.23	46.9755
1218.12	8.40625
1221.02	15.2665
1223.91	7.33814
1226.8	14.3628
1229.7	29.203
1232.59	44.6892
1235.48	0.588501
