Measurement: Raman, 780 nm, unoriented, Raman Data Processed
Mineral: Franciscanite
Rruff sample: R060056
Ideal chemistry: Mn^2+^_6_V^5+^(SiO_4_)_2_(O,OH)_6_
Locality: Pennsylvania mine, Santa Clara County, California, USA
Source: Marcus Origlieri
Description: Black to deep red granular massive
Measured chemistry: Mn^2+^_6.00_(V^5+^_0.86_Fe^3+^_0.10_Ti_0.04_)_Î£=1_(Si_1.00_O_4_)_2_((OH)_3.24_O_2.76_)_6_
Raman shift (cm-1)	intensity
110.01	0
113.385	33.8263
116.759	99.3531
120.134	138.996
123.509	195.339
126.884	238.89
130.259	229.833
133.633	246.17
137.008	175.058
140.383	53.0335
143.758	33.5245
147.133	75.6175
150.507	101.785
153.882	122.517
157.257	111.663
160.632	58.0962
164.007	33.9406
167.382	29.1303
170.756	24.1719
174.131	8.69091
177.506	6.08801
180.881	10.8927
184.256	8.91078
187.631	2.40311
191.005	3.76094
194.38	15.4411
197.755	20.3486
201.13	27.0651
204.505	26.1491
207.879	35.0363
211.254	61.152
214.629	101.795
218.004	147.525
221.379	188.61
224.753	239.18
228.128	295.889
231.503	340.853
234.878	357.59
238.253	306.794
241.627	246.776
245.002	203.797
248.377	163.163
251.752	122.931
255.127	93.9142
258.502	75.4636
261.876	59.5019
265.251	49.0312
268.626	38.6883
272.001	34.9425
275.376	28.5831
278.75	20.575
282.125	9.41657
285.5	3.82925
288.875	1.97144
292.25	2.30954
295.625	2.7159
298.999	6.42731
302.374	12.1374
305.749	16.6845
309.124	19.0697
312.499	17.7386
315.873	19.5423
319.248	20.4369
322.623	21.8556
325.998	11.9768
329.373	9.41409
332.748	12.3637
336.122	12.8968
339.497	10.5379
342.872	10.2113
346.247	4.77965
349.622	2.33649
352.996	2.81321
356.371	1.05873
359.746	5.51601
363.121	3.94125
366.496	1.22846
369.87	9.42677
373.245	23.9066
376.62	42.9901
379.995	59.0378
383.37	78.162
386.745	91.5325
390.119	94.6599
393.494	93.7031
396.869	80.7428
400.244	71.1183
403.619	61.2714
406.993	56.9059
410.368	51.6642
413.743	54.5726
417.118	61.2519
420.493	62.7732
423.868	58.7081
427.242	57.2074
430.617	64.4903
433.992	72.0852
437.367	84.5895
440.742	95.7568
444.116	109.552
447.491	122.039
450.866	123.933
454.241	113.336
457.616	89.2932
460.99	64.6475
464.365	42.4215
467.74	22.6587
471.115	11.1917
474.49	3.59457
477.865	1.72059
481.239	5.29927
484.614	2.66048
487.989	0.04438
491.364	7.71217
494.739	12.0887
498.113	24.0446
501.488	37.1698
504.863	41.9238
508.238	46.4674
511.613	49.2511
514.987	47.5832
518.362	35.5329
521.737	19.0809
525.112	10.9748
528.487	2.1918
531.862	3.83394
535.236	3.97215
538.611	6.99439
541.986	10.7384
545.361	11.7852
548.736	19.9415
552.11	25.7324
555.485	28.0253
558.86	20.7631
562.235	15.0452
565.61	9.38199
568.985	9.72826
572.359	11.2882
575.734	12.2415
579.109	15.1951
582.484	15.4441
585.859	7.32972
589.233	5.07227
592.608	3.13509
595.983	3.0619
599.358	5.64687
602.733	3.64387
606.107	0.649994
609.482	2.4536
612.857	1.96797
616.232	2.32341
619.607	0.54105
622.982	3.50396
626.356	1.29939
629.731	1.81327
633.106	1.34642
636.481	1.79808
639.856	2.1263
643.23	2.76333
646.605	0.91964
649.98	0.307533
653.355	2.91034
656.73	2.17348
660.105	1.76125
663.479	2.59508
666.854	4.43994
670.229	3.29941
673.604	0.30806
676.979	2.97835
680.353	10.9696
683.728	25.945
687.103	43.8809
690.478	71.2595
693.853	92.3033
697.227	112.966
700.602	122.355
703.977	113.429
707.352	85.0011
710.727	52.1048
714.101	34.9266
717.476	24.9529
720.851	28.9866
724.226	38.9502
727.601	54.9851
730.976	75.3585
734.35	107.887
737.725	151.97
741.1	216.982
744.475	316.686
747.85	507.755
751.225	929.008
754.599	1548.54
757.974	2048.09
761.349	2601.4
764.724	3064.8
768.099	2872.8
771.473	1711.08
774.848	881.221
778.223	528.1
781.598	329.315
784.973	216.763
788.347	142.524
791.722	95.4613
795.097	58.0454
798.472	38.5851
801.847	19.6564
805.221	8.84663
808.596	1.17262
811.971	4.41815
815.346	5.04039
818.721	5.18534
822.096	2.78192
825.47	18.6185
828.845	34.065
832.22	54.2482
835.595	73.6172
838.97	81.0741
842.345	57.578
845.719	26.767
849.094	9.02142
852.469	1.35114
855.844	0.731712
859.219	0.463745
862.593	3.97053
865.968	5.63474
869.343	8.54564
872.718	5.80421
876.093	5.20625
879.467	9.99873
882.842	16.1835
886.217	23.8661
889.592	31.943
892.967	36.8449
896.341	34.1304
899.716	32.9321
903.091	28.1999
906.466	23.6376
909.841	21.2408
913.216	13.6999
916.59	6.21402
919.965	1.96883
923.34	0.177155
926.715	1.72404
930.09	6.75849
933.465	11.4708
936.839	11.474
940.214	12.3919
943.589	10.1597
946.964	11.3256
950.339	5.49472
953.713	3.13415
957.088	0.295368
960.463	0.458469
963.838	1.04076
967.213	2.5589
970.587	0.139881
973.962	0.349434
977.337	1.4909
980.712	0.175438
984.087	1.19087
987.462	1.14329
990.836	1.45191
994.211	1.17235
997.586	0.34375
1000.96	0.961666
1004.34	2.22986
1007.71	4.31388
1011.09	5.23211
1014.46	4.47194
1017.84	4.44904
1021.21	4.10205
1024.58	4.10189
1027.96	3.63664
1031.33	4.98006
1034.71	5.54168
1038.08	5.22701
1041.46	5.8871
1044.83	4.7328
1048.21	5.33204
1051.58	4.27021
1054.96	5.62598
1058.33	4.09921
1061.71	3.09929
1065.08	4.21919
1068.46	3.17573
1071.83	2.92874
1075.21	3.20127
1078.58	3.49166
1081.96	4.03112
1085.33	2.72511
1088.71	2.97849
1092.08	3.49896
1095.46	1.78862
1098.83	2.19447
1102.2	2.31165
1105.58	0.855616
1108.95	0.870584
1112.33	0.438763
1115.7	0.0576
1119.08	0.24645
1122.45	0.010426
1125.83	1.1706
1129.2	1.52228
1132.58	0.22628
1135.95	1.81413
1139.33	0.942221
1142.7	1.15153
1146.08	0.645721
1149.45	1.35407
1152.83	1.62474
1156.2	2.29447
1159.58	2.78112
1162.95	3.84218
1166.33	2.37964
1169.7	3.78504
1173.08	4.19112
1176.45	2.30567
1179.83	1.6549
1183.2	2.16548
1186.58	0.865345
1189.95	1.09436
1193.33	1.07327
1196.7	0.503889
1200.08	0.741194
1203.45	2.38146
1206.82	1.3503
1210.2	1.30997
1213.57	2.02487
1216.95	1.87193
1220.32	0.889572
1223.7	2.02749
1227.07	2.71938
1230.45	3.293
1233.82	2.15982
1237.2	2.53428
1240.57	2.78958
1243.95	2.89612
1247.32	0.329765
1250.7	0.945511
1254.07	1.54396
1257.45	0.659956
1260.82	0.191975
1264.2	0.640493
1267.57	0.884624
1270.95	0.901855
