Measurement: Raman, 532 nm, unoriented, Raman Data Processed
Mineral: Franklinite
Rruff sample: R070137
Ideal chemistry: ZnFe^3+^_2_O_4_
Locality: Franklin mine, Franklin, Sussex County, New Jersey, USA
Source: Michael Scott
Description: Gray semi-metallic octahedral crystals associated with calcite
Measured chemistry: (Zn_0.63_Mn_0.36_Mg_0.01_)_Σ=1_(Fe^3+^_1.96_Al_0.04_)_Σ=2_O_4_
Raman shift (cm-1)	intensity
132.343	0
135.718	0.833679
139.093	107.75
142.468	29.5332
145.843	57.8532
149.217	146.286
152.592	173.607
155.967	225.902
159.342	161.582
162.717	179.47
166.091	148.162
169.466	151.346
172.841	173.312
176.216	155.594
179.591	187.641
182.966	133.928
186.34	179.071
189.715	95.0666
193.09	131.037
196.465	79.4027
199.84	93.0699
203.214	94.5982
206.589	51.2409
209.964	69.4488
213.339	58.8552
216.714	59.0502
220.089	50.4631
223.463	54.831
226.838	61.2521
230.213	58.3701
233.588	60.7217
236.963	67.6049
240.338	77.3832
243.712	76.8629
247.087	46.9479
250.462	43.1962
253.837	2.92621
257.212	6.25592
260.586	32.4962
263.961	20.2543
267.336	11.7261
270.711	23.9697
274.086	24.1221
277.461	14.1909
280.835	22.5226
284.21	57.6103
287.585	21.7313
290.96	64.4015
294.335	47.7322
297.709	75.3462
301.084	148.492
304.459	178.709
307.834	219.687
311.209	276.611
314.584	283.298
317.958	364.695
321.333	382.285
324.708	470.492
328.083	506.79
331.458	574.338
334.832	677.954
338.207	802.583
341.582	930.665
344.957	1094.84
348.332	1139.13
351.707	1047.5
355.081	889.646
358.456	611.287
361.831	472.023
365.206	374.014
368.581	321.29
371.955	224.794
375.33	194.819
378.705	142.576
382.08	107.683
385.455	98.2986
388.829	96.0267
392.204	81.944
395.579	50.0154
398.954	1.47613
402.329	9.14392
405.704	14.3239
409.078	9.20337
412.453	9.7312
415.828	1.08289
419.203	21.5222
422.578	1.21094
425.952	21.3855
429.327	43.1576
432.702	50.6917
436.077	57.2267
439.452	118.309
442.827	87.2292
446.201	124.691
449.576	164.216
452.951	146.804
456.326	154.824
459.701	130.868
463.075	128.354
466.45	121.428
469.825	117.46
473.2	94.1578
476.575	105.076
479.95	161.744
483.324	166.548
486.699	182.456
490.074	200.254
493.449	158.728
496.824	194.533
500.199	103.489
503.573	125.906
506.948	75.8829
510.323	53.8878
513.698	60.2844
517.073	43.4137
520.447	100.687
523.822	33.0588
527.197	43.5062
530.572	57.6655
533.947	36.9907
537.322	37.7957
540.696	39.4739
544.071	46.4551
547.446	66.397
550.821	24.4177
554.196	25.2153
557.57	20.7459
560.945	53.5996
564.32	107.162
567.695	279.026
571.07	423.462
574.444	759.259
577.819	1293.83
581.194	1895.73
584.569	2705.31
587.944	3545.96
591.319	4216.93
594.693	4585.32
598.068	4671.31
601.443	4494.11
604.818	4280.9
608.193	4009.67
611.568	3770.91
614.942	3615.97
618.317	3351.53
621.692	3285.34
625.067	3150.11
628.442	2952.76
631.817	2798.56
635.191	2645.03
638.566	2517.24
641.941	2349.48
645.316	2267.86
648.691	2071.05
652.065	2087.47
655.44	2040.18
658.815	1925.71
662.19	1876.9
665.565	1742.35
668.939	1570.03
672.314	1374.25
675.689	1135.45
679.064	911.846
682.439	747.473
685.813	605.303
689.188	433.128
692.563	349.219
695.938	237.38
699.313	149.492
702.688	108.946
706.062	20.8348
709.437	7.58337
712.812	15.7772
716.187	11.1312
719.562	42.9303
722.937	50.5967
726.311	35.5929
729.686	2.55859
733.061	23.1047
736.436	5.83191
739.811	3.08972
743.186	1.67505
746.56	36.3096
749.935	34.1018
753.31	70.7316
756.685	74.8395
760.06	148.846
763.434	132.94
766.809	158.446
770.184	167.913
773.559	188.097
776.934	183.314
780.308	191.28
783.683	179.491
787.058	140.459
790.433	149.159
793.808	159.78
797.183	120.391
800.557	125.809
803.932	111.527
807.307	97.0856
810.682	107.787
814.057	115.403
817.432	104.474
820.806	99.4368
824.181	58.477
827.556	86.7191
830.931	47.9836
834.306	62.9244
837.68	69.8359
841.055	86.34
844.43	52.8739
847.805	59.2783
851.18	27.6146
854.554	41.7942
857.929	44.8297
861.304	40.1763
864.679	24.5945
868.054	36.2734
871.428	27.8323
874.803	7.98731
878.178	9.672
881.553	13.2568
884.928	44.8016
888.303	36.7164
891.678	30.8162
895.052	22.4055
898.427	5.95117
901.802	3.63647
905.177	39.9459
908.552	69.9653
911.926	38.2216
915.301	10.2363
918.676	45.8519
922.051	25.7847
925.426	26.8389
928.801	32.1566
932.175	9.77832
935.55	61.3123
938.925	25.6251
942.3	22.8588
945.675	34.1246
949.049	66.3615
952.424	53.8198
955.799	57.9686
959.174	70.8693
962.549	46.8307
965.923	71.0606
969.298	71.1266
972.673	88.8531
976.048	76.9573
979.423	77.4241
982.798	69.5691
986.172	48.9917
989.547	53.9752
992.922	41.9969
996.297	3.39099
999.672	45.6525
1003.05	36.7338
1006.42	26.7105
1009.8	13.9874
1013.17	54.4971
1016.55	10.5941
1019.92	23.724
1023.29	48.2316
1026.67	12.9436
1030.05	11.438
1033.42	5.95837
1036.8	5.42529
1040.17	31.0436
1043.54	54.5236
1046.92	96.1986
1050.29	44.5497
1053.67	55.9141
1057.04	35.4136
1060.42	49.4565
1063.79	46.2662
1067.17	43.2743
1070.54	51.6827
1073.92	62.3201
1077.29	6.95532
1080.67	30.4578
1084.04	96.0123
1087.42	42.6877
1090.79	36.2563
1094.17	71.6804
1097.54	84.7566
1100.92	62.3231
1104.29	40.9941
1107.67	40.9875
1111.04	74.4119
1114.42	43.0769
1117.79	81.8104
1121.16	41.303
1124.54	50.4435
1127.91	65.5198
1131.29	6.5564
1134.66	4.82336
1138.04	4.0835
1141.41	7.52991
1144.79	2.29248
1148.16	6.49793
1151.54	17.2556
1154.91	16.8895
1158.29	18.3273
1161.66	3.23987
1165.04	45.6953
1168.41	108.661
1171.79	115.472
1175.16	146.388
1178.54	118.706
1181.91	152.019
1185.29	153.122
1188.66	211.436
1192.04	173.381
1195.41	229.329
1198.79	150.488
1202.16	175.285
1205.54	205.082
1208.91	173.796
1212.29	158.367
1215.66	203.243
1219.04	224.756
1222.41	207.159
1225.78	219.894
1229.16	220.746
1232.53	244.481
1235.91	213.81
1239.28	195.295
1242.66	213.269
1246.03	196.007
1249.41	201.121
1252.78	212.078
1256.16	174.823
1259.53	196.388
1262.91	121.767
1266.28	130.907
1269.66	95.2091
1273.03	100.478
1276.41	85.114
1279.78	83.9818
1283.16	76.2539
1286.53	58.0641
1289.91	37.2498
1293.28	89.1206
1296.66	76.4586
1300.03	10.4501
1303.4	17.8551
1306.78	12.165
1310.15	12.8751
