Measurement: Raman, 780 nm, unoriented, Raman Data Processed
Mineral: Frankamenite
Rruff sample: R060100
Ideal chemistry: K_3_Na_3_Ca_5_Si_12_O_30_(F,OH)_4_H_2_O
Locality: Murun Massif, Sakka, Yakutia, Russia
Source: University of Arizona Mineral Museum
Description: Gray thin laths associated with purple charoite
Measured chemistry: (K_2.95_Na_0.05_)_Σ=3_Na_3.00_(Ca_4.90_Mn_0.10_)_Σ=5_Si_12.00_O_30_F_4.00_
Raman shift (cm-1)	intensity
129.631	0
132.523	8.50825
135.416	19.8151
138.309	26.6465
141.201	31.7546
144.094	46.7381
146.987	66.1312
149.879	89.8121
152.772	110.736
155.665	99.96
158.557	59.0448
161.45	26.3767
164.343	10.7525
167.236	3.4499
170.128	0.464542
173.021	2.01652
175.914	2.34602
178.806	2.30083
181.699	1.16324
184.592	2.31745
187.484	6.37214
190.377	12.41
193.27	12.8384
196.162	8.45886
199.055	4.71489
201.948	4.00234
204.841	3.66772
207.733	3.87529
210.626	3.96136
213.519	4.41644
216.411	4.49404
219.304	4.41866
222.197	4.73578
225.089	5.07694
227.982	4.45723
230.875	3.48469
233.768	2.56809
236.66	1.1441
239.553	0.72888
242.446	0.3452
245.338	1.14345
248.231	1.75839
251.124	2.90987
254.017	4.02262
256.909	5.42883
259.802	6.21282
262.695	7.80762
265.587	10.784
268.48	13.0333
271.373	13.5486
274.265	12.7241
277.158	12.1689
280.051	13.1946
282.943	14.6072
285.836	13.3416
288.729	11.8253
291.622	9.34323
294.514	7.96485
297.407	6.84626
300.3	5.72493
303.192	4.67168
306.085	4.58409
308.978	4.29524
311.87	5.05931
314.763	5.65259
317.656	7.63269
320.548	8.5454
323.441	11.1586
326.334	15.7736
329.227	21.7683
332.119	27.5176
335.012	30.7525
337.905	29.9608
340.797	23.6003
343.69	18.1835
346.583	12.9826
349.476	9.16273
352.368	5.83663
355.261	3.27807
358.154	0.616718
361.046	1.30389
363.939	1.77236
366.832	1.23369
369.724	0.386354
372.617	3.54937
375.51	9.67693
378.402	19.763
381.295	33.5971
384.188	46.7719
387.081	45.4047
389.973	32.3726
392.866	21.4871
395.759	13.6494
398.651	9.79449
401.544	7.95779
404.437	6.71935
407.329	7.55868
410.222	6.96936
413.115	6.67281
416.008	5.00864
418.9	3.19308
421.793	1.88252
424.686	1.94982
427.578	2.21951
430.471	4.76903
433.364	8.1375
436.257	17.652
439.149	27.6728
442.042	26.0594
444.935	14.035
447.827	6.91065
450.72	3.91626
453.613	2.05413
456.505	2.30186
459.398	4.28862
462.291	7.50184
465.183	11.1468
468.076	8.12494
470.969	3.19048
473.861	1.17202
476.754	1.36199
479.647	1.02914
482.54	0.756041
485.432	0.619032
488.325	0.010983
491.218	0.028696
494.11	0.170385
497.003	0.078945
499.896	0.104846
502.788	0.06721
505.681	0.346809
508.574	0.246955
511.467	0.004187
514.359	0.628813
517.252	0.543279
520.145	0.743794
523.037	1.03588
525.93	1.16717
528.823	1.27634
531.716	1.73724
534.608	1.82807
537.501	1.37878
540.394	1.37176
543.286	0.995779
546.179	0.610876
549.072	0.468726
551.964	0.661858
554.857	0.166705
557.75	0.318906
560.643	0.205494
563.535	0.063462
566.428	0.066778
569.321	0.07505
572.213	0.333343
575.106	0.009177
577.999	0.410655
580.891	0.708793
583.784	0.852791
586.677	1.89961
589.569	2.26152
592.462	3.92047
595.355	5.77906
598.248	8.95821
601.14	13.2492
604.033	20.8498
606.926	31.5346
609.818	47.2165
612.711	74.1428
615.604	113.406
618.496	135.846
621.389	106.818
624.282	70.0322
627.174	54.8919
630.067	54.0003
632.96	65.3634
635.853	88.9442
638.745	132.438
641.638	210.091
644.531	309.42
647.423	317.036
650.316	197.423
653.209	101.771
656.101	55.6257
658.994	33.7863
661.887	22.6066
664.78	16.7145
667.672	12.015
670.565	8.84683
673.458	6.89748
676.35	5.29781
679.243	3.78157
682.136	2.62884
685.029	1.95005
687.921	1.53113
690.814	1.30742
693.707	1.27992
696.599	1.3889
699.492	1.36408
702.385	0.786906
705.277	0.228947
708.17	0.219775
711.063	0.314664
713.955	0.191671
716.848	0.229275
719.741	0.150847
722.634	0.481017
725.526	0.133437
728.419	0.354695
731.312	0.238083
734.204	0.261124
737.097	0.145209
739.99	0.03451
742.882	0.210588
745.775	0.723733
748.668	0.648633
751.561	1.14765
754.453	1.28882
757.346	1.68169
760.239	1.72893
763.131	2.67929
766.024	3.27551
768.917	3.71029
771.809	3.46913
774.702	2.51384
777.595	1.77362
780.487	1.08776
783.38	1.36801
786.273	0.613586
789.166	1.28514
792.058	1.67919
794.951	1.71191
797.844	2.58754
800.736	3.68057
803.629	4.42786
806.522	4.09312
809.414	2.69175
812.307	1.67671
815.2	1.12635
818.093	1.09546
820.985	0.547696
823.878	0.743346
826.771	0.700333
829.663	0.951599
832.556	0.759272
835.449	0.860466
838.341	0.537516
841.234	0.684794
844.127	0.492302
847.02	0.184086
849.912	0.258597
852.805	0.82321
855.698	0.723528
858.59	0.698936
861.483	0.64761
864.376	0.817121
867.269	0.759442
870.161	0.873316
873.054	0.619831
875.947	0.408503
878.839	0.298552
881.732	0.48576
884.625	0.315005
887.517	0.25141
890.41	0.132913
893.303	0.4061
896.195	0.039748
899.088	0.07197
901.981	0.004395
904.874	0.121682
907.766	0.145555
910.659	0.634949
913.552	0.085914
916.444	0.404366
919.337	0.87927
922.23	0.890903
925.122	0.599015
928.015	0.628487
930.908	0.932493
933.801	1.13098
936.693	1.85397
939.586	2.51139
942.479	2.58404
945.371	2.55095
948.264	2.75057
951.157	2.4721
954.049	1.95744
956.942	1.76455
959.835	1.30197
962.727	1.10951
965.62	0.945973
968.513	0.359785
971.406	0.350203
974.298	0.162799
977.191	0.033927
980.084	0.030422
982.976	0.084698
985.869	0.554363
988.762	0.985349
991.654	1.08766
994.547	0.790083
997.44	1.0731
1000.33	0.806609
1003.23	0.279754
1006.12	0.015881
1009.01	0.218763
1011.9	0.029056
1014.8	0.633797
1017.69	0.929498
1020.58	0.881532
1023.47	0.762924
1026.37	0.284022
1029.26	0.1807
1032.15	0.140851
1035.05	0.276978
1037.94	0.269862
1040.83	0.374493
1043.72	0.466616
1046.62	1.23907
1049.51	2.17221
1052.4	3.3343
1055.29	3.58868
1058.19	3.98349
1061.08	4.83024
1063.97	5.33143
1066.87	7.21885
1069.76	9.26825
1072.65	10.2586
1075.54	10.0124
1078.43	8.66773
1081.33	8.38265
1084.22	6.8212
1087.11	6.61463
1090.01	6.0755
1092.9	6.05254
1095.79	6.3415
1098.68	7.6834
1101.58	9.25266
1104.47	13.1897
1107.36	21.2479
1110.26	31.4203
1113.15	50.5536
1116.04	81.4397
1118.93	121.59
1121.83	158.804
1124.72	160.256
1127.61	107.443
1130.5	54.6409
1133.4	28.0806
1136.29	15.2594
1139.18	9.55488
1142.08	6.10456
1144.97	3.97134
1147.86	2.7029
1150.75	1.66219
1153.65	0.723064
1156.54	0.558273
1159.43	0.234234
1162.32	0.149268
1165.22	0.132804
1168.11	0.045182
1171	0.135842
1173.89	0.360002
1176.79	0.389985
1179.68	0.147646
1182.57	0.239856
1185.46	0.074008
1188.36	0.038249
1191.25	0.211114
1194.14	0.305747
1197.04	0.322218
1199.93	0.752689
1202.82	0.683695
1205.71	0.193501
1208.61	0.308607
1211.5	0.860338
1214.39	0.851119
1217.29	0.629001
1220.18	0.853735
1223.07	0.89473
1225.96	1.50155
1228.86	0.942168
1231.75	0.718099
1234.64	0.197293
1237.53	0.522873
1240.43	0.653472
1243.32	0.685738
1246.21	0.647708
1249.11	0.362948
1252	0.160813
1254.89	0.655829
1257.78	0.639012
1260.67	0.690645
1263.57	0.283681
1266.46	0.456217
1269.35	0.284476
1272.25	0.135962
1275.14	0.110508
1278.03	0.445307
1280.92	0.38085
1283.82	0.362814
