Measurement: Raman, 785 nm, unoriented, Raman Data Processed
Mineral: Francevillite
Rruff sample: R070159
Ideal chemistry: Ba(UO_2_)_2_(VO_4_)_2_5H_2_O
Locality: Mounana mine, Franceville, Haut-Ogooue, Gabon
Source: James Shigley
Description: Aggregate of orange tabular crystals
Raman shift (cm-1)	intensity
147.344	0
150.237	207.718
153.129	58.9102
156.022	27.5112
158.915	130.404
161.808	453.103
164.7	847.253
167.593	1094.42
170.486	1222.19
173.378	1206.98
176.271	1195.45
179.164	1305.02
182.056	1541.37
184.949	1729.2
187.842	1835.45
190.734	1745.55
193.627	1526.07
196.52	1183.37
199.413	857.082
202.305	642.141
205.198	403.147
208.091	352.435
210.983	361.168
213.876	537.88
216.769	849.054
219.661	1396.61
222.554	1853.35
225.447	2520.22
228.34	3156.01
231.232	3851.48
234.125	4580.13
237.018	5252.36
239.91	5726.01
242.803	5899.92
245.696	5311.74
248.589	4151.13
251.481	3124.18
254.374	2316.42
257.267	1690.04
260.159	1087.8
263.052	649.232
265.945	202.398
268.837	108.49
271.73	284.555
274.623	355.527
277.515	288.303
280.408	19.4893
283.301	417.433
286.194	797.438
289.086	1436.42
291.979	2424.63
294.872	3585.37
297.764	5026.43
300.657	6379.93
303.55	7464.09
306.442	7514.93
309.335	6660.21
312.228	5030.94
315.121	3461.02
318.013	1952.42
320.906	1166.32
323.799	638.739
326.691	542.188
329.584	605.026
332.477	960.404
335.37	1426.02
338.262	2143.22
341.155	2901.74
344.048	3754.01
346.94	4539.1
349.833	5599.51
352.726	6890.71
355.618	8850.46
358.511	11311.1
361.404	14346.1
364.296	17270.2
367.189	19790
370.082	20827.5
372.975	19819
375.867	17065.5
378.76	13640
381.653	10353.5
384.545	7729.75
387.438	5901.48
390.331	4936.85
393.224	4645.05
396.116	4844.97
399.009	5273.05
401.902	5905.62
404.794	6249.69
407.687	6168.08
410.58	5585.65
413.472	4689.25
416.365	3389.03
419.258	2261.73
422.151	1248.46
425.043	605.555
427.936	162.34
430.829	159.454
433.721	275.45
436.614	317.743
439.507	225.644
442.399	196.22
445.292	49.8335
448.185	189.697
451.077	653.269
453.97	1249.53
456.863	1995.61
459.756	2950.46
462.648	3998.69
465.541	4996.66
468.434	5835.01
471.326	6124.14
474.219	5802.54
477.112	5135.82
480.005	4213.04
482.897	3427.15
485.79	2753.5
488.683	2164.74
491.575	1591.5
494.468	1129.22
497.361	789.522
500.253	603.082
503.146	702.139
506.039	945.871
508.931	1504.66
511.824	2249.54
514.717	3127.11
517.61	4056.78
520.502	4993.23
523.395	5661.97
526.288	6168.75
529.18	6176.46
532.073	5819.51
534.966	5080.58
537.859	4201.87
540.751	3304.3
543.644	2305.73
546.537	1520.2
549.429	1055.98
552.322	833.278
555.215	880.38
558.107	1015.08
561	1389.57
563.893	1858.92
566.785	2358.57
569.678	2763.85
572.571	3041.85
575.463	3122.13
578.356	3079.95
581.249	2810.82
584.142	2374.52
587.034	1812.95
589.927	1200.06
592.82	791.09
595.712	450.315
598.605	163.863
601.498	68.2207
604.39	19.0283
607.283	32.7163
610.176	75.1445
613.069	96.6426
615.961	136.042
618.854	164.651
621.747	107.51
624.639	74.7202
627.532	232.764
630.425	609.854
633.317	1001.61
636.21	1491.61
639.103	2107.86
641.996	2687.65
644.888	3118.31
647.781	3157.78
650.674	2869.83
653.566	2352.78
656.459	1761.56
659.352	1244.27
662.245	819.37
665.137	529.491
668.03	313.731
670.923	232.763
673.815	83.335
676.708	3.87158
679.601	99.3481
682.493	101.615
685.386	8.10107
688.279	117.487
691.172	226.168
694.064	423.313
696.957	693.155
699.85	1073.53
702.742	1566.23
705.635	2116.41
708.528	2909.99
711.42	3907.89
714.313	5076.6
717.206	6708.92
720.098	8735.98
722.991	11625
725.884	15019.1
728.777	19389.8
731.669	24518.2
734.562	29861.7
737.455	34408.2
740.347	37503.5
743.24	37477.7
746.133	34534.6
749.025	29736.3
751.918	24511.9
754.811	19407.2
757.704	15242.8
760.596	11734.7
763.489	8965.97
766.382	6622.51
769.274	4937.23
772.167	3600.49
775.06	2615.34
777.952	1887.04
780.845	1336.36
783.738	843.25
786.631	515.656
789.523	228.808
792.416	12.0195
795.309	148.757
798.201	152.641
801.094	69.3599
803.987	120.728
806.88	549.493
809.772	1178.13
812.665	2116.26
815.558	3261.05
818.45	4495.24
821.343	5135.81
824.236	5116.98
827.128	4540.56
830.021	3667.66
832.914	2713.87
835.807	1934.06
838.699	1429.45
841.592	1018.82
844.485	823.135
847.377	714.81
850.27	687.055
853.163	683.747
856.055	600.979
858.948	647.759
861.841	581.557
864.734	505.953
867.626	370.843
870.519	228.97
873.412	111.533
876.304	32.4574
879.197	2.55872
882.09	42.0446
884.982	7.44751
887.875	27.3273
890.768	29.5345
893.66	25.0909
896.553	1.5614
899.446	23.6901
902.339	106.129
905.231	164.123
908.124	225.251
911.017	288.35
913.909	364.748
916.802	482.807
919.695	601.146
922.587	736.871
925.48	912.12
928.373	1153.51
931.266	1450.84
934.158	1784.2
937.051	2152.62
939.944	2554.92
942.836	3028.39
945.729	3717.49
948.622	4444.8
951.514	5471.85
954.407	6673.62
957.3	7927.88
960.192	8838.74
963.085	8927.55
965.978	8294.86
968.871	7240.69
971.763	6210.92
974.656	5406.21
977.549	4550.02
980.441	3519.62
983.334	2537.56
986.227	1602.76
989.12	1015.8
992.012	642.731
994.905	442.723
997.798	320.811
1000.69	179.232
1003.58	103.301
1006.48	72.7375
1009.37	26.7076
1012.26	35.9808
1015.15	8.83392
1018.05	6.9563
1020.94	21.6154
1023.83	23.4523
1026.72	1.38269
1029.62	27.5998
1032.51	15.4007
1035.4	6.8305
1038.3	0.141724
1041.19	15.3864
1044.08	28.5767
1046.97	4.28497
1049.87	3.48804
1052.76	53.5657
1055.65	26.8426
1058.54	30.5203
1061.44	58.9002
1064.33	28.5176
1067.22	43.2742
1070.12	60.0023
1073.01	34.5483
1075.9	59.94
1078.79	61.264
1081.69	42.9937
1084.58	27.1149
1087.47	50.6346
1090.36	48.5426
1093.26	35.5102
1096.15	28.241
1099.04	60.8008
1101.93	32.7043
1104.83	33.6254
1107.72	15.9166
1110.61	23.9487
1113.51	3.37888
1116.4	20.4041
1119.29	33.9746
1122.18	3.49231
1125.08	12.5314
1127.97	11.741
1130.86	4.67474
1133.76	9.09396
1136.65	5.1561
1139.54	4.70847
1142.43	46.9305
1145.33	8.9989
1148.22	0.565826
1151.11	5.60263
1154	29.1657
1156.9	11.7293
1159.79	32.395
1162.68	25.6574
1165.57	35.6243
1168.47	3.82507
1171.36	27.0718
1174.25	20.3757
1177.14	21.389
1180.04	26.6849
1182.93	17.8781
1185.82	6.39246
1188.72	29.5858
1191.61	4.72244
1194.5	20.2321
1197.39	7.50552
1200.29	21.4288
1203.18	5.21039
1206.07	19.9171
1208.96	11.1488
1211.86	47.9889
1214.75	17.6751
1217.64	16.6619
1220.54	30.2916
1223.43	26.226
1226.32	29.2947
1229.21	24.6764
1232.11	35.425
