Measurement: Raman, 514 nm, unoriented, Raman Data Processed
Mineral: Franciscanite
Rruff sample: R060056
Ideal chemistry: Mn^2+^_6_V^5+^(SiO_4_)_2_(O,OH)_6_
Locality: Pennsylvania mine, Santa Clara County, California, USA
Source: Marcus Origlieri
Description: Black to deep red granular massive
Measured chemistry: Mn^2+^_6.00_(V^5+^_0.86_Fe^3+^_0.10_Ti_0.04_)_Î£=1_(Si_1.00_O_4_)_2_((OH)_3.24_O_2.76_)_6_
Raman shift (cm-1)	intensity
50.765	0
54.966	55.232
59.164	53.275
63.36	16.541
67.554	4.184
71.747	3.849
75.937	28.063
80.125	119.593
84.311	153.423
88.496	129.31
92.678	307.136
96.858	325.973
101.036	320.578
105.212	342.764
109.387	621.423
113.559	464.482
117.729	806.891
121.897	1058.62
126.063	1624.63
130.228	2296.02
134.39	3329.03
138.55	2961.37
142.709	1564.58
146.865	1032.61
151.019	1337.59
155.171	2309.59
159.322	1378.63
163.47	857.708
167.617	588.846
171.761	674.045
175.904	601.315
180.044	334.664
184.183	182.098
188.319	163.629
192.454	383.288
196.586	844.045
200.717	1093.88
204.846	685.805
208.972	416.996
213.097	255.94
217.22	250.703
221.341	362.282
225.46	681.24
229.577	1434.44
233.692	2395.21
237.805	2834.53
241.916	2642
246.025	2431.26
250.132	2198.68
254.237	1876.22
258.34	1492.89
262.442	1024.66
266.541	709.524
270.639	691.469
274.734	660.49
278.828	545.577
282.919	389.732
287.009	259.965
291.097	168.274
295.183	64.684
299.266	74.223
303.348	91.841
307.428	114.581
311.507	116.388
315.583	191.276
319.657	327.317
323.729	341.766
327.8	199.506
331.868	158.979
335.935	163.18
339.999	94.4
344.062	83.632
348.123	47.867
352.182	84.103
356.239	79.338
360.294	13.433
364.347	62.242
368.398	48.193
372.448	38.33
376.495	21.838
380.54	80.43
384.584	193.608
388.626	411.939
392.666	587.2
396.704	721.475
400.74	779.771
404.774	731.205
408.806	555.378
412.836	378.668
416.865	366.945
420.891	391.208
424.916	422.452
428.939	394.677
432.959	408.88
436.978	346.067
440.996	301.221
445.011	465.645
449.024	549.063
453.036	606.83
457.045	622.937
461.053	514.472
465.059	358.598
469.063	250.339
473.065	133.455
477.065	81.189
481.063	56.819
485.06	46.257
489.054	47.799
493.047	86.267
497.038	187.168
501.027	262.315
505.014	366.601
508.999	361.817
512.982	490.961
516.964	516.033
520.944	434.307
524.921	300.51
528.897	187.123
532.871	158.006
536.844	126.551
540.814	82.243
544.783	90.884
548.749	73.475
552.714	213.016
556.677	245.507
560.638	182.949
564.597	141.341
568.555	120.685
572.511	111.98
576.464	192.228
580.416	282.429
584.366	301.583
588.315	172.693
592.261	129.759
596.206	38.78
600.148	8.76
604.089	34.676
608.028	7.49
611.965	16.752
615.901	38.207
619.834	24.871
623.766	35.723
627.696	5.78
631.624	16.971
635.551	18.333
639.475	4.99
643.398	13.266
647.318	11.327
651.237	5.568
655.155	12.461
659.07	2.607
662.984	32.664
666.895	21.718
670.805	15.771
674.713	70.825
678.62	49.888
682.524	147.051
686.427	204.381
690.328	295.863
694.227	398.472
698.124	639.13
702.02	919.813
705.913	1004.52
709.805	923.264
713.695	726.037
717.584	632.845
721.47	642.692
725.355	730.579
729.238	797.509
733.119	1052.48
736.998	1305.51
740.876	1733.58
744.752	2196.7
748.626	2750.88
752.498	3589.11
756.368	5352.04
760.237	9479.47
764.104	19692.4
767.969	32685.2
771.832	25971.8
775.693	13993.8
779.553	8070.73
783.411	5432.62
787.267	3729.66
791.122	2634.73
794.974	1887.34
798.825	1373.85
802.674	1130.29
806.522	875.323
810.367	658.136
814.211	511.941
818.053	431.555
821.893	336.251
825.732	269.455
829.568	343.817
833.403	342.393
837.236	512.978
841.068	751.675
844.898	568.443
848.726	409.808
852.552	344.338
856.376	253.029
860.199	341.887
864.02	367.89
867.839	442.025
871.656	446.291
875.472	387.682
879.286	290.198
883.098	301.84
886.909	397.606
890.717	554.498
894.524	695.513
898.33	684.652
902.133	554.788
905.935	667.931
909.735	538.061
913.533	553.459
917.33	496.255
921.124	344.2
924.918	279.369
928.709	190.721
932.499	184.287
936.286	225.026
940.073	311.345
943.857	344.054
947.64	386.365
951.421	249.825
955.2	141.437
958.978	73.157
962.753	3.017
966.527	67.247
970.3	19.804
974.071	14.653
977.84	1.483
981.607	7.806
985.372	23.925
989.136	31.564
992.898	21.656
996.659	15.222
1000.42	5.48
1004.17	43.435
1007.93	104.305
1011.68	180.436
1015.43	136.361
1019.18	133.521
1022.93	180.458
1026.68	190.291
1030.42	195.235
1034.17	213.198
1037.91	240.17
1041.65	274.174
1045.39	301.202
1049.12	274.249
1052.86	258.312
1056.59	252.387
1060.33	231.466
1064.06	174.546
1067.78	146.628
1071.51	165.704
1075.23	193.772
1078.96	188.831
1082.68	260.879
1086.4	299.915
1090.12	237.96
1093.83	134.995
1097.55	41.999
1101.26	41.971
1104.97	50.904
1108.68	15.796
1112.39	5.356
1116.1	16.691
1119.8	42.56
1123.5	298.051
1127.2	102.482
1130.9	23.129
1134.6	21.424
1138.3	52.829
1141.99	12.674
1145.69	41.993
1149.38	37.231
1153.07	13.668
1156.76	16.692
1160.44	5.441
1164.13	52.403
1167.81	72.498
1171.49	75.238
1175.17	98.317
1178.85	72.724
1182.52	146.501
1186.2	109.267
1189.87	91.015
1193.54	127.78
1197.21	127.067
1200.88	161.164
1204.55	166.771
1208.21	117.318
1211.88	134.956
1215.54	185.358
1219.2	162.514
1222.86	237.92
1226.51	204.92
1230.17	207.002
1233.82	226.668
1237.47	201.764
1241.12	230.706
1244.77	219.633
1248.42	181.311
1252.06	159.844
1255.71	212.314
1259.35	168.735
1262.99	183.234
1266.63	184.682
1270.26	181.485
1273.9	161.673
1277.53	182.755
1281.16	194.777
1284.8	207.503
1288.42	209.256
1292.05	154.482
1295.68	142.275
1299.3	126.482
1302.92	57.446
1306.55	45.982
1310.16	39.999
1313.78	0.104
1317.4	12.677
1321.01	57.259
1324.62	27.519
1328.24	28.638
1331.85	77.504
1335.45	42.186
1339.06	50.697
1342.66	46.024
1346.27	67.241
1349.87	69.321
1353.47	105.465
1357.07	72.161
1360.66	90.559
1364.26	44.63
1367.85	41.986
1371.44	27.474
1375.04	19.265
1378.62	9.097
1382.21	11.147
1385.8	47.182
1389.38	41.007
1392.96	64.714
1396.54	56.32
1400.12	43.69
1403.7	13.147
1407.28	38.911
1410.85	0.17
1414.42	9.98
1417.99	35.496
1421.56	12.632
1425.13	9.695
1428.7	41.265
1432.26	68.986
1435.83	56.969
1439.39	85.308
1442.95	94.138
1446.51	36.394
1450.06	59.309
1453.62	34.767
1457.17	56.602
1460.73	61.273
1464.28	86.345
1467.83	75.048
1471.37	98.546
1474.92	85.94
1478.46	81.203
1482.01	112.777
1485.55	31.048
1489.09	34.756
1492.63	0.598
1496.16	23.688
1499.7	8.764
1503.23	4.945
1506.76	14.768
1510.29	55.965
1513.82	90.612
1517.35	86.427
