Measurement: Raman, 780 nm, unoriented, Raman Data Processed
Mineral: Franconite
Rruff sample: R110185
Ideal chemistry: Na_2_Nb_4_O_11_9H_2_O
Locality: Poudrette quarry, Mont St-Hilaire, Quebec, Canada
Source: Donald Doell
Description: Spherical aggregates of white or colorless acicular crystals assocaited with yellow siderite, galena and sphalerite. EDS shows Na, Ca and Nb.
Raman shift (cm-1)	intensity
118.602	0
121.977	9.10846
125.352	15.7923
128.726	0.299042
132.101	0.661407
135.476	6.48019
138.851	30.1008
142.226	58.3771
145.601	79.3946
148.975	83.4133
152.35	86.2616
155.725	83.2637
159.1	72.6245
162.475	65.267
165.85	56.1257
169.224	54.8094
172.599	45.6805
175.974	52.7888
179.349	83.2535
182.724	112.905
186.098	139.388
189.473	156.784
192.848	163.483
196.223	176.935
199.598	190.837
202.972	196.387
206.347	203.88
209.722	208.959
213.097	218.61
216.472	199.672
219.847	174.424
223.221	166.201
226.596	167.199
229.971	160.203
233.346	146.562
236.721	133.131
240.095	116.351
243.47	92.3394
246.845	51.6026
250.22	14.3043
253.595	1.55359
256.969	3.1358
260.344	2.70132
263.719	1.19269
267.094	0.485046
270.469	1.70609
273.844	9.29968
277.218	17.495
280.593	32.0193
283.968	49.5308
287.343	65.413
290.718	81.9185
294.092	85.1688
297.467	66.2977
300.842	28.9963
304.217	6.901
307.592	0.219818
310.967	2.02795
314.341	2.21372
317.716	0.605713
321.091	2.69107
324.466	0.87677
327.841	1.94531
331.216	3.93289
334.59	5.336
337.965	4.37266
341.34	12.3842
344.715	20.9758
348.09	19.1086
351.464	18.868
354.839	24.2452
358.214	36.4403
361.589	49.0958
364.964	55.4761
368.339	61.3527
371.713	71.8636
375.088	85.3066
378.463	99.4736
381.838	121.889
385.213	149.558
388.587	167.86
391.962	146.911
395.337	96.3007
398.712	55.1427
402.087	36.0655
405.462	23.2773
408.836	13.4868
412.211	10.2634
415.586	7.18414
418.961	4.91289
422.336	5.75668
425.71	5.77568
429.085	7.0482
432.46	8.90585
435.835	14.2462
439.21	18.9624
442.584	26.9251
445.959	36.9168
449.334	48.3854
452.709	62.3518
456.084	76.1709
459.459	89.9226
462.833	98.5168
466.208	102.584
469.583	100.238
472.958	90.0295
476.333	74.9495
479.707	55.5515
483.082	34.7552
486.457	22.0952
489.832	11.7416
493.207	7.16388
496.582	2.39717
499.956	1.00621
503.331	2.67041
506.706	3.00795
510.081	3.75464
513.456	3.56319
516.83	2.49876
520.205	1.60175
523.58	6.46042
526.955	14.0218
530.33	18.4055
533.705	22.017
537.079	21.2391
540.454	15.4684
543.829	15.8568
547.204	16.5575
550.579	24.7374
553.953	36.0894
557.328	49.0352
560.703	66.941
564.078	91.9743
567.453	119.418
570.827	151.948
574.202	184.43
577.577	218.22
580.952	247.388
584.327	265.576
587.702	279.64
591.076	281.08
594.451	267.893
597.826	243.333
601.201	201.276
604.576	155.681
607.951	106.112
611.325	67.5432
614.7	36.013
618.075	16.5805
621.45	4.48129
624.825	0.262054
628.199	3.25778
631.574	12.9004
634.949	31.9256
638.324	59.125
641.699	98.0675
645.073	154.632
648.448	234.283
651.823	333.875
655.198	453.222
658.573	584.573
661.948	708.277
665.322	768.918
668.697	723.283
672.072	588.173
675.447	424.983
678.822	287.698
682.197	188.505
685.571	122.866
688.946	77.9945
692.321	47.2498
695.696	27.2001
699.071	13.6053
702.445	6.68872
705.82	1.79428
709.195	1.71217
712.57	2.18291
715.945	1.46709
719.319	2.25542
722.694	1.98199
726.069	0.052933
729.444	0.606888
732.819	2.57631
736.193	5.73891
739.568	5.685
742.943	8.77211
746.318	10.6764
749.693	9.81772
753.068	9.58391
756.442	10.6672
759.817	10.6261
763.192	11.2437
766.567	11.0733
769.942	10.3214
773.317	8.73245
776.691	7.76256
780.066	4.63272
783.441	4.03427
786.816	0.788879
790.191	2.84172
793.565	1.20673
796.94	0.931396
800.315	1.04718
803.69	0.512985
807.065	0.217529
810.439	0.587448
813.814	2.50845
817.189	1.06428
820.564	0.767792
823.939	1.55028
827.314	2.8374
830.688	3.65909
834.063	7.45695
837.438	9.34386
840.813	15.7571
844.188	27.2685
847.562	39.3228
850.937	57.4531
854.312	84.0091
857.687	121.099
861.062	167.73
864.437	229.759
867.811	298.58
871.186	371.466
874.561	444.162
877.936	508.079
881.311	566.438
884.686	572.166
888.06	479.631
891.435	323.952
894.81	198.31
898.185	122.038
901.56	79.165
904.934	53.2581
908.309	39.262
911.684	40.4996
915.059	54.902
918.434	81.5073
921.808	112.403
925.183	139.921
928.558	148.309
931.933	129.783
935.308	97.1989
938.683	65.7666
942.057	41.3903
945.432	24.5528
948.807	14.8531
952.182	5.62598
955.557	2.11615
958.932	1.86534
962.306	2.2681
965.681	1.91589
969.056	0.799469
972.431	4.24841
975.806	6.55372
979.18	9.46723
982.555	8.95715
985.93	8.21742
989.305	5.60307
992.68	2.80647
996.054	1.34119
999.429	0.719658
1002.8	1.58958
1006.18	0.736427
1009.55	0.15815
1012.93	0.444359
1016.3	1.37673
1019.68	1.27846
1023.05	0.81028
1026.43	1.33198
1029.8	2.77735
1033.18	3.84804
1036.55	5.23358
1039.93	4.95143
1043.3	5.82166
1046.68	6.33165
1050.05	7.84469
1053.43	9.05846
1056.8	7.96291
1060.18	8.20939
1063.55	7.09689
1066.93	7.42757
1070.3	6.91643
1073.67	6.32501
1077.05	5.30416
1080.42	5.22803
1083.8	4.91705
1087.17	4.62026
1090.55	3.99387
1093.92	4.29446
1097.3	4.44234
1100.67	3.28619
1104.05	2.52583
1107.42	2.92201
1110.8	3.37672
1114.17	2.40723
1117.55	2.70191
1120.92	2.99502
1124.3	3.48189
1127.67	1.79662
1131.05	1.58726
1134.42	1.70662
1137.8	2.79102
1141.17	1.72768
1144.55	0.938713
1147.92	1.66489
1151.3	1.17377
1154.67	0.699524
1158.05	0.920219
1161.42	0.084755
1164.8	0.739677
1168.17	0.501945
1171.55	0.879951
1174.92	0.552658
1178.3	0.691147
1181.67	0.184898
1185.04	0.972046
1188.42	1.28118
1191.79	2.42661
1195.17	2.27028
1198.54	2.44577
1201.92	3.23232
1205.29	4.37949
1208.67	5.05124
1212.04	6.53027
1215.42	7.15671
1218.79	7.63313
1222.17	7.96464
1225.54	8.03229
1228.92	6.34689
1232.29	5.75225
1235.67	4.1235
1239.04	3.53383
1242.42	4.39042
1245.79	4.04492
1249.17	6.45933
1252.54	8.79858
1255.91	8.33897
1259.29	9.27711
1262.66	8.49834
1266.04	5.28927
1269.41	4.50079
1272.79	2.58039
1276.16	2.13549
1279.54	0.309097
1282.91	0.509201
