Measurement: Raman, 532 nm, unoriented, Raman Data Processed
Mineral: Franconite
Rruff sample: R110185
Ideal chemistry: Na_2_Nb_4_O_11_9H_2_O
Locality: Poudrette quarry, Mont St-Hilaire, Quebec, Canada
Source: Donald Doell
Description: Spherical aggregates of white or colorless acicular crystals assocaited with yellow siderite, galena and sphalerite. EDS shows Na, Ca and Nb.
Raman shift (cm-1)	intensity
188.362	0
191.255	5.25207
194.147	60.9237
197.04	154.202
199.933	259.795
202.825	337.184
205.718	396.916
208.611	451.261
211.504	512.117
214.396	542.308
217.289	520.236
220.182	488.681
223.074	478.593
225.967	475.385
228.86	460.672
231.752	425.978
234.645	400.639
237.538	357.748
240.43	325.196
243.323	292.66
246.216	205.658
249.109	93.7075
252.001	18.8258
254.894	6.77026
257.787	7.79248
260.679	15.2504
263.572	5.78564
266.465	7.00891
269.358	8.13611
272.25	3.8009
275.143	29.9524
278.036	65.7487
280.928	101.804
283.821	152.018
286.714	203.454
289.606	256.605
292.499	289.602
295.392	294.669
298.284	229.324
301.177	127.953
304.07	59.858
306.963	19.4503
309.855	20.6503
312.748	32.3923
315.641	30.4779
318.533	15.5076
321.426	5.96472
324.319	3.33948
327.212	0.927124
330.104	10.3651
332.997	17.2015
335.89	7.5155
338.782	11.0278
341.675	35.744
344.568	49.441
347.46	56.6521
350.353	57.5558
353.246	69.079
356.139	94.0396
359.031	133.641
361.924	171.031
364.817	196.003
367.709	211.713
370.602	226.567
373.495	257.336
376.387	311.742
379.28	361.446
382.173	431.061
385.065	523.081
387.958	601.177
390.851	599.736
393.744	484.318
396.636	334.599
399.529	209.065
402.422	137.441
405.314	93.5641
408.207	61.6107
411.1	41.8606
413.993	38.7202
416.885	19.6829
419.778	12.5033
422.671	10.807
425.563	12.1257
428.456	16.9923
431.349	25.8256
434.241	31.1023
437.134	39.2233
440.027	46.272
442.92	70.9839
445.812	111.996
448.705	143.143
451.598	181.145
454.49	214.61
457.383	261.409
460.276	302.581
463.168	335.46
466.061	353.048
468.954	359.185
471.846	344.034
474.739	316.988
477.632	259.679
480.525	203.996
483.417	152.558
486.31	108.12
489.203	74.1503
492.095	45.9605
494.988	31.3508
497.881	23.4969
500.774	10.6626
503.666	1.99072
506.559	7.80786
509.452	17.4465
512.344	20.5027
515.237	18.1118
518.13	15.0996
521.022	2.09351
523.915	14.3728
526.808	43.142
529.701	70.0563
532.593	90.5151
535.486	99.1802
538.379	96.1235
541.271	96.7383
544.164	100.158
547.057	108.149
549.949	132.417
552.842	166.844
555.735	205.154
558.628	267.588
561.52	337.753
564.413	435.145
567.306	539.765
570.198	660.939
573.091	778.022
575.984	907.667
578.876	1023.99
581.769	1133.16
584.662	1209.71
587.554	1256.86
590.447	1261.18
593.34	1237.14
596.232	1155.26
599.125	1034.24
602.018	875.053
604.911	687.478
607.803	518.481
610.696	368.068
613.589	237.42
616.481	139.099
619.374	67.4397
622.267	28.0757
625.159	2.85254
628.052	0.107666
630.945	34.9273
633.838	91.4678
636.73	161.404
639.623	290.471
642.516	428.772
645.408	631.405
648.301	901.175
651.194	1256.72
654.087	1701.82
656.979	2215.33
659.872	2746.98
662.765	3197.9
665.657	3434.39
668.55	3348.72
671.443	2946.65
674.335	2352.38
677.228	1755.88
680.121	1262.65
683.014	899.769
685.906	628.042
688.799	430.861
691.692	290.445
694.584	195.366
697.477	126.459
700.37	73.2808
703.263	34.7358
706.155	17.8066
709.048	8.01367
711.941	3.62244
714.833	10.9502
717.726	17.3742
720.619	15.5746
723.511	8.75305
726.404	5.2312
729.297	8.8811
732.189	14.1769
735.082	16.1595
737.975	19.5418
740.868	27.7731
743.76	28.0546
746.653	42.0309
749.546	46.1564
752.438	62.5308
755.331	64.8566
758.224	62.0112
761.116	62.8679
764.009	58.9924
766.902	57.6397
769.795	53.0317
772.687	50.2479
775.58	47.333
778.473	42.1315
781.365	26.214
784.258	22.5286
787.151	9.776
790.043	8.46301
792.936	9.7179
795.829	9.81201
798.722	0.824463
801.614	0.213257
804.507	7.40881
807.4	7.99829
810.292	6.22583
813.185	2.54883
816.078	5.30298
818.971	0.62146
821.863	5.57153
824.756	1.13708
827.649	8.06201
830.541	5.09521
833.434	21.5936
836.327	28.627
839.219	46.5648
842.112	74.1206
845.005	112.791
847.898	156.429
850.79	213.65
853.683	311.978
856.576	435.516
859.468	578.562
862.361	763.04
865.254	981.514
868.146	1214.96
871.039	1490.69
873.932	1781.98
876.824	2065.38
879.717	2327.45
882.61	2526.92
885.503	2556.95
888.395	2258.58
891.288	1721.06
894.181	1183.99
897.073	797.802
899.966	545.95
902.859	381.492
905.751	274.39
908.644	213.172
911.537	202.394
914.43	234.888
917.322	322.428
920.215	439.927
923.108	562.44
926	682.439
928.893	740.457
931.786	670.19
934.678	548.303
937.571	403.465
940.464	277.837
943.357	196.706
946.249	131.311
949.142	77.5665
952.035	40.3676
954.927	19.4742
957.82	15.6317
960.713	11.3727
963.606	10.1858
966.498	0.040283
969.391	2.95166
972.284	10.147
975.176	17.9647
978.069	29.937
980.962	36.6161
983.854	35.6934
986.747	26.79
989.64	24.7715
992.533	14.511
995.425	5.40942
998.318	1.37463
1001.21	5.16772
1004.1	6.11035
1007	5.44665
1009.89	3.26978
1012.78	0.566772
1015.67	6.05579
1018.57	15.1422
1021.46	10.4115
1024.35	11.1111
1027.24	11.322
1030.14	11.4921
1033.03	19.9801
1035.92	24.7174
1038.82	27.3676
1041.71	22.8422
1044.6	31.0981
1047.49	29.5844
1050.39	36.9447
1053.28	45.0122
1056.17	43.9177
1059.07	40.7011
1061.96	38.9969
1064.85	40.2025
1067.74	33.0377
1070.63	32.821
1073.53	24.15
1076.42	25.5865
1079.31	22.3571
1082.21	20.0612
1085.1	14.7064
1087.99	14.7319
1090.88	18.7272
1093.78	19.0095
1096.67	15.4858
1099.56	20.9796
1102.45	14.8959
1105.35	14.8456
1108.24	11.7082
1111.13	19.7814
1114.03	16.4236
1116.92	19.8267
1119.81	11.5902
1122.7	16.9585
1125.6	11.0791
1128.49	8.95056
1131.38	4.8374
1134.28	11.9163
1137.17	7.91846
1140.06	12.8643
1142.95	10.3784
1145.85	5.66052
1148.74	4.46106
1151.63	7.2738
1154.52	3.11914
1157.42	5.63538
1160.31	5.83911
1163.2	9.68396
1166.09	4.69763
1168.99	2.40417
1171.88	1.78906
1174.77	6.28748
1177.66	8.49878
1180.56	4.81274
1183.45	6.90405
1186.34	13.4102
1189.24	11.4322
1192.13	8.82031
1195.02	2.43958
1197.91	5.55103
1200.81	10.4937
1203.7	6.58594
1206.59	14.5197
1209.48	17.444
1212.38	17.9363
1215.27	13.6785
1218.16	5.90039
1221.06	6.3551
1223.95	6.56348
1226.84	6.71423
1229.73	3.97595
1232.63	3.16138
1235.52	2.57935
1238.41	4.93042
1241.31	4.72119
1244.2	13.8224
1247.09	8.63049
1249.98	2.33362
1252.88	8.92725
1255.77	4.84961
1258.66	9.11963
1261.55	13.7361
1264.45	13.0017
1267.34	12.1477
1270.23	11.4968
1273.12	5.26953
1276.02	13.5637
1278.91	13.7151
1281.8	7.85254
1284.69	2.9331
1287.59	10.0476
1290.48	8.00659
1293.37	10.3127
1296.27	4.74829
1299.16	8.36475
1302.05	3.29834
