Measurement: Raman, 532 nm, unoriented, Raman Data Processed
Mineral: Franciscanite
Rruff sample: R060056
Ideal chemistry: Mn^2+^_6_V^5+^(SiO_4_)_2_(O,OH)_6_
Locality: Pennsylvania mine, Santa Clara County, California, USA
Source: Marcus Origlieri
Description: Black to deep red granular massive
Measured chemistry: Mn^2+^_6.00_(V^5+^_0.86_Fe^3+^_0.10_Ti_0.04_)_Î£=1_(Si_1.00_O_4_)_2_((OH)_3.24_O_2.76_)_6_
Raman shift (cm-1)	intensity
114.075	0
117.45	3.71787
120.825	15.068
124.2	28.6176
127.575	40.437
130.949	54.478
134.324	83.0244
137.699	76.7237
141.074	35.3765
144.449	19.8442
147.823	24.9048
151.198	33.1195
154.573	42.0318
157.948	37.3411
161.323	19.6096
164.698	12.065
168.072	12.5904
171.447	8.63141
174.822	4.04271
178.197	0.342674
181.572	1.57966
184.946	3.6786
188.321	1.49788
191.696	0.575985
195.071	3.42348
198.446	4.12306
201.821	5.94281
205.195	4.27233
208.57	5.38073
211.945	5.71527
215.32	18.0062
218.695	26.4287
222.069	38.0307
225.444	50.1608
228.819	74.3596
232.194	96.5681
235.569	109.9
238.944	85.6879
242.318	63.3072
245.693	50.7983
249.068	38.9633
252.443	33.0834
255.818	26.9873
259.192	20.567
262.567	17.2177
265.942	15.1194
269.317	12.4744
272.692	15.5221
276.067	11.4339
279.441	7.19954
282.816	4.96027
286.191	0.867695
289.566	0.883125
292.941	0.360203
296.315	2.28674
299.69	0.580471
303.065	4.62354
306.44	6.61903
309.815	6.72412
313.19	8.63878
316.564	10.0866
319.939	11.5092
323.314	13.5659
326.689	10.3776
330.063	4.6866
333.438	7.24871
336.813	6.56677
340.188	2.53606
343.563	3.33697
346.938	1.18457
350.312	0.694386
353.687	1.04991
357.062	1.49108
360.437	0.874123
363.812	0.876553
367.187	0.702057
370.561	0.831097
373.936	2.87559
377.311	5.85664
380.686	7.73452
384.061	12.54
387.435	15.4095
390.81	17.8971
394.185	20.7775
397.56	23.2405
400.935	23.6735
404.309	22.7474
407.684	16.865
411.059	15.317
414.434	13.515
417.809	12.771
421.183	13.3675
424.558	8.598
427.933	10.4904
431.308	13.5514
434.683	13.9498
438.058	16.9216
441.432	20.2535
444.807	22.5703
448.182	24.2694
451.557	23.234
454.932	20.2321
458.307	17.494
461.681	12.9491
465.056	8.45192
468.431	3.71057
471.806	1.04658
475.181	0.5326
478.555	0.822208
481.93	0.708752
485.305	0.329357
488.68	0.520184
492.055	2.23155
495.43	1.76721
498.804	5.90707
502.179	9.1032
505.554	9.293
508.929	11.0303
512.303	12.6336
515.678	12.8727
519.053	9.30997
522.428	3.81311
525.803	2.75645
529.178	3.15034
532.552	0.43676
535.927	2.75761
539.302	2.87234
542.677	3.49974
546.052	4.69053
549.427	5.77668
552.801	8.11449
556.176	11.6774
559.551	8.76275
562.926	5.54275
566.301	3.65029
569.675	4.19778
573.05	2.89234
576.425	4.70237
579.8	4.33375
583.175	5.93602
586.549	4.85773
589.924	2.15373
593.299	3.69078
596.674	2.33949
600.049	1.5338
603.423	1.61731
606.798	1.24494
610.173	2.58583
613.548	1.43771
616.923	1.06759
620.298	2.39405
623.672	3.02706
627.047	0.496422
630.422	1.37248
633.797	3.41639
637.172	2.26729
640.547	2.1917
643.921	0.769611
647.296	0.70488
650.671	0.262363
654.046	1.80088
657.421	0.784389
660.795	1.99455
664.17	0.62661
667.545	1.28476
670.92	1.94958
674.295	1.61545
677.669	0.509933
681.044	0.134159
684.419	0.3634
687.794	5.09149
691.169	6.06226
694.544	11.9429
697.918	16.5121
701.293	21.1627
704.668	19.1713
708.043	15.7992
711.418	11.582
714.792	8.82018
718.167	8.26041
721.542	7.07864
724.917	11.1807
728.292	14.0462
731.667	21.7161
735.041	29.9607
738.416	36.6626
741.791	57.2156
745.166	78.1733
748.541	115.697
751.915	186.354
755.29	309.102
758.665	468.508
762.04	691.28
765.415	983.251
768.789	1082.25
772.164	717.386
775.539	375.259
778.914	210.521
782.289	130.426
785.664	85.7606
789.038	57.9376
792.413	41.6169
795.788	25.7795
799.163	16.9872
802.538	14.2979
805.913	8.57735
809.287	3.56145
812.662	0.599571
816.037	0.781288
819.412	2.48268
822.787	1.63808
826.161	0.262581
829.536	8.97183
832.911	14.1605
836.286	22.4205
839.661	26.1106
843.035	21.5848
846.41	12.1869
849.785	4.56178
853.16	2.048
856.535	1.61423
859.909	1.94293
863.284	3.61054
866.659	6.10704
870.034	7.10657
873.409	4.00699
876.784	0.529644
880.158	1.32939
883.533	1.13669
886.908	1.26192
890.283	2.54796
893.658	4.30565
897.033	5.281
900.407	4.43636
903.782	4.33324
907.157	1.86097
910.532	4.76163
913.907	3.40843
917.281	2.19006
920.656	2.78177
924.031	0.212814
927.406	0.595844
930.781	3.00161
934.155	3.4907
937.53	6.57244
940.905	7.55045
944.28	7.40513
947.655	8.47694
951.029	5.76569
954.404	3.04494
957.779	0.896622
961.154	1.39564
964.529	0.72263
967.904	2.36307
971.278	0.572918
974.653	1.71398
978.028	0.872646
981.403	0.901718
984.778	0.37587
988.153	2.22598
991.527	0.768539
994.902	0.793774
998.277	0.560738
1001.65	2.58804
1005.03	0.943275
1008.4	1.28005
1011.78	1.2987
1015.15	2.11623
1018.53	1.28757
1021.9	1.15244
1025.28	2.55437
1028.65	1.39109
1032.03	3.36664
1035.4	1.97422
1038.78	1.97997
1042.15	1.72429
1045.52	2.27604
1048.9	3.78476
1052.27	2.43441
1055.65	2.30542
1059.02	1.53283
1062.4	1.35083
1065.77	2.75697
1069.15	2.65798
1072.52	1.0999
1075.9	3.09258
1079.27	3.96227
1082.65	1.82166
1086.02	2.2613
1089.4	3.79737
1092.77	3.09264
1096.15	2.42712
1099.52	0.685429
1102.9	0.889587
1106.27	0.865211
1109.65	0.525017
1113.02	2.03409
1116.39	0.29287
1119.77	0.063786
1123.14	0.303631
1126.52	0.253803
1129.89	0.157276
1133.27	1.38823
1136.64	1.38929
1140.02	0.663029
1143.39	0.135403
1146.77	3.36414
1150.14	0.875721
1153.52	1.96388
1156.89	2.07199
1160.27	1.57094
1163.64	1.80161
1167.02	2.58366
1170.39	2.41609
1173.77	1.44879
1177.14	1.13115
1180.52	1.84265
1183.89	1.64361
1187.27	1.7569
1190.64	0.74551
1194.02	2.95597
1197.39	1.49051
1200.77	1.5105
1204.14	1.83076
1207.52	1.82713
1210.89	1.85229
1214.27	1.91096
1217.64	3.55446
1221.02	3.08552
1224.39	2.85189
1227.76	2.61345
1231.14	3.15182
1234.51	1.55445
1237.89	1.76622
1241.26	2.38849
1244.64	2.15879
1248.01	2.05407
1251.39	0.443115
1254.76	0.684551
1258.14	1.22077
1261.51	0.007244
1264.89	0.27206
1268.26	1.14173
1271.64	1.40908
1275.01	1.67827
1278.39	1.6232
1281.76	1.27157
1285.14	1.72334
1288.51	0.287849
1291.89	0
