Measurement: Raman, 532 nm, unoriented, Raman Data Processed
Mineral: Frankamenite
Rruff sample: R060100
Ideal chemistry: K_3_Na_3_Ca_5_Si_12_O_30_(F,OH)_4_H_2_O
Locality: Murun Massif, Sakka, Yakutia, Russia
Source: University of Arizona Mineral Museum
Description: Gray thin laths associated with purple charoite
Measured chemistry: (K_2.95_Na_0.05_)_Σ=3_Na_3.00_(Ca_4.90_Mn_0.10_)_Σ=5_Si_12.00_O_30_F_4.00_
Raman shift (cm-1)	intensity
130.279	0
133.654	55.4334
137.029	195.303
140.404	277.25
143.779	321.321
147.154	418.894
150.528	546.209
153.903	518.958
157.278	356.266
160.653	242.208
164.028	185.436
167.402	166.173
170.777	164.883
174.152	180.524
177.527	201.452
180.902	224.145
184.277	270.923
187.651	299.716
191.026	294.44
194.401	200.281
197.776	116.67
201.151	63.6019
204.525	36.6427
207.9	17.6901
211.275	10.5671
214.65	0.066406
218.025	3.92676
221.4	9.50244
224.774	8.9823
228.149	7.71472
231.524	8.1344
234.899	3.92798
238.274	5.69336
241.649	16.1064
245.023	27.0617
248.398	40.6624
251.773	67.6211
255.148	86.8123
258.523	102.977
261.897	113.25
265.272	138.138
268.647	151.54
272.022	138.729
275.397	136.032
278.772	130.651
282.146	125.482
285.521	109.579
288.896	83.9161
292.271	56.0645
295.646	36.2638
299.02	31.1392
302.395	19.6488
305.77	24.0841
309.145	28.2771
312.52	34.9807
315.895	49.4397
319.269	67.756
322.644	87.9755
326.019	127.228
329.394	161.626
332.769	183.897
336.144	183.893
339.518	147.205
342.893	103.946
346.268	71.5773
349.643	46.9988
353.018	17.2694
356.392	0.224854
359.767	7.96606
363.142	7.45972
366.517	4.95178
369.892	25.2682
373.267	48.2848
376.641	79.3434
380.016	122.312
383.391	145.872
386.766	125.916
390.141	89.0345
393.515	68.8501
396.89	63.1654
400.265	67.3394
403.64	65.9678
407.015	70.6826
410.39	58.7001
413.764	52.4507
417.139	40.6473
420.514	28.6385
423.889	32.2499
427.264	40.3718
430.639	54.3618
434.013	72.6006
437.388	97.3561
440.763	90.0967
444.138	52.7946
447.513	42.2391
450.887	59.9862
454.262	85.4595
457.637	126.883
461.012	177.26
464.387	208.262
467.762	119.659
471.136	48.7533
474.511	30.2648
477.886	14.8123
481.261	10.2664
484.636	6.54394
488.01	1.52795
491.385	3.37402
494.76	3.25903
498.135	3.76489
501.51	8.43237
504.885	7.89575
508.259	7.51099
511.634	11.3521
515.009	15.199
518.384	24.2886
521.759	26.9551
525.134	35.0242
528.508	54.2368
531.883	68.2595
535.258	71.4636
538.633	38.4153
542.008	25.7356
545.382	13.4827
548.757	15.2583
552.132	5.37646
555.507	0.5896
558.882	0.323242
562.256	1.04883
565.631	2.22437
569.006	3.07129
572.381	1.98535
575.756	1.72217
579.131	5.91675
582.505	16.5508
585.88	15.1221
589.255	21.3513
592.63	31.3875
596.005	51.2302
599.38	88.4512
602.754	146.414
606.129	238.117
609.504	342.648
612.879	453.312
616.254	547.85
619.629	497.606
623.003	358.497
626.378	343.084
629.753	465.535
633.128	702.733
636.503	977.757
639.877	1329.25
643.252	1688.87
646.627	1545.43
650.002	847.386
653.377	412.992
656.751	232.081
660.126	152.606
663.501	101.451
666.876	62.6435
670.251	44.9714
673.626	35.6558
677	21.3123
680.375	11.0832
683.75	9.35938
687.125	0.692139
690.5	3.19482
693.875	0.955566
697.249	8.51465
700.624	7.6875
703.999	0.391357
707.374	4.48975
710.749	3.47705
714.124	1.34033
717.498	0.573242
720.873	15.0596
724.248	7.18701
727.623	3.63647
730.998	2.78955
734.372	1.83643
737.747	4.83765
741.122	10.5098
744.497	11.3626
747.872	10.3435
751.246	10.0998
754.621	9.15454
757.996	20.4934
761.371	25.0908
764.746	24.636
768.121	24.1733
771.495	22.3215
774.87	16.0547
778.245	10.8477
781.62	9.4956
784.995	16.7153
788.37	15.3928
791.744	22.1155
795.119	22.1028
798.494	23.6843
801.869	34.6594
805.244	35.7683
808.619	29.0708
811.993	10.9058
815.368	9.20508
818.743	1.16943
822.118	7.01147
825.493	9.18848
828.867	13.9675
832.242	15.9241
835.617	18.4988
838.992	12.1282
842.367	18.7808
845.741	12.4683
849.116	14.0378
852.491	10.8042
855.866	13.605
859.241	5.00806
862.616	1.97974
865.99	9.1626
869.365	9.77417
872.74	6.14941
876.115	1.20825
879.49	3.78687
882.865	1.93555
886.239	4.19458
889.614	8.6167
892.989	4.98438
896.364	1.45312
899.739	16.8189
903.113	17.5395
906.488	10.9399
909.863	12.7385
913.238	15.7639
916.613	19.9656
919.987	15.6777
923.362	12.4424
926.737	4.84595
930.112	0.32373
933.487	12.7554
936.862	16.5183
940.236	13.0205
943.611	13.3774
946.986	12.8925
950.361	15.4626
953.736	16.5693
957.111	6.4895
960.485	4.42456
963.86	3.13525
967.235	3.02563
970.61	2.97192
973.985	16.8599
977.36	13.7495
980.734	17.352
984.109	15.1802
987.484	16.8574
990.859	18.2993
994.234	15.9746
997.608	19.1314
1000.98	21.3467
1004.36	7.4707
1007.73	7.64209
1011.11	6.74658
1014.48	9.56787
1017.86	9.34375
1021.23	15.6279
1024.61	3.34131
1027.98	5.12891
1031.36	2.21777
1034.73	5.51318
1038.11	0.304199
1041.48	2.0581
1044.86	16.3374
1048.23	24.0395
1051.61	16.8604
1054.98	21.4634
1058.36	16.3931
1061.73	25.5454
1065.11	32.7026
1068.48	50.4273
1071.85	63.9145
1075.23	53.4858
1078.6	31.3491
1081.98	26.0303
1085.35	31.8457
1088.73	37.6748
1092.1	41.9077
1095.48	46.2685
1098.85	55.3897
1102.23	88.4453
1105.6	144.596
1108.98	231.359
1112.35	419.369
1115.73	645.196
1119.1	829.742
1122.48	880.736
1125.85	610.536
1129.23	296.024
1132.6	151.853
1135.98	84.791
1139.35	42.6138
1142.73	31.2793
1146.1	31.0781
1149.47	27.3569
1152.85	19.4439
1156.22	8.98389
1159.6	7.05078
1162.97	3.36572
1166.35	12.9473
1169.72	1.55859
1173.1	14.1748
1176.47	9.80273
1179.85	1.76856
1183.22	7.34424
1186.6	5.57275
1189.97	8.11475
1193.35	15.1216
1196.72	15.5117
1200.1	17.8472
1203.47	18.9551
1206.85	17.9273
1210.22	18.3911
1213.6	17.7871
1216.97	18.9639
1220.35	19.6392
1223.72	25.1758
1227.1	14.6167
1230.47	15.7934
1233.85	13.8089
1237.22	17.9355
1240.6	3.76904
1243.97	4.36328
1247.35	14.3574
1250.72	16.0781
1254.1	13.7876
1257.47	11.5933
1260.84	17.6436
1264.22	19.2998
1267.59	33.8545
1270.97	38.8433
1274.34	34.0742
1277.72	23.4395
1281.09	9.39453
1284.47	5.00439
1287.84	13.8618
1291.22	12.4937
1294.59	25.6338
1297.97	11.4404
1301.34	1.75439
