Measurement: Raman, 532 nm, unoriented, Raman Data Processed
Mineral: Francevillite
Rruff sample: R070159
Ideal chemistry: Ba(UO_2_)_2_(VO_4_)_2_5H_2_O
Locality: Mounana mine, Franceville, Haut-Ogooue, Gabon
Source: James Shigley
Description: Aggregate of orange tabular crystals
Raman shift (cm-1)	intensity
149.217	0
152.11	87.8301
155.003	290.783
157.895	409.434
160.788	532.568
163.681	662.798
166.574	799.125
169.466	954.001
172.359	979.174
175.252	903.815
178.144	1012.32
181.037	1040.04
183.93	1130.48
186.822	1045.14
189.715	901.082
192.608	731.75
195.501	440.096
198.393	204.501
201.286	46.4023
204.179	63.5117
207.071	60.7505
209.964	29.6738
212.857	11.0859
215.75	343.147
218.642	714.904
221.535	1003.9
224.428	1478.34
227.32	2153.54
230.213	2927.55
233.106	3754.32
235.999	4514.71
238.891	5233.62
241.784	5441.84
244.677	5046.36
247.569	4038.56
250.462	3249.4
253.355	2556.54
256.247	1928.05
259.14	1388.16
262.033	747.962
264.925	294.015
267.818	27.1895
270.711	212.487
273.604	217.306
276.496	253.33
279.389	6.61035
282.282	210.614
285.174	555.891
288.067	1058.61
290.96	1867.29
293.853	2853.27
296.745	4062.68
299.638	5152.01
302.531	5977.96
305.423	6143.31
308.316	5496.5
311.209	4204.73
314.101	2875.73
316.994	1702.5
319.887	922.494
322.779	547.777
325.672	393.229
328.565	524.673
331.458	866.678
334.35	1348.43
337.243	2187.76
340.136	2878.27
343.028	3635.65
345.921	4355.26
348.814	5222.73
351.707	6370.5
354.599	8109.68
357.492	10483.1
360.385	13514.9
363.277	16496.5
366.17	19223
369.063	20192.6
371.955	19122.4
374.848	16454.7
377.741	13313.1
380.634	10140.2
383.526	7624.65
386.419	5939.12
389.312	4987.56
392.204	4592.15
395.097	4643.54
397.99	4973.34
400.882	5408.73
403.775	5676
406.668	5567.27
409.56	5018.79
412.453	4153.43
415.346	3005.77
418.239	1972.46
421.131	1234.6
424.024	628.335
426.917	250.586
429.81	45.2881
432.702	158.344
435.595	263.292
438.488	250.752
441.38	312.091
444.273	206.238
447.166	94.2969
450.058	124.575
452.951	447.323
455.844	896.205
458.736	1467.32
461.629	2026.3
464.522	2613.09
467.415	3054.25
470.307	3231.69
473.2	3076.01
476.093	2840.23
478.985	2326.97
481.878	1899.22
484.771	1544.84
487.663	1381.99
490.556	1121.14
493.449	859.074
496.342	732.056
499.234	786.645
502.127	923.405
505.02	1357.72
507.912	2021.41
510.805	3039.45
513.698	4132.93
516.591	5112.3
519.483	6198.7
522.376	6944.04
525.269	7495.51
528.161	7426.36
531.054	7033.72
533.947	6165.49
536.839	5186.98
539.732	4021.41
542.625	2902.24
545.518	1912.57
548.41	1259.5
551.303	883.872
554.196	757.693
557.088	844.944
559.981	1133.19
562.874	1564.24
565.766	2113.37
568.659	2402.38
571.552	2561.88
574.444	2616.83
577.337	2498.56
580.23	2224.29
583.123	1775.55
586.015	1443.88
588.908	1110.87
591.801	781.134
594.693	577.576
597.586	396.036
600.479	371.223
603.372	396.892
606.264	233.145
609.157	157.37
612.05	36.416
614.942	122.005
617.835	246.957
620.728	186.237
623.62	168.745
626.513	46.6074
629.406	232.418
632.299	634.035
635.191	1074.85
638.084	1604.87
640.977	2075.39
643.869	2395.8
646.762	2579.66
649.655	2366.36
652.548	1913.32
655.44	1427.38
658.333	967.751
661.226	616.429
664.118	349.491
667.011	191.341
669.904	154.505
672.796	87.5049
675.689	43.6426
678.582	43.7754
681.475	51.4277
684.367	29.6396
687.26	185.198
690.153	397.944
693.045	751.401
695.938	1286.96
698.831	1790.85
701.723	2569.15
704.616	3499.89
707.509	4631.99
710.402	6075.48
713.294	7998.95
716.187	10352.8
719.08	13361.7
721.972	17526.8
724.865	22656.9
727.758	29035.3
730.65	36146
733.543	43068.8
736.436	48786.6
739.329	51636.8
742.221	51085.4
745.114	46814.7
748.007	40277.5
750.899	33241.5
753.792	26824.4
756.685	21137.9
759.577	16496.8
762.47	12532.6
765.363	9383.54
768.256	7046.88
771.148	5140.66
774.041	3715.65
776.934	2485.7
779.826	1768.38
782.719	1032.19
785.612	523.268
788.505	141.764
791.397	144.217
794.29	165.536
797.183	216.756
800.075	19.1846
802.968	497.161
805.861	1234.18
808.753	2562.28
811.646	4269.34
814.539	6278.05
817.432	8168.41
820.324	9282.67
823.217	9261.85
826.11	8324.58
829.002	6874.44
831.895	5317.56
834.788	4117.28
837.68	3118.99
840.573	2435.39
843.466	1984.64
846.359	1685.91
849.251	1508.84
852.144	1317.48
855.037	1153.62
857.929	1030.48
860.822	949.943
863.715	635.316
866.607	483.708
869.5	290.42
872.393	129.877
875.285	32.4512
878.178	4.23975
881.071	47.0151
883.964	30.3892
886.856	25.5532
889.749	52.5723
892.642	21.6943
895.534	37.3921
898.427	33.0615
901.32	145.304
904.212	140.518
907.105	275.015
909.998	355.671
912.891	415.136
915.783	511.035
918.676	651.951
921.569	826.446
924.461	1064.03
927.354	1319.04
930.247	1565.54
933.139	1963.21
936.032	2307.28
938.925	2720.54
941.818	3298.81
944.71	3663.69
947.603	4423.59
950.496	5263.42
953.388	6197.38
956.281	7040.59
959.174	7614.16
962.067	7655.66
964.959	6983.59
967.852	6236.65
970.745	5438.02
973.637	4685.11
976.53	3937.14
979.423	3069.84
982.315	2096.82
985.208	1389.78
988.101	870.356
990.994	551.826
993.886	386.884
996.779	250.787
999.672	139.951
1002.56	78.6592
1005.46	70.0879
1008.35	5.08691
1011.24	48.4512
1014.13	21.1118
1017.03	17.9961
1019.92	7.50928
1022.81	39.915
1025.71	21.9131
1028.6	23.4194
1031.49	4.78809
1034.38	8.29004
1037.28	19.8003
1040.17	8.46094
1043.06	12.4194
1045.95	22.5874
1048.85	38.3589
1051.74	29.3589
1054.63	87.7173
1057.53	49.8193
1060.42	75.5537
1063.31	60.0215
1066.2	58.3867
1069.1	59.855
1071.99	57.541
1074.88	117.946
1077.78	58.5708
1080.67	75.187
1083.56	100.165
1086.45	81.6099
1089.35	96.4365
1092.24	125.9
1095.13	125.545
1098.02	106.112
1100.92	25.1411
1103.81	98.9531
1106.7	103.318
1109.59	87.7927
1112.49	85.2651
1115.38	84.0283
1118.27	55.6858
1121.16	78.1433
1124.06	47.5178
1126.95	51.583
1129.84	33.8401
1132.74	12.7578
1135.63	36.114
1138.52	18.9561
1141.41	47.0457
1144.31	6.78369
1147.2	24.6511
1150.09	21.4209
1152.98	32.3086
1155.88	41.415
1158.77	23.229
1161.66	20.3523
1164.56	23.6255
1167.45	28.7351
1170.34	42.9529
1173.23	76.5251
1176.13	27.6365
1179.02	53.5752
1181.91	10.6167
1184.81	17.1001
1187.7	36.8364
1190.59	28.4082
1193.48	56.8662
1196.38	71.6484
1199.27	41.6211
1202.16	60.5
1205.05	45.2783
1207.95	7.35156
1210.84	17.6267
1213.73	17.8237
1216.62	4.896
1219.52	10.3879
1222.41	8.54395
1225.3	12.4424
1228.19	26.4382
1231.09	27.5913
1233.98	10.8403
1236.87	4.22192
1239.77	13.4688
1242.66	45.4556
1245.55	28.1003
1248.44	14.2417
1251.34	3.2395
1254.23	25.2952
1257.12	1.94995
1260.02	20.6548
1262.91	20.0879
1265.8	61.2195
1268.69	28.3489
1271.59	56.6489
1274.48	44.1162
1277.37	35.3494
1280.26	36.8625
1283.16	24.0496
1286.05	43.166
1288.94	5.46265
1291.83	56.1748
