Measurement: Raman, 780 nm, unoriented, Raman Data Processed
Mineral: Fredrikssonite
Rruff sample: R130112
Ideal chemistry: Mg_2_Mn^3+^O_2_(BO_3_)
Locality: Langban, Filipstad, Varmland, Sweden
Source: Rock Currier
Description: Opaque reddish black striated prismatic crystals, associated with calcite and granular hausmannite.
Raman shift (cm-1)	intensity
135.072	0
137.965	1.33327
140.858	4.90268
143.75	13.2549
146.643	27.7398
149.536	54.5522
152.428	76.1899
155.321	36.1314
158.214	23.5356
161.107	30.8068
163.999	43.5643
166.892	58.1492
169.785	67.9916
172.677	73.2678
175.57	48.0545
178.463	14.9723
181.355	3.81986
184.248	0.80571
187.141	0.976105
190.033	1.28655
192.926	1.24066
195.819	0.336945
198.712	0.761795
201.604	2.0993
204.497	3.00753
207.39	4.86186
210.282	5.55943
213.175	4.54338
216.068	4.12161
218.96	2.50977
221.853	2.45065
224.746	2.02419
227.638	4.16412
230.531	11.2343
233.424	13.1583
236.317	9.31702
239.209	5.9929
242.102	7.3989
244.995	4.57171
247.887	3.6327
250.78	0.061165
253.673	2.08974
256.565	1.71589
259.458	0.840347
262.351	1.28163
265.244	3.89336
268.136	7.01985
271.029	8.2627
273.922	8.65213
276.814	11.2657
279.707	13.6957
282.6	20.7671
285.493	25.9947
288.385	33.2084
291.278	41.2361
294.171	50.9374
297.063	59.8905
299.956	67.949
302.849	79.33
305.741	90.2743
308.634	99.2502
311.527	106.36
314.42	112.74
317.312	112.94
320.205	109.242
323.098	103.131
325.99	87.204
328.883	74.3494
331.776	58.0777
334.668	49.5939
337.561	44.7473
340.454	41.8505
343.346	34.5901
346.239	29.6799
349.132	23.0345
352.024	15.6172
354.917	10.3444
357.81	7.99741
360.703	6.80368
363.595	11.1624
366.488	14.8721
369.381	19.4221
372.273	12.9733
375.166	9.25626
378.059	10.4095
380.952	12.5918
383.844	13.9133
386.737	16.8025
389.63	18.2899
392.522	10.7068
395.415	1.38986
398.308	2.24058
401.2	1.7992
404.093	1.90614
406.986	1.49331
409.878	1.79983
412.771	5.16629
415.664	8.18419
418.557	13.6137
421.449	20.2118
424.342	23.6072
427.235	24.3214
430.127	17.9929
433.02	13.6467
435.913	9.83341
438.805	8.49786
441.698	7.56285
444.591	6.33112
447.484	7.57458
450.376	5.99937
453.269	8.01582
456.162	11.0301
459.054	14.3422
461.947	18.6776
464.84	21.856
467.733	27.5403
470.625	33.6011
473.518	42.0707
476.411	53.57
479.303	68.8312
482.196	88.1266
485.089	112.192
487.981	124.793
490.874	111.113
493.767	76.5487
496.659	50.5193
499.552	32.148
502.445	21.5178
505.337	12.0454
508.23	4.5513
511.123	0.021111
514.016	2.39558
516.908	4.62322
519.801	4.77003
522.694	5.2604
525.586	5.17988
528.479	3.33789
531.372	2.0447
534.264	0.594467
537.157	2.62561
540.05	9.18967
542.943	12.1549
545.835	20.0622
548.728	29.6485
551.621	36.6124
554.513	45.9915
557.406	57.3952
560.299	72.8822
563.192	90.4572
566.084	111.079
568.977	135.886
571.87	159.378
574.762	186.393
577.655	210.279
580.548	235.818
583.44	254.279
586.333	266.986
589.226	269.786
592.119	268.862
595.011	260.879
597.904	248.675
600.797	232.038
603.689	211.488
606.582	190.411
609.475	171.44
612.367	153.218
615.26	137.721
618.153	124.81
621.045	113.604
623.938	107.259
626.831	99.5009
629.723	92.0909
632.616	89.1503
635.509	86.0441
638.402	88.6199
641.294	93.5663
644.187	102.056
647.08	116.635
649.972	132.065
652.865	154.344
655.758	180.421
658.65	218.062
661.543	260.094
664.436	306.519
667.329	341.933
670.221	335.272
673.114	288.24
676.007	219.099
678.899	153.692
681.792	100.418
684.685	64.5969
687.577	36.9379
690.47	20.6298
693.363	7.18198
696.256	0.403694
699.148	4.01182
702.041	7.31154
704.934	6.72752
707.826	6.31399
710.719	3.47801
713.612	1.84376
716.505	0.806808
719.397	3.21912
722.29	5.49406
725.183	5.53127
728.075	4.54232
730.968	3.97361
733.861	5.58526
736.753	6.02748
739.646	8.89379
742.539	10.176
745.432	9.93163
748.324	11.501
751.217	12.047
754.11	13.4762
757.002	13.8541
759.895	13.081
762.788	11.647
765.68	12.0073
768.573	9.8872
771.466	8.73668
774.359	10.103
777.251	8.30005
780.144	8.49868
783.037	9.02739
785.929	8.47793
788.822	7.81027
791.715	6.21764
794.607	5.34695
797.5	4.91784
800.393	4.44994
803.285	4.95445
806.178	3.88143
809.071	1.86791
811.963	3.34272
814.856	1.7529
817.749	2.65008
820.642	1.1765
823.534	1.72413
826.427	1.66246
829.32	0.689304
832.212	2.23341
835.105	1.39043
837.998	1.44961
840.89	2.03521
843.783	1.42533
846.676	1.39682
849.569	1.58296
852.461	0.426781
855.354	0.977253
858.247	1.19428
861.139	0.629986
864.032	0.886086
866.925	0.753998
869.817	0.955956
872.71	0.967251
875.603	1.10766
878.495	0.877094
881.388	0.423061
884.281	0.177761
887.174	0.386608
890.066	0.827871
892.959	0.504366
895.852	0.391895
898.744	0.567429
901.637	0.241585
904.53	1.10686
907.423	0.145695
910.315	0.77808
913.208	0.014469
916.101	0.954414
918.993	1.84964
921.886	0.970984
924.779	2.33986
927.671	2.03914
930.564	3.70878
933.457	4.96567
936.35	6.73079
939.242	9.06245
942.135	11.9911
945.028	18.2063
947.92	25.9126
950.813	37.5603
953.706	46.0369
956.598	38.6208
959.491	23.5678
962.384	12.3652
965.277	6.86166
968.169	4.14484
971.062	3.34321
973.955	1.28609
976.847	1.44743
979.74	1.25439
982.633	1.56364
985.525	0.429535
988.418	1.4575
991.311	0.206535
994.203	0.185091
997.096	0.812532
999.989	0.784348
1002.88	1.24045
1005.77	1.39474
1008.67	1.38819
1011.56	1.59558
1014.45	0.36648
1017.35	1.34085
1020.24	1.714
1023.13	1.05923
1026.02	0.786669
1028.92	0.945465
1031.81	0.122637
1034.7	1.53639
1037.59	1.3149
1040.49	0.651081
1043.38	1.60667
1046.27	1.03689
1049.16	0.80102
1052.06	0.172916
1054.95	0.54723
1057.84	0.911568
1060.74	1.36587
1063.63	0.954824
1066.52	0.517109
1069.41	0.292143
1072.31	0.037621
1075.2	0.396938
1078.09	0.725985
1080.98	1.67819
1083.88	2.74688
1086.77	3.58133
1089.66	5.23324
1092.56	5.28334
1095.45	4.07441
1098.34	1.35474
1101.23	1.07747
1104.13	1.06004
1107.02	0.381441
1109.91	0.668903
1112.8	0.045328
1115.7	0.529444
1118.59	0.412123
1121.48	0.45982
1124.38	0.56826
1127.27	0.320053
1130.16	0.976681
1133.05	0.567913
1135.95	0.423042
1138.84	1.06574
1141.73	1.31227
1144.62	2.32154
1147.52	1.74238
1150.41	2.2306
1153.3	2.22073
1156.19	2.96309
1159.09	3.76088
1161.98	4.52064
1164.87	4.33198
1167.77	3.66218
1170.66	4.44838
1173.55	4.93179
1176.44	4.72753
1179.34	6.11062
1182.23	5.0779
1185.12	6.49932
1188.01	6.48137
1190.91	6.18537
1193.8	6.7497
1196.69	6.73919
1199.59	6.27078
1202.48	6.46489
1205.37	6.8114
1208.26	6.27623
1211.16	7.81775
1214.05	7.60142
1216.94	8.09689
1219.83	7.27237
1222.73	7.43475
1225.62	7.71345
1228.51	7.19439
1231.4	6.59015
1234.3	6.94087
1237.19	6.93529
1240.08	5.46801
1242.97	5.40297
1245.87	4.82723
1248.76	4.34548
1251.65	3.35739
1254.55	2.62611
1257.44	3.79303
1260.33	1.42862
1263.22	1.75859
1266.12	0.025547
1269.01	0.375271
1271.9	0.176422
1274.8	0.176411
1277.69	0.611008
1280.58	0.035027
1283.47	0.250492
