Measurement: Raman, 532 nm, unoriented, Raman Data Processed
Mineral: Fredrikssonite
Rruff sample: R130112
Ideal chemistry: Mg_2_Mn^3+^O_2_(BO_3_)
Locality: Langban, Filipstad, Varmland, Sweden
Source: Rock Currier
Description: Opaque reddish black striated prismatic crystals, associated with calcite and granular hausmannite.
Raman shift (cm-1)	intensity
195.427	0
198.32	0.929089
201.213	1.62823
204.105	0.9944
206.998	0.077847
209.891	0.742943
212.784	0.129585
215.676	1.09863
218.569	0.998005
221.462	1.39748
224.354	0.008915
227.247	0.505463
230.14	0.438137
233.032	0.094219
235.925	0.110073
238.818	1.01492
241.71	0.11618
244.603	0.518181
247.496	0.435024
250.389	0.961914
253.281	0.388172
256.174	1.0551
259.067	1.83283
261.959	2.7107
264.852	4.13098
267.745	5.5565
270.637	6.49802
273.53	8.48418
276.423	8.55185
279.316	9.32107
282.208	12.1177
285.101	15.3455
287.994	20.2002
290.886	25.7046
293.779	31.8565
296.672	37.2345
299.565	43.6914
302.457	52.0963
305.35	59.1988
308.243	66.2956
311.135	71.6262
314.028	77.0317
316.921	78.4419
319.813	76.2659
322.706	71.1967
325.599	61.8475
328.491	53.2649
331.384	44.7863
334.277	39.6676
337.17	37.1773
340.062	37.4636
342.955	34.8409
345.848	31.285
348.74	24.8671
351.633	19.403
354.526	15.6738
357.418	11.2409
360.311	8.21605
363.204	6.15484
366.097	4.32475
368.989	3.37366
371.882	2.01303
374.775	0.939091
377.667	0.143223
380.56	0.142078
383.453	0.534691
386.346	0.12521
389.238	0.234184
392.131	0.206127
395.024	0.764996
397.916	0.213493
400.809	0.031883
403.702	1.34153
406.594	0.950451
409.487	1.82656
412.38	2.7281
415.272	2.87508
418.165	2.77591
421.058	2.63352
423.951	2.31905
426.843	3.02236
429.736	2.93654
432.629	2.63352
435.521	2.25689
438.414	2.14539
441.307	2.49435
444.2	2.79534
447.092	2.80203
449.985	2.08723
452.878	2.14619
455.77	2.56687
458.663	3.55612
461.556	4.33919
464.448	5.91082
467.341	6.37743
470.234	7.44032
473.127	8.1318
476.019	10.9425
478.912	13.2909
481.805	16.6949
484.697	20.0047
487.59	21.8066
490.483	22.8218
493.375	18.2732
496.268	13.4549
499.161	9.51357
502.053	6.89124
504.946	4.63451
507.839	2.65506
510.732	0.310017
513.624	1.01917
516.517	1.9784
519.41	3.29666
522.302	2.48791
525.195	2.17337
528.088	0.806622
530.981	1.32349
533.873	3.6219
536.766	7.40515
539.659	11.9244
542.551	17.6739
545.444	22.6338
548.337	27.0235
551.229	30.8799
554.122	35.1637
557.015	39.4811
559.908	44.2148
562.8	50.1083
565.693	56.0866
568.586	64.7906
571.478	71.622
574.371	78.2665
577.264	83.0693
580.156	85.6134
583.049	90.0303
585.942	91.1201
588.835	93.3529
591.727	94.0184
594.62	92.7413
597.513	91.7489
600.405	90.7179
603.298	86.2642
606.191	82.4682
609.083	78.734
611.976	74.1859
614.869	70.1802
617.761	65.0249
620.654	60.5003
623.547	55.4307
626.44	52.1709
629.332	47.0134
632.225	43.9196
635.118	40.7398
638.01	38.031
640.903	36.2333
643.796	35.2381
646.688	34.3778
649.581	34.9243
652.474	36.0055
655.367	36.7132
658.259	37.6657
661.152	41.5411
664.045	43.5523
666.937	46.4663
669.83	44.8469
672.723	39.912
675.615	30.0814
678.508	21.823
681.401	14.1357
684.294	8.835
687.186	5.04785
690.079	1.76843
692.972	0.391781
695.864	2.03717
698.757	2.93894
701.65	2.86003
704.543	2.14014
707.435	1.56224
710.328	0.347435
713.221	0.304859
716.113	0.756653
719.006	1.28294
721.899	2.67579
724.791	3.3043
727.684	3.48857
730.577	3.90626
733.47	4.5091
736.362	4.87095
739.255	5.75532
742.148	6.49153
745.04	5.93587
747.933	7.44806
750.826	7.79738
753.718	7.9583
756.611	7.3489
759.504	6.93004
762.396	6.14523
765.289	5.26977
768.182	4.8994
771.075	5.13978
773.967	4.34517
776.86	4.56422
779.753	4.18806
782.645	3.36079
785.538	3.27119
788.431	2.64613
791.323	2.32357
794.216	2.5107
797.109	1.39793
800.002	1.21256
802.894	1.58868
805.787	1.16361
808.68	1.39177
811.572	1.14069
814.465	1.02644
817.358	0.459721
820.25	0.756174
823.143	1.09842
826.036	0.18581
828.929	0.30761
831.821	0.310892
834.714	0.006573
837.607	0.698986
840.5	0.266367
843.392	0.360306
846.285	1.1665
849.178	0.22315
852.07	0.677092
854.963	1.01957
857.856	0.101982
860.748	0.286606
863.641	0.523129
866.534	0.255693
869.427	0.74795
872.319	0.186733
875.212	0.147978
878.105	0.390778
880.997	0.14994
883.89	0.04677
886.783	0.158724
889.675	0.509462
892.568	0.027977
895.461	0.233009
898.354	0.109272
901.246	0.168152
904.139	0.317083
907.032	0.02747
909.924	0.144115
912.817	0.306566
915.71	0.201517
918.602	0.396616
921.495	0.028933
924.388	0.292843
927.28	1.19897
930.173	0.412186
933.066	0.395636
935.959	0.673775
938.851	1.73187
941.744	1.91548
944.637	2.34329
947.529	3.49672
950.422	3.63439
953.315	4.4982
956.207	4.02053
959.1	2.35211
961.993	1.16824
964.886	0.829254
967.778	0.548107
970.671	0.123543
973.564	0.575771
976.456	0.452999
979.349	0.115299
982.242	0.420015
985.135	0.00885
988.027	0.592363
990.92	0.024904
993.813	0.625082
996.705	0.909876
999.598	0.643013
1002.49	0.636534
1005.38	0.38188
1008.28	0.534374
1011.17	0.598778
1014.06	0.691236
1016.95	0.606304
1019.85	1.00015
1022.74	0.663305
1025.63	0.857973
1028.53	1.10903
1031.42	0.828835
1034.31	0.604185
1037.2	0.748602
1040.1	1.41492
1042.99	0.214035
1045.88	0.772789
1048.77	1.00074
1051.67	1.00565
1054.56	0.732243
1057.45	1.05513
1060.35	0.787815
1063.24	0.743113
1066.13	1.32468
1069.02	0.880903
1071.92	0.82514
1074.81	0.607862
1077.7	0.218042
1080.59	0.409037
1083.49	0.19573
1086.38	0.398079
1089.27	0.656219
1092.16	0.186607
1095.06	0.569237
1097.95	0.215258
1100.84	0.218243
1103.73	0.63666
1106.63	0.300537
1109.52	0.535412
1112.41	0.385571
1115.31	0.136799
1118.2	0.469711
1121.09	0.319538
1123.98	0.543461
1126.88	0.854542
1129.77	1.1298
1132.66	1.83743
1135.56	1.37212
1138.45	1.8721
1141.34	3.15725
1144.23	2.87915
1147.13	3.1757
1150.02	3.58097
1152.91	4.84515
1155.8	4.6982
1158.7	5.79215
1161.59	5.90369
1164.48	5.91665
1167.38	5.85554
1170.27	7.90186
1173.16	6.98539
1176.05	7.57146
1178.94	8.4943
1181.84	8.82213
1184.73	9.00013
1187.62	9.04237
1190.52	9.34863
1193.41	9.46948
1196.3	9.56876
1199.19	9.88182
1202.09	9.62229
1204.98	10.485
1207.87	10.4526
1210.77	9.95919
1213.66	10.5184
1216.55	9.90567
1219.44	9.33418
1222.34	9.04952
1225.23	9.00496
1228.12	9.32965
1231.01	8.35994
1233.91	8.29993
1236.8	8.06586
1239.69	7.79145
1242.59	6.77837
1245.48	6.41137
1248.37	5.37148
1251.26	5.3043
1254.16	4.77303
1257.05	4.14335
1259.94	3.21178
1262.83	2.61882
1265.73	2.65544
1268.62	1.74964
1271.51	1.2778
1274.4	0.971806
1277.3	0.416008
1280.19	0.963638
1283.08	0.095394
1285.97	0.56773
1288.87	0.258129
1291.76	0.236828
1294.65	0.76561
1297.55	0.139683
1300.44	0.184883
