Measurement: Raman, 780 nm, unoriented, Raman Data Processed
Mineral: Freieslebenite
Rruff sample: R060174
Ideal chemistry: AgPbSbS_3_
Locality: Van Silver mine, Vancouver, British Columbia, Canada
Source: Ty Balacko, TB
Description: Pale steel-gray striated prismatic crystals
Measured chemistry: Ag_1.00_(Pb_0.95_Fe_0.05_)_Î£=1_Sb_1.00_S_3.00_
Raman shift (cm-1)	intensity
140.237	0
143.13	0.339743
146.022	0.006806
148.915	0.391375
151.808	1.5924
154.701	2.34017
157.593	2.10572
160.486	3.47275
163.379	3.75799
166.271	3.57289
169.164	3.86109
172.057	2.01652
174.949	2.49652
177.842	2.28588
180.735	2.06047
183.627	1.88046
186.52	1.62489
189.413	1.56636
192.306	1.75658
195.198	1.67605
198.091	1.12187
200.984	0.374266
203.876	0.045419
206.769	0.078237
209.662	0.007214
212.554	0.031581
215.447	0.117762
218.34	0.026313
221.233	0.017782
224.125	0.380821
227.018	0.267667
229.911	0.023283
232.803	0.368648
235.696	0.031695
238.589	0.275052
241.482	0.119753
244.374	0.863361
247.267	0.477901
250.16	0.799814
253.052	0.161768
255.945	0.147846
258.838	1.23303
261.73	3.42633
264.623	4.02537
267.516	5.54489
270.408	6.88049
273.301	8.00956
276.194	10.0303
279.087	10.0737
281.979	9.16385
284.872	7.71711
287.765	5.91753
290.657	3.22811
293.55	3.46226
296.443	5.4923
299.335	8.03458
302.228	11.1862
305.121	15.9322
308.014	19.1515
310.906	24.0246
313.799	28.3728
316.692	31.7283
319.584	28.0643
322.477	19.1342
325.37	12.2043
328.262	7.07046
331.155	5.04666
334.048	2.50408
336.94	1.8696
339.833	1.42311
342.726	0.553782
345.619	0.1434
348.511	0.43684
351.404	0.063303
354.297	0.14589
357.189	0.084598
360.082	0.464062
362.975	0.073666
365.868	0.069121
368.76	0.028054
371.653	0.891659
374.546	0.059457
377.438	0.298471
380.331	0.017154
383.224	0.039061
386.116	0.041864
389.009	0.815324
391.902	0.410611
394.795	0.460343
397.687	0.363329
400.58	0.635293
403.473	0.157046
406.365	0.897911
409.258	0.929182
412.151	0.771274
415.043	0.490072
417.936	0.028328
420.829	0.956628
423.721	0.723898
426.614	0.184749
429.507	0.639605
432.399	0.651747
435.292	0.89588
438.185	0.640929
441.078	0.237239
443.97	0.588787
446.863	0.440878
449.756	0.832668
452.648	0.498157
455.541	0.859043
458.434	0.092388
461.327	0.237035
464.219	0.121071
467.112	0.702424
470.005	0.89942
472.897	0.028622
475.79	0.334263
478.683	0.521441
481.575	0.55483
484.468	0.467351
487.361	0.100375
490.253	0.053446
493.146	0.244547
496.039	0.097453
498.932	0.554234
501.824	0.03432
504.717	0.002156
507.61	0.307752
510.502	0.010775
513.395	0.177489
516.288	0.414304
519.181	0.36644
522.073	0.008614
524.966	0.228574
527.859	0.024589
530.751	0.534349
533.644	0.745711
536.537	0.099938
539.429	0.58857
542.322	0.042538
545.215	0.355262
548.107	0.377325
551	0.448968
553.893	0.070937
556.785	0.167595
559.678	0.191257
562.571	0.041498
565.464	0.293339
568.356	0.272265
571.249	0.300219
574.142	0.300352
577.034	0.019561
579.927	0.751071
582.82	0.108595
585.712	0.032213
588.605	0.593447
591.498	0.085724
594.391	0.44954
597.283	0.546621
600.176	0.684949
603.069	0.758791
605.961	1.05546
608.854	0.058753
611.747	0.42158
614.639	0.014863
617.532	0.678183
620.425	0.486159
623.318	0.516993
626.21	0.13894
629.103	0.044204
631.996	0.621918
634.888	0.623181
637.781	0.025044
640.674	0.031776
643.567	0.430665
646.459	0.454003
649.352	0.193562
652.245	0.515549
655.137	0.219348
658.03	0.459926
660.923	0.462203
663.815	0.39947
666.708	0.774302
669.601	0.156058
672.494	0.148055
675.386	0.033822
678.279	0.513736
681.172	0.246686
684.064	0.333798
686.957	0.043511
689.85	0.646376
692.742	0.31817
695.635	0.162526
698.528	0.595164
701.42	0.44994
704.313	0.212973
707.206	0.54338
710.098	0.00471
712.991	0.039713
715.884	0.870965
718.777	0.430477
721.669	0.014434
724.562	0.760685
727.455	0.477086
730.347	0.394228
733.24	0.801218
736.133	0.045478
739.025	0.219284
741.918	0.455425
744.811	0.720494
747.704	0.035586
750.596	0.418624
753.489	0.329047
756.382	0.000112
759.274	0.032261
762.167	0.011001
765.06	0.2809
767.952	0.951053
770.845	0.394396
773.738	0.076369
776.631	0.129388
779.523	0.024268
782.416	0.707534
785.309	0.028985
788.201	0.603523
791.094	0.038251
793.987	0.44848
796.88	0.553912
799.772	0.495758
802.665	0.238855
805.558	0.164347
808.45	0.68425
811.343	0.20456
814.236	0.029483
817.128	0.269316
820.021	0.576429
822.914	1.11692
825.807	0.645167
828.699	0.67425
831.592	0.397914
834.485	0.996119
837.377	0.73883
840.27	0.193857
843.163	0.92646
846.055	0.012563
848.948	0.291033
851.841	0.00428
854.734	0.342009
857.626	0.357386
860.519	0.538444
863.412	0.404275
866.304	0.62291
869.197	0.5928
872.09	0.81438
874.982	0.659985
877.875	0.042686
880.768	0.66493
883.66	0.419736
886.553	0.017333
889.446	0.828599
892.338	0.867749
895.231	0.164228
898.124	0.323748
901.017	0.45909
903.909	0.003264
906.802	0.173075
909.695	0.657929
912.587	0.133638
915.48	0.313258
918.373	0.3874
921.265	0.488421
924.158	0.000377
927.051	0.060919
929.944	0.569186
932.836	0.797082
935.729	0.361134
938.622	0.498139
941.514	0.235456
944.407	0.341918
947.3	1.8e-05
950.192	0.33792
953.085	0.036165
955.978	0.799367
958.87	0.025499
961.763	0.326556
964.656	0.033523
967.549	0.438869
970.441	0.341089
973.334	0.521986
976.227	0.131843
979.119	0.081793
982.012	0.028079
984.905	0.044358
987.798	0.798854
990.69	0.5055
993.583	0.213633
996.476	0.031222
999.368	0.010724
1002.26	0.483775
1005.15	0.012041
1008.05	0.467996
1010.94	0.194458
1013.83	0.737939
1016.73	0.30105
1019.62	0.160493
1022.51	0.015088
1025.4	0.706933
1028.3	0.573927
1031.19	0.337083
1034.08	0.149041
1036.97	0.285736
1039.87	0.361683
1042.76	0.624217
1045.65	0.466603
1048.54	0.889799
1051.44	0.711774
1054.33	0.023017
1057.22	0.013853
1060.12	0.347975
1063.01	0.059109
1065.9	0.506449
1068.79	0.387295
1071.69	0.657552
1074.58	0.734471
1077.47	0.362198
1080.36	0.739243
1083.26	0.603799
1086.15	0.452668
1089.04	0.205506
1091.93	0.718136
1094.83	0.437048
1097.72	0.2495
1100.61	0.021851
1103.51	0.384928
1106.4	0.377409
1109.29	0.121979
1112.18	0.824663
1115.08	0.221892
1117.97	0.030041
1120.86	0.263532
1123.75	0.141337
1126.65	0.642466
1129.54	0.173261
1132.43	0.67043
1135.33	0.624315
1138.22	0.295871
1141.11	0.850618
1144	0.206064
1146.9	0.276501
1149.79	0.179763
1152.68	0.582983
1155.57	0.405717
1158.47	0.365009
1161.36	0.27871
1164.25	0.027808
1167.14	0.309709
1170.04	0.401512
1172.93	0.144903
1175.82	0.642688
1178.72	0.053112
1181.61	0.355667
1184.5	0.095458
1187.39	0.116049
1190.29	0.596278
1193.18	0.343142
1196.07	0.247624
1198.96	0.715481
1201.86	0.005499
1204.75	0.371354
1207.64	0.47322
1210.54	0.028566
1213.43	0.381588
1216.32	0.747714
1219.21	0.674605
1222.11	0.075189
1225	0.494687
1227.89	0.022955
1230.78	0.292262
1233.68	0.138727
1236.57	0.00541
1239.46	0.36884
1242.36	0.358501
1245.25	0.160864
1248.14	0.472029
1251.03	0.210688
1253.93	0.425557
1256.82	0.347538
1259.71	0.756343
1262.6	0.658384
1265.5	0.891663
1268.39	0.635806
1271.28	0.386567
1274.17	0.827401
1277.07	0.008941
1279.96	0.467307
1282.85	0.063066
