Measurement: Raman, 785 nm, unoriented, Raman Data Processed
Mineral: Freibergite
Rruff sample: R061081
Ideal chemistry: Ag_6_Cu_4_Fe_2_Sb_4_S_13_
Locality: Sadie mine, Elsa, Yukon, Canada
Source: Lloyd Twaites
Description: Dark gray metallic massive
Raman shift (cm-1)	intensity
122.112	0
125.004	53.9858
127.897	257.896
130.79	601.848
133.682	775.791
136.575	675.64
139.468	500.354
142.36	512.472
145.253	706.846
148.146	962.68
151.038	828.291
153.931	615.246
156.824	402.035
159.717	387.209
162.609	327.783
165.502	263.134
168.395	240.373
171.287	177.241
174.18	152.556
177.073	93.158
179.965	64.3832
182.858	40.5792
185.751	30.0667
188.644	8.948
191.536	3.67981
194.429	0.545471
197.322	25.8723
200.214	8.72858
203.107	19.6989
206	20.0768
208.893	9.53992
211.785	12.3973
214.678	27.4718
217.571	31.3429
220.463	21.8725
223.356	15.0236
226.249	3.63513
229.141	33.0848
232.034	42.8695
234.927	52.8308
237.82	83.898
240.712	93.2974
243.605	110.085
246.498	133.885
249.39	134.837
252.283	149.206
255.176	190.293
258.068	233.35
260.961	276.021
263.854	340.776
266.746	424.037
269.639	535.725
272.532	646.277
275.425	757.121
278.317	819.375
281.21	858.264
284.103	835.672
286.995	769.506
289.888	728.102
292.781	731.502
295.673	736.875
298.566	774.838
301.459	819.358
304.351	825.279
307.244	899.72
310.137	931.085
313.03	977.149
315.922	1034.56
318.815	1109.24
321.708	1290.96
324.6	1544.08
327.493	1858.8
330.386	2272.51
333.279	2711.74
336.171	3020.96
339.064	3307.57
341.957	3550.43
344.849	4084.66
347.742	4503.27
350.635	4307.38
353.527	3341.84
356.42	2223.83
359.313	1381.98
362.205	821.561
365.098	477.119
367.991	258.297
370.884	123.241
373.776	53.4333
376.669	20.3176
379.562	5.74954
382.454	15.7014
385.347	34.8982
388.24	27.1066
391.132	24.17
394.025	4.82932
396.918	2.65706
399.811	9.07112
402.703	4.95392
405.596	7.10577
408.489	14.704
411.381	26.6122
414.274	35.8394
417.167	34.488
420.06	42.264
422.952	48.9662
425.845	49.6323
428.738	62.2539
431.63	65.8563
434.523	69.2896
437.416	78.614
440.308	69.0616
443.201	72.4779
446.094	65.2799
448.986	72.9424
451.879	57.2517
454.772	50.6121
457.665	51.0299
460.557	44.201
463.45	35.2748
466.343	42.6025
469.235	29.0278
472.128	26.5414
475.021	24.3021
477.913	23.849
480.806	25.0675
483.699	19.6366
486.592	31.656
489.484	16.206
492.377	17.2778
495.27	12.6593
498.162	10.4779
501.055	12.1142
503.948	2.27782
506.841	16.731
509.733	13.0802
512.626	5.78939
515.519	7.49903
518.411	6.23421
521.304	11.5539
524.197	6.45097
527.089	0.773674
529.982	0.855316
532.875	0.407585
535.768	10.3114
538.66	10.8598
541.553	8.44545
544.446	4.29617
547.338	6.51907
550.231	4.34175
553.124	3.19414
556.016	5.50845
558.909	13.2631
561.802	9.73068
564.694	4.37297
567.587	0.094406
570.48	15.7963
573.373	7.53418
576.265	15.6522
579.158	7.78593
582.051	20.2342
584.943	17.1371
587.836	20.6353
590.729	7.40031
593.621	15.4549
596.514	13.9153
599.407	24.6544
602.299	21.5331
605.192	18.6341
608.085	25.7246
610.978	14.8201
613.87	28.2595
616.763	21.2258
619.656	10.002
622.548	11.0031
625.441	18.1292
628.334	26.1702
631.226	19.774
634.119	21.6
637.012	14.071
639.905	13.025
642.797	21.933
645.69	19.4837
648.583	5.07493
651.475	13.35
654.368	0.896317
657.261	10.3467
660.154	13.4629
663.046	6.43481
665.939	6.6282
668.832	15.0738
671.724	6.1261
674.617	8.17697
677.51	21.8381
680.402	15.1949
683.295	13.7611
686.188	7.37066
689.081	10.1354
691.973	0.437958
694.866	6.12767
697.759	17.4306
700.651	14.1798
703.544	5.80381
706.437	7.88271
709.329	6.0561
712.222	1.04725
715.115	4.79896
718.008	3.89896
720.9	2.50177
723.793	3.17271
726.686	18.6284
729.578	1.21973
732.471	2.61974
735.364	2.6952
738.256	5.55481
741.149	6.35372
744.042	2.72323
746.934	0.952072
749.827	9.19621
752.72	19.7712
755.612	14.4963
758.505	10.1644
761.398	1.45092
764.291	10.6532
767.183	7.43511
770.076	12.8463
772.969	22.525
775.861	14.1211
778.754	2.5003
781.647	9.57232
784.54	14.5494
787.432	8.79153
790.325	16.7473
793.218	10.0744
796.11	4.47223
799.003	13.8701
801.896	11.1774
804.788	14.8153
807.681	6.61173
810.574	10.7495
813.467	20.0232
816.359	17.9358
819.252	15.1616
822.145	11.4399
825.037	10.8024
827.93	22.2053
830.823	13.1969
833.716	19.7684
836.608	13.9602
839.501	14.7423
842.394	18.1701
845.286	25.2448
848.179	3.09142
851.072	12.3734
853.964	13.3049
856.857	13.6018
859.75	9.2264
862.643	14.0586
865.535	8.50451
868.428	4.5993
871.321	6.76783
874.213	9.41482
877.106	6.68067
879.999	13.9937
882.891	12.716
885.784	6.25638
888.677	16.7582
891.569	4.68873
894.462	0.028374
897.355	0.716309
900.247	2.3491
903.14	15.8584
906.033	8.61124
908.926	7.76019
911.818	14.6819
914.711	4.10194
917.604	11.9814
920.496	5.46836
923.389	9.02805
926.282	3.6578
929.174	8.17377
932.067	8.20632
934.96	8.84483
937.853	18.327
940.745	0.10511
943.638	10.3338
946.531	13.8957
949.423	11.566
952.316	16.7714
955.209	13.5904
958.101	13.5014
960.994	6.58971
963.887	12.2781
966.78	6.26598
969.672	7.13162
972.565	14.5524
975.458	12.9974
978.35	12.8728
981.243	10.2101
984.136	12.8781
987.029	8.88938
989.921	6.31422
992.814	8.77547
995.707	6.97087
998.599	4.22874
1001.49	5.30384
1004.38	14.6271
1007.28	9.10577
1010.17	20.1928
1013.06	12.7056
1015.96	0.476486
1018.85	12.4215
1021.74	1.43341
1024.63	11.8488
1027.53	6.02257
1030.42	3.64766
1033.31	18.0627
1036.2	11.3972
1039.1	12.7847
1041.99	18.3129
1044.88	13.1285
1047.78	13.4595
1050.67	9.30566
1053.56	1.14455
1056.45	6.11791
1059.35	1.59919
1062.24	3.12308
1065.13	25.481
1068.02	19.1394
1070.92	3.63326
1073.81	10.579
1076.7	12.4549
1079.6	13.5705
1082.49	18.144
1085.38	5.53712
1088.27	4.3551
1091.17	15.0289
1094.06	14.1156
1096.95	16.8146
1099.84	12.957
1102.74	8.5051
1105.63	7.83939
1108.52	19.2085
1111.41	9.76584
1114.31	3.60948
1117.2	16.839
1120.09	14.1581
1122.98	8.09864
1125.88	11.6
1128.77	7.68633
1131.66	14.0652
1134.56	20.3165
1137.45	19.2014
1140.34	11.246
1143.23	7.92442
1146.13	18.153
1149.02	11.495
1151.91	5.35173
1154.81	11.2733
1157.7	7.86632
1160.59	9.2615
1163.48	20.8931
1166.38	21.6562
1169.27	15.5091
1172.16	8.37914
1175.05	21.3318
1177.95	5.24383
1180.84	16.5744
1183.73	0.358932
1186.62	8.04861
1189.52	0.066498
1192.41	17.7798
1195.3	3.64339
1198.2	9.23109
1201.09	13.5878
1203.98	9.73918
1206.87	9.18607
1209.77	9.11105
1212.66	7.69502
1215.55	13.7917
1218.44	0.787361
1221.34	12.8333
1224.23	12.9834
1227.12	11.4181
1230.02	23.0999
1232.91	12.2582
1235.8	17.5196
1238.69	4.13537
1241.59	11.3453
1244.48	5.94533
1247.37	5.77425
1250.26	4.29559
1253.16	16.0754
1256.05	29.2115
1258.94	19.1137
1261.84	18.9554
1264.73	1.91848
1267.62	0.823334
