Measurement: Raman, 532 nm, unoriented, Raman Data Processed
Mineral: Fresnoite
Rruff sample: R050595
Ideal chemistry: Ba_2_TiO(Si_2_O_7_)
Locality: Junnila claim, Clear Creek area, New Idria district, San Benito County, California, USA
Source: Scott Kleine
Description: Pink to yellow massive fragment
Measured chemistry: Ba_2.00_Ti_1.00_O(Si_2.00_O_7_)
Raman shift (cm-1)	intensity
121.007	0
124.381	4.80872
127.756	38.6312
131.131	245.775
134.506	574.897
137.881	934.408
141.255	1223.78
144.63	1682.44
148.005	2132.31
151.38	1507.71
154.755	1161.39
158.13	1055.27
161.504	1014.52
164.879	1091.4
168.254	1227.04
171.629	1211.68
175.004	978.338
178.379	738.989
181.753	549.558
185.128	433.13
188.503	359.444
191.878	324.562
195.253	253.292
198.627	162.788
202.002	56.0021
205.377	8.21936
208.752	5.00409
212.127	3.43378
215.501	6.45587
218.876	28.3972
222.251	40.8384
225.626	52.0679
229.001	51.5522
232.376	46.9216
235.75	25.0931
239.125	2.69092
242.5	10.9912
245.875	25.6957
249.25	15.3704
252.625	28.1584
255.999	104.462
259.374	232.592
262.749	416.112
266.124	645.007
269.499	807.393
272.873	766.401
276.248	645.389
279.623	475.555
282.998	335.464
286.373	284.274
289.748	188.603
293.122	73.5031
296.497	4.35724
299.872	15.4446
303.247	15.1038
306.622	6.30457
309.997	38.236
313.371	127.135
316.746	242.752
320.121	388.178
323.496	634.983
326.871	1007.14
330.245	1411.57
333.62	1874.33
336.995	2587.55
340.37	3255.49
343.745	2989.82
347.12	1751.83
350.494	949.559
353.869	671.05
357.244	586.017
360.619	579.327
363.994	592.732
367.368	587.315
370.743	606.011
374.118	691.886
377.493	753.16
380.868	678.562
384.243	579.384
387.617	545.813
390.992	491.832
394.367	390.976
397.742	339.348
401.117	299.002
404.491	252.623
407.866	207.66
411.241	165.176
414.616	119.388
417.991	59.9969
421.366	14.5629
424.74	3.32562
428.115	15.0211
431.49	10.3415
434.865	9.32214
438.24	1.51044
441.615	12.7471
444.989	26.882
448.364	62.1597
451.739	127.191
455.114	229.311
458.489	374.644
461.863	557.772
465.238	805.426
468.613	1052.53
471.988	1228.52
475.363	1254.46
478.738	1208.68
482.112	928.253
485.487	603.622
488.862	375.674
492.237	234.89
495.612	158.753
498.986	122.22
502.361	91.647
505.736	53.7878
509.111	27.8562
512.486	13.7776
515.861	2.27893
519.235	3.59106
522.61	11.4498
525.985	12.533
529.36	12.3961
532.735	2.57019
536.11	3.37286
539.484	20.6312
542.859	33.3351
546.234	29.897
549.609	33.9038
552.984	25.8447
556.358	12.1086
559.733	16.7421
563.108	58.8456
566.483	128.02
569.858	236.04
573.232	347.185
576.607	312.411
579.982	275.72
583.357	398.736
586.732	706.361
590.107	1370.65
593.481	2387.06
596.856	3911.04
600.231	5712.18
603.606	6295.5
606.981	3613.25
610.356	1579.11
613.73	773.035
617.105	422.086
620.48	241.809
623.855	143.921
627.23	91.7935
630.605	59.0686
633.979	47.4772
637.354	52.3996
640.729	76.7562
644.104	128.575
647.479	247.176
650.853	488.209
654.228	961.402
657.603	1710.14
660.978	2776.39
664.353	3905.86
667.727	4180.37
671.102	2664.05
674.477	1272.96
677.852	633.78
681.227	342.634
684.602	178.383
687.976	82.8869
691.351	35.0726
694.726	7.84436
698.101	0.483765
701.476	6.97217
704.851	6.26318
708.225	3.60748
711.6	6.26807
714.975	2.06158
718.35	1.45081
721.725	2.06958
725.1	1.45825
728.474	7.47247
731.849	11.4857
735.224	19.2521
738.599	17.456
741.974	22.0469
745.348	28.6201
748.723	30.9814
752.098	33.1074
755.473	36.2472
758.848	36.1489
762.222	38.2346
765.597	33.2649
768.972	36.6592
772.347	35.4046
775.722	34.9853
779.097	21.4756
782.471	13.6122
785.846	5.02252
789.221	0.789001
792.596	3.01642
795.971	6.3205
799.346	14.2241
802.72	2.12079
806.095	5.28284
809.47	2.17548
812.845	2.34534
816.22	12.0494
819.595	26.0726
822.969	41.179
826.344	62.7464
829.719	90.1743
833.094	136.747
836.469	214.17
839.843	353.776
843.218	611.187
846.593	1038.71
849.968	1690.01
853.343	2548.12
856.717	3749.4
860.092	5126.72
863.467	6847.92
866.842	9410.46
870.217	11010.6
873.592	13093
876.966	12917.2
880.341	6800.95
883.716	2923.75
887.091	1474.7
890.466	858.569
893.841	541.473
897.215	381.033
900.59	316.722
903.965	257.693
907.34	148.618
910.715	65.1036
914.09	40.2489
917.464	74.0425
920.839	134.707
924.214	225.927
927.589	291.006
930.964	224.578
934.338	85.0391
937.713	0.759521
941.088	30.2733
944.463	21.0293
947.838	28.3733
951.212	134.373
954.587	314.258
957.962	562.365
961.337	781.324
964.712	759.157
968.087	513.491
971.461	283.092
974.836	158.678
978.211	143.873
981.586	222.639
984.961	393.244
988.336	661.021
991.71	830.11
995.085	556.548
998.46	237.142
1001.84	88.2347
1005.21	25.909
1008.58	0.475525
1011.96	2.87408
1015.33	6.52374
1018.71	0.69751
1022.08	7.76483
1025.46	1.98315
1028.83	1.28473
1032.21	1.74567
1035.58	5.54706
1038.96	2.2691
1042.33	7.3963
1045.71	10.5024
1049.08	22.1891
1052.46	20.9504
1055.83	29.1361
1059.21	25.7658
1062.58	34.0682
1065.96	31.808
1069.33	32.3685
1072.71	40.026
1076.08	47.8063
1079.46	66.2973
1082.83	55.6664
1086.2	43.0857
1089.58	32.7552
1092.95	30.1483
1096.33	24.6076
1099.7	21.9505
1103.08	29.0039
1106.45	28.3268
1109.83	33.4527
1113.2	29.101
1116.58	26.9151
1119.95	22.3923
1123.33	13.7728
1126.7	11.2991
1130.08	5.82251
1133.45	4.08093
1136.83	8.17676
1140.2	4.84326
1143.58	2.94183
1146.95	0.439514
1150.33	0.435547
1153.7	2.92999
1157.08	0.443481
1160.45	3.34821
1163.83	6.56952
1167.2	7.74896
1170.58	9.664
1173.95	11.9108
1177.33	13.7662
1180.7	18.4134
1184.08	14.2688
1187.45	15.6257
1190.83	11.2593
1194.2	12.4597
1197.57	5.12048
1200.95	1.58356
1204.32	3.96655
1207.7	0.586304
1211.07	0.487244
1214.45	1.0354
1217.82	0.033081
1221.2	1.72974
1224.57	5.01556
1227.95	4.75561
1231.32	7.56494
1234.7	4.32153
1238.07	2.0282
1241.45	1.74414
1244.82	3.008
1248.2	2.04486
1251.57	4.74042
1254.95	3.37335
1258.32	3.69775
1261.7	3.64746
1265.07	4.56659
1268.45	3.3382
1271.82	6.00598
1275.19	0.463318
1278.57	6.87073
1281.94	5.59717
1285.32	2.26514
1288.69	3.63666
1292.07	4.9718
1295.44	2.19342
1298.82	0.401245
1302.19	0.291138
