Measurement: Raman, 780 nm, unoriented, Raman Data Processed
Mineral: Fresnoite
Rruff sample: R050595
Ideal chemistry: Ba_2_TiO(Si_2_O_7_)
Locality: Junnila claim, Clear Creek area, New Idria district, San Benito County, California, USA
Source: Scott Kleine
Description: Pink to yellow massive fragment
Measured chemistry: Ba_2.00_Ti_1.00_O(Si_2.00_O_7_)
Raman shift (cm-1)	intensity
92.0654	0
95.4403	32.3058
98.8151	73.2258
102.19	84.7695
105.565	36.3696
108.939	5.84821
112.314	2.03088
115.689	0.656403
119.064	14.7221
122.439	33.4407
125.814	44.5612
129.188	81.6112
132.563	129.091
135.938	202.046
139.313	283.471
142.688	360.199
146.062	484.107
149.437	418.365
152.812	320.637
156.187	307.14
159.562	305.401
162.936	325.752
166.311	391.886
169.686	420.903
173.061	362.861
176.436	255.092
179.811	175.515
183.185	130.357
186.56	105.424
189.935	106.194
193.31	100.343
196.685	77.0774
200.06	35.7437
203.434	9.39008
206.809	12.4327
210.184	26.072
213.559	28.5317
216.934	48.4301
220.308	53.86
223.683	60.4965
227.058	56.7086
230.433	40.335
233.808	22.1952
237.182	8.44074
240.557	0.767517
243.932	1.61008
247.307	5.11475
250.682	17.058
254.056	38.4524
257.431	74.4737
260.806	133.255
264.181	214.54
267.556	309.202
270.931	327.342
274.305	284.675
277.68	217.707
281.055	140.693
284.43	95.2807
287.805	71.5056
291.18	24.1812
294.554	3.85834
297.929	13.9233
301.304	15.8133
304.679	5.95801
308.054	7.49097
311.428	42.5771
314.803	85.9481
318.178	138.002
321.553	211.014
324.928	332.824
328.302	451.317
331.677	575.674
335.052	783.592
338.427	1078.83
341.802	1175.7
345.176	801.917
348.551	414.383
351.926	256.902
355.301	203.956
358.676	193.018
362.051	203.338
365.425	215.922
368.8	231.665
372.175	278.619
375.55	324.803
378.925	324.082
382.3	275.601
385.674	254.102
389.049	253.195
392.424	237.345
395.799	225.168
399.174	228.413
402.548	214.782
405.923	196.917
409.298	170.463
412.673	139.443
416.048	94.8218
419.422	55.6355
422.797	31.0575
426.172	16.1112
429.547	1.38211
432.922	3.68277
436.296	8.65549
439.671	7.37714
443.046	2.21902
446.421	5.71622
449.796	24.5573
453.171	55.0003
456.545	98.3887
459.92	149.027
463.295	217.182
466.67	285.091
470.045	352.338
473.42	362.832
476.794	349.5
480.169	303.124
483.544	206.463
486.919	129.947
490.293	79.5406
493.668	43.7531
497.043	29.381
500.418	19.1726
503.793	9.22858
507.168	5.82558
510.542	2.73518
513.917	3.23177
517.292	3.1907
520.667	3.51183
524.042	3.04825
527.417	0.888657
530.791	2.10704
534.166	7.0183
537.541	13.5168
540.916	22.1394
544.291	20.4251
547.665	10.2575
551.04	14.303
554.415	16.8937
557.79	14.1193
561.165	27.4661
564.539	36.7192
567.914	69.748
571.289	117.489
574.664	138.353
578.039	112.138
581.413	127.678
584.788	187.095
588.163	323.375
591.538	494.65
594.913	747.256
598.288	1173.97
601.662	1573.79
605.037	1217.18
608.412	550.875
611.787	247.778
615.162	128.291
618.537	66.8861
621.911	34.4568
625.286	16.0482
628.661	6.76477
632.036	0.671738
635.41	0.641739
638.785	9.63771
642.16	19.8111
645.535	47.6819
648.91	105.792
652.285	212.414
655.659	362.35
659.034	579.77
662.409	887.129
665.784	1128.42
669.159	934.8
672.534	493.217
675.908	247.751
679.283	136.376
682.658	73.5043
686.033	35.9413
689.408	17.3462
692.782	7.77107
696.157	2.56143
699.532	3.15291
702.907	0.772064
706.282	0.113861
709.656	0.192368
713.031	0.14415
716.406	0.261337
719.781	1.58174
723.156	2.63286
726.53	2.0683
729.905	0.619057
733.28	4.90482
736.655	5.38137
740.03	6.99705
743.405	3.61602
746.779	10.9824
750.154	11.6105
753.529	10.8605
756.904	8.08082
760.279	11.4659
763.654	10.3307
767.028	8.59375
770.403	11.1533
773.778	10.9049
777.153	11.0242
780.528	6.96207
783.902	5.29621
787.277	2.02742
790.652	2.96197
794.027	1.29431
797.402	1.58292
800.776	1.1741
804.151	1.00548
807.526	2.45261
810.901	0.055161
814.276	1.86643
817.65	1.9792
821.025	7.27385
824.4	16.1679
827.775	18.6292
831.15	33.1987
834.525	49.8764
837.899	82.9685
841.274	145.601
844.649	256.228
848.024	424.061
851.399	645.665
854.774	950.474
858.148	1313.22
861.523	1580.81
864.898	1992.77
868.273	2357.12
871.648	2689.01
875.022	3211.8
878.397	2330.12
881.772	1065.33
885.147	500.136
888.522	276.448
891.896	171.371
895.271	124.62
898.646	106.312
902.021	109.854
905.396	84.6742
908.77	44.0268
912.145	20.51
915.52	20.1448
918.895	33.3203
922.27	47.0613
925.645	78.1824
929.019	85.4404
932.394	48.5452
935.769	10.5241
939.144	8.01918
942.519	8.4408
945.894	0.611801
949.268	23.1078
952.643	63.0617
956.018	118.881
959.393	187.032
962.768	213.142
966.142	164.351
969.517	98.0823
972.892	46.5703
976.267	32.0968
979.642	42.2931
983.016	73.5179
986.391	137.417
989.766	218.379
993.141	208.198
996.516	104.937
999.89	42.5663
1003.26	17.2183
1006.64	3.53824
1010.01	2.15631
1013.39	1.73718
1016.76	0.437195
1020.14	2.50114
1023.51	2.90755
1026.89	5.84557
1030.26	1.23811
1033.64	2.30016
1037.01	9.33186
1040.39	10.5812
1043.76	7.96741
1047.14	9.02847
1050.51	10.5074
1053.89	13.7687
1057.26	13.7918
1060.64	14.7176
1064.01	10.364
1067.39	7.82396
1070.76	12.9549
1074.14	18.7764
1077.51	18.8191
1080.89	24.6075
1084.26	28.6467
1087.64	30.9888
1091.01	36.7627
1094.38	38.8159
1097.76	40.056
1101.13	47.9008
1104.51	52.0646
1107.88	55.8841
1111.26	51.803
1114.63	48.5089
1118.01	36.4444
1121.38	20.1787
1124.76	19.5148
1128.13	10.8682
1131.51	0.309647
1134.88	2.44359
1138.26	6.46674
1141.63	7.19547
1145.01	5.72375
1148.38	0.507263
1151.76	2.96884
1155.13	12.566
1158.51	14.8063
1161.88	22.7471
1165.26	28.8075
1168.63	33.0335
1172.01	39.0091
1175.38	49.1587
1178.76	64.8141
1182.13	86.4406
1185.51	99.9748
1188.88	127.857
1192.26	153.722
1195.63	186.619
1199.01	217.919
1202.38	234.3
1205.75	273.033
1209.13	293.529
1212.5	305.58
1215.88	316.255
1219.25	313.185
1222.63	302.891
1226	298.812
1229.38	273.689
1232.75	246.136
1236.13	228.967
1239.5	204.273
1242.88	188.661
1246.25	179.798
1249.63	168.172
1253	155.723
1256.38	145.454
1259.75	127.975
1263.13	115.709
1266.5	96.0428
1269.88	70.2059
1273.25	42.5994
1276.62	20.3583
1280	5.12122
1283.38	1.01086
