Measurement: Raman, 780 nm, unoriented, Raman Data Processed
Mineral: Friedelite
Rruff sample: R060364
Ideal chemistry: Mn^2+^_8_Si_6_O_15_(OH)_10_
Locality: Sterling Hill mine, Ogdensburg, Sussex County, New Jersey, USA
Source: Herb Obodda
Description: Brownish-red fine-grained massive
Measured chemistry: (Mn^2+^_7.46_Mg_0.54_)_Σ=8_Si_6.00_O_15_((OH)_9.26_Cl_0.74_)_Σ=10_
Raman shift (cm-1)	intensity
141.191	0
144.084	0.328232
146.977	2.57234
149.869	2.74247
152.762	2.97623
155.655	2.27676
158.547	5.9774
161.44	9.59222
164.333	14.5028
167.226	18.4267
170.118	19.4599
173.011	19.645
175.904	19.941
178.796	18.927
181.689	19.0053
184.582	14.4747
187.474	10.9041
190.367	11.0282
193.26	12.1591
196.153	10.7731
199.045	11.6225
201.938	9.45944
204.831	5.37685
207.723	0.989834
210.616	0.970264
213.509	0.660305
216.401	0.757793
219.294	0.100235
222.187	1.05927
225.079	1.3004
227.972	0.063374
230.865	1.1768
233.758	2.13718
236.65	3.59405
239.543	6.42612
242.436	8.45671
245.328	11.1284
248.221	12.9837
251.114	17.8961
254.006	21.2142
256.899	24.9858
259.792	30.9472
262.685	35.8403
265.577	35.5549
268.47	33.6079
271.363	31.3964
274.255	24.8232
277.148	19.4212
280.041	15.155
282.933	14.8818
285.826	12.4321
288.719	12.3517
291.612	12.6763
294.504	15.2069
297.397	17.5566
300.29	22.951
303.182	26.9558
306.075	33.1395
308.968	38.8205
311.861	41.5461
314.753	47.0852
317.646	46.0382
320.539	48.4076
323.431	44.6328
326.324	36.751
329.217	25.1793
332.109	12.9234
335.002	9.54203
337.895	5.27092
340.788	2.96895
343.68	1.96314
346.573	0.269638
349.466	2.10648
352.358	0.946266
355.251	0.20927
358.144	1.74402
361.036	2.62202
363.929	4.94882
366.822	7.16
369.715	10.2933
372.607	11.829
375.5	13.8258
378.393	16.9373
381.285	19.5506
384.178	22.7574
387.071	25.952
389.964	26.3937
392.856	29.0936
395.749	33.0049
398.642	34.0909
401.534	36.8073
404.427	35.7563
407.32	31.9328
410.212	27.8272
413.105	21.0455
415.998	15.0322
418.89	9.54645
421.783	4.17511
424.676	1.02533
427.569	0.101425
430.461	0.240349
433.354	0.052055
436.247	0.094482
439.139	1.49349
442.032	5.01988
444.925	5.07451
447.817	5.75497
450.71	3.73569
453.603	3.78614
456.496	5.48673
459.388	6.61558
462.281	1.96816
465.174	0.122978
468.066	0.802845
470.959	2.96791
473.852	6.60585
476.745	8.57518
479.637	9.29041
482.53	12.208
485.423	16.2324
488.315	23.1781
491.208	28.2552
494.101	21.2269
496.993	13.2808
499.886	6.82045
502.779	4.84852
505.671	4.8734
508.564	4.40303
511.457	7.05803
514.35	7.48307
517.242	6.4747
520.135	2.68269
523.028	1.93982
525.92	0.353361
528.813	0.580271
531.706	0.73587
534.598	0.546459
537.491	0.122858
540.384	0.345966
543.277	0.128693
546.169	1.1007
549.062	1.22623
551.955	0.873045
554.847	0.041428
557.74	0.059616
560.633	0.957026
563.525	1.74473
566.418	1.72038
569.311	2.63756
572.204	3.3561
575.096	4.68398
577.989	7.24336
580.882	9.24358
583.774	12.2861
586.667	15.0024
589.56	20.2233
592.452	27.5496
595.345	43.2019
598.238	65.5483
601.131	94.8979
604.023	133.749
606.916	177.897
609.809	235.374
612.701	308.56
615.594	354.383
618.487	324.955
621.38	241.265
624.272	153.038
627.165	98.6887
630.058	65.34
632.95	47.5465
635.843	37.9913
638.736	27.8661
641.628	23.4287
644.521	18.0202
647.414	13.9782
650.307	11.4006
653.199	9.27573
656.092	6.45693
658.985	4.17173
661.877	3.8257
664.77	2.36723
667.663	1.35334
670.555	1.42707
673.448	1.60581
676.341	0.475376
679.234	1.64834
682.126	1.58523
685.019	2.00092
687.912	1.07901
690.804	1.48248
693.697	2.21436
696.59	2.13907
699.482	1.50775
702.375	1.77079
705.268	1.51698
708.16	1.4292
711.053	0.398693
713.946	1.70152
716.839	0.82053
719.731	0.482491
722.624	0.691797
725.517	0.045155
728.409	0.37454
731.302	1.18986
734.195	1.00028
737.087	0.707159
739.98	0.378437
742.873	0.467003
745.766	0.612419
748.658	0.302347
751.551	1.21022
754.444	1.06098
757.336	1.01333
760.229	1.25926
763.122	0.398129
766.014	1.69254
768.907	2.37645
771.8	2.09543
774.693	2.16504
777.585	3.01893
780.478	4.22815
783.371	4.00139
786.263	5.00977
789.156	4.77361
792.049	6.70901
794.942	8.39186
797.834	11.4617
800.727	14.3577
803.62	15.4931
806.512	16.3239
809.405	17.695
812.298	17.363
815.19	15.6361
818.083	12.6027
820.976	9.31977
823.869	5.70756
826.761	4.63366
829.654	3.70487
832.547	3.57665
835.439	1.91539
838.332	1.2158
841.225	1.79757
844.117	1.73136
847.01	1.33252
849.903	2.01254
852.795	1.13911
855.688	0.767639
858.581	1.6603
861.474	1.1156
864.366	2.11665
867.259	1.32987
870.152	1.77268
873.044	2.26972
875.937	3.37571
878.83	1.60392
881.722	2.6816
884.615	1.83827
887.508	1.60501
890.401	0.29947
893.293	1.84781
896.186	1.81803
899.079	1.07789
901.971	2.18915
904.864	0.334943
907.757	1.09471
910.649	0.504565
913.542	0.389953
916.435	0.42432
919.328	0.463197
922.22	0.152484
925.113	0.554583
928.006	0.727263
930.898	0.742711
933.791	0.778483
936.684	0.196494
939.577	0.713436
942.469	0.368716
945.362	0.796838
948.255	0.731098
951.147	0.403797
954.04	0.2503
956.933	1.64036
959.825	1.10372
962.718	0.829192
965.611	1.24551
968.504	0.639758
971.396	0.999651
974.289	0.085367
977.182	0.561132
980.074	0.871876
982.967	0.916725
985.86	1.61501
988.752	0.988195
991.645	0.418731
994.538	2.38948
997.431	1.70611
1000.32	3.26073
1003.22	3.78715
1006.11	5.79029
1009	5.66799
1011.89	7.95115
1014.79	10.6538
1017.68	14.7337
1020.57	20.5609
1023.47	34.6092
1026.36	55.2768
1029.25	81.3747
1032.14	119.787
1035.04	161.44
1037.93	143.792
1040.82	77.4099
1043.71	37.5813
1046.61	19.4633
1049.5	13.0422
1052.39	7.79782
1055.29	5.33333
1058.18	4.48836
1061.07	2.28192
1063.96	1.77196
1066.86	1.16061
1069.75	1.33214
1072.64	1.65757
1075.53	0.826294
1078.43	0.152715
1081.32	1.13074
1084.21	0.25246
1087.1	0.484559
1090	1.39873
1092.89	0.457555
1095.78	0.79742
1098.67	0.293441
1101.57	0.908658
1104.46	0.940244
1107.35	0.768017
1110.25	1.75324
1113.14	1.47692
1116.03	3.47489
1118.92	4.66866
1121.82	4.51838
1124.71	4.10432
1127.6	3.15455
1130.49	2.52798
1133.39	2.77029
1136.28	2.9802
1139.17	1.64628
1142.07	2.86802
1144.96	1.74581
1147.85	1.63795
1150.74	2.23448
1153.64	3.68406
1156.53	3.52023
1159.42	3.49805
1162.31	3.27877
1165.21	2.35357
1168.1	2.73891
1170.99	1.9256
1173.88	0.370975
1176.78	1.1947
1179.67	0.818913
1182.56	0.359859
1185.46	0.928194
1188.35	0.602374
1191.24	0.257344
1194.13	1.01831
1197.03	1.42844
1199.92	1.71592
1202.81	0.860807
1205.7	0.891598
1208.6	1.2663
1211.49	1.65281
1214.38	1.22679
1217.28	0.934611
1220.17	0.511868
1223.06	1.66773
1225.95	1.965
1228.85	1.03549
1231.74	1.15853
1234.63	1.09629
1237.53	0.837378
1240.42	0.265096
1243.31	1.63609
1246.2	0.323273
1249.1	1.12299
1251.99	0.767161
1254.88	0.835273
1257.77	1.51906
1260.67	1.97923
1263.56	0.191
1266.45	0.568116
1269.34	0.021156
1272.24	1.12534
1275.13	1.48428
1278.02	0.731114
1280.91	1.11776
1283.81	0.033084
