Measurement: Raman, 532 nm, unoriented, Raman Data Processed
Mineral: Friedelite
Rruff sample: R070085
Ideal chemistry: Mn^2+^_8_Si_6_O_15_(OH)_10_
Locality: Sterling Hill mine, Ogdensburg, New Jersey, USA
Source: Bob Jenkins
Description: Orange-brown coarsely crystalline
Measured chemistry: (Mn^2+^_7.02_Fe^2+^_0.49_Mg_0.36_Zn_0.11_Al_0.02_)_Σ=8_(Si_5.98_Al_0.02_)_Σ=6_O_15_((OH)_9.13_Cl_0.87_)_Σ=10_; OH estimated by difference and charge balance
Raman shift (cm-1)	intensity
171.877	0
174.769	23.5046
177.662	67.5327
180.555	70.4636
183.448	74.5886
186.34	53.5544
189.233	79.814
192.126	143.8
195.018	195.997
197.911	283.853
200.804	246.828
203.696	237.67
206.589	187.572
209.482	152.8
212.375	112.147
215.267	76.9209
218.16	21.1045
221.053	21.8879
223.945	34.1504
226.838	15.1797
229.731	22.8818
232.624	13.1533
235.516	67.4275
238.409	105.153
241.302	95.9719
244.194	253.526
247.087	268.921
249.98	362.145
252.872	486.018
255.765	718.807
258.658	832.367
261.55	905.691
264.443	957.084
267.336	899.127
270.228	866.057
273.121	705.282
276.014	574.155
278.907	471.785
281.799	386.388
284.692	334.661
287.585	316.656
290.477	316.221
293.37	322.872
296.263	380.084
299.156	410.842
302.048	457.418
304.941	659.025
307.834	776.697
310.726	925.691
313.619	1119.43
316.512	1247.04
319.404	1340.93
322.297	1301.22
325.19	1227.86
328.082	815.456
330.975	469.832
333.868	252.372
336.761	113.443
339.653	67.1494
342.546	51.9072
345.439	16.896
348.331	44.251
351.224	42.4175
354.117	0.136719
357.01	68.0532
359.902	101.242
362.795	269.831
365.688	351.729
368.58	360.872
371.473	506.931
374.366	528.743
377.258	643.273
380.151	696.9
383.044	733.142
385.936	817.138
388.829	880.073
391.722	936.58
394.615	995.323
397.507	1059.87
400.4	1042.15
403.293	1084.48
406.185	986.44
409.078	844.937
411.971	720.721
414.863	572.035
417.756	337.518
420.649	193.605
423.541	68.9097
426.434	10.3818
429.327	14.8027
432.22	10.9766
435.112	45.3066
438.005	65.5478
440.898	54.5855
443.79	141.68
446.683	185.718
449.576	211.102
452.469	174.931
455.361	264.159
458.254	319.998
461.147	190.125
464.039	183.575
466.932	177.983
469.825	262.823
472.717	451.495
475.61	608.74
478.503	811.5
481.396	1060.53
484.288	1288.96
487.181	1521.12
490.074	1667.35
492.966	1424.7
495.859	950.944
498.752	604.195
501.644	483.148
504.537	424.049
507.43	347.252
510.322	375.088
513.215	344.865
516.108	251.825
519	187.055
521.893	101.126
524.786	26.8447
527.679	47.0523
530.571	39.9385
533.464	46.398
536.357	74.4214
539.249	13.3916
542.142	10.8965
545.035	40.2803
547.928	3.5166
550.82	20.501
553.713	29.5
556.606	11.293
559.498	13.6694
562.391	50.2109
565.284	63.4077
568.176	4.18018
571.069	40.2573
573.962	99.6909
576.855	168.473
579.747	208.876
582.64	262.024
585.533	375.88
588.425	532.859
591.318	704.846
594.211	1028.25
597.103	1557.18
599.996	2378.99
602.889	3761.36
605.781	5762.19
608.674	8135.97
611.567	10586.4
614.46	12414
617.352	11953
620.245	9069.91
623.138	5805.6
626.03	3632.11
628.923	2343.41
631.816	1653.81
634.708	1204.02
637.601	993.964
640.494	818.594
643.386	637.273
646.279	545.675
649.172	448.135
652.065	340.111
654.957	330.092
657.85	205.517
660.743	146.936
663.635	91.2002
666.528	52.6509
669.421	60.9141
672.313	23.875
675.206	28.2759
678.099	66.437
680.992	91.2153
683.884	78.0752
686.777	112.891
689.67	43.8027
692.562	71.7578
695.455	85.3247
698.348	90.8945
701.24	50.1616
704.133	89.9233
707.026	122.639
709.919	102.013
712.811	127.522
715.704	57.4917
718.597	18.082
721.489	23.0337
724.382	50.6255
727.275	27.6079
730.167	1.44775
733.06	27.1533
735.953	24.4605
738.846	9.69336
741.738	9.03027
744.631	9.55469
747.524	26.5703
750.416	2.86719
753.309	15.0371
756.202	52.581
759.094	52.0801
761.987	13.855
764.88	60.2944
767.773	60.064
770.665	117.643
773.558	107.009
776.451	142.874
779.343	72.1821
782.236	119.129
785.129	168.226
788.021	247.683
790.914	213.166
793.807	305.214
796.699	425.591
799.592	542.391
802.485	617.628
805.378	671.173
808.27	712.681
811.163	668.924
814.056	619.887
816.948	507.128
819.841	378.353
822.734	255.066
825.626	157.382
828.519	156.394
831.412	74.7476
834.305	57.2969
837.197	58.3438
840.09	31.689
842.983	10.9707
845.875	48.27
848.768	42.415
851.661	30.811
854.553	112.118
857.446	35.2388
860.339	48.8823
863.231	32.4868
866.124	76.0537
869.017	75.9356
871.91	100.033
874.802	87.6792
877.695	130.017
880.588	106.081
883.48	78.1289
886.373	108.88
889.266	102.98
892.159	64.3174
895.051	68.3648
897.944	73.4819
900.837	58.7363
903.729	63.96
906.622	27.1538
909.515	12.9951
912.407	4.73779
915.3	14.0479
918.193	10.8613
921.086	40.5083
923.978	52.5278
926.871	6.59961
929.764	10.5908
932.656	42.2515
935.549	53.1768
938.442	15.8354
941.334	80.2729
944.227	29.8735
947.12	97.6089
950.013	72.5972
952.905	66.4565
955.798	82.4536
958.691	56.0488
961.583	100.294
964.476	67.3438
967.369	20.6206
970.261	87.2671
973.154	31.0459
976.047	57.8721
978.939	38.8267
981.832	34.2905
984.725	93.1221
987.618	96.0195
990.51	76.8901
993.403	78.5991
996.296	70.2202
999.188	178.011
1002.08	192.726
1004.97	225.586
1007.87	305.409
1010.76	389.344
1013.65	458.644
1016.54	602.882
1019.44	843.922
1022.33	1526.27
1025.22	2732.09
1028.12	4768.28
1031.01	7044.26
1033.9	8599.54
1036.79	7035.18
1039.69	3875.59
1042.58	1868.6
1045.47	1031.62
1048.36	642.849
1051.26	431.322
1054.15	271.742
1057.04	143.143
1059.93	119.668
1062.83	27.771
1065.72	85.7925
1068.61	60.6143
1071.51	72.6494
1074.4	13.853
1077.29	11.2993
1080.18	16.9087
1083.08	25.2998
1085.97	51.3403
1088.86	23.6499
1091.76	22.1035
1094.65	17.4565
1097.54	10.9717
1100.43	20.2358
1103.33	18.23
1106.22	33.7812
1109.11	65.0073
1112	91.5688
1114.9	206.418
1117.79	227.177
1120.68	267.97
1123.57	202.359
1126.47	261.328
1129.36	224.205
1132.25	131.865
1135.14	123.141
1138.04	130.912
1140.93	68.4292
1143.82	97.1392
1146.72	112.61
1149.61	136.75
1152.5	119.94
1155.39	144.58
1158.29	201.255
1161.18	233.344
1164.07	152.284
1166.96	126.516
1169.86	60.1304
1172.75	70.3911
1175.64	73.4033
1178.54	39.8227
1181.43	26.4434
1184.32	2.771
1187.21	54.5933
1190.11	67.4097
1193	94.5478
1195.89	66.3481
1198.78	63.227
1201.68	18.7441
1204.57	115.214
1207.46	3.66846
1210.36	25.3818
1213.25	63.6562
1216.14	2.74316
1219.03	26.1392
1221.93	2.80762
1224.82	27.0918
1227.71	12.0815
1230.6	101.131
1233.5	59.6606
1236.39	38.6079
1239.28	68.3076
1242.17	95.4624
1245.07	75.8994
1247.96	72.9785
1250.85	9.29199
1253.75	47.6387
1256.64	87.4541
1259.53	73.667
1262.42	34.1016
1265.32	61.29
1268.21	24.6348
1271.1	122.583
1273.99	64.7529
1276.89	38.0059
1279.78	91.4053
1282.67	72.3691
1285.57	68.2461
1288.46	3.67285
1291.35	36.2305
1294.24	30.2695
1297.14	22.3428
1300.03	83.6621
1302.92	85.8965
1305.81	35.5635
