Measurement: Raman, 532 nm, unoriented, Raman Data Processed
Mineral: Friedelite
Rruff sample: R060364
Ideal chemistry: Mn^2+^_8_Si_6_O_15_(OH)_10_
Locality: Sterling Hill mine, Ogdensburg, Sussex County, New Jersey, USA
Source: Herb Obodda
Description: Brownish-red fine-grained massive
Measured chemistry: (Mn^2+^_7.46_Mg_0.54_)_Σ=8_Si_6.00_O_15_((OH)_9.26_Cl_0.74_)_Σ=10_
Raman shift (cm-1)	intensity
117.009	0
120.383	0.824692
123.758	2.56007
127.133	4.26456
130.508	1.21868
133.883	0.177056
137.257	3.2266
140.632	9.93355
144.007	17.3787
147.382	24.6601
150.757	36.1624
154.132	45.4209
157.506	56.6545
160.881	64.5196
164.256	78.7581
167.631	86.3982
171.006	89.292
174.381	87.791
177.755	85.1992
181.13	73.9874
184.505	65.9256
187.88	56.4176
191.255	50.6022
194.629	48.2766
198.004	48.5308
201.379	42.527
204.754	30.6749
208.129	20.9928
211.504	17.068
214.878	12.3368
218.253	9.17959
221.628	4.67862
225.003	3.3393
228.377	1.10122
231.752	2.61904
235.127	0.447296
238.502	0.221088
241.877	1.99232
245.252	0.036243
248.626	2.02391
252.001	6.57948
255.376	11.7363
258.751	20.7895
262.126	25.4575
265.5	26.2976
268.875	25.3186
272.25	20.1235
275.625	13.8664
279	7.90008
282.375	5.14615
285.75	4.87949
289.124	4.48128
292.499	6.68906
295.874	9.76322
299.249	17.7321
302.623	24.3009
305.998	33.234
309.373	41.9996
312.748	53.7028
316.123	59.1135
319.498	60.2797
322.872	59.2241
326.247	52.3511
329.622	30.8606
332.997	14.2308
336.372	8.15704
339.747	5.01584
343.121	2.94697
346.496	2.48219
349.871	2.48241
353.246	1.28584
356.621	2.12025
359.995	4.52534
363.37	9.48958
366.745	13.1952
370.12	17.9618
373.495	21.734
376.87	27.6908
380.244	33.3456
383.619	37.9521
386.994	44.4631
390.369	47.4517
393.744	52.9239
397.118	59.2485
400.493	61.0712
403.868	61.6305
407.243	57.0125
410.618	49.0165
413.993	36.8733
417.367	24.8151
420.742	13.6333
424.117	6.57666
427.492	0.774811
430.866	0.393959
434.241	0.131298
437.616	0.271259
440.991	2.11285
444.366	4.43653
447.741	5.76594
451.115	3.26375
454.49	3.6814
457.865	7.23529
461.24	6.84152
464.615	2.2377
467.99	1.29266
471.364	4.37791
474.739	11.2418
478.114	16.7039
481.489	24.0763
484.864	31.6555
488.238	41.8094
491.613	50.4191
494.988	39.3719
498.363	23.1399
501.738	13.3934
505.113	10.5847
508.487	9.66301
511.862	11.1862
515.237	10.1084
518.612	7.90352
521.987	3.75724
525.361	1.66986
528.736	0.011593
532.111	0.173168
535.486	0.213963
538.861	0.568188
542.236	0.390867
545.61	1.00784
548.985	0.51576
552.36	0.485828
555.735	0.066511
559.11	0.548492
562.484	0.915026
565.859	2.54368
569.234	4.0584
572.609	5.00488
575.984	7.73431
579.359	11.0411
582.733	15.9818
586.108	21.5394
589.483	29.0888
592.858	43.7052
596.232	68.4387
599.607	108.249
602.982	174.492
606.357	264.94
609.732	382.92
613.107	521.294
616.481	614.57
619.856	544.974
623.231	362.75
626.606	210.787
629.981	126.82
633.356	82.1841
636.73	60.6105
640.105	42.3806
643.48	31.9325
646.855	24.2785
650.23	17.7512
653.604	12.5636
656.979	8.93928
660.354	7.00037
663.729	4.38262
667.104	2.12505
670.479	1.14018
673.853	1.11579
677.228	1.10273
680.603	1.9477
683.978	3.01033
687.353	3.3303
690.727	3.11699
694.102	2.71143
697.477	3.02136
700.852	2.75125
704.227	3.46123
707.601	3.29896
710.976	3.75667
714.351	2.22865
717.726	1.36423
721.101	0.369781
724.476	0.179132
727.85	0.136929
731.225	0.645168
734.6	0.215763
737.975	0.67194
741.35	0.824257
744.725	0.571644
748.099	0.989761
751.474	0.90737
754.849	0.903561
758.224	0.657488
761.599	1.64945
764.973	1.77218
768.348	1.92503
771.723	3.35424
775.098	3.1678
778.473	3.66832
781.847	4.69344
785.222	6.52219
788.597	7.77803
791.972	10.2144
795.347	12.7491
798.722	16.3731
802.096	21.178
805.471	25.9982
808.846	28.2775
812.221	29.1433
815.596	27.2059
818.971	22.8476
822.345	14.9002
825.72	9.25445
829.095	5.75999
832.47	4.40021
835.845	3.27744
839.219	2.54635
842.594	1.24883
845.969	0.707325
849.344	0.581238
852.719	0.125456
856.093	0.158569
859.468	0.207071
862.843	1.00516
866.218	2.01729
869.593	2.47977
872.967	2.04576
876.342	3.07575
879.717	3.12331
883.092	2.48968
886.467	2.40209
889.842	1.12784
893.216	1.056
896.591	1.32999
899.966	1.35766
903.341	1.54153
906.716	0.621521
910.091	1.38727
913.465	0.485941
916.84	0.040184
920.215	0.013826
923.59	0.446081
926.965	0.47076
930.339	0.038893
933.714	0.339106
937.089	0.299282
940.464	0.001078
943.839	0.210615
947.213	0.636108
950.588	0.596766
953.963	0.950348
957.338	2.2466
960.713	1.35284
964.088	1.71388
967.462	1.05655
970.837	1.67388
974.212	1.35815
977.587	2.02989
980.962	1.38037
984.337	1.59867
987.711	2.62146
991.086	2.94072
994.461	3.80718
997.836	5.19329
1001.21	5.55763
1004.59	8.85314
1007.96	11.3748
1011.34	14.0644
1014.71	18.6785
1018.09	25.1858
1021.46	39.8028
1024.83	71.8795
1028.21	134.254
1031.58	216.183
1034.96	332.31
1038.33	337.863
1041.71	173.536
1045.08	73.7042
1048.46	37.2949
1051.83	21.0305
1055.21	12.6569
1058.58	8.61957
1061.96	5.8744
1065.33	3.46422
1068.71	2.58343
1072.08	1.76499
1075.46	0.16465
1078.83	0.564684
1082.21	0.559946
1085.58	0.311405
1088.96	0.384916
1092.33	0.816303
1095.7	0.551138
1099.08	0.802227
1102.45	0.919472
1105.83	0.385818
1109.2	1.59421
1112.58	2.89187
1115.95	4.5614
1119.33	5.57711
1122.7	7.04591
1126.08	7.13416
1129.45	6.13079
1132.83	4.50775
1136.2	3.61748
1139.58	2.61951
1142.95	1.97861
1146.33	2.88107
1149.7	3.63727
1153.08	3.39797
1156.45	4.81135
1159.83	4.76987
1163.2	4.42147
1166.58	4.04843
1169.95	2.8823
1173.33	2.07579
1176.7	1.74273
1180.08	0.693195
1183.45	0.261903
1186.83	0.296093
1190.2	0.191758
1193.58	0.001151
1196.95	0.173548
1200.33	0.059843
1203.7	0.367863
1207.07	0.565006
1210.45	0.441401
1213.82	1.10431
1217.2	0.450581
1220.57	0.464992
1223.95	0.918777
1227.32	1.03167
1230.7	1.47646
1234.07	1.2086
1237.45	1.04664
1240.82	0.67573
1244.2	0.673147
1247.57	0.640823
1250.95	1.69417
1254.32	0.590682
1257.7	0.231308
1261.07	0.886186
1264.45	0.547417
1267.82	0.82361
1271.2	0.278349
1274.57	0.610389
1277.95	0.819609
1281.32	0.232298
1284.69	0.319241
1288.07	1.04125
1291.44	1.0108
1294.82	0.511327
1298.19	0.429445
1301.57	0.371311
