Measurement: Raman, 785 nm, unoriented, Raman Data Processed
Mineral: Friedelite
Rruff sample: R070085
Ideal chemistry: Mn^2+^_8_Si_6_O_15_(OH)_10_
Locality: Sterling Hill mine, Ogdensburg, New Jersey, USA
Source: Bob Jenkins
Description: Orange-brown coarsely crystalline
Measured chemistry: (Mn^2+^_7.02_Fe^2+^_0.49_Mg_0.36_Zn_0.11_Al_0.02_)_Σ=8_(Si_5.98_Al_0.02_)_Σ=6_O_15_((OH)_9.13_Cl_0.87_)_Σ=10_; OH estimated by difference and charge balance
Raman shift (cm-1)	intensity
174.343	0
177.236	50.7231
180.128	34.718
183.021	20.7202
185.914	29.1736
188.806	27.48
191.699	52.7629
194.592	88.2502
197.484	153.791
200.377	106.751
203.27	190.983
206.162	112.489
209.055	57.7749
211.948	41.3044
214.841	44.6184
217.733	29.8607
220.626	5.28601
223.519	18.62
226.411	12.4319
229.304	18.1362
232.197	4.53345
235.089	0.92334
237.982	28.0183
240.875	76.1909
243.768	107.24
246.66	165.317
249.553	209.904
252.446	302.776
255.338	446.968
258.231	595.029
261.124	637.257
264.017	717.668
266.909	711.503
269.802	654.714
272.695	583.817
275.587	467.276
278.48	391.369
281.373	333.945
284.265	259.504
287.158	234.543
290.051	227.37
292.943	206.094
295.836	202.321
298.729	262.532
301.622	310.925
304.514	353.079
307.407	399.153
310.3	486.668
313.192	587.323
316.085	621.579
318.978	683.564
321.87	747.141
324.763	695.514
327.656	595.507
330.549	367.214
333.441	208.69
336.334	182.159
339.227	93.1731
342.119	65.7346
345.012	21.9268
347.905	9.8689
350.798	21.8767
353.69	26.6438
356.583	11.9534
359.476	36.0117
362.368	62.7551
365.261	63.9807
368.154	105.779
371.046	150.331
373.939	187.444
376.832	203.991
379.724	241.054
382.617	278.364
385.51	301.957
388.403	334.149
391.295	344.685
394.188	390.231
397.081	419.887
399.973	441.309
402.866	422.672
405.759	436.471
408.651	431.661
411.544	325.93
414.437	265.877
417.33	182.927
420.222	115.007
423.115	70.0789
426.008	11.3674
428.9	27.9541
431.793	5.17651
434.686	24.8307
437.579	1.7063
440.471	49.4506
443.364	51.3378
446.257	115.687
449.149	53.3938
452.042	77.637
454.935	92.3691
457.827	117.669
460.72	92.5858
463.613	29.2869
466.505	26.0149
469.398	41.6084
472.291	63.8506
475.184	140.042
478.076	158.815
480.969	264.899
483.862	268.917
486.754	398.469
489.647	492.635
492.54	495.475
495.433	320.788
498.325	216.691
501.218	146.812
504.111	122.843
507.003	124.807
509.896	154.473
512.789	161.912
515.681	153.713
518.574	114.368
521.467	52.3822
524.359	34.6089
527.252	14.6903
530.145	7.43494
533.038	1.14978
535.93	3.89087
538.823	6.48413
541.716	12.2871
544.608	15.5488
547.501	2.84815
550.394	1.26074
553.286	5.11902
556.179	29.1266
559.072	1.61902
561.965	6.09912
564.857	55.7378
567.75	15.0803
570.643	64.0432
573.535	45.3757
576.428	98.6719
579.321	80.9692
582.213	133.055
585.106	186.984
587.999	186.47
590.891	253.819
593.784	372.938
596.677	544.18
599.57	845.745
602.462	1212.24
605.355	1892.39
608.248	2793.55
611.14	3931.01
614.033	4891.74
616.926	5050.56
619.818	3972.3
622.711	2652.87
625.604	1560.15
628.497	1044.36
631.389	745.827
634.282	532.685
637.175	403.783
640.067	327.825
642.96	262.196
645.853	219.363
648.745	183.852
651.638	133.375
654.531	100.977
657.424	74.8524
660.316	64.4814
663.209	47.9025
666.102	5.71301
668.994	10.41
671.887	40.8251
674.78	4.05859
677.673	15.0161
680.565	44.2053
683.458	5.33704
686.351	20.6041
689.243	55.7206
692.136	30.1502
695.029	26.7743
697.921	23.2394
700.814	65.1821
703.707	61.604
706.6	57.1853
709.492	52.9542
712.385	26.2184
715.278	41.8145
718.17	36.6953
721.063	42.7157
723.956	3.73389
726.848	22.4932
729.741	10.1964
732.634	10.3589
735.527	21.7721
738.419	20.2429
741.312	0.10437
744.205	6.2207
747.097	14.6483
749.99	16.619
752.883	1.41089
755.775	15.5491
758.668	2.74646
761.561	45.2034
764.453	1.0155
767.346	0.134155
770.239	21.6128
773.132	8.77368
776.024	34.6536
778.917	28.4847
781.81	19.2656
784.702	57.2334
787.595	82.1741
790.488	82.8552
793.38	103.415
796.273	146.812
799.166	152.703
802.058	194.482
804.951	226.322
807.844	255.896
810.737	242.576
813.629	227.531
816.522	192.883
819.415	151.398
822.307	84.5004
825.2	60.8035
828.093	41.2529
830.986	75.2519
833.878	9.82104
836.771	29.1329
839.664	29.0234
842.556	10.2439
845.449	7.27271
848.342	35.5388
851.234	12.0041
854.127	26.8766
857.02	14.5278
859.913	43.2176
862.805	29.3566
865.698	38.0605
868.591	46.7323
871.483	1.89087
874.376	13.683
877.269	19.8949
880.161	13.897
883.054	10.7363
885.947	24.6321
888.84	51.4145
891.732	30.9005
894.625	15.0701
897.518	15.4574
900.41	20.4609
903.303	10.3586
906.196	9.12122
909.088	9.53796
911.981	24.2738
914.874	16.8112
917.766	24.6046
920.659	32.7178
923.552	29.481
926.445	26.4137
929.337	21.457
932.23	31.1543
935.123	8.15088
938.015	13.3108
940.908	5.78332
943.801	31.7305
946.693	21.0533
949.586	35.308
952.479	9.73413
955.372	70.2163
958.264	54.9701
961.157	27.9285
964.05	33.5289
966.942	21.6442
969.835	23.3
972.728	44.0618
975.62	23.6197
978.513	11.2596
981.406	25.3605
984.299	47.0974
987.191	16.9969
990.084	24.6024
992.977	6.85083
995.869	50.5544
998.762	46.8387
1001.65	39.0288
1004.55	70.5441
1007.44	104.161
1010.33	98.8467
1013.23	130.885
1016.12	168.214
1019.01	226.283
1021.9	326.41
1024.8	554.053
1027.69	1012.17
1030.58	1702.7
1033.47	2369.62
1036.37	2180.73
1039.26	1268.36
1042.15	626.205
1045.05	290.51
1047.94	218.808
1050.83	102.917
1053.72	86.9379
1056.62	69.9713
1059.51	18.328
1062.4	40.0747
1065.29	6.68994
1068.19	2.25867
1071.08	1.57581
1073.97	2.07959
1076.87	9.19763
1079.76	20.6194
1082.65	54.2533
1085.54	52.3999
1088.44	46.6226
1091.33	32.7732
1094.22	30.6514
1097.11	22.4922
1100.01	0.355347
1102.9	27.3135
1105.79	16.4477
1108.68	17.4606
1111.58	48.8355
1114.47	26.5569
1117.36	45.0212
1120.26	56.6184
1123.15	59.4153
1126.04	62.21
1128.93	96.3025
1131.83	30.501
1134.72	38.9495
1137.61	34.431
1140.5	14.3928
1143.4	36.8052
1146.29	27.0835
1149.18	21.906
1152.08	41.8332
1154.97	55.8145
1157.86	26.6921
1160.75	52.88
1163.65	47.0862
1166.54	27.7384
1169.43	23.6643
1172.32	20.337
1175.22	30.5642
1178.11	14.7758
1181	5.63147
1183.89	33.7169
1186.79	36.8315
1189.68	20.3452
1192.57	16.4507
1195.47	5.71265
1198.36	49.0853
1201.25	28.5669
1204.14	21.1842
1207.04	14.5604
1209.93	19.3091
1212.82	10.2562
1215.71	1.92651
1218.61	22.6191
1221.5	13.5533
1224.39	10.1946
1227.29	0.251099
