Measurement: Raman, 532 nm, unoriented, Raman Data Processed
Mineral: Frolovite
Rruff sample: R070469
Ideal chemistry: Ca[B(OH)_4_]_2_
Locality: Solongo B deposit, Vitim Plateau, Buriatia (Buryatia) Republic, Transbaikalia (Zabaykalye), Eastern-Siberian Region, Russia
Source: Michael Scott
Description: Vitreous colorless vein, associated with calcite and yellow roweite, R130073
Raman shift (cm-1)	intensity
146.548	0
149.923	30.5269
153.298	68.7427
156.672	193.646
160.047	287.923
163.422	162.032
166.797	72.2684
170.172	132.595
173.547	277.295
176.921	378.234
180.296	467.356
183.671	364.223
187.046	250.871
190.421	203.692
193.795	198.044
197.17	232.979
200.545	408.736
203.92	454.139
207.295	361.203
210.669	324.26
214.044	302.275
217.419	287.116
220.794	285.55
224.169	352.283
227.544	417.523
230.918	466.662
234.293	549.678
237.668	753.107
241.043	896.109
244.418	748.708
247.792	392.407
251.167	217.044
254.542	82.4395
257.917	32.1356
261.292	0.020081
264.667	9.23462
268.041	14.4446
271.416	5.70099
274.791	18.1433
278.166	46.8595
281.541	69.6398
284.916	47.7293
288.29	31.0061
291.665	13.0969
295.04	1.5426
298.415	19.6244
301.79	1.3205
305.164	3.44232
308.539	1.66156
311.914	10.7054
315.289	2.04352
318.664	25.669
322.038	20.065
325.413	2.77051
328.788	10.1567
332.163	21.458
335.538	24.7702
338.913	16.0422
342.287	10.6481
345.662	11.6524
349.037	38.9804
352.412	39.4923
355.787	39.5618
359.161	45.7715
362.536	59.4888
365.911	55.6852
369.286	73.444
372.661	118.989
376.036	120.547
379.41	208.852
382.785	292.774
386.16	362.832
389.535	461.91
392.91	576.683
396.284	636.11
399.659	602.812
403.034	528.659
406.409	489.978
409.784	430.281
413.159	441.271
416.533	442.867
419.908	429.792
423.283	447.651
426.658	469.295
430.033	454.423
433.408	383.196
436.782	314.12
440.157	217.615
443.532	112.881
446.907	71.2518
450.282	14.8084
453.656	15.0534
457.031	9.41388
460.406	0.871704
463.781	9.33899
467.156	20.2314
470.531	39.0924
473.905	52.5682
477.28	39.8365
480.655	14.8265
484.03	44.0501
487.405	15.6062
490.779	36.4908
494.154	70.0204
497.529	128.037
500.904	242.746
504.279	293.199
507.654	389.033
511.028	465.483
514.403	534.318
517.778	566.531
521.153	507.878
524.528	526.206
527.903	541.663
531.277	574.506
534.652	632.862
538.027	738.689
541.402	881.406
544.777	897.45
548.151	689.559
551.526	431.534
554.901	297.404
558.276	176.695
561.651	85.5544
565.025	12.5989
568.4	5.5188
571.775	5.13672
575.15	16.6632
578.525	13.7395
581.899	23.7167
585.274	7.34741
588.649	13.4526
592.024	25.1559
595.399	14.7367
598.774	31.1591
602.148	57.126
605.523	51.917
608.898	69.7723
612.273	50.9308
615.648	56.4797
619.023	32.5195
622.397	14.5008
625.772	38.1903
629.147	5.43616
632.522	13.4594
635.897	7.70581
639.271	4.82935
642.646	12.2186
646.021	23.6063
649.396	3.28552
652.771	11.376
656.145	9.34949
659.52	4.39307
662.895	9.8158
666.27	12.7155
669.645	14.3689
673.02	26.6281
676.394	53.9153
679.769	76.3684
683.144	106.308
686.519	141.401
689.894	164.997
693.269	165.134
696.643	170.875
700.018	188.615
703.393	172.74
706.768	192.433
710.143	204.297
713.518	225.33
716.892	262.604
720.267	362.027
723.642	523.679
727.017	733.838
730.391	1176.17
733.766	1778.68
737.141	2747.34
740.516	4180.9
743.891	6107.88
747.266	8141.07
750.64	10336
754.015	10190.6
757.39	7096.07
760.765	4271.35
764.14	2429.25
767.514	1370.06
770.889	833.316
774.264	534.984
777.639	343.951
781.014	195.75
784.389	119.012
787.763	83.6213
791.138	53.5538
794.513	27.832
797.888	6.005
801.263	5.53064
804.638	14.2732
808.012	0.72522
811.387	5.526
814.762	32.4773
818.137	48.0034
821.512	76.7487
824.886	52.1694
828.261	28.2699
831.636	26.5885
835.011	2.40198
838.386	3.41943
841.76	29.1167
845.135	1.20166
848.51	22.4525
851.885	59.1006
855.26	69.9923
858.635	94.6388
862.01	131.875
865.384	158.794
868.759	173.339
872.134	195.101
875.509	142.731
878.884	155.171
882.258	171.336
885.633	193.348
889.008	164.174
892.383	192.263
895.758	144.282
899.132	178.154
902.507	152.734
905.882	157.95
909.257	137.55
912.632	153.705
916.006	176.519
919.381	201.932
922.756	169.934
926.131	143.268
929.506	143.534
932.881	120.671
936.255	93.8462
939.63	86.5169
943.005	50.5978
946.38	24.5093
949.755	46.4419
953.13	25.486
956.504	43.4866
959.879	46.9161
963.254	16.3486
966.629	40.1326
970.004	17.183
973.378	1.88147
976.753	18.9153
980.128	25.291
983.503	13.8065
986.878	30.7549
990.253	36.4816
993.627	47.6803
997.002	73.9783
1000.38	89.2758
1003.75	109.615
1007.13	132.311
1010.5	189.503
1013.88	189.065
1017.25	188.284
1020.63	176.525
1024	151.988
1027.38	104.42
1030.75	64.1821
1034.12	52.1686
1037.5	12.252
1040.88	2.97815
1044.25	30.5175
1047.62	16.7592
1051	2.49023
1054.37	12.4003
1057.75	13.8171
1061.12	16.4735
1064.5	35.3472
1067.87	59.3109
1071.25	64.2849
1074.62	82.1097
1078	65.5449
1081.37	132.416
1084.75	136.135
1088.12	145.743
1091.5	112.321
1094.87	116.9
1098.25	87.3826
1101.62	98.3757
1105	68.0786
1108.37	83.6583
1111.75	69.0358
1115.12	90.1494
1118.5	53.3672
1121.87	58.7108
1125.24	21.543
1128.62	35.6024
1131.99	10.6178
1135.37	14.1071
1138.74	12.8903
1142.12	5.85168
1145.49	5.45874
1148.87	11.0998
1152.24	7.11853
1155.62	10.077
1158.99	11.1146
1162.37	21.7408
1165.74	26.4285
1169.12	35.4059
1172.49	28.0333
1175.87	58.9749
1179.24	74.8816
1182.62	85.9514
1185.99	65.1724
1189.37	108.078
1192.74	146.161
1196.12	129.409
1199.49	134.885
1202.87	126.262
1206.24	116.485
1209.62	82.4747
1212.99	95.8058
1216.37	83.7963
1219.74	85.8086
1223.12	67.8337
1226.49	59.3722
1229.87	70.307
1233.24	88.7013
1236.61	38.9648
1239.99	61.8263
1243.36	32.0923
1246.74	69.4228
1250.11	37.5101
1253.49	19.3903
1256.86	45.1271
1260.24	29.8888
1263.61	42.0995
1266.99	83.7926
1270.36	84.4659
1273.74	127.222
1277.11	59.6011
1280.49	74.4744
1283.86	73.1736
1287.24	69.8269
1290.61	70.0857
1293.99	25.864
1297.36	42.7856
1300.74	22.478
1304.11	34.2156
1307.48	0.111572
1310.86	7.08447
1314.23	18.3877
1317.61	0
