Measurement: Raman, 785 nm, unoriented, Raman Data Processed
Mineral: Frolovite
Rruff sample: R070469
Ideal chemistry: Ca[B(OH)_4_]_2_
Locality: Solongo B deposit, Vitim Plateau, Buriatia (Buryatia) Republic, Transbaikalia (Zabaykalye), Eastern-Siberian Region, Russia
Source: Michael Scott
Description: Vitreous colorless vein, associated with calcite and yellow roweite, R130073
Raman shift (cm-1)	intensity
142.242	0
145.135	0.996643
148.028	99.7604
150.92	262.162
153.813	355.908
156.706	428.001
159.599	503.087
162.491	429.679
165.384	285.677
168.277	257.707
171.169	355.127
174.062	514.638
176.955	637.418
179.847	771.242
182.74	706.42
185.633	491.171
188.525	354.546
191.418	317.625
194.311	336.343
197.204	363.778
200.096	533.564
202.989	685.304
205.882	661.638
208.774	519.885
211.667	449.502
214.56	437.889
217.452	428.045
220.345	454.946
223.238	566.383
226.131	717.943
229.023	814.084
231.916	923.327
234.809	1066.78
237.701	1319.06
240.594	1601.12
243.487	1575.44
246.38	1129.23
249.272	671.855
252.165	367.118
255.058	175.558
257.95	54.1815
260.843	8.29739
263.736	13.8971
266.628	20.8359
269.521	14.8115
272.414	2.49075
275.307	25.8621
278.199	60.4283
281.092	71.2862
283.985	75.0755
286.877	76.4578
289.77	26.7112
292.663	10.2582
295.555	1.24765
298.448	0.693756
301.341	7.37039
304.233	13.921
307.126	3.45194
310.019	9.81879
312.912	11.3999
315.804	5.34399
318.697	15.6249
321.59	2.78061
324.482	2.1983
327.375	14.8758
330.268	16.9481
333.161	0.184265
336.053	22.5834
338.946	32.6261
341.839	31.78
344.731	43.1572
347.624	55.4306
350.517	61.17
353.409	83.3922
356.302	105.29
359.195	70.0208
362.087	76.7396
364.98	98.2275
367.873	109.551
370.766	151.056
373.658	205.778
376.551	260.252
379.444	337.58
382.336	417.239
385.229	533.67
388.122	650.874
391.014	803.673
393.907	945.903
396.8	1052.58
399.693	998.675
402.585	908.945
405.478	810.152
408.371	751.718
411.263	707.932
414.156	714.81
417.049	712.469
419.942	714.961
422.834	764.673
425.727	771.47
428.62	760.694
431.512	721.565
434.405	626.743
437.298	501.107
440.19	355.985
443.083	229.77
445.976	118.754
448.868	55.3025
451.761	12.6859
454.654	13.8154
457.547	19.3463
460.439	20.591
463.332	15.7532
466.225	0.919006
469.117	30.9637
472.01	50.7376
474.903	69.2688
477.796	56.6244
480.688	45.0168
483.581	31.7545
486.474	28.1746
489.366	34.374
492.259	60.3074
495.152	121.147
498.044	214.113
500.937	320.74
503.83	410.213
506.723	527.785
509.615	691.075
512.508	773.695
515.401	840.94
518.293	799.109
521.186	766.669
524.079	800.874
526.971	766.83
529.864	801.62
532.757	888.012
535.649	1012.24
538.542	1147.64
541.435	1353.61
544.328	1393.71
547.22	1192.89
550.113	845.609
553.006	568.929
555.898	396.382
558.791	273.569
561.684	154.068
564.577	59.3108
567.469	9.19327
570.362	1.61478
573.255	11.5461
576.147	11.3048
579.04	2.67633
581.933	14.9316
584.825	2.74499
587.718	5.57727
590.611	25.6134
593.504	12.611
596.396	35.6291
599.289	34.8944
602.182	64.9775
605.074	69.1119
607.967	70.8638
610.86	72.3819
613.752	82.4878
616.645	59.2003
619.538	40.8684
622.431	39.9312
625.323	17.5872
628.216	20.2815
631.109	0.989899
634.001	2.47546
636.894	1.8234
639.787	8.21112
642.679	1.66373
645.572	17.7478
648.465	5.79184
651.357	8.24774
654.25	2.47525
657.143	23.7733
660.036	17.4462
662.928	7.02441
665.821	13.6534
668.714	7.54868
671.606	45.7805
674.499	48.6947
677.392	87.3025
680.284	98.9959
683.177	142.163
686.07	161.108
688.963	227.547
691.855	211.726
694.748	243.943
697.641	218.372
700.533	230.736
703.426	237.277
706.319	227.203
709.212	252.067
712.104	290.762
714.997	330.898
717.89	386.595
720.782	498.822
723.675	627.573
726.568	930.193
729.46	1233.75
732.353	1810.19
735.246	2648.36
738.139	3795.43
741.031	5428.01
743.924	7340.59
746.817	9599.14
749.709	12352.8
752.602	13873.5
755.495	11841.8
758.387	8288.44
761.28	5386.46
764.173	3259.09
767.066	2022.54
769.958	1296.18
772.851	831.903
775.744	570.244
778.636	363.157
781.529	208.667
784.422	165.714
787.314	78.134
790.207	66.0483
793.1	39.616
795.992	15.9197
798.885	8.63196
801.778	19.6252
804.671	0.373474
807.563	5.12158
810.456	19.5121
813.349	49.3068
816.241	56.5336
819.134	74.3021
822.027	79.0613
824.919	76.8304
827.812	60.7455
830.705	61.8716
833.598	31.7793
836.49	20.4082
839.383	7.49353
842.276	14.9757
845.168	31.9625
848.061	12.1958
850.954	14.3744
853.846	22.9566
856.739	55.4142
859.632	93.7134
862.525	111.361
865.417	132.007
868.31	155.058
871.203	177.951
874.095	161.738
876.988	151.723
879.881	146.703
882.774	166.012
885.666	163.991
888.559	184.481
891.452	197.355
894.344	206.176
897.237	177.299
900.13	174.914
903.022	154.048
905.915	144.071
908.808	159.379
911.701	158.428
914.593	191.924
917.486	196.132
920.379	208.868
923.271	191.907
926.164	163.407
929.057	162.776
931.949	129.728
934.842	90.0918
937.735	63.8636
940.628	47.9949
943.52	25.2456
946.413	26.7335
949.306	22.2833
952.198	26.9635
955.091	33.1447
957.984	24.0051
960.876	28.1881
963.769	32.7023
966.662	34.0838
969.554	14.6135
972.447	0.410889
975.34	2.81802
978.233	19.5131
981.125	17.9565
984.018	23.9183
986.911	28.1454
989.803	51.2176
992.696	38.5326
995.589	64.6094
998.481	97.9796
1001.37	130.277
1004.27	159.997
1007.16	173.272
1010.05	210.999
1012.95	228.391
1015.84	237.365
1018.73	219.805
1021.62	211.641
1024.52	208.321
1027.41	130.921
1030.3	110.526
1033.19	70.6585
1036.09	47.5125
1038.98	25.7387
1041.87	3.4769
1044.77	7.71515
1047.66	14.0092
1050.55	9.9798
1053.44	3.37436
1056.34	4.8865
1059.23	9.42535
1062.12	18.6894
1065.01	15.7297
1067.91	25.61
1070.8	43.4281
1073.69	44.3504
1076.58	61.6974
1079.48	89.9321
1082.37	109.294
1085.26	166.257
1088.15	132.951
1091.05	117.648
1093.94	90.9073
1096.83	90.7465
1099.73	98.578
1102.62	79.3412
1105.51	91.6401
1108.4	99.385
1111.3	61.7719
1114.19	57.2601
1117.08	56.5375
1119.97	64.3667
1122.87	35.6179
1125.76	31.5424
1128.65	4.74149
1131.55	8.57752
1134.44	24.2931
1137.33	4.88596
1140.22	3.72784
1143.12	12.4602
1146.01	18.0219
1148.9	2.50256
1151.8	15.7517
1154.69	1.81677
1157.58	24.2196
1160.47	15.7368
1163.37	27.1457
1166.26	21.5248
1169.15	40.6734
1172.04	50.6766
1174.94	66.633
1177.83	70.815
1180.72	85.7843
1183.61	99.7255
1186.51	98.444
1189.4	128.082
1192.29	135.071
1195.18	124.023
1198.08	126.796
1200.97	125.985
1203.86	115.242
1206.76	107.767
1209.65	92.8915
1212.54	79.8284
1215.43	73.3262
1218.33	23.4401
1221.22	37.2405
1224.11	45.4805
1227.01	42.0705
1229.9	32.8445
1232.79	10.0275
1235.68	7.4837
1238.58	21.6463
1241.47	1.46918
