Measurement: Raman, 532 nm, unoriented, Raman Data Processed
Mineral: Gadolinium gallium garnet
Rruff sample: R110102
Ideal chemistry: Gd_3_Ga_2_(GaO_4_)_3_
Locality: Synthetic
Source: Gemological Institute of America
Description: A cut, colorless (2.33ct) gemstone, grown by crystal pulling.
Raman shift (cm-1)	intensity
164.256	0
167.149	8.8631
170.041	26.1423
172.934	12.4688
175.827	29.1767
178.72	70.4257
181.612	54.4853
184.505	16.6919
187.398	14.6752
190.29	14.5735
193.183	5.84779
196.076	0.06813
198.968	0.804226
201.861	0.698551
204.754	4.88104
207.647	14.8142
210.539	24.3374
213.432	28.4738
216.325	24.4446
219.217	20.1539
222.11	22.3434
225.003	29.2674
227.895	31.3796
230.788	27.4384
233.681	40.6431
236.573	83.5422
239.466	132.708
242.359	38.5322
245.252	3.7596
248.144	3.34686
251.037	4.46284
253.93	0.791416
256.822	6.01504
259.715	17.8333
262.608	9.53104
265.5	6.53438
268.393	22.4566
271.286	50.8412
274.179	59.1239
277.071	25.8338
279.964	7.63884
282.857	2.99074
285.75	1.33938
288.642	0.411781
291.535	0.152988
294.428	1.54899
297.32	1.41414
300.213	0.031158
303.106	1.88744
305.998	4.96889
308.891	8.59899
311.784	5.82037
314.676	0.106033
317.569	1.11212
320.462	4.58499
323.355	13.5291
326.247	23.7782
329.14	31.4608
332.033	48.1309
334.925	71.7598
337.818	101.179
340.711	139.734
343.603	201.556
346.496	310.466
349.389	488.152
352.281	723.373
355.174	804.197
358.067	531.876
360.96	264.262
363.852	138.795
366.745	78.167
369.638	52.4828
372.53	45.4768
375.423	52.1073
378.316	76.7646
381.209	100.143
384.101	105.501
386.994	116.919
389.887	176.557
392.779	272.065
395.672	290.478
398.565	152.615
401.457	57.1897
404.35	29.8336
407.243	17.0144
410.135	14.5801
413.028	13.5504
415.921	19.9989
418.814	52.2674
421.706	72.995
424.599	28.5373
427.492	10.4974
430.384	19.0951
433.277	44.5142
436.17	40.0463
439.062	3.57904
441.955	6.09726
444.848	5.69004
447.741	3.0649
450.633	0.009483
453.526	6.15192
456.419	21.8203
459.311	41.5479
462.204	30.4838
465.097	17.1239
467.99	17.6081
470.882	19.9895
473.775	20.3068
476.668	20.8913
479.56	20.8489
482.453	19.3439
485.346	15.3595
488.238	13.2401
491.131	11.7481
494.024	11.1506
496.916	9.35817
499.809	6.38645
502.702	5.14895
505.595	5.84365
508.487	7.63048
511.38	10.7678
514.273	18.0883
517.165	29.6368
520.058	44.8274
522.951	60.1114
525.844	56.7027
528.736	40.1
531.629	27.3912
534.522	18.7856
537.414	11.3693
540.307	8.98775
543.2	9.13767
546.092	7.83382
548.985	9.5882
551.878	12.3493
554.771	6.79252
557.663	1.4991
560.556	0.915543
563.449	0.715675
566.341	1.33514
569.234	0.988964
572.127	4.96964
575.019	11.889
577.912	21.4151
580.805	32.1279
583.697	34.9037
586.59	31.5959
589.483	29.9792
592.376	36.0279
595.268	45.4169
598.161	49.2133
601.054	41.1534
603.946	27.5978
606.839	17.5207
609.732	11.38
612.625	7.72538
615.517	7.51947
618.41	6.63868
621.303	5.939
624.195	5.3929
627.088	4.06161
629.981	2.93217
632.873	2.6866
635.766	3.08767
638.659	2.97547
641.552	3.31191
644.444	3.09081
647.337	2.23286
650.23	1.54713
653.122	1.16269
656.015	1.05167
658.908	1.60093
661.8	1.43488
664.693	0.228424
667.586	0.070938
670.479	0.263393
673.371	0.320793
676.264	0.980286
679.157	1.42127
682.049	1.71466
684.942	1.99063
687.835	2.15306
690.727	2.18879
693.62	1.9073
696.513	0.118504
699.405	1.51754
702.298	4.40752
705.191	6.96501
708.084	12.5495
710.976	20.4412
713.869	29.7657
716.762	40.7284
719.654	54.6406
722.547	76.0406
725.44	112.568
728.332	167.505
731.225	247.981
734.118	354.785
737.011	474.345
739.903	560.869
742.796	553.052
745.689	469.608
748.581	380.589
751.474	298.071
754.367	223.45
757.26	160.118
760.152	115.259
763.045	89.9011
765.938	76.9097
768.83	74.6559
771.723	80.8751
774.616	90.8302
777.508	110.703
780.401	132.72
783.294	162.983
786.187	198.8
789.079	220.471
791.972	206.463
794.865	163.867
797.757	123.407
800.65	93.4585
803.543	72.7133
806.435	57.6448
809.328	46.4066
812.221	44.2995
815.114	55.5106
818.006	81.3841
820.899	119.925
823.792	140.023
826.684	106.122
829.577	57.0625
832.47	24.6636
835.362	7.29349
838.255	0.86837
841.148	5.71805
844.04	7.18679
846.933	6.11245
849.826	3.0013
852.719	5.09911
855.611	16.8464
858.504	31.5557
861.397	41.0107
864.289	40.4589
867.182	33.1073
870.075	27.617
872.967	27.2395
875.86	31.0418
878.753	38.6687
881.646	52.1228
884.538	75.9053
887.431	109.855
890.324	165.973
893.216	246.349
896.109	345.294
899.002	424.188
901.894	400.19
904.787	283.083
907.68	169.586
910.573	102.249
913.465	61.5658
916.358	39.9655
919.251	27.5039
922.143	20.9468
925.036	20.1361
927.929	16.6345
930.822	10.3186
933.714	3.64325
936.607	0.654835
939.5	0.11129
942.392	2.10833
945.285	5.21761
948.178	8.50187
951.07	11.4017
953.963	13.5696
956.856	15.2627
959.749	13.8819
962.641	11.2641
965.534	7.61728
968.427	4.56808
971.319	1.91355
974.212	1.14447
977.105	0.706268
979.997	0.360706
982.89	0.649826
985.783	0.273819
988.676	0.323566
991.568	0.953791
994.461	0.782492
997.354	0.762184
1000.25	0.426609
1003.14	0.55924
1006.03	0.350748
1008.92	0.32683
1011.82	0.267275
1014.71	0.604713
1017.6	0.657145
1020.5	0.669979
1023.39	1.04544
1026.28	0.794788
1029.17	1.75986
1032.07	1.97715
1034.96	2.16198
1037.85	2.19301
1040.74	2.94486
1043.64	2.52362
1046.53	3.15888
1049.42	2.73014
1052.32	2.66009
1055.21	2.90236
1058.1	2.77959
1060.99	2.45171
1063.89	2.85904
1066.78	2.51743
1069.67	2.84219
1072.56	2.67694
1075.46	3.33377
1078.35	3.15649
1081.24	3.69359
1084.13	3.56197
1087.03	3.86905
1089.92	3.63615
1092.81	3.50675
1095.7	3.43881
1098.6	3.79605
1101.49	2.97495
1104.38	2.89583
1107.28	3.2115
1110.17	2.79459
1113.06	2.65175
1115.95	2.1543
1118.85	1.89774
1121.74	1.69432
1124.63	1.5521
1127.53	1.49477
1130.42	0.789461
1133.31	0.754636
1136.2	0.615797
1139.1	0.223157
1141.99	0.24004
1144.88	0.126789
1147.77	0.025977
1150.67	0.102796
1153.56	0.212308
1156.45	0.025304
1159.35	0.087116
1162.24	0.564961
1165.13	0.499026
1168.02	0.535564
1170.92	1.14104
1173.81	2.10076
1176.7	1.3229
1179.59	2.05943
1182.49	2.00743
1185.38	3.08474
1188.27	3.33859
1191.16	4.60497
1194.06	4.55016
1196.95	5.55602
1199.84	5.13921
1202.73	4.98114
1205.63	4.44401
1208.52	3.82201
1211.41	2.88702
1214.31	2.20339
1217.2	1.74152
1220.09	1.28614
1222.98	0.782569
1225.88	0.902255
1228.77	0.668339
1231.66	0.472518
1234.56	0.23921
1237.45	0.466755
1240.34	0.17863
1243.23	0.055096
1246.13	0.429009
1249.02	0.110266
1251.91	0.200979
1254.8	0.809353
1257.7	0.771061
1260.59	1.41101
1263.48	2.10194
1266.38	2.12956
1269.27	2.69573
1272.16	2.94279
1275.05	3.07296
1277.95	2.68991
1280.84	2.46578
1283.73	1.79139
1286.62	1.28927
1289.52	1.35007
1292.41	0.668531
1295.3	0.075453
1298.19	0.088104
1301.09	0.042111
