Measurement: Raman, 780 nm, unoriented, Raman Data Processed
Mineral: Gadolinium gallium garnet
Rruff sample: R110102
Ideal chemistry: Gd_3_Ga_2_(GaO_4_)_3_
Locality: Synthetic
Source: Gemological Institute of America
Description: A cut, colorless (2.33ct) gemstone, grown by crystal pulling.
Raman shift (cm-1)	intensity
92.5678	0
95.9426	21.3106
99.3174	39.9709
102.692	65.5144
106.067	113.271
109.442	235.46
112.817	301.193
116.192	53.5817
119.566	15.3239
122.941	5.30585
126.316	11.2567
129.691	28.7552
133.066	55.6897
136.44	89.9769
139.815	121.764
143.19	140.423
146.565	134.32
149.94	109.948
153.315	81.0738
156.689	64.2543
160.064	34.014
163.439	25.4134
166.814	48.2576
170.189	85.9613
173.563	36.5223
176.938	65.5793
180.313	117.387
183.688	24.4538
187.063	2.2372
190.437	6.31178
193.812	4.58179
197.187	3.03519
200.562	1.84164
203.937	0.197739
207.311	2.67792
210.686	5.79073
214.061	12.8367
217.436	21.3789
220.811	27.5402
224.186	38.6714
227.56	51.788
230.935	72.7432
234.31	112.822
237.685	200.606
241.06	209.793
244.435	135.565
247.809	135.447
251.184	152.946
254.559	189.607
257.934	284.374
261.309	347.498
264.683	190.623
268.058	159.699
271.433	175.21
274.808	166.64
278.183	113.649
281.558	74.2037
284.932	49.3779
288.307	40.9675
291.682	39.247
295.057	42.0963
298.432	32.2192
301.806	8.82852
305.181	0.647736
308.556	2.92587
311.931	6.87299
315.306	1.55478
318.68	5.39496
322.055	21.6571
325.43	41.8321
328.805	72.1399
332.18	117.35
335.555	190.7
338.929	308.026
342.304	475.801
345.679	782.167
349.054	1344.16
352.429	1984.92
355.803	1911.09
359.178	1163.85
362.553	623.849
365.928	359.931
369.303	221.467
372.678	145.285
376.052	105.848
379.427	88.57
382.802	67.6859
386.177	45.1431
389.552	39.1528
392.926	40.6402
396.301	38.9453
399.676	40.4032
403.051	39.3348
406.426	39.5605
409.8	40.2589
413.175	35.8028
416.55	42.4695
419.925	45.9499
423.3	19.9683
426.675	16.1587
430.049	26.3058
433.424	40.4216
436.799	26.6568
440.174	11.9203
443.549	1.70416
446.923	2.88521
450.298	5.31311
453.673	5.37433
457.048	2.10207
460.423	0.820038
463.798	5.0302
467.172	9.29454
470.547	12.707
473.922	16.8493
477.297	20.5912
480.672	24.1157
484.046	28.0935
487.421	27.4131
490.796	26.3533
494.171	26.1478
497.546	31.878
500.921	26.5486
504.295	29.6606
507.67	32.1771
511.045	35.9187
514.42	49.7336
517.795	77.5253
521.169	128.987
524.544	163.756
527.919	118.558
531.294	60.1284
534.669	26.3121
538.044	12.1065
541.418	3.21547
544.793	2.25894
548.168	4.39886
551.543	3.22182
554.918	0.132965
558.293	2.25461
561.667	5.7489
565.042	8.7906
568.417	15.6106
571.792	22.4551
575.167	29.3405
578.541	42.2297
581.916	57.1718
585.291	62.5828
588.666	63.7097
592.041	74.992
595.415	98.4723
598.79	113.973
602.165	117.166
605.54	114.812
608.915	115.194
612.29	114.371
615.664	110.79
619.039	105.776
622.414	99.6482
625.789	93.0897
629.164	87.0236
632.538	85.4518
635.913	84.1395
639.288	84.2314
642.663	79.3111
646.038	77.0393
649.413	71.4981
652.787	61.6407
656.162	52.2617
659.537	46.3483
662.912	40.0225
666.287	36.4312
669.661	31.9922
673.036	28.5859
676.411	24.446
679.786	23.6468
683.161	19.6415
686.535	14.8032
689.91	8.66302
693.285	4.31311
696.66	0.6763
700.035	1.82701
703.41	4.55077
706.784	1.69885
710.159	0.397995
713.534	5.96753
716.909	14.3356
720.284	31.0139
723.659	54.3294
727.033	90.5835
730.408	144.582
733.783	221.017
737.158	306.175
740.533	370.711
743.907	359.495
747.282	263.489
750.657	156.77
754.032	85.4298
757.407	44.7689
760.782	20.9302
764.156	9.63686
767.531	4.85735
770.906	1.04726
774.281	1.10527
777.656	0.445381
781.03	1.59979
784.405	3.75629
787.78	5.44339
791.155	10.6028
794.53	10.4584
797.904	12.7238
801.279	15.0313
804.654	14.1758
808.029	14.8538
811.404	12.7574
814.779	11.8274
818.153	10.5947
821.528	8.89972
824.903	7.38202
828.278	10.8063
831.653	4.64624
835.028	2.26205
838.402	1.38716
841.777	0.718719
845.152	0.755463
848.527	0.286911
851.902	0.339035
855.276	0.642151
858.651	0.234253
862.026	0.94117
865.401	0.035507
868.776	0.571075
872.15	1.55766
875.525	0.392807
878.9	0.85799
882.275	0.322723
885.65	1.01246
889.024	0.776417
892.399	0.573837
895.774	0.700649
899.149	0.753494
902.524	0.222706
905.899	0.23447
909.273	0.161995
912.648	1.58459
916.023	4.16143
919.398	16.1225
922.773	32.2302
926.148	70.046
929.522	43.9069
932.897	8.98254
936.272	1.03916
939.647	0.39489
943.022	0.4179
946.396	2.07104
949.771	11.6234
953.146	25.2581
956.521	13.5005
959.896	45.092
963.27	108.174
966.645	52.9057
970.02	13.5935
973.395	6.04002
976.77	3.05651
980.145	3.18124
983.519	6.7221
986.894	11.0756
990.269	29.4222
993.644	33.4228
997.019	56.6959
1000.39	159.608
1003.77	102.851
1007.14	22.1446
1010.52	9.90027
1013.89	8.9797
1017.27	7.12322
1020.64	6.30269
1024.02	6.79073
1027.39	2.78577
1030.77	0.956593
1034.14	0.636044
1037.52	2.76381
1040.89	0.169167
1044.27	0.981815
1047.64	0.293541
1051.02	1.42999
1054.39	2.16512
1057.77	3.32853
1061.14	2.87867
1064.52	1.78369
1067.89	0.61285
1071.27	1.09435
1074.64	0.667339
1078.01	1.00106
1081.39	0.140186
1084.76	0.495415
1088.14	0.415745
1091.51	0.799507
1094.89	1.62788
1098.26	0.380787
1101.64	0.352089
1105.01	1.54783
1108.39	3.44751
1111.76	1.07257
1115.14	0.984703
1118.51	2.97171
1121.89	3.54879
1125.26	6.32529
1128.64	22.3666
1132.01	70.0841
1135.39	88.3385
1138.76	29.6976
1142.14	9.87855
1145.51	10.4504
1148.88	23.5017
1152.26	38.8292
1155.63	18.1004
1159.01	11.0868
1162.38	9.96104
1165.76	13.0693
1169.13	40.7457
1172.51	97.058
1175.88	49.7249
1179.26	18.6369
1182.63	28.7052
1186.01	92.8072
1189.38	300.296
1192.76	229.915
1196.13	82.8038
1199.51	42.1653
1202.88	30.3191
1206.26	36.9779
1209.63	65.8521
1213.01	102.197
1216.38	65.9079
1219.76	19.8704
1223.13	8.30721
1226.51	0.845875
1229.88	2.17047
1233.26	1.52139
1236.63	10.2246
1240.01	28.091
1243.38	66.1988
1246.76	140.493
1250.13	200.056
1253.51	146.507
1256.88	60.7254
1260.25	22.1723
1263.63	10.5766
1267	5.18288
1270.38	0.968266
1273.75	0.039013
1277.13	0.381271
1280.5	3.22371
1283.88	2.84098
