Measurement: Raman, 532 nm, unoriented, Raman Data Processed
Mineral: Gadolinium gallium garnet
Rruff sample: X090005
Ideal chemistry: Gd_3_Ga_2_(GaO_4_)_3_
Locality: Synthetic
Source: Gemological Institute of America
Description: Faceted colorless gemstone, 4.95 ct
Raman shift (cm-1)	intensity
119.371	0
122.746	1.92856
126.121	91.3801
129.495	223.327
132.87	256.71
136.245	174.956
139.62	156.92
142.995	229.705
146.369	191.781
149.744	111.969
153.119	99.0589
156.494	160.959
159.869	114.543
163.244	94.4814
166.618	169.97
169.993	391.396
173.368	152.424
176.743	289.499
180.118	636.128
183.493	288.296
186.867	420.426
190.242	681.474
193.617	456.865
196.992	190.067
200.367	134.281
203.741	209.036
207.116	444.068
210.491	837.083
213.866	1163.17
217.241	1105.74
220.615	956.413
223.99	1092.59
227.365	1152.94
230.74	781.885
234.115	556.119
237.489	767.708
240.864	647.949
244.239	100.372
247.614	24.5491
250.989	56.3793
254.364	26.5972
257.738	96.6185
261.113	89.5806
264.488	110.316
267.863	27.3596
271.238	239.819
274.613	282.475
277.987	32.8866
281.362	4.24976
284.737	53.7715
288.112	38.4362
291.487	25.8055
294.861	85.8287
298.236	115.158
301.611	174.943
304.986	349.735
308.361	620.112
311.736	704.806
315.11	406.723
318.485	198.785
321.86	252.28
325.235	441.981
328.61	599.247
331.984	895.092
335.359	1335.63
338.734	1979.52
342.109	2673.19
345.484	3686.89
348.858	5453.82
352.233	7891.56
355.608	8300.86
358.983	4594.09
362.358	1827.59
365.733	793.254
369.107	423.137
372.482	394.187
375.857	675.029
379.232	1290.96
382.607	1595.22
385.981	1730.44
389.356	2468.91
392.731	3734.38
396.106	3767.16
399.481	1782.52
402.856	799.561
406.23	465.317
409.605	172.069
412.98	54.8814
416.355	197.754
419.73	653.427
423.104	597.436
426.479	111.972
429.854	134.4
433.229	405.289
436.604	354.449
439.978	68.9912
443.353	127.244
446.728	69.3574
450.103	16.5729
453.478	135.389
456.853	375.494
460.227	614.209
463.602	463.501
466.977	482.317
470.352	629.909
473.727	636.17
477.101	537.611
480.476	444.745
483.851	360.363
487.226	302.601
490.601	281.746
493.976	264.19
497.35	239.081
500.725	177.717
504.1	161.328
507.475	217.144
510.85	307.161
514.224	412.221
517.599	593.223
520.974	808.798
524.349	938.263
527.724	853.373
531.098	797.2
534.473	771.341
537.848	631.813
541.223	610.719
544.598	564.268
547.973	487.982
551.347	535.012
554.722	344.138
558.097	102.429
561.472	13.6214
564.847	14.8798
568.221	24.3096
571.596	4.04157
574.971	36.8162
578.346	92.0101
581.721	151.397
585.096	171.476
588.47	188.158
591.845	211.206
595.22	264.724
598.595	290.159
601.97	221.855
605.344	156.711
608.719	110.722
612.094	104.619
615.469	137.78
618.844	181.257
622.218	188.264
625.593	149.336
628.968	109.356
632.343	97.3613
635.718	92.9791
639.093	107.795
642.467	115.828
645.842	95.7301
649.217	52.9148
652.592	31.6843
655.967	26.7203
659.341	23.8888
662.716	15.0739
666.091	3.12714
669.466	0.577393
672.841	8.65362
676.216	19.4838
679.59	28.5386
682.965	37.8471
686.34	41.3088
689.715	33.7378
693.09	20.113
696.465	18.3899
699.839	67.311
703.214	110.379
706.589	173.157
709.964	280.753
713.339	435.072
716.713	617.001
720.088	889.86
723.463	1339.25
726.838	2101.26
730.213	3195.23
733.587	4644.04
736.962	6178.58
740.337	7091.81
743.712	6572.94
747.087	5297.3
750.462	4135.94
753.836	3076.11
757.211	2147.71
760.586	1517.73
763.961	1198.38
767.336	1111.85
770.71	1199.35
774.085	1423.82
777.46	1725.78
780.835	2046.39
784.21	2459.21
787.585	2880.88
790.959	2864.61
794.334	2338.84
797.709	1759.65
801.084	1371.63
804.459	1133.76
807.833	986.977
811.208	979.187
814.583	1154.18
817.958	1468.74
821.333	1841.18
824.707	1784.87
828.082	1078.06
831.457	452.544
834.832	128.425
838.207	22.0764
841.582	91.8845
844.956	109.897
848.331	69.3533
851.706	30.9966
855.081	196.918
858.456	384.651
861.83	509.01
865.205	471.006
868.58	371.293
871.955	349.81
875.33	413.992
878.705	576.897
882.079	881.101
885.454	1379.66
888.829	2163.75
892.204	3270.53
895.579	4618.46
898.953	5584.1
902.328	4943.04
905.703	3088.11
909.078	1661.02
912.453	918.534
915.827	545.758
919.202	368.024
922.577	310.097
925.952	289.071
929.327	213.42
932.702	87.4639
936.076	14.9281
939.451	11.3673
942.826	41.6867
946.201	92.9559
949.576	137.39
952.951	171.831
956.325	182.871
959.7	171.073
963.075	128.385
966.45	73.2854
969.825	35.0554
973.199	12.6495
976.574	3.43353
979.949	2.85251
983.324	3.37543
986.699	7.92798
990.073	9.50031
993.448	13.5935
996.823	9.34347
1000.2	5.3067
1003.57	1.03053
1006.95	4.55133
1010.32	7.12752
1013.7	10.0592
1017.07	13.6126
1020.45	15.9046
1023.82	22.5659
1027.2	26.3337
1030.57	32.219
1033.95	37.3796
1037.32	46.4048
1040.7	46.7113
1044.07	48.0364
1047.44	46.0143
1050.82	42.026
1054.19	37.6571
1057.57	33.7545
1060.94	31.3338
1064.32	32.6041
1067.69	34.2805
1071.07	35.3077
1074.44	36.4075
1077.82	37.21
1081.19	39.4552
1084.57	41.6189
1087.94	39.5496
1091.32	40.0522
1094.69	37.4997
1098.07	35.8906
1101.44	31.9613
1104.82	29.0297
1108.19	26.2991
1111.57	23.3319
1114.94	18.8053
1118.32	16.1239
1121.69	13.5598
1125.07	11.0236
1128.44	7.56754
1131.82	5.91396
1135.19	4.53752
1138.57	3.41097
1141.94	1.94193
1145.32	1.70579
1148.69	0.045479
1152.07	1.92825
1155.44	2.3803
1158.81	0.782188
1162.19	1.96732
1165.56	2.88248
1168.94	3.26589
1172.31	4.696
1175.69	6.51841
1179.06	9.55881
1182.44	10.6242
1185.81	13.2426
1189.19	16.4488
1192.56	19.7435
1195.94	20.1601
1199.31	20.9481
1202.69	18.2786
1206.06	15.711
1209.44	12.2482
1212.81	9.57064
1216.19	7.34934
1219.56	4.88702
1222.94	4.87346
1226.31	4.73657
1229.68	4.51414
1233.06	3.94338
1236.43	3.50242
1239.81	4.70189
1243.18	3.61032
1246.56	3.61166
1249.93	0.859215
1253.31	0.855988
1256.68	1.33126
1260.06	1.65743
1263.43	2.42456
1266.81	3.56211
1270.18	4.36022
1273.56	3.26459
1276.93	3.32157
1280.31	1.50268
1283.68	1.0553
1287.06	0.19796
1290.43	0.009605
1293.81	1.1218
1297.18	0.612099
1300.56	0.966084
