Measurement: Raman, 780 nm, unoriented, Raman Data Processed
Mineral: Gadolinium gallium garnet
Rruff sample: X090007
Ideal chemistry: Gd_3_Ga_2_(GaO_4_)_3_
Locality: Synthetic
Source: Gemological Institute of America
Description: Faceted colorless gemstone, 1.70 ct
Raman shift (cm-1)	intensity
122.75	0
126.125	0.661194
129.5	7.53461
132.875	23.8093
136.25	50.9838
139.624	71.5729
142.999	82.5821
146.374	84.3058
149.749	72.3576
153.124	57.6356
156.499	83.1796
159.873	71.679
163.248	81.4855
166.623	154.361
169.998	266.033
173.373	117.987
176.747	197.812
180.122	326.8
183.497	57.7976
186.872	3.82098
190.247	4.03284
193.621	4.10132
196.996	3.32257
200.371	0.643188
203.746	11.3495
207.121	19.1056
210.495	30.8331
213.87	49.3858
217.245	80.606
220.62	95.2502
223.995	107.256
227.37	114.64
230.744	133.794
234.119	194.407
237.494	405.998
240.869	352.044
244.244	173.524
247.619	177.247
250.993	199.164
254.368	208.313
257.743	245.99
261.118	261.187
264.493	157.342
267.867	161.964
271.242	242.123
274.617	223.065
277.992	112.427
281.367	56.3137
284.741	36.63
288.116	23.5367
291.491	27.3572
294.866	40.7453
298.241	29.936
301.616	11.5474
304.99	2.82556
308.365	9.73029
311.74	8.85773
315.115	8.34833
318.49	3.52765
321.865	12.3084
325.239	33.222
328.614	69.3914
331.989	137.625
335.364	238.631
338.739	359.331
342.113	519.392
345.488	778.088
348.863	1225.72
352.238	1752.61
355.613	1669.87
358.987	1015.06
362.362	539.654
365.737	309.323
369.112	197.385
372.487	145.894
375.861	143.771
379.236	173.174
382.611	182.928
385.986	188.553
389.361	219.434
392.736	248.786
396.11	221.234
399.485	169.501
402.86	128.067
406.235	101.88
409.61	87.7024
412.985	69.3401
416.359	61.0823
419.734	74.4999
423.109	84.4238
426.484	145.371
429.859	244.312
433.233	330.705
436.608	280.813
439.983	148.391
443.358	61.5218
446.733	10.5619
450.108	10.264
453.482	15.4574
456.857	8.65405
460.232	8.22681
463.607	36.5316
466.982	67.3979
470.356	98.1421
473.731	115.218
477.106	135.691
480.481	162.131
483.856	182.562
487.231	175.698
490.605	133.116
493.98	94.4293
497.355	66.019
500.73	51.471
504.104	48.1303
507.479	44.044
510.854	44.7109
514.229	60.2504
517.604	99.746
520.979	161.657
524.354	204.827
527.728	150.089
531.103	75.3576
534.478	29.4841
537.853	1.04333
541.227	8.81827
544.602	9.99066
547.977	5.10623
551.352	7.50046
554.727	22.036
558.102	42.361
561.476	67.4582
564.851	89.1878
568.226	103.467
571.601	101.249
574.976	102.91
578.351	111.569
581.725	122.739
585.1	116.014
588.475	106.932
591.85	125.831
595.225	161.034
598.599	177.595
601.974	168.638
605.349	167.982
608.724	175.235
612.099	171.634
615.473	146.452
618.848	122.398
622.223	100.741
625.598	79.4804
628.973	69.3574
632.347	65.5132
635.722	62.8003
639.097	66.5841
642.472	63.2207
645.847	57.1746
649.222	47.1951
652.596	33.4107
655.971	23.1586
659.346	14.8402
662.721	10.9192
666.096	5.09317
669.471	7.22916
672.845	7.89935
676.22	12.1368
679.595	14.9797
682.97	21.2779
686.345	20.0317
689.719	15.2469
693.094	4.89294
696.469	4.06781
699.844	6.43896
703.219	6.11707
706.593	0.222534
709.968	6.35901
713.343	16.8973
716.718	35.5645
720.093	62.1332
723.468	100.591
726.842	155.393
730.217	235.072
733.592	332.757
736.967	434.579
740.342	490.482
743.716	449.688
747.091	321.695
750.466	196.06
753.841	112.792
757.216	63.8252
760.591	36.422
763.965	21.8367
767.34	10.1212
770.715	5.07355
774.09	1.28812
777.465	0.550751
780.84	0.608582
784.214	0.02887
787.589	1.17416
790.964	0.824921
794.339	4.79367
797.714	6.53271
801.088	7.08029
804.463	8.09125
807.838	8.91437
811.213	9.0513
814.588	5.92645
817.962	6.21704
821.337	6.25101
824.712	4.36935
828.087	2.07138
831.462	2.78894
834.837	5.4758
838.211	2.40405
841.586	1.14207
844.961	0.239655
848.336	0.763184
851.711	0.026459
855.085	0.333008
858.46	0.162354
861.835	0.998642
865.21	2.06041
868.585	2.83765
871.96	3.15355
875.334	2.36517
878.709	2.71059
882.084	3.89745
885.459	5.03629
888.834	4.21921
892.208	4.9077
895.583	3.32097
898.958	3.82619
902.333	2.03297
905.708	1.12891
909.082	2.51027
912.457	2.11258
915.832	2.79794
919.207	2.56004
922.582	2.50307
925.957	1.43552
929.331	1.55478
932.706	1.33987
936.081	1.22108
939.456	0.984497
942.831	1.8382
946.205	1.03799
949.58	0.845612
952.955	0.489929
956.33	0.771957
959.705	1.02651
963.08	2.37022
966.454	4.24469
969.829	4.24219
973.204	8.1707
976.579	10.7637
979.954	15.6257
983.328	15.2194
986.703	14.4066
990.078	11.5673
993.453	12.3401
996.828	14.4681
1000.2	15.5043
1003.58	21.6869
1006.95	30.5485
1010.33	42.8762
1013.7	51.5034
1017.08	48.147
1020.45	35.0924
1023.83	25.0345
1027.2	18.8769
1030.58	12.2071
1033.95	10.359
1037.33	7.64442
1040.7	8.48441
1044.08	6.54759
1047.45	6.48892
1050.83	8.30194
1054.2	7.70534
1057.57	9.55426
1060.95	8.64026
1064.32	7.88983
1067.7	4.25842
1071.07	3.15871
1074.45	0.061661
1077.82	0.606384
1081.2	0.975098
1084.57	1.3792
1087.95	1.34428
1091.32	1.70744
1094.7	2.32256
1098.07	1.14079
1101.45	0.842743
1104.82	0.001923
1108.2	1.18321
1111.57	0.453613
1114.95	1.00726
1118.32	0.106934
1121.7	0.261032
1125.07	3.08447
1128.45	5.03542
1131.82	7.3437
1135.19	12.5984
1138.57	19.2941
1141.94	28.2498
1145.32	44.2306
1148.69	63.6445
1152.07	80.6458
1155.44	85.5686
1158.82	71.5735
1162.19	49.8025
1165.57	33.635
1168.94	23.0178
1172.32	17.8444
1175.69	17.5215
1179.07	19.02
1182.44	25.4018
1185.82	36.5668
1189.19	60.8956
1192.57	87.9031
1195.94	111.914
1199.32	111.801
1202.69	82.2923
1206.07	53.5131
1209.44	35.0199
1212.82	24.5916
1216.19	15.8868
1219.57	9.71803
1222.94	3.12001
1226.32	0.137283
1229.69	1.42735
1233.07	0.300186
1236.44	1.60646
1239.81	2.53687
1243.19	4.63408
1246.56	8.36867
1249.94	8.12617
1253.31	8.31731
1256.69	8.74663
1260.06	4.03686
1263.44	2.90878
1266.81	3.10895
1270.19	4.78564
1273.56	2.9429
1276.94	7.04877
1280.31	4.11523
1283.69	0.131195
