Measurement: Raman, 532 nm, unoriented, Raman Data Processed
Mineral: Gadolinite-(Ce)
Rruff sample: R120171
Ideal chemistry: Ce_2_Fe^2+^Be_2_Si_2_O_10_
Locality: Zagi Mountain, Hameed Abad Kafoor Dheri, Peshawar, Khyber Pakhtunkhwa, Pakistan
Source: Ikram Mineralogy
Description: Dark green to brown, dependent on light source, prismatic single crystal
Raman shift (cm-1)	intensity
236.407	0
239.3	0.502136
242.193	2.72662
245.085	4.75665
247.978	7.45276
250.871	15.6602
253.763	22.852
256.656	30.2982
259.549	27.4712
262.442	32.8371
265.334	32.2469
268.227	27.1598
271.12	20.5705
274.012	15.9067
276.905	10.175
279.798	4.0986
282.69	1.89911
285.583	3.33054
288.476	3.1102
291.368	2.57507
294.261	0.658661
297.154	5.78394
300.047	13.7624
302.939	29.8946
305.832	50.3046
308.725	78.1946
311.617	113.941
314.51	153.095
317.403	194.843
320.296	229.012
323.188	259.124
326.081	270.593
328.974	266.927
331.866	253.822
334.759	235.191
337.652	214.053
340.544	189.068
343.437	169.138
346.33	148.78
349.223	132.807
352.115	124.493
355.008	116.693
357.901	115.356
360.793	117.126
363.686	117.41
366.579	114.586
369.471	96.3819
372.364	76.2827
375.257	53.6286
378.149	36.5876
381.042	25.0537
383.935	27.273
386.828	32.4311
389.72	46.2502
392.613	56.9946
395.506	64.961
398.398	60.8324
401.291	47.7377
404.184	31.2549
407.077	17.1829
409.969	14.8258
412.862	16.4813
415.755	17.3533
418.647	14.4186
421.54	11.4306
424.433	12.127
427.325	13.058
430.218	15.6133
433.111	10.6162
436.003	6.22922
438.896	1.82477
441.789	2.95245
444.682	4.8345
447.574	2.19482
450.467	4.67313
453.36	17.3992
456.252	32.9403
459.145	48.6203
462.038	60.9443
464.93	59.4011
467.823	49.4695
470.716	41.454
473.609	38.7136
476.501	39.5881
479.394	49.8027
482.287	57.5239
485.179	57.1017
488.072	48.7013
490.965	36.7148
493.858	25.0059
496.75	16.7211
499.643	11.0496
502.536	7.44991
505.428	3.14037
508.321	0.874313
511.214	0.331467
514.106	0.527695
516.999	2.22287
519.892	0.589966
522.784	2.44194
525.677	9.38411
528.57	13.4434
531.463	18.9305
534.355	27.9043
537.248	35.9275
540.141	46.6694
543.033	54.7715
545.926	55.9542
548.819	52.2892
551.712	42.7726
554.604	35.5912
557.497	25.4492
560.39	17.4396
563.282	9.27489
566.175	5.00696
569.068	0.116928
571.96	0.502808
574.853	0.810562
577.746	2.73514
580.639	9.22189
583.531	15.3917
586.424	19.5447
589.317	19.3772
592.209	21.9734
595.102	27.974
597.995	34.1799
600.888	43.5084
603.78	52.2659
606.673	58.6354
609.566	64.6027
612.458	66.1552
615.351	62.7251
618.244	56.9659
621.136	47.7175
624.029	36.7631
626.922	26.5193
629.814	16.0566
632.707	7.5708
635.6	2.61975
638.493	2.60609
641.385	3.3302
644.278	1.15483
647.171	4.01178
650.063	12.7882
652.956	24.9897
655.849	37.0039
658.741	51.1767
661.634	63.1324
664.527	73.92
667.42	83.3671
670.312	89.0338
673.205	91.9342
676.098	90.2853
678.99	89.0619
681.883	84.6229
684.776	77.4739
687.668	70.1501
690.561	64.0004
693.454	58.0234
696.347	54.8391
699.239	51.8701
702.132	56.4152
705.025	61.8468
707.917	71.2302
710.81	79.6872
713.703	88.8721
716.596	97.6441
719.488	103.302
722.381	100.893
725.274	95.4841
728.166	83.3721
731.059	72.6163
733.952	59.7043
736.844	46.2302
739.737	34.4662
742.63	23.9325
745.523	16.0825
748.415	8.35669
751.308	3.73445
754.201	0.037155
757.093	0.971741
759.986	1.4476
762.879	2.0071
765.771	0.375122
768.664	1.04424
771.557	2.83841
774.449	6.07622
777.342	6.19589
780.235	9.06992
783.128	11.4174
786.02	13.002
788.913	15.9587
791.806	15.768
794.698	17.3729
797.591	15.8526
800.484	14.6085
803.376	13.8983
806.269	13.2139
809.162	11.1773
812.055	10.0122
814.947	8.16238
817.84	5.69045
820.733	4.08829
823.625	2.74619
826.518	2.50192
829.411	1.07361
832.303	0.374352
835.196	0.389999
838.089	0.682808
840.982	2.07407
843.874	1.66954
846.767	1.11742
849.66	0.342354
852.552	0.610435
855.445	1.65017
858.338	2.24702
861.231	3.88016
864.123	6.0429
867.016	6.41717
869.909	8.02959
872.801	9.65069
875.694	9.21109
878.587	8.93824
881.479	9.62904
884.372	9.75311
887.265	13.8023
890.158	18.6139
893.05	27.8485
895.943	38.304
898.836	50.2044
901.728	58.014
904.621	57.7229
907.514	55.7357
910.406	51.6825
913.299	49.6856
916.192	50.2077
919.085	52.4584
921.977	58.6441
924.87	62.8573
927.763	65.8467
930.655	63.5815
933.548	54.2553
936.441	40.0969
939.333	27.1837
942.226	16.1869
945.119	10.9963
948.011	8.9464
950.904	8.91734
953.797	14.0633
956.69	18.2579
959.582	24.1972
962.475	31.4409
965.368	36.8549
968.26	38.0008
971.153	36.9958
974.046	34.1808
976.938	29.7344
979.831	26.1799
982.724	23.771
985.617	22.079
988.509	20.9251
991.402	20.6085
994.295	20.1049
997.187	19.7189
1000.08	16.668
1002.97	13.7627
1005.87	9.8919
1008.76	7.27087
1011.65	4.95493
1014.54	3.59312
1017.44	1.79864
1020.33	1.15659
1023.22	0.388062
1026.11	0.693413
1029.01	1.57775
1031.9	1.16397
1034.79	0.328896
1037.68	0.659111
1040.58	0.009247
1043.47	0.406609
1046.36	0.139248
1049.26	0.156784
1052.15	0.504951
1055.04	0.151299
1057.93	0.861473
1060.83	0.4203
1063.72	0.546879
1066.61	0.722767
1069.51	0.582912
1072.4	1.18045
1075.29	0.834633
1078.18	1.4401
1081.08	1.85936
1083.97	2.05302
1086.86	1.5321
1089.75	1.47838
1092.65	1.73931
1095.54	1.98247
1098.43	1.42051
1101.33	2.19331
1104.22	2.16222
1107.11	1.82302
1110	1.53127
1112.89	1.24487
1115.79	1.63184
1118.68	1.83543
1121.57	2.90296
1124.47	1.70224
1127.36	3.33805
1130.25	2.36986
1133.14	3.46774
1136.04	4.18967
1138.93	3.4139
1141.82	5.25282
1144.71	6.35833
1147.61	6.89462
1150.5	7.48837
1153.39	7.56681
1156.29	9.21204
1159.18	9.32265
1162.07	9.47113
1164.96	10.6435
1167.86	10.8098
1170.75	11.7858
1173.64	12.4209
1176.54	12.2626
1179.43	11.9976
1182.32	12.216
1185.21	12.6531
1188.11	12.6184
1191	11.0062
1193.89	11.2142
1196.78	10.0627
1199.68	9.5778
1202.57	8.91009
1205.46	8.10566
1208.35	7.30149
1211.25	6.21231
1214.14	5.24078
1217.03	3.89895
1219.92	2.51677
1222.82	2.87159
1225.71	3.79702
1228.6	1.8089
1231.5	0.630119
1234.39	0.463924
1237.28	0.827175
1240.17	0.39489
1243.07	0.574947
1245.96	0.085075
1248.85	0.167931
1251.74	0.247585
1254.64	0.824718
1257.53	1.72996
1260.42	2.26321
1263.32	2.26327
1266.21	1.83115
1269.1	3.392
1271.99	3.49745
1274.89	2.80582
1277.78	1.95045
1280.67	1.49629
1283.57	0.747108
1286.46	0.127953
1289.35	0.03363
1292.24	0.153778
1295.13	0.593063
1298.03	1.29407
1300.92	0.005661
