Measurement: Raman, 780 nm, unoriented, Raman Data Processed
Mineral: Gadolinium gallium garnet
Rruff sample: X090006
Ideal chemistry: Gd_3_Ga_2_(GaO_4_)_3_
Locality: Synthetic
Source: Gemological Institute of America
Description: Faceted colorless gemstone, 1.81 ct
Raman shift (cm-1)	intensity
122.268	0
125.643	0.385803
129.018	5.15115
132.393	24.7184
135.767	38.3691
139.142	55.9904
142.517	69.4984
145.892	67.3915
149.267	61.4567
152.642	52.0017
156.016	81.8209
159.391	56.7842
162.766	71.1222
166.141	142.642
169.516	316.515
172.89	142.164
176.265	198.95
179.64	416.91
183.015	102.089
186.39	14.3684
189.764	0.544922
193.139	4.77481
196.514	4.25263
199.889	0.725189
203.264	4.93896
206.639	10.4477
210.013	22.7506
213.388	41.0857
216.763	60.2762
220.138	80.2584
223.513	85.8558
226.887	97.4688
230.262	112.987
233.637	172.348
237.012	392.096
240.387	439.038
243.762	159.123
247.136	137.39
250.511	154.737
253.886	161.133
257.261	169.696
260.636	194.785
264.01	129.386
267.385	144.95
270.76	236.068
274.135	259.623
277.51	125.625
280.885	57.1326
284.259	27.152
287.634	18.652
291.009	21.2933
294.384	28.1458
297.759	28.4882
301.134	12.4295
304.508	0.752167
307.883	9.2883
311.258	8.94028
314.633	4.31256
318.007	1.34949
321.382	1.2142
324.757	17.3041
328.132	36.9246
331.507	77.1617
334.882	146.663
338.256	231.501
341.631	343.857
345.006	528.699
348.381	860.902
351.756	1315.32
355.13	1388.85
358.505	881.84
361.88	460.968
365.255	257.833
368.63	159.933
372.005	124.482
375.379	125.655
378.754	168.16
382.129	182.197
385.504	169.576
388.879	195.055
392.253	218.876
395.628	206.624
399.003	165.201
402.378	122.916
405.753	97.1162
409.128	95.0655
412.502	77.7573
415.877	49.7516
419.252	54.2343
422.627	61.5268
426.002	106.607
429.377	197.808
432.751	295.083
436.126	273.701
439.501	153.8
442.876	63.8372
446.25	16.9027
449.625	5.37479
453	13.0191
456.375	9.75931
459.75	4.74112
463.125	27.6951
466.5	54.7954
469.874	79.4238
473.249	102.041
476.624	114.124
479.999	134.184
483.373	162.145
486.748	158.176
490.123	124.157
493.498	87.9005
496.873	58.8139
500.248	45.1763
503.622	41.8758
506.997	40.0002
510.372	39.7298
513.747	46.3609
517.122	77.1424
520.496	137.2
523.871	186.999
527.246	149.88
530.621	79.5089
533.996	32.8239
537.371	6.47144
540.745	5.63147
544.12	7.7305
547.495	6.94879
550.87	4.46799
554.245	15.6568
557.62	31.9479
560.994	53.2527
564.369	76.3884
567.744	93.8518
571.119	99.8227
574.494	102.596
577.868	112.924
581.243	130.388
584.618	123.656
587.993	107.71
591.368	128.8
594.742	154.568
598.117	180.742
601.492	161.41
604.867	151.363
608.242	147.348
611.616	143.954
614.991	126.287
618.366	100.022
621.741	79.385
625.116	62.6414
628.491	52.4877
631.865	46.6693
635.24	46.1562
638.615	43.7269
641.99	47.509
645.365	43.2477
648.74	32.943
652.114	22.4241
655.489	13.4036
658.864	7.6077
662.239	4.52975
665.614	0.642181
668.988	2.51978
672.363	3.00864
675.738	7.60434
679.113	10.0012
682.488	12.5312
685.862	17.9517
689.237	11.184
692.612	4.50467
695.987	2.25259
699.362	3.5997
702.737	1.03095
706.111	2.22873
709.486	5.37176
712.861	16.0968
716.236	31.0709
719.611	52.1502
722.986	85.8905
726.36	134.204
729.735	205.014
733.11	296.929
736.485	399.301
739.86	466.021
743.234	445.77
746.609	334.315
749.984	206.664
753.359	119.668
756.734	70.7706
760.109	43.8921
763.483	25.62
766.858	15.81
770.233	8.79419
773.608	4.61243
776.982	4.58661
780.357	1.20621
783.732	1.10007
787.107	2.02406
790.482	0.975418
793.857	1.89409
797.231	3.09207
800.606	5.95695
803.981	3.23793
807.356	6.78717
810.731	5.40862
814.106	3.6992
817.48	4.88536
820.855	4.18993
824.23	4.65419
827.605	1.64119
830.98	3.09496
834.354	2.41489
837.729	2.05576
841.104	2.14499
844.479	1.36691
847.854	1.15195
851.229	1.59431
854.603	0.157837
857.978	0.762939
861.353	0.071762
864.728	1.56616
868.103	1.71919
871.477	1.78091
874.852	3.08037
878.227	1.32709
881.602	3.30023
884.977	2.24963
888.351	1.96741
891.726	4.08821
895.101	2.48993
898.476	3.61569
901.851	1.34029
905.226	1.0831
908.6	2.90955
911.975	2.1115
915.35	0.891251
918.725	1.99449
922.1	1.36537
925.474	2.02626
928.849	0.48703
932.224	0.585342
935.599	2.01643
938.974	0.369659
942.348	1.09213
945.723	0.568939
949.098	0.806534
952.473	0.739822
955.848	0.13237
959.223	2.37056
962.597	2.78688
965.972	3.14267
969.347	3.93941
972.722	6.09146
976.097	9.73618
979.471	12.9883
982.846	13.7939
986.221	13.8037
989.596	12.6809
992.971	10.488
996.346	9.92098
999.72	14.6365
1003.1	17.5696
1006.47	25.1351
1009.85	35.1353
1013.22	45.0634
1016.59	43.8254
1019.97	33.1155
1023.34	23.1515
1026.72	14.3563
1030.09	10.9594
1033.47	7.83281
1036.84	8.56229
1040.22	6.34654
1043.59	7.2625
1046.97	5.14886
1050.34	5.80803
1053.72	6.62097
1057.09	9.89208
1060.47	10.0863
1063.84	7.8139
1067.22	5.42409
1070.59	2.88924
1073.97	2.17067
1077.34	0.781052
1080.72	0.187973
1084.09	0.486633
1087.47	0.410507
1090.84	0.086151
1094.21	1.26798
1097.59	1.24152
1100.96	1.8784
1104.34	0.867401
1107.71	0.646103
1111.09	0.74794
1114.46	0.335373
1117.84	0.415695
1121.21	0.166016
1124.59	0.99437
1127.96	4.14624
1131.34	5.92564
1134.71	8.67575
1138.09	14.9878
1141.46	21.9423
1144.84	32.8697
1148.21	49.8994
1151.59	67.0362
1154.96	75.8239
1158.34	65.8792
1161.71	47.6101
1165.09	31.5567
1168.46	22.751
1171.84	17.3747
1175.21	17.9131
1178.59	17.2911
1181.96	20.2862
1185.34	30.1922
1188.71	45.8191
1192.09	69.1806
1195.46	96.9224
1198.84	102.392
1202.21	79.7545
1205.58	51.5989
1208.96	34.2097
1212.33	22.889
1215.71	15.3343
1219.08	8.54399
1222.46	1.88304
1225.83	0.565735
1229.21	2.36054
1232.58	0.437073
1235.96	2.35455
1239.33	2.63535
1242.71	4.46132
1246.08	7.51776
1249.46	8.35883
1252.83	9.93054
1256.21	6.83563
1259.58	4.34007
1262.96	1.76509
1266.33	2.90443
1269.71	0.882126
1273.08	2.62235
1276.45	3.93483
1279.83	7.94437
1283.2	1.80725
