Measurement: Raman, 532 nm, unoriented, Raman Data Processed
Mineral: Gadolinium gallium garnet
Rruff sample: X090007
Ideal chemistry: Gd_3_Ga_2_(GaO_4_)_3_
Locality: Synthetic
Source: Gemological Institute of America
Description: Faceted colorless gemstone, 1.70 ct
Raman shift (cm-1)	intensity
93.8188	0
97.1936	1.10994
100.568	1.04306
103.943	1.85747
107.318	0.960623
110.693	0.187995
114.068	0.543051
117.442	0.565857
120.817	1.43912
124.192	3.52282
127.567	9.47195
130.942	13.3602
134.317	12.9369
137.691	14.2638
141.066	19.0176
144.441	23.4655
147.816	31.753
151.191	55.9373
154.565	103.268
157.94	127.776
161.315	148.536
164.69	228.21
168.065	441.167
171.44	455.13
174.814	308.36
178.189	541.359
181.564	475.956
184.939	98.0251
188.314	36.9385
191.688	21.0397
195.063	7.10631
198.438	0.570141
201.813	3.42434
205.188	2.03473
208.562	2.92987
211.937	14.0488
215.312	22.7432
218.687	31.2946
222.062	66.6443
225.437	98.7631
228.811	135.646
232.186	194.989
235.561	369.734
238.936	701.305
242.311	269.85
245.685	59.3108
249.06	35.8548
252.435	56.0349
255.81	124.393
259.185	251.44
262.56	211.373
265.934	143.554
269.309	234.03
272.684	357.697
276.059	236.176
279.434	78.0657
282.808	21.1788
286.183	1.99242
289.558	3.27931
292.933	0.020355
296.308	4.3292
299.683	4.36598
303.057	5.34989
306.432	0.023056
309.807	13.1392
313.182	23.8715
316.557	32.3268
319.932	51.7657
323.306	84.3252
326.681	130.092
330.056	201.193
333.431	324.008
336.805	528.147
340.18	787.254
343.555	1125.21
346.93	1665.32
350.305	2487.72
353.68	3034.25
357.054	2400.99
360.429	1334.56
363.804	731.936
367.179	442.509
370.554	302.304
373.928	242.042
377.303	241.717
380.678	244.188
384.053	157.901
387.428	95.6526
390.803	81.2523
394.177	84.8194
397.552	69.877
400.927	47.6065
404.302	52.5139
407.677	76.1198
411.051	99.722
414.426	65.1768
417.801	56.3805
421.176	40.6768
424.551	9.87226
427.926	1.07523
431.3	0.79364
434.675	2.73218
438.05	1.33772
441.425	5.97537
444.8	4.37577
448.174	3.72398
451.549	1.74504
454.924	0.340446
458.299	3.06443
461.674	4.19459
465.048	0.493874
468.423	4.49641
471.798	5.57237
475.173	5.40689
478.548	4.21208
481.923	5.23381
485.297	5.98526
488.672	11.5628
492.047	16.7927
495.422	21.8928
498.797	26.8312
502.171	37.0117
505.546	56.7401
508.921	83.3204
512.296	120.408
515.671	182.532
519.046	280.441
522.42	384.543
525.795	368.424
529.17	225.152
532.545	113.624
535.92	58.2711
539.294	29.5043
542.669	16.8567
546.044	8.36405
549.419	7.44308
552.794	8.60701
556.169	4.99245
559.543	9.81629
562.918	20.7568
566.293	38.1949
569.668	67.5035
573.043	106.061
576.418	157.481
579.792	222.918
583.167	251.419
586.542	232.474
589.917	234.881
593.292	269.156
596.666	303.913
600.041	266.765
603.416	178.03
606.791	111.27
610.166	70.5578
613.54	46.9871
616.915	36.0553
620.29	27.5097
623.665	20.9582
627.04	13.1102
630.414	7.01616
633.789	2.9959
637.164	0.818901
640.539	0.374527
643.914	1.30789
647.289	1.81769
650.663	2.14632
654.038	3.00815
657.413	2.23442
660.788	2.06109
664.163	1.3012
667.538	0.660244
670.912	0.454136
674.287	0.964375
677.662	1.85509
681.037	3.47971
684.412	4.27816
687.786	5.84718
691.161	7.97111
694.536	14.8513
697.911	20.8497
701.286	30.1592
704.66	43.5632
708.035	62.5869
711.41	84.9536
714.785	120.369
718.16	175.112
721.534	250.371
724.909	370.756
728.284	539.449
731.659	765.232
735.034	1009.78
738.409	1211.15
741.783	1229.69
745.158	1011.72
748.533	685.4
751.908	425.543
755.283	263.603
758.658	162.066
762.032	105.545
765.407	68.5092
768.782	49.2023
772.157	37.3901
775.532	29.7989
778.906	25.1727
782.281	26.3568
785.656	29.2046
789.031	31.0803
792.406	25.5781
795.78	19.4227
799.155	12.6351
802.53	12.1053
805.905	10.7998
809.28	10.4143
812.654	11.9296
816.029	14.9258
819.404	19.5587
822.779	21.2692
826.154	15.604
829.529	5.73405
832.903	0.681824
836.278	2.68663
839.653	3.17731
843.028	2.94999
846.403	2.11486
849.778	0.276852
853.152	2.9652
856.527	5.56826
859.902	7.18509
863.277	8.39376
866.652	7.77739
870.026	7.70167
873.401	6.99846
876.776	7.85971
880.151	11.7377
883.526	16.3861
886.9	24.4709
890.275	36.8143
893.65	51.6845
897.025	66.068
900.4	70.0665
903.775	53.0516
907.149	27.3083
910.524	14.9113
913.899	8.51555
917.274	6.42401
920.649	5.64774
924.024	5.0933
927.398	3.9132
930.773	2.70371
934.148	0.554367
937.523	0.13446
940.898	0.163914
944.272	0.045692
947.647	1.47431
951.022	2.00292
954.397	1.67837
957.772	1.99616
961.146	1.71876
964.521	1.29647
967.896	2.4475
971.271	3.8254
974.646	4.45538
978.021	4.74871
981.395	6.98975
984.77	6.40814
988.145	5.90003
991.52	5.17049
994.895	3.74847
998.269	5.53629
1001.64	3.85924
1005.02	4.25197
1008.39	3.01208
1011.77	2.84872
1015.14	1.85007
1018.52	2.01256
1021.89	1.50601
1025.27	0.488373
1028.64	0.792843
1032.02	0.166042
1035.39	0.416809
1038.77	0.108219
1042.14	0.059769
1045.52	0.177422
1048.89	0.170891
1052.27	0.089085
1055.64	0.621101
1059.02	1.5354
1062.39	0.643772
1065.77	1.2489
1069.14	2.52341
1072.52	2.41695
1075.89	4.86933
1079.27	5.96798
1082.64	7.85308
1086.02	8.84896
1089.39	9.88253
1092.76	9.92941
1096.14	11.146
1099.51	11.1315
1102.89	10.7891
1106.26	11.1013
1109.64	9.09517
1113.01	8.26972
1116.39	6.42686
1119.76	5.58989
1123.14	3.96659
1126.51	2.15085
1129.89	1.88988
1133.26	0.785767
1136.64	0.180611
1140.01	0.447216
1143.39	0.060966
1146.76	0.170551
1150.14	0.071884
1153.51	0.906834
1156.89	1.76284
1160.26	3.96559
1163.63	3.99313
1167.01	7.64082
1170.38	8.95914
1173.76	12.4031
1177.13	15.803
1180.51	19.8977
1183.88	22.8049
1187.26	28.7046
1190.63	31.4494
1194.01	34.7776
1197.38	36.3496
1200.76	35.4723
1204.13	33.6553
1207.51	28.2653
1210.88	22.6992
1214.26	18.0448
1217.63	13.9886
1221.01	9.30549
1224.38	6.14898
1227.76	3.4182
1231.13	0.956837
1234.51	0.764847
1237.88	0.206486
1241.26	0.70174
1244.63	0.199581
1248.01	2.08168
1251.38	3.98548
1254.76	6.22518
1258.13	8.73436
1261.51	12.0084
1264.88	16.1204
1268.26	20.269
1271.63	22.7783
1275	22.7731
1278.38	21.5922
1281.75	18.8078
1285.13	14.4532
1288.5	10.0762
1291.88	6.04002
1295.25	2.80402
1298.63	0.76685
1302	0.025372
