Measurement: Raman, 532 nm, unoriented, Raman Data Processed
Mineral: Gadolinium gallium garnet
Rruff sample: X090006
Ideal chemistry: Gd_3_Ga_2_(GaO_4_)_3_
Locality: Synthetic
Source: Gemological Institute of America
Description: Faceted colorless gemstone, 1.81 ct
Raman shift (cm-1)	intensity
90.9261	0
92.8546	8.64037
94.783	14.8082
96.7115	28.3952
98.6399	20.9934
100.568	31.6888
102.497	34.6547
104.425	30.3861
106.354	17.1517
108.282	3.41153
110.211	1.06028
112.139	2.95663
114.068	9.09626
115.996	7.61175
117.925	20.3388
119.853	40.097
121.781	60.2226
123.71	76.0297
125.638	105.12
127.567	178.925
129.495	213.749
131.424	299.917
133.352	344.314
135.281	360.421
137.209	335.157
139.138	291.341
141.066	236.92
142.995	222.421
144.923	211.657
146.852	156.863
148.78	136.263
150.708	131.641
152.637	141.769
154.565	185.916
156.494	251.107
158.422	237.854
160.351	215.179
162.279	205.397
164.208	194.07
166.136	271.505
168.065	427.446
169.993	554.044
171.922	365.548
173.85	262.336
175.779	310.308
177.707	463.973
179.636	669.404
181.564	449.778
183.493	222.481
185.421	137.926
187.349	170.461
189.278	176.973
191.206	190.784
193.135	123.446
195.063	64.7129
196.992	1.69357
198.92	11.1504
200.849	7.92728
202.777	3.6647
204.706	22.1466
206.634	74.8161
208.562	145.085
210.491	233.45
212.419	321.979
214.348	412.642
216.276	399.832
218.205	391.888
220.133	370.718
222.062	471.456
223.99	555.988
225.919	677.727
227.847	705.909
229.776	660.013
231.704	533.72
233.633	464.625
235.561	515.061
237.489	676.208
239.418	799.078
241.346	505.774
243.275	184.146
245.203	47.468
247.132	23.0044
249.06	8.13946
250.989	0.248108
252.917	34.4609
254.846	70.7322
256.774	118.778
258.703	177.399
260.631	215.452
262.56	137.053
264.488	62.7384
266.416	58.1339
268.345	135.972
270.273	226.829
272.202	357.127
274.13	324.482
276.059	220.715
277.987	79.7528
279.916	52.4626
281.844	7.94864
283.773	15.9827
285.701	4.52905
287.63	24.4367
289.558	23.2152
291.487	38.9356
293.415	11.5135
295.344	10.0191
297.272	1.96851
299.2	10.0208
301.129	24.1156
303.057	54.4191
304.986	112.704
306.914	157.196
308.843	193.192
310.771	247.311
312.7	231.735
314.628	174.002
316.557	117.668
318.485	87.0481
320.414	92.6061
322.342	104.692
324.271	163.756
326.199	183.06
328.127	218.375
330.056	289.632
331.984	343.199
333.913	433.191
335.841	542.017
337.77	701.345
339.698	867.305
341.627	1027.88
343.555	1188.71
345.484	1486.18
347.412	1864.85
349.341	2348.34
351.269	2874.52
353.197	3220.66
355.126	3102.58
357.054	2532.45
358.983	1766.89
360.911	1201.81
362.84	793.042
364.768	560.813
366.697	418.038
368.625	308.037
370.554	260.055
372.482	236.631
374.411	237.014
376.339	292.152
378.267	375.585
380.196	400.732
382.125	373.957
384.053	287.432
385.981	235.924
387.91	262.344
389.838	293.877
391.767	345.259
393.695	396.405
395.624	381.26
397.552	318.019
399.481	259.285
401.409	205.717
403.338	185.481
405.266	194.602
407.195	149.303
409.123	142.222
411.051	116.874
412.98	79.1946
414.908	70.8452
416.837	51.7715
418.765	52.2944
420.694	57.8098
422.622	34.4064
424.551	0.839783
426.479	15.4426
428.408	1.19962
430.336	14.9593
432.265	8.58865
434.193	16.3469
436.122	14.6045
438.05	2.37186
439.978	4.44843
441.907	21.1574
443.835	6.33536
445.764	9.99974
447.692	8.33339
449.621	0.637573
451.549	31.6907
453.478	6.82199
455.406	35.0523
457.335	59.7241
459.263	79.4493
461.192	77.5476
463.12	99.1952
465.048	98.8002
466.977	144.426
468.906	161.621
470.834	189.208
472.762	188.357
474.691	176.161
476.619	148.317
478.548	112.188
480.476	99.1681
482.405	77.054
484.333	62.0517
486.262	44.0958
488.19	51.9328
490.119	36.0447
492.047	47.6699
493.976	58.5496
495.904	63.4802
497.832	54.7975
499.761	51.7217
501.689	58.9991
503.618	58.1647
505.546	84.6881
507.475	108.829
509.403	128.303
511.332	168.885
513.26	182.466
515.189	230.685
517.117	298.601
519.046	358.887
520.974	466.151
522.903	523.199
524.831	523.259
526.76	473.866
528.688	387.236
530.616	305.847
532.545	286.438
534.473	259.297
536.402	218.786
538.33	183.224
540.259	169.986
542.187	165.95
544.116	146.529
546.044	132.761
547.973	111.334
549.901	119.804
551.83	108.913
553.758	105.716
555.687	51.8358
557.615	3.58231
559.543	27.3204
561.472	21.1232
563.4	18.6342
565.329	25.6613
567.257	6.68558
569.186	3.38956
571.114	6.92111
573.043	38.3624
574.971	54.5641
576.9	95.7532
578.828	121.167
580.756	157.267
582.685	173.654
584.613	165.364
586.542	158.141
588.47	162.465
590.399	165.091
592.327	190.624
594.256	210.322
596.184	245.598
598.113	250.714
600.041	218.03
601.97	175.705
603.898	116.389
605.827	76.4778
607.755	54.441
609.683	64.1258
611.612	57.6774
613.54	45.0319
615.469	89.9029
617.397	139.499
619.326	166.57
621.254	209.789
623.183	261.355
625.111	333.661
627.04	392.554
628.968	504.956
630.897	548.6
632.825	539.434
634.754	526.026
636.682	499.219
638.611	542.793
640.539	606.645
642.467	713.271
644.396	812.826
646.324	866.334
648.253	888.694
650.181	923.334
652.11	926.333
654.038	879.772
655.967	771.522
657.895	696.375
659.824	611.614
661.752	503.668
663.681	414.357
665.609	335.131
667.538	309.976
669.466	287.205
671.394	298.544
673.323	316.206
675.251	357.278
677.18	405.67
679.108	462.404
681.037	481.074
682.965	451.465
684.894	375.793
686.822	263.738
688.751	197.436
690.679	133.347
692.607	53.9393
694.536	38.0582
696.465	7.96942
698.393	13.29
700.321	9.51788
702.25	1.93341
704.178	37.8198
706.107	6.6499
708.035	12.2492
709.964	9.79627
711.892	44.8738
713.821	36.5768
715.749	64.9609
717.678	117.055
719.606	165.125
721.534	203.526
723.463	284.672
725.391	336.278
727.32	470.173
729.248	609.53
731.177	724.57
733.105	900.876
735.034	1066.73
736.962	1229.93
738.891	1336.43
740.819	1360.86
742.748	1304.02
744.676	1204.09
746.605	988.641
748.533	783.207
750.462	588.132
752.39	407.436
754.318	351.838
756.247	223.59
758.175	142.107
760.104	109.35
762.032	28.1382
763.961	26.4282
765.889	4.60742
767.818	20.2788
769.746	1.32129
771.675	46.853
773.603	70.3745
775.532	73.8389
777.46	102.303
779.389	112.201
781.317	116.968
783.245	125.24
785.174	113.959
787.102	141.519
789.031	84.9421
790.959	72.3518
792.888	72.73
794.816	35.2078
796.745	2.52588
798.673	30.4797
800.602	16.74
802.53	31.7593
804.459	81.3975
806.387	108.837
808.316	98.9131
810.244	115.84
812.172	88.2534
814.101	125.575
816.029	95.1675
817.958	109.647
819.886	122.809
821.815	146.008
823.743	124.774
825.672	90.1646
827.6	43.9844
829.529	11.8735
831.457	4.11816
833.386	26.6299
835.314	27.665
837.242	80.5215
839.171	155.013
841.099	166.449
843.028	146.774
844.956	61.7329
846.885	122.733
848.813	71.0278
850.742	13.3975
852.67	7.19824
