Measurement: Raman, 532 nm, unoriented, Raman Data Processed
Mineral: Gagarinite-(Y)
Rruff sample: R060517
Ideal chemistry: NaCaYF_6_
Locality: Gjerdingen, Nordmark, north of Oslo, Norway
Source: Michael Scott
Description: Brownish-orange massive blebs associated with quartz, feldspar, brown astrophyllite and black riebeckite
Raman shift (cm-1)	intensity
156.717	0
159.609	73.682
162.502	336.576
165.395	533.701
168.287	366.676
171.18	307.434
174.073	936.205
176.965	4513.78
179.858	7642.01
182.751	9323.58
185.644	11189.3
188.536	19501.9
191.429	29523.2
194.322	36265.2
197.214	36996.8
200.107	32028
203	26821.5
205.893	21322.8
208.785	15042.6
211.678	7282.87
214.571	253.328
217.463	967.716
220.356	508.788
223.249	270.178
226.141	167.533
229.034	874.66
231.927	355.288
234.82	974.875
237.712	3078.47
240.605	6220.47
243.498	19000.9
246.39	37093.8
249.283	59434.3
252.176	85503.5
255.068	110357
257.961	130298
260.854	138372
263.746	131609
266.639	112969
269.532	88837.1
272.425	66150.5
275.317	47110.5
278.21	33990.7
281.103	25752.7
283.995	22337.9
286.888	21663.5
289.781	24688.3
292.674	32228.3
295.566	42136.9
298.459	54595.6
301.352	68470.2
304.244	84808.7
307.137	102197
310.03	117438
312.922	132853
315.815	147966
318.708	159859
321.601	162252
324.493	152342
327.386	130007
330.279	101787
333.171	75425
336.064	55277.4
338.957	41909.6
341.849	33850.6
344.742	30247.5
347.635	30685.4
350.528	34201.5
353.42	39317
356.313	42980.7
359.206	43564.9
362.098	40339.7
364.991	34785.5
367.884	25069
370.776	14013.1
373.669	4169.82
376.562	3070.41
379.455	1662.34
382.347	1798.9
385.24	1603.76
388.133	1114.08
391.025	819.92
393.918	264.301
396.811	744.926
399.703	58.367
402.596	298.227
405.489	325.073
408.382	1081.55
411.274	1491.6
414.167	1196.52
417.06	1463.7
419.952	2925.96
422.845	4653.02
425.738	6385.28
428.63	8263.66
431.523	10977.4
434.416	14244.9
437.309	17159.9
440.201	20594.2
443.094	24048.5
445.987	29223.3
448.879	35475
451.772	42035.8
454.665	50189.2
457.557	57341.3
460.45	62431.2
463.343	63668.9
466.236	59228.4
469.128	49318.2
472.021	38353.5
474.914	28529.9
477.806	22693
480.699	21000.1
483.592	23824.2
486.484	30048.6
489.377	36798
492.27	42072.4
495.163	47488.7
498.055	50740.1
500.948	51627.1
503.841	49867.5
506.733	46148.1
509.626	40721
512.519	34045.2
515.412	26892.4
518.304	21077.3
521.197	15769.8
524.09	11382.5
526.982	6649.47
529.875	3838.99
532.768	1622.84
535.661	268.243
538.553	470.863
541.446	5.788
544.339	339.655
547.231	615.404
550.124	154.665
553.017	60.747
555.909	11.628
558.802	245.486
561.695	440.504
564.588	3724.5
567.48	9592.45
570.373	16494.9
573.266	24154.7
576.158	32511
579.051	41415.8
581.944	49818.2
584.836	59573.8
587.729	68619.2
590.622	75913.9
593.515	82575.1
596.407	88265.3
599.3	92257.9
602.193	94722.9
605.085	95859.3
607.978	95218.5
610.871	92127.8
613.763	87202.9
616.656	80441.1
619.549	71917.9
622.442	63683
625.334	55795.6
628.227	46004.5
631.12	37770.2
634.012	29299.2
636.905	22718.7
639.798	17522
642.69	13045.1
645.583	8879.59
648.476	6227.31
651.369	4654.19
654.261	3090.87
657.154	1286.91
660.047	284.009
662.939	23.578
665.832	158.193
668.725	12.51
671.617	129.197
674.51	98.56
677.403	107.547
680.295	118.999
683.188	93.342
686.081	932.359
688.974	1168.83
691.866	1603.04
694.759	1860.87
697.652	2192.42
700.544	1600.8
703.437	1656.89
706.33	1504.06
709.222	1586.88
712.115	1505.9
715.008	1593.17
717.901	1643.03
720.793	1921.65
723.686	1865.43
726.579	1406.76
729.471	1089.39
732.364	857.536
735.257	268.924
738.149	34.603
741.042	80.107
743.935	21.799
746.828	426.807
749.72	641.57
752.613	31.347
755.506	66.353
758.398	544.696
761.291	291.168
764.184	203.2
767.076	440.292
769.969	884.435
772.862	1090.8
775.755	776.446
778.647	547.663
781.54	786.184
784.433	570.07
787.325	633.464
790.218	598.641
793.111	799.803
796.003	1068.99
798.896	1003.44
801.789	696.581
804.682	456.705
807.574	41.522
810.467	48.112
813.36	119.509
816.252	127.557
819.145	171.907
822.038	5.853
824.93	3.614
827.823	31.662
830.716	482.299
833.609	26.905
836.501	18.454
839.394	12.132
842.287	21.628
845.18	0.274
848.072	13.745
850.965	7.99
853.858	8.451
856.75	2.81
859.643	13.614
862.536	248.528
865.428	603.726
868.321	647.702
871.214	192.151
874.107	194.382
876.999	280.324
879.892	594.362
882.785	686.996
885.677	831.879
888.57	852.539
891.463	1286.47
894.355	1486.84
897.248	1886.14
900.141	1299.64
903.034	646.57
905.926	398.357
908.819	301.368
911.712	214.46
914.604	12.46
917.497	333.468
920.39	122.306
923.282	823.99
926.175	1720.22
929.068	1784.02
931.961	1884.12
934.853	1621.08
937.746	1715.05
940.639	1774.39
943.531	1620.85
946.424	1090.85
949.317	1103.66
952.209	831.389
955.102	487.071
957.995	577.289
960.888	116.346
963.78	344.846
966.673	277.55
969.566	16.112
972.458	38.204
975.351	17.069
978.244	306.928
981.136	376.574
984.029	411.92
986.922	141.506
989.815	137.271
992.707	27.04
995.6	18.314
998.493	338.52
1001.38	677.604
1004.28	786.082
1007.17	651.375
1010.06	412.808
1012.96	454.256
1015.85	448.001
1018.74	197.295
1021.63	508.671
1024.53	550.461
1027.42	1026.07
1030.31	1013.42
1033.2	545.457
1036.1	577.822
1038.99	608.21
1041.88	827.637
1044.78	666.005
1047.67	75.968
1050.56	12.369
1053.45	464.212
1056.35	702.795
1059.24	581.49
1062.13	558.975
1065.03	23.08
1067.92	20.734
1070.81	29.026
1073.7	344.346
1076.6	148.108
1079.49	2.9
1082.38	23.527
1085.27	11.786
1088.17	415.588
1091.06	186.151
1093.95	365.998
1096.84	629.92
1099.74	587.309
1102.63	710.357
1105.52	459.247
1108.41	668.24
1111.31	258.23
1114.2	266.559
1117.09	471.937
1119.99	45.254
1122.88	15.915
1125.77	26.851
1128.66	265.538
1131.56	931.179
1134.45	927.618
1137.34	447.121
1140.23	588.019
1143.13	381.979
1146.02	123.579
1148.91	28.373
1151.81	91.547
1154.7	447.992
1157.59	791.455
1160.48	662.109
1163.38	356.039
1166.27	6.869
1169.16	0.803
1172.06	60.175
1174.95	541.23
1177.84	792.606
1180.73	856.979
1183.62	931.416
1186.52	1086.57
1189.41	504.131
1192.3	463.904
1195.2	246.226
1198.09	7.302
1200.98	244.629
1203.87	16.854
1206.77	62.07
1209.66	164.41
1212.55	567.523
1215.44	592.506
1218.34	340.573
1221.23	19.023
1224.12	271.021
1227.02	399.822
1229.91	508.639
1232.8	211.102
1235.69	439.149
1238.59	816.433
1241.48	461.58
1244.37	760.844
1247.27	629.607
1250.16	1132.18
1253.05	667.535
1255.94	87.283
1258.84	856.097
1261.73	452.407
1264.62	66.818
1267.51	13.464
1270.41	625.618
1273.3	1489.68
1276.19	1317.64
1279.09	1161.12
1281.98	593.636
1284.87	269.226
1287.76	281.547
1290.66	56.76
