Measurement: Raman, 780 nm, unoriented, Raman Data Processed
Mineral: Gahnite
Rruff sample: R070591
Ideal chemistry: ZnAl_2_O_4_
Locality: Jemaa, Kaduna, Nigeria
Source: James Shigley
Description: Blue octahedron
Raman shift (cm-1)	intensity
113.963	0
117.338	120.978
120.712	8.35986
124.087	205.559
127.462	151.225
130.837	244.519
134.212	29.6719
137.586	131.731
140.961	94.8359
144.336	259.459
147.711	143.741
151.086	254.332
154.46	286.932
157.835	160.101
161.21	175.184
164.585	107.228
167.96	49.502
171.335	10.3965
174.709	13.1812
178.084	45.0933
181.459	145.6
184.834	386.018
188.209	488.535
191.583	812.691
194.958	1167.56
198.333	779.886
201.708	436.282
205.083	542.806
208.458	472.437
211.832	422.881
215.207	348.353
218.582	339.878
221.957	253.898
225.332	323.196
228.707	259.519
232.081	184.98
235.456	176.43
238.831	196.28
242.206	92.24
245.581	152.371
248.955	40.2388
252.33	98.7803
255.705	130.436
259.08	66.53
262.455	131.885
265.829	20.1138
269.204	96.7026
272.579	65.8018
275.954	2.24341
279.329	0.004395
282.704	69.155
286.078	15.7837
289.453	2.59204
292.828	5.51123
296.203	58.0654
299.578	41.5884
302.952	51.2978
306.327	37.6929
309.702	58.1709
313.077	60.2739
316.452	171.069
319.827	70.8125
323.201	126.891
326.576	209.436
329.951	128.631
333.326	113.255
336.701	77.552
340.075	190.547
343.45	28.1248
346.825	116.238
350.2	12.741
353.575	74.8616
356.95	186.579
360.324	181.016
363.699	95.0427
367.074	111.982
370.449	196.704
373.824	172.041
377.199	181.964
380.573	62.7105
383.948	214.004
387.323	372.937
390.698	522.203
394.073	806.236
397.447	1236.74
400.822	2158.08
404.197	4484.51
407.572	7083.98
410.947	10460.3
414.322	17837.1
417.696	19903.5
421.071	6901.81
424.446	1867.23
427.821	737.783
431.196	222.865
434.57	177.96
437.945	166.687
441.32	28.9268
444.695	74.5408
448.07	9.08374
451.445	43.5557
454.819	46.1431
458.194	31.1834
461.569	82.4363
464.944	183.205
468.319	263.536
471.693	93.0435
475.068	213.279
478.443	157.098
481.818	254.45
485.193	371.018
488.567	549.373
491.942	720.579
495.317	888.709
498.692	1130.56
502.067	1458.01
505.442	1782.03
508.816	1497.09
512.191	926.467
515.566	548.633
518.941	422.648
522.316	288.415
525.691	212.305
529.065	99.1646
532.44	30.0579
535.815	42.3008
539.19	0.531006
542.565	8.58618
545.939	31.446
549.314	1.54175
552.689	30.4143
556.064	20.4783
559.439	123.242
562.813	230.901
566.188	146.745
569.563	134.395
572.938	147.03
576.313	60.05
579.688	157.821
583.062	300.367
586.437	269.76
589.812	146.11
593.187	274.317
596.562	227.159
599.937	275.322
603.311	267.61
606.686	295.654
610.061	294.244
613.436	386.567
616.811	510.003
620.185	842.792
623.56	944.395
626.935	1146.26
630.31	1364.75
633.685	1610.29
637.059	1972.12
640.434	2904.82
643.809	5085.97
647.184	8976.2
650.559	15144.1
653.934	23806.6
657.308	29185.6
660.683	20537.6
664.058	10224
667.433	4808.18
670.808	2586.73
674.183	1488.29
677.557	765.819
680.932	391.702
684.307	328.441
687.682	185.97
691.057	109.816
694.431	117.128
697.806	203.63
701.181	196.784
704.556	278.272
707.931	163.485
711.306	91.1304
714.68	98.7888
718.055	61.0864
721.43	87.0044
724.805	134.335
728.18	19.9605
731.554	41.1597
734.929	52.583
738.304	31.4519
741.679	209.795
745.054	233.736
748.428	271.377
751.803	315.829
755.178	380.388
758.553	400.647
761.928	441.572
765.303	470.05
768.677	389.176
772.052	478.773
775.427	434.484
778.802	393.939
782.177	263.184
785.552	241.493
788.926	256.288
792.301	161.052
795.676	206.082
799.051	161.086
802.426	74.2206
805.8	183.203
809.175	144.755
812.55	122.466
815.925	91.9708
819.3	43.6989
822.674	17.1525
826.049	80.8511
829.424	69.1843
832.799	26.9675
836.174	76.9435
839.549	81.8099
842.923	63.0034
846.298	18.405
849.673	115.851
853.048	70.3695
856.423	177.527
859.798	86.0825
863.172	80.3252
866.547	119.217
869.922	0.287231
873.297	47.6848
876.672	62.0772
880.046	66.7954
883.421	13.044
886.796	89.3472
890.171	40.2622
893.546	14.7827
896.92	64.2421
900.295	67.5125
903.67	42.689
907.045	29.8686
910.42	32.5005
913.795	77.6282
917.169	70.9669
920.544	13.312
923.919	70.7694
927.294	45.8142
930.669	51.1382
934.043	42.4236
937.418	57.4681
940.793	4.42957
944.168	73.202
947.543	4.6261
950.918	96.5095
954.292	62.1388
957.667	131.802
961.042	65.6472
964.417	153.09
967.792	83.8809
971.166	39.1932
974.541	79.8201
977.916	39.8068
981.291	83.6747
984.666	167.059
988.041	194.527
991.415	106.822
994.79	209.773
998.165	164.529
1001.54	111.648
1004.91	52.9934
1008.29	42.7183
1011.66	72.1462
1015.04	30.4535
1018.41	59.3648
1021.79	111.212
1025.16	115.465
1028.54	13.6945
1031.91	116.919
1035.29	65.7084
1038.66	110.25
1042.04	98.0167
1045.41	90.2947
1048.79	114.702
1052.16	147.277
1055.54	124.332
1058.91	112.942
1062.29	85.494
1065.66	139.392
1069.04	79.8427
1072.41	89.0935
1075.79	0.380615
1079.16	40.2584
1082.54	42.0132
1085.91	63.4923
1089.29	66.5289
1092.66	39.0071
1096.04	56.4351
1099.41	93.4409
1102.78	74.8761
1106.16	30.9375
1109.53	117.578
1112.91	57.04
1116.28	51.5612
1119.66	83.1155
1123.03	9.53699
1126.41	192.159
1129.78	1.26904
1133.16	90.5681
1136.53	111.264
1139.91	68.1429
1143.28	64.5724
1146.66	36.5526
1150.03	22.635
1153.41	121.966
1156.78	45.1028
1160.16	107.231
1163.53	138.227
1166.91	48.9567
1170.28	105.129
1173.66	56.2976
1177.03	128.149
1180.4	115.579
1183.78	138.377
1187.15	154.092
1190.53	188.85
1193.9	52.9187
1197.28	178.767
1200.65	140.725
1204.03	71.3758
1207.4	86.6029
1210.78	67.4659
1214.15	190.492
1217.53	86.8366
1220.9	26.0454
1224.28	22.6094
1227.65	38.3055
1231.03	8.58899
1234.4	22.8199
1237.78	67.5658
1241.15	49.2606
1244.53	48.3457
1247.9	134.617
1251.28	65.2185
1254.65	111.843
1258.03	178.131
1261.4	106.167
1264.78	158.8
1268.15	157.574
1271.53	107.911
1274.9	119.576
1278.28	59.7908
1281.65	69.7064
1285.03	55.8278
