Measurement: Raman, 780 nm, unoriented, Raman Data Processed
Mineral: Gahnite
Rruff sample: R040027
Ideal chemistry: ZnAl_2_O_4_
Locality: Rowe, Franklin County, Massachusetts, USA
Source: University of Arizona Mineral Museum
Description: Dark blue octahedral single crystals embedded in quartz matrix
Measured chemistry: (Zn_0.83_Fe_0.11_Mg_0.06_)_Σ=1_(Al_0.96_Fe_0.04_)_Σ=2_O_4_
Raman shift (cm-1)	intensity
128.74	0
131.633	0.925179
134.526	0.201218
137.418	5.40978
140.311	4.51569
143.204	5.7953
146.096	6.57404
148.989	9.16249
151.882	8.29456
154.775	8.86001
157.667	4.41605
160.56	3.04213
163.453	2.73062
166.345	0.481529
169.238	0.490234
172.131	2.35686
175.024	3.62826
177.916	9.84442
180.809	12.2436
183.702	17.2498
186.594	18.7221
189.487	22.5867
192.38	25.7011
195.272	31.4335
198.165	30.4289
201.058	31.8515
203.951	32.2098
206.843	35.638
209.736	32.4594
212.629	21.1657
215.521	10.2964
218.414	6.55457
221.307	4.50279
224.199	6.10354
227.092	5.23242
229.985	3.94792
232.877	5.03278
235.77	2.6907
238.663	3.13456
241.556	2.49974
244.448	2.63891
247.341	2.53101
250.234	3.5278
253.126	0.070763
256.019	2.17016
258.912	1.02589
261.805	0.571472
264.697	1.14437
267.59	1.01177
270.483	1.20924
273.375	2.41981
276.268	0.611023
279.161	0.154144
282.053	1.50127
284.946	1.01817
287.839	0.882332
290.731	1.2299
293.624	2.01823
296.517	3.62716
299.41	1.30808
302.302	4.02938
305.195	2.97813
308.088	3.59629
310.98	3.616
313.873	3.90526
316.766	2.65042
319.659	2.81172
322.551	3.60046
325.444	1.52806
328.337	3.36935
331.229	2.43681
334.122	1.10423
337.015	2.27662
339.907	3.5526
342.8	2.39138
345.693	2.57432
348.586	3.07821
351.478	1.44123
354.371	4.37235
357.264	1.95306
360.156	3.48665
363.049	2.27505
365.942	2.3354
368.834	1.54965
371.727	1.49445
374.62	0.804283
377.512	1.21669
380.405	0.272377
383.298	1.2311
386.191	0.921715
389.083	6.45421
391.976	8.40041
394.869	11.7456
397.761	18.382
400.654	20.4907
403.547	23.5634
406.44	32.6026
409.332	37.994
412.225	53.9805
415.118	59.0299
418.01	38.0731
420.903	14.1713
423.796	9.71387
426.688	3.80903
429.581	5.7861
432.474	4.71661
435.366	3.17931
438.259	5.3194
441.152	1.46239
444.045	2.12123
446.937	1.65083
449.83	1.64588
452.723	1.01488
455.615	1.92379
458.508	2.82249
461.401	6.34551
464.293	9.31639
467.186	10.8908
470.079	13.575
472.972	11.7086
475.864	12.1015
478.757	12.8726
481.65	14.3341
484.542	11.5891
487.435	12.4077
490.328	12.2443
493.221	13.0402
496.113	12.9321
499.006	13.7212
501.899	16.6275
504.791	15.9488
507.684	17.0314
510.577	13.3639
513.469	8.92258
516.362	7.05273
519.255	2.70387
522.148	3.49505
525.04	4.54726
527.933	2.62776
530.826	2.38037
533.718	0.96759
536.611	1.40834
539.504	0.543961
542.396	2.18784
545.289	0.095886
548.182	2.95476
551.074	0.755562
553.967	2.0226
556.86	5.63513
559.753	4.49802
562.645	7.33946
565.538	6.46218
568.431	8.76082
571.323	8.5792
574.216	7.62637
577.109	9.08743
580.001	8.76166
582.894	7.43552
585.787	9.7778
588.68	10.7876
591.572	10.7224
594.465	14.2411
597.358	13.3492
600.25	13.7517
603.143	17.7268
606.036	22.7781
608.928	27.7223
611.821	31.2047
614.714	39.4743
617.607	44.7471
620.499	49.9143
623.392	51.2578
626.285	49.3863
629.177	46.1927
632.07	39.9153
634.963	38.886
637.856	45.8156
640.748	60.6223
643.641	76.905
646.534	93.1027
649.426	117.775
652.319	146.517
655.212	165.957
658.104	143.484
660.997	86.7633
663.89	43.0789
666.783	18.8339
669.675	5.69731
672.568	0.734451
675.461	0.389328
678.353	2.14368
681.246	1.91663
684.139	1.25016
687.031	1.86301
689.924	5.14107
692.817	9.34556
695.71	13.3887
698.602	13.6416
701.495	14.6317
704.388	15.8796
707.28	12.4488
710.173	8.86759
713.066	5.99889
715.958	3.34093
718.851	1.75639
721.744	0.781891
724.636	2.65449
727.529	2.71922
730.422	5.7401
733.314	7.96931
736.207	10.4537
739.1	13.4713
741.993	14.393
744.885	21.2157
747.778	24.2873
750.671	27.3809
753.563	31.3562
756.456	29.6148
759.349	25.9816
762.241	21.3632
765.134	18.6311
768.027	14.8732
770.92	13.6926
773.812	11.1725
776.705	9.07537
779.598	10.1702
782.49	5.53977
785.383	5.69065
788.276	4.48764
791.168	0.346184
794.061	3.68638
796.954	1.72559
799.847	3.85999
802.739	0.53495
805.632	1.31808
808.525	1.40799
811.417	0.19416
814.31	0.655594
817.203	0.976448
820.096	0.112595
822.988	2.15835
825.881	1.31605
828.774	0.222046
831.666	0.338448
834.559	1.84024
837.452	0.422897
840.344	1.94375
843.237	1.82016
846.13	0.388496
849.023	0.456604
851.915	2.92117
854.808	2.58158
857.701	2.71409
860.593	0.55806
863.486	0.02446
866.379	0.48666
869.271	1.41396
872.164	2.60172
875.057	1.80761
877.949	0.469143
880.842	0.95697
883.735	0.431953
886.628	1.25497
889.52	0.721302
892.413	0.063931
895.306	1.10134
898.198	0.554207
901.091	1.90264
903.984	2.19825
906.876	3.33173
909.769	0.28273
912.662	0.846123
915.555	1.14519
918.447	0.050457
921.34	2.5405
924.233	2.03787
927.125	0.556572
930.018	1.6186
932.911	2.94284
935.803	1.55291
938.696	2.11847
941.589	1.85844
944.482	2.04812
947.374	2.14364
950.267	1.66673
953.16	4.26553
956.052	2.20914
958.945	2.024
961.838	1.84608
964.731	3.28156
967.623	1.01933
970.516	3.88611
973.409	2.52336
976.301	3.098
979.194	1.48587
982.087	1.8193
984.979	1.96708
987.872	2.51937
990.765	2.05973
993.658	3.6359
996.55	5.2659
999.443	3.63567
1002.34	2.27999
1005.23	0.563423
1008.12	1.69984
1011.01	0.684139
1013.91	1.86336
1016.8	2.57886
1019.69	2.23625
1022.58	1.00517
1025.48	2.01231
1028.37	0.281998
1031.26	1.82533
1034.15	1.03201
1037.05	2.47846
1039.94	3.57239
1042.83	2.45407
1045.73	2.12637
1048.62	1.97369
1051.51	1.94458
1054.4	1.19149
1057.3	2.34084
1060.19	1.01928
1063.08	1.54641
1065.97	1.68071
1068.87	2.05848
1071.76	1.13551
1074.65	0.468254
1077.55	1.15163
1080.44	0.827011
1083.33	1.28102
1086.22	1.30033
1089.12	0.516041
1092.01	0.181599
1094.9	1.28881
1097.8	1.13149
1100.69	0.267494
1103.58	0.66201
1106.47	0.105091
1109.37	0.745686
1112.26	0.06805
1115.15	0.222507
1118.04	0.152088
1120.94	0.863445
1123.83	0.520237
1126.72	2.77052
1129.61	1.24147
1132.51	1.19907
1135.4	0.771832
1138.29	0.633396
1141.18	2.29554
1144.08	2.01583
1146.97	0.334011
1149.86	2.39754
1152.76	1.75143
1155.65	2.34662
1158.54	2.3781
1161.43	1.73014
1164.33	4.30303
1167.22	2.02307
1170.11	3.00512
1173.01	4.23792
1175.9	2.48237
1178.79	2.69571
1181.68	3.17861
1184.58	4.60072
1187.47	1.28055
1190.36	4.03735
1193.25	3.9903
1196.15	3.92618
1199.04	1.92406
1201.93	1.31161
1204.83	0.961201
1207.72	1.17525
1210.61	3.07034
1213.5	2.21422
1216.39	3.19234
1219.29	2.75748
1222.18	0.278854
1225.07	1.73555
1227.97	2.72188
1230.86	2.84494
1233.75	2.93182
1236.64	4.25519
1239.54	3.29848
1242.43	3.48465
1245.32	1.85316
1248.21	2.64441
1251.11	0.410431
1254	3.50351
1256.89	1.06979
1259.79	3.87454
1262.68	2.45329
1265.57	0.183418
1268.46	0.537647
