Measurement: Raman, 532 nm, unoriented, Raman Data Processed
Mineral: Gahnite
Rruff sample: R070591
Ideal chemistry: ZnAl_2_O_4_
Locality: Jemaa, Kaduna, Nigeria
Source: James Shigley
Description: Blue octahedron
Raman shift (cm-1)	intensity
145.03	0
147.923	307.634
150.815	222.749
153.708	292.301
156.601	107.357
159.493	246.801
162.386	382.625
165.279	262.621
168.172	170.756
171.064	63.375
173.957	51.9829
176.85	90.9043
179.742	465.834
182.635	473.623
185.528	656.404
188.42	859.732
191.313	916.121
194.206	1599.94
197.099	1132.25
199.991	558.984
202.884	269.159
205.777	161.346
208.669	50.1773
211.562	118.257
214.455	171.343
217.347	87.0332
220.24	130.011
223.133	188.268
226.025	349.207
228.918	372.897
231.811	301.062
234.704	259.198
237.596	139.075
240.489	137.056
243.382	157.93
246.274	197.215
249.167	193.252
252.06	77.0181
254.952	0.42334
257.845	66.4678
260.738	101.412
263.631	47.165
266.523	93.1577
269.416	61.4653
272.309	74.9263
275.201	58.6924
278.094	33.0664
280.987	10.2476
283.879	115.61
286.772	37.812
289.665	20.5972
292.558	15.0229
295.45	94.8931
298.343	31.7578
301.236	46.2651
304.128	194.54
307.021	136.488
309.914	105.891
312.806	190.721
315.699	245.752
318.592	179.282
321.485	169.269
324.377	361.434
327.27	241.624
330.163	372.217
333.055	79.395
335.948	279.104
338.841	150.94
341.733	176.414
344.626	197.766
347.519	115.853
350.411	111.053
353.304	134.662
356.197	88.5107
359.09	185.618
361.982	221.493
364.875	409.092
367.768	379.839
370.66	278.104
373.553	270.647
376.446	280.678
379.339	281.55
382.231	368.547
385.124	577.313
388.017	834.887
390.909	1189.56
393.802	1766.03
396.695	2581.48
399.587	4783.43
402.48	8245.94
405.373	10155.1
408.265	12696.7
411.158	16937.6
414.051	26705.5
416.943	34325.8
419.836	16066.4
422.729	4732.92
425.622	1627.59
428.514	806.695
431.407	356.196
434.3	164.499
437.192	42.9009
440.085	53.3237
442.978	70.478
445.87	63.7461
448.763	55.1738
451.656	31.9814
454.549	2.62353
457.441	137.269
460.334	135.381
463.227	171.505
466.119	359.023
469.012	260.716
471.905	338.869
474.798	291.977
477.69	297.656
480.583	462.653
483.476	638.44
486.368	852.462
489.261	1146.71
492.154	1408.74
495.046	1504.94
497.939	1643.9
500.832	1922.4
503.724	2272.24
506.617	2409.96
509.51	1812.69
512.403	1266.86
515.295	916.663
518.188	626.816
521.081	392.881
523.973	255.399
526.866	215.669
529.759	181.499
532.652	21.2715
535.544	68.2593
538.437	120.908
541.33	3.45654
544.222	135.856
547.115	169.874
550.008	3.28809
552.9	12.9219
555.793	138.763
558.686	89.9648
561.578	110.042
564.471	188.802
567.364	189.759
570.256	214.382
573.149	305.872
576.042	292.952
578.935	214.44
581.827	195.145
584.72	255.221
587.613	461.687
590.505	413.275
593.398	480.08
596.291	512.419
599.183	433.429
602.076	454.75
604.969	468.371
607.862	395.65
610.754	611.275
613.647	864.38
616.54	1256.76
619.432	1548.03
622.325	1769.37
625.218	2283.97
628.111	2658.54
631.003	3124.63
633.896	3783.73
636.789	5050.22
639.681	7553.29
642.574	12081.3
645.467	18313.6
648.359	25388.9
651.252	35211.2
654.145	48159.1
657.038	55992.2
659.93	44853
662.823	26029.2
665.716	13705
668.608	7892.03
671.501	4612.99
674.394	2843.88
677.286	1973.66
680.179	1269.1
683.072	761.685
685.965	500.005
688.857	317.4
691.75	328.386
694.643	307.979
697.535	378.721
700.428	415.011
703.321	454.759
706.213	495.475
709.106	451.361
711.999	312.915
714.891	281.921
717.784	5.62793
720.677	1.5459
723.57	163.858
726.462	76.3208
729.355	29.625
732.248	32.9609
735.14	33.5249
738.033	107.45
740.926	181.132
743.818	218.492
746.711	353.003
749.604	550.891
752.496	577.955
755.389	690.206
758.282	738.401
761.175	783.901
764.067	812.39
766.96	832.134
769.853	843.005
772.745	870.451
775.638	831.256
778.531	663.294
781.423	623.507
784.316	642.378
787.209	429.746
790.102	378.829
792.994	386.847
795.887	336.288
798.78	240.706
801.672	355.278
804.565	263.621
807.458	157.818
810.351	151.177
813.243	229.439
816.136	73.4341
819.029	15.1172
821.921	7.94189
824.814	111.034
827.707	102.301
830.599	2.46631
833.492	74.2817
836.385	84.7778
839.278	0.038086
842.17	83.1812
845.063	114.759
847.956	233.266
850.848	85.0967
853.741	181.296
856.634	174.063
859.526	51.8374
862.419	166.862
865.312	116.542
868.205	86.0503
871.097	71.9619
873.99	161.581
876.883	14.794
879.775	75.7978
882.668	31.3701
885.561	121.234
888.453	81.7949
891.346	55.4307
894.239	72.1885
897.131	26.5459
900.024	80.5854
902.917	28.7852
905.81	46.1558
908.702	36.0249
911.595	18.7798
914.488	49.3501
917.38	61.457
920.273	29.4468
923.166	58.3203
926.058	35.8325
928.951	0.663574
931.844	89.6216
934.736	94.3262
937.629	78.9946
940.522	16.4004
943.415	61.9263
946.307	60.2285
949.2	67.0854
952.093	90.1938
954.985	137.752
957.878	223.841
960.771	121.398
963.663	205.252
966.556	220.187
969.449	203.491
972.342	144.192
975.234	160.037
978.127	155.726
981.02	208.093
983.912	183.677
986.805	228.571
989.698	324.944
992.591	196.832
995.483	270.299
998.376	167.221
1001.27	117.81
1004.16	148.462
1007.05	85.582
1009.95	7.73535
1012.84	68.9058
1015.73	94.2954
1018.62	84.3462
1021.52	6.24707
1024.41	56.1138
1027.3	162.564
1030.2	152.719
1033.09	99.9282
1035.98	177.31
1038.87	85.3882
1041.77	153.817
1044.66	170.49
1047.55	149.644
1050.44	116.576
1053.34	157.064
1056.23	136.617
1059.12	114.091
1062.02	183.698
1064.91	102.519
1067.8	109.912
1070.69	62.6636
1073.59	25.6245
1076.48	122.488
1079.37	6.36475
1082.26	97.9219
1085.16	42.666
1088.05	7.07373
1090.94	2.9668
1093.84	66.6738
1096.73	4.51416
1099.62	90.7236
1102.51	84.0322
1105.41	92.9619
1108.3	50.544
1111.19	115.488
1114.08	186.046
1116.98	126.33
1119.87	92.1411
1122.76	85.7832
1125.65	165.565
1128.55	132.397
1131.44	296.819
1134.33	72.8648
1137.22	207.098
1140.12	131.961
1143.01	54.6065
1145.9	121.137
1148.8	24.0977
1151.69	5.94092
1154.58	111.585
1157.47	53.2393
1160.37	36.1538
1163.26	112.832
1166.15	78.585
1169.05	161.87
1171.94	112.165
1174.83	208.914
1177.72	199.459
1180.62	204.328
1183.51	222.092
1186.4	215.246
1189.29	250.119
1192.19	225.428
1195.08	230.261
1197.97	196.703
1200.87	97.2441
1203.76	163.484
1206.65	72.6045
1209.54	60.398
1212.44	94.7295
1215.33	30.9502
1218.22	20.7734
1221.11	79.6235
1224.01	96.8887
1226.9	91.6411
1229.79	2.05908
1232.68	1.47607
1235.58	79.2095
1238.47	113.47
1241.36	49.8892
1244.26	165.791
1247.15	142.929
1250.04	71.0498
1252.93	84.3682
1255.83	188.151
1258.72	147.088
1261.61	63.936
