Measurement: Raman, 532 nm, unoriented, Raman Data Processed
Mineral: Gahnite
Rruff sample: R040027
Ideal chemistry: ZnAl_2_O_4_
Locality: Rowe, Franklin County, Massachusetts, USA
Source: University of Arizona Mineral Museum
Description: Dark blue octahedral single crystals embedded in quartz matrix
Measured chemistry: (Zn_0.83_Fe_0.11_Mg_0.06_)_Σ=1_(Al_0.96_Fe_0.04_)_Σ=2_O_4_
Raman shift (cm-1)	intensity
124.744	0
128.119	3.45015
131.494	8.63377
134.868	4.26312
138.243	8.53299
141.618	5.14352
144.993	6.62911
148.368	10.5647
151.742	13.5627
155.117	13.1771
158.492	7.43742
161.867	11.7437
165.242	7.90382
168.616	4.84027
171.991	5.42496
175.366	1.28868
178.741	4.84186
182.116	10.7335
185.49	10.0652
188.865	10.4129
192.24	13.7289
195.615	17.4421
198.99	8.74807
202.365	9.26353
205.739	11.0384
209.114	10.5148
212.489	10.1197
215.864	1.52354
219.239	1.9266
222.613	3.08906
225.988	5.11688
229.363	6.66637
232.738	4.37697
236.113	2.50393
239.488	0.02002
242.862	3.54767
246.237	0.267807
249.612	1.35432
252.987	1.45293
256.362	1.34903
259.736	0.403152
263.111	0.525742
266.486	3.62878
269.861	1.71948
273.236	2.05401
276.611	1.90653
279.985	2.24383
283.36	1.82264
286.735	2.59988
290.11	2.23813
293.485	4.08581
296.859	1.67345
300.234	3.59148
303.609	3.78461
306.984	2.12476
310.359	4.40064
313.733	1.49044
317.108	0.972961
320.483	1.9413
323.858	0.569092
327.233	0.069748
330.608	0.040932
333.982	1.26729
337.357	0.088402
340.732	1.2789
344.107	0.083817
347.482	4.77287
350.856	2.41398
354.231	3.23476
357.606	4.30646
360.981	5.62457
364.356	5.68793
367.731	7.71683
371.105	5.05976
374.48	2.11628
377.855	0.572205
381.23	6.91986
384.605	7.62878
387.979	16.1759
391.354	26.1465
394.729	44.2953
398.104	75.6721
401.479	124.887
404.853	156.678
408.228	212.73
411.603	325.455
414.978	442.051
418.353	275.906
421.728	84.7914
425.102	34.9306
428.477	22.6593
431.852	14.6264
435.227	10.5907
438.602	11.7003
441.976	3.49381
445.351	5.38798
448.726	1.67805
452.101	2.0788
455.476	1.40134
458.851	3.02622
462.225	6.51199
465.6	10.6138
468.975	16.6183
472.35	21.2748
475.725	22.7628
479.099	22.2938
482.474	18.7171
485.849	19.091
489.224	21.5695
492.599	20.9329
495.974	23.2487
499.348	23.4108
502.723	32.3444
506.098	39.8584
509.473	36.0546
512.848	25.1632
516.222	16.9564
519.597	13.5375
522.972	12.5489
526.347	9.60869
529.722	5.71101
533.097	4.05252
536.471	0.812698
539.846	2.31078
543.221	3.68939
546.596	2.60989
549.971	0.505081
553.346	4.23492
556.72	8.60545
560.095	11.5248
563.47	14.8143
566.845	19.3914
570.22	20.7513
573.594	18.4545
576.969	19.4568
580.344	17.3885
583.719	22.4613
587.094	27.3346
590.468	31.0768
593.843	34.28
597.218	38.5944
600.593	41.5754
603.968	50.6568
607.342	67.1257
610.717	87.2348
614.092	111.254
617.467	138.255
620.842	154.673
624.217	162.828
627.591	159.614
630.966	135.33
634.341	119.724
637.716	121.634
641.091	158.798
644.466	227.125
647.84	314.222
651.215	449.851
654.59	595.745
657.965	601.117
661.34	374.687
664.714	173.452
668.089	74.0822
671.464	29.9098
674.839	9.0726
678.214	1.21905
681.588	5.30191
684.963	4.72409
688.338	0.426224
691.713	11.0602
695.088	22.1099
698.462	30.4765
701.837	37.1832
705.212	38.7387
708.587	28.0094
711.962	21.8816
715.337	9.73852
718.711	1.68573
722.086	0.680893
725.461	0.525101
728.836	3.22836
732.211	8.69705
735.586	16.0277
738.96	25.5457
742.335	33.3656
745.71	47.5051
749.085	65.5861
752.46	77.3951
755.834	82.9881
759.209	74.1831
762.584	61.2323
765.959	48.9517
769.334	42.3909
772.708	33.506
776.083	27.8743
779.458	21.746
782.833	18.0736
786.208	12.4711
789.582	11.1619
792.957	8.64763
796.332	5.28777
799.707	4.39999
803.082	4.26935
806.457	1.35326
809.831	2.34213
813.206	0.341888
816.581	3.26078
819.956	0.088737
823.331	0.873734
826.706	0.600815
830.08	0.216866
833.455	0.558083
836.83	0.92939
840.205	0.27166
843.58	0.186852
846.954	0.02092
850.329	1.3376
853.704	1.12983
857.079	2.17968
860.454	2.52303
863.828	2.50737
867.203	2.21008
870.578	0.745056
873.953	0.963684
877.328	3.04077
880.703	2.13362
884.077	2.52074
887.452	0.814217
890.827	2.04592
894.202	1.31089
897.577	1.08574
900.952	1.06577
904.326	0.211761
907.701	0.012253
911.076	0.591217
914.451	1.133
917.826	1.32264
921.2	0.853813
924.575	0.131485
927.95	2.49348
931.325	1.31889
934.7	2.00369
938.074	1.68164
941.449	1.75291
944.824	1.28187
948.199	0.33535
951.574	2.83564
954.948	1.35658
958.323	0.179504
961.698	1.93493
965.073	1.59805
968.448	2.36083
971.823	2.41832
975.197	0.63382
978.572	1.66029
981.947	2.25648
985.322	0.394493
988.697	1.83914
992.072	4.38965
995.446	3.12614
998.821	3.626
1002.2	2.22616
1005.57	2.40128
1008.95	3.13474
1012.32	2.7521
1015.7	0.777527
1019.07	1.39302
1022.45	2.01443
1025.82	0.581093
1029.19	2.35544
1032.57	0.619003
1035.94	2.39287
1039.32	2.50001
1042.69	1.1422
1046.07	4.4662
1049.44	3.2985
1052.82	2.22909
1056.19	2.35227
1059.57	0.986992
1062.94	1.43253
1066.32	2.13593
1069.69	0.136459
1073.07	0.678688
1076.44	1.7983
1079.82	1.76316
1083.19	1.18586
1086.57	0.534515
1089.94	1.70612
1093.32	1.29645
1096.69	0.902214
1100.07	1.15057
1103.44	0.959473
1106.82	2.70328
1110.19	0.273003
1113.57	1.1097
1116.94	1.73063
1120.31	1.74647
1123.69	2.80059
1127.06	3.27583
1130.44	1.63243
1133.81	2.84538
1137.19	3.80261
1140.56	1.80577
1143.94	2.3982
1147.31	0.019745
1150.69	0.856728
1154.06	2.84211
1157.44	2.38932
1160.81	2.66371
1164.19	0.94075
1167.56	2.23096
1170.94	2.60714
1174.31	3.34127
1177.69	3.14132
1181.06	5.95354
1184.44	3.67678
1187.81	4.11909
1191.19	5.8427
1194.56	2.83392
1197.93	2.53793
1201.31	5.32039
1204.68	3.5339
1208.06	0.404335
1211.43	0.917358
1214.81	1.48252
1218.18	0.518768
1221.56	0.512604
1224.93	4.91943
1228.31	2.70177
1231.68	0.634369
1235.06	4.80345
1238.43	3.20554
1241.81	3.72279
1245.18	4.53613
1248.56	4.48219
1251.93	5.34966
1255.31	4.52467
1258.68	6.73863
1262.06	3.04618
1265.43	5.74932
1268.81	4.76145
1272.18	3.02054
1275.56	2.83034
1278.93	1.81522
1282.31	0.211037
1285.68	1.68465
