Measurement: Raman, 514 nm, unoriented, Raman Data Processed
Mineral: Gahnite
Rruff sample: R040027
Ideal chemistry: ZnAl_2_O_4_
Locality: Rowe, Franklin County, Massachusetts, USA
Source: University of Arizona Mineral Museum
Description: Dark blue octahedral single crystals embedded in quartz matrix
Measured chemistry: (Zn_0.83_Fe_0.11_Mg_0.06_)_Σ=1_(Al_0.96_Fe_0.04_)_Σ=2_O_4_
Raman shift (cm-1)	intensity
103.124	0
107.3	198.058
111.473	50.79
115.644	227.997
119.813	117.391
123.981	109.952
128.146	7.842
132.309	32.374
136.47	35.603
140.63	98.899
144.787	24.665
148.942	71.642
153.096	26.438
157.247	66.284
161.396	167.287
165.544	209.789
169.689	176.899
173.833	171.003
177.974	179.593
182.114	219.181
186.251	291.774
190.387	328.417
194.52	413.703
198.652	461.124
202.782	507.201
206.909	648.269
211.035	309.773
215.159	106.608
219.281	158.234
223.4	59.54
227.518	41.705
231.634	2.288
235.748	1.361
239.86	43.804
243.97	4.337
248.079	36.04
252.185	7.005
256.289	0.391
260.391	52.709
264.492	43.483
268.59	11.613
272.687	16.086
276.781	3.661
280.874	18.198
284.964	20.658
289.053	26.6
293.14	21.56
297.225	0.894
301.308	60.258
305.389	52.552
309.468	55.002
313.545	88.468
317.62	146.02
321.693	82.728
325.765	150.232
329.834	127.512
333.902	162.411
337.967	162.782
342.031	136.59
346.093	181.293
350.153	186.465
354.21	228.416
358.267	237.163
362.321	236.667
366.373	248.911
370.423	244.068
374.471	227.158
378.518	222.766
382.563	248.64
386.605	288.741
390.646	421.174
394.685	535.763
398.722	759.936
402.757	1044.17
406.79	1964.12
410.821	5300.87
414.851	7074.19
418.878	4420.99
422.904	1439.5
426.927	562.594
430.949	351.78
434.969	286.357
438.987	208.4
443.003	176.189
447.018	147.408
451.03	72.996
455.041	39.812
459.049	43.177
463.056	34.539
467.061	37.989
471.064	99.32
475.065	144.092
479.064	72.954
483.062	75.871
487.057	39.958
491.051	68.036
495.043	33.065
499.032	27.209
503.02	0.381
507.007	25.576
510.991	38.797
514.973	70.052
518.954	63.346
522.933	127.31
526.91	110.24
530.885	56.682
534.858	3.173
538.829	6.719
542.799	11.677
546.766	9.988
550.732	20.674
554.696	71.049
558.658	100.307
562.618	138.316
566.576	170.531
570.533	174.028
574.488	180.561
578.44	188.286
582.391	212.184
586.341	198.208
590.288	311.349
594.233	396.342
598.177	399.038
602.119	422.561
606.059	523.209
609.997	675.991
613.933	978.938
617.868	1362.05
621.801	1617.27
625.731	1706.61
629.66	1505.05
633.588	1198.58
637.513	803.183
641.437	756.866
645.358	806.626
649.278	1098.46
653.196	1597.36
657.113	1993.35
661.027	1521.39
664.94	640.283
668.851	232.815
672.76	70.733
676.667	17.941
680.572	22.19
684.476	10.585
688.378	145.045
692.278	254.566
696.176	412.968
700.072	614.603
703.967	743.508
707.86	704.799
711.751	535.959
715.64	362.243
719.527	273.754
723.413	229.283
727.297	243.216
731.179	238.361
735.059	286.855
738.937	354.836
742.814	469.49
746.689	696.781
750.562	887.479
754.433	1124.1
758.303	1108.49
762.17	976.145
766.036	795.8
769.901	649.972
773.763	553.917
777.624	469.194
781.482	389.777
785.339	334.145
789.195	297.84
793.048	257.585
796.9	223.037
800.75	183.423
804.598	203.937
808.445	196.211
812.289	155.661
816.132	119.856
819.973	113.999
823.813	63.119
827.65	20.337
831.486	42.015
835.32	55.27
839.152	56.214
842.983	52.17
846.812	63.105
850.639	0.994
854.464	15.863
858.288	48.697
862.11	20.577
865.93	2.366
869.748	35.112
873.564	15.207
877.379	12.683
881.192	45.69
885.004	12.002
888.813	12.814
892.621	26.887
896.427	22.196
900.232	5.068
904.034	5.188
907.835	17.445
911.634	21.008
915.432	21.501
919.227	25.855
923.021	19.113
926.813	57.283
930.604	27.142
934.393	36.354
938.18	18.376
941.965	11.153
945.749	48.917
949.53	36.509
953.311	59.06
957.089	40.521
960.866	45.913
964.641	53.216
968.414	86.489
972.185	117.7
975.955	32.873
979.723	136.062
983.49	112.06
987.254	104.746
991.017	133.696
994.779	128.117
998.538	146.993
1002.3	184.754
1006.05	122.078
1009.81	61.014
1013.56	143.531
1017.31	90.777
1021.06	130.404
1024.81	115.981
1028.55	113.203
1032.3	122.842
1036.04	126.664
1039.78	92.246
1043.52	95.612
1047.26	80.823
1050.99	151.108
1054.73	62.797
1058.46	130.168
1062.19	97.424
1065.92	76.585
1069.65	64.477
1073.37	78.271
1077.1	74.959
1080.82	101.007
1084.54	13.853
1088.26	51.628
1091.97	51.956
1095.69	69.828
1099.4	62.509
1103.12	56.251
1106.83	49.988
1110.54	86.334
1114.24	40.554
1117.95	89.82
1121.65	45.303
1125.35	17.459
1129.06	56.138
1132.75	39.329
1136.45	27.662
1140.15	29.925
1143.84	29.684
1147.53	30.315
1151.22	44.66
1154.91	5.861
1158.6	31.979
1162.28	29.035
1165.97	5.383
1169.65	11.129
1173.33	5
1177.01	25.681
1180.69	5.445
1184.36	16.076
1188.04	37.762
1191.71	57.003
1195.38	79.135
1199.05	38.716
1202.71	13.294
1206.38	47.846
1210.04	49.386
1213.71	55.944
1217.37	29.519
1221.03	0.983
1224.68	41.489
1228.34	42.479
1231.99	50.206
1235.65	44.643
1239.3	36.058
1242.95	80.378
1246.59	41.743
1250.24	57.083
1253.88	42.39
1257.53	59.685
1261.17	69.912
1264.81	69.161
1268.45	54.281
1272.08	75.233
1275.72	22.307
1279.35	73.272
1282.98	53.076
1286.61	40.617
1290.24	21.063
1293.87	12.703
1297.49	33.203
1301.11	3.14
1304.73	27.682
1308.36	4.585
1311.97	74.749
1315.59	2.115
1319.2	34.49
1322.82	28.851
1326.43	53.331
1330.04	72.882
1333.65	56.566
1337.26	13.339
1340.86	62.139
1344.47	51.795
1348.07	56.254
1351.67	50.003
1355.27	60.305
1358.87	29.205
1362.46	40.558
1366.06	59.155
1369.65	83.091
1373.24	62.918
1376.83	95.735
1380.42	46.251
1384	52.876
1387.59	84.833
1391.17	78.66
1394.75	127.367
1398.33	34.136
1401.91	45.884
1405.49	101.299
1409.06	94.457
1412.64	68.973
1416.21	59.922
1419.78	82.988
1423.35	72.827
1426.91	95.365
1430.48	72.068
1434.05	46.618
1437.61	63.386
1441.17	67.128
1444.73	45.746
1448.29	78.402
1451.84	32.091
1455.4	46.739
1458.95	70.425
1462.5	110.114
1466.05	29.787
1469.6	43.49
1473.15	53.391
1476.69	30.501
1480.24	73.656
1483.78	49.947
1487.32	45.316
1490.86	67.8
1494.39	56.952
1497.93	79.689
1501.46	10.318
1505	54.742
1508.53	4.18
1512.06	70.909
1515.59	52.225
1519.11	53.948
1522.64	54.511
1526.16	48.141
