Measurement: Raman, 780 nm, unoriented, Raman Data Processed
Mineral: Gaidonnayite
Rruff sample: R140540
Ideal chemistry: Na_2_Zr^4+^Si_3_O_9_2H_2_O
Locality: Prefeitura quarry, Pocos de Caldas, Minas Gerais, Brazil
Source: Luiz Menezes
Description: Isolated colorless or grey granular crystals
Raman shift (cm-1)	intensity
146.521	0
149.414	4.43884
152.307	15.9751
155.199	20.7437
158.092	23.3603
160.985	21.111
163.877	25.1263
166.77	25.1116
169.663	30.7389
172.555	34.9748
175.448	34.5919
178.341	27.8403
181.234	16.9871
184.126	7.34381
187.019	1.42273
189.912	0.754639
192.804	0.449463
195.697	1.73602
198.59	3.37665
201.482	1.79578
204.375	2.10242
207.268	0.401123
210.161	1.3139
213.053	0.81134
215.946	3.31867
218.839	10.6398
221.731	15.3447
224.624	25.084
227.517	30.645
230.409	34.5167
233.302	42.2789
236.195	49.9911
239.088	58.7364
241.98	67.9943
244.873	72.1507
247.766	65.3326
250.658	55.957
253.551	47.7062
256.444	41.8332
259.336	36.7186
262.229	38.4201
265.122	38.3312
268.014	33.1621
270.907	24.4432
273.8	20.731
276.693	14.5931
279.585	10.6705
282.478	7.68994
285.371	2.15906
288.263	3.09674
291.156	2.6806
294.049	3.00415
296.942	3.84552
299.834	4.72394
302.727	8.18372
305.62	9.67474
308.512	6.90521
311.405	15.566
314.298	22.4324
317.19	25.8252
320.083	30.0744
322.976	39.0786
325.868	49.46
328.761	56.0568
331.654	54.1174
334.547	58.1679
337.439	58.619
340.332	49.1196
343.225	42.605
346.117	24.8704
349.01	15.6819
351.903	12.3835
354.796	12.4158
357.688	14.3262
360.581	14.1379
363.474	14.5631
366.366	17.5544
369.259	22.4209
372.152	21.5267
375.044	14.3683
377.937	9.85492
380.83	7.01459
383.722	0.648499
386.615	1.1701
389.508	3.6283
392.401	3.5766
395.293	2.85532
398.186	1.88471
401.079	2.88043
403.971	4.55457
406.864	7.22195
409.757	8.1395
412.649	6.45471
415.542	3.68384
418.435	2.05344
421.327	0.156555
424.22	0.350281
427.113	0.988678
430.006	2.74136
432.898	2.25034
435.791	3.37237
438.684	4.92758
441.576	7.14008
444.469	11.8021
447.362	9.43756
450.255	12.979
453.147	13.441
456.04	16.3359
458.933	15.8188
461.825	10.4646
464.718	10.2863
467.611	10.1159
470.503	13.6323
473.396	15.0701
476.289	21.5461
479.182	27.9462
482.074	30.145
484.967	28.0608
487.86	25.7637
490.752	23.6711
493.645	21.8052
496.538	17.8956
499.43	18.4914
502.323	25.5721
505.216	30.5618
508.108	48.0214
511.001	73.2908
513.894	112.35
516.787	185.9
519.679	281.627
522.572	360.558
525.465	317.993
528.357	197.659
531.25	113.339
534.143	72.3904
537.035	51.0963
539.928	40.1945
542.821	32.56
545.713	25.2735
548.606	17.8563
551.499	13.7658
554.392	9.13702
557.284	4.81781
560.177	2.37619
563.07	2.03174
565.962	4.22562
568.855	1.82263
571.748	3.07492
574.64	3.2193
577.533	2.81815
580.426	0.303802
583.319	1.22595
586.211	0.044098
589.104	2.59329
591.997	0.188049
594.889	1.53958
597.782	0.372437
600.675	0.146423
603.567	0.548035
606.46	0.115021
609.353	0.960876
612.246	1.96271
615.138	1.79849
618.031	1.08585
620.924	2.21182
623.816	2.74048
626.709	3.00546
629.602	4.4379
632.494	2.61438
635.387	3.92456
638.28	2.88626
641.173	5.12256
644.065	4.29269
646.958	3.66531
649.851	0.176849
652.743	2.76269
655.636	8.15924
658.529	8.81357
661.421	12.3618
664.314	14.5025
667.207	15.9881
670.1	21.5419
672.992	26.2129
675.885	34.3139
678.778	38.7921
681.67	45.2104
684.563	44.5337
687.456	38.1526
690.348	32.5918
693.241	23.8341
696.134	17.5992
699.027	12.6702
701.919	6.59946
704.812	5.22839
707.705	3.52966
710.597	1.26794
713.49	2.13687
716.383	0.63916
719.275	1.21814
722.168	2.31616
725.061	0.225677
727.953	2.37601
730.846	3.09207
733.739	5.4552
736.632	9.52585
739.524	10.9995
742.417	13.5941
745.31	16.9415
748.202	13.5982
751.095	10.9284
753.988	10.919
756.88	8.41342
759.773	7.39587
762.666	3.95425
765.559	5.59592
768.451	2.59695
771.344	5.33484
774.237	1.55426
777.129	3.13675
780.022	2.98077
782.915	1.71262
785.808	0.835541
788.7	0.051514
791.593	1.1084
794.486	2.26486
797.378	4.60648
800.271	0.450348
803.164	3.42963
806.056	2.77362
808.949	2.35657
811.842	2.06232
814.734	1.28418
817.627	0.109406
820.52	5.1315
823.413	2.72855
826.305	3.58023
829.198	0.006836
832.091	3.40631
834.983	2.47949
837.876	2.14301
840.769	0.260406
843.661	1.35925
846.554	2.32873
849.447	0.771698
852.34	0.520874
855.232	0.573334
858.125	0.754395
861.018	0.775146
863.91	0.777496
866.803	0.851685
869.696	0.133209
872.588	1.215
875.481	1.13425
878.374	0.410797
881.266	1.58167
884.159	1.5556
887.052	2.03076
889.945	4.57568
892.837	6.4682
895.73	6.38297
898.623	8.54092
901.515	13.8074
904.408	19.264
907.301	31.3697
910.193	40.9995
913.086	57.1898
915.979	80.4687
918.872	120.812
921.764	176.527
924.657	234.798
927.55	244.685
930.442	185.921
933.335	130.883
936.228	92.3136
939.12	66.9791
942.013	47.5485
944.906	39.3568
947.799	31.8652
950.691	26.6854
953.584	22.2044
956.477	22.8896
959.369	17.639
962.262	13.0874
965.155	13.3209
968.047	7.84164
970.94	9.53256
973.833	10.5659
976.726	5.19269
979.618	8.37384
982.511	5.67325
985.404	3.85184
988.296	4.82928
991.189	2.5899
994.082	1.96887
996.974	1.93845
999.867	1.4921
1002.76	2.41589
1005.65	0.94519
1008.54	1.10522
1011.44	1.88913
1014.33	2.55264
1017.22	1.68289
1020.12	4.29703
1023.01	2.59112
1025.9	7.8808
1028.79	6.96545
1031.69	9.54871
1034.58	16.227
1037.47	19.1993
1040.37	26.3636
1043.26	27.0129
1046.15	31.1032
1049.04	35.6141
1051.94	42.0977
1054.83	50.9135
1057.72	56.5099
1060.61	53.7223
1063.51	40.6671
1066.4	26.7368
1069.29	16.2109
1072.18	10.8778
1075.08	7.66455
1077.97	7.87384
1080.86	5.72263
1083.76	5.03287
1086.65	9.26205
1089.54	7.73477
1092.43	8.44345
1095.33	4.57529
1098.22	6.63232
1101.11	3.46054
1104	4.12018
1106.9	4.83844
1109.79	1.73862
1112.68	2.98563
1115.58	1.63525
1118.47	0.620331
1121.36	0.639374
1124.25	2.51425
1127.15	2.20004
1130.04	0.437988
1132.93	0.100433
1135.82	1.29617
1138.72	1.68344
1141.61	1.91653
1144.5	1.7568
1147.39	1.47748
1150.29	3.7149
1153.18	2.99387
1156.07	0.276123
1158.97	4.51279
1161.86	3.79816
1164.75	1.86054
1167.64	5.51584
1170.54	5.84204
1173.43	5.83362
1176.32	5.92374
1179.21	6.44089
1182.11	6.48325
1185	6.60629
1187.89	4.44852
1190.79	5.91571
1193.68	3.73495
1196.57	4.20206
1199.46	5.08762
1202.36	5.87579
1205.25	3.41693
1208.14	2.9079
1211.03	1.62729
1213.93	5.55887
1216.82	2.18954
1219.71	3.28549
1222.61	0.79718
1225.5	0.114807
1228.39	3.72302
1231.28	1.67056
1234.18	2.94745
1237.07	2.80551
1239.96	0.009094
1242.85	1.77652
1245.75	2.13651
1248.64	3.53195
1251.53	3.47534
1254.42	3.90216
1257.32	4.94177
1260.21	8.4209
1263.1	5.52609
1265.99	8.46002
1268.89	8.85782
1271.78	5.59174
1274.67	5.16138
1277.57	0.906982
1280.46	1.84079
1283.35	2.86786
