Measurement: Raman, 785 nm, unoriented, Raman Data Processed
Mineral: Gaidonnayite
Rruff sample: R070472
Ideal chemistry: Na_2_ZrSi_3_O_9_2H_2_O
Locality: Poudrette quarry (Demix quarry; Uni-Mix quarry; Desourdy quarry), Mont Saint-Hilaire, Rouville County, Qu√©bec, Canada
Source: Michael Scott
Description: Colorless to light brown prismatic crystals, co-type material, associated with colorless albite and pyrite. Fluoresces green under short wave ultraviolet light.
Raman shift (cm-1)	intensity
163.826	0
166.718	92.3936
169.611	75.54
172.504	215.772
175.396	180.863
178.289	207.873
181.182	77.0244
184.075	77.3301
186.967	173.129
189.86	264.744
192.753	272.716
195.645	269.504
198.538	225.001
201.431	88.6519
204.323	24.2236
207.216	85.9341
210.109	142.259
213.001	49.248
215.894	14.9502
218.787	155.818
221.68	359.9
224.572	591.116
227.465	781.81
230.358	927.41
233.25	1279.49
236.143	1433.64
239.036	1640.59
241.929	1690.14
244.821	1679.48
247.714	1559.54
250.607	1393.77
253.499	1322.76
256.392	1185.61
259.285	1122.64
262.177	1038.22
265.07	1033.75
267.963	926.833
270.856	879.339
273.748	769.537
276.641	631.56
279.534	547.898
282.426	516.169
285.319	479.165
288.212	410.685
291.104	536.578
293.997	619.666
296.89	765.386
299.783	953.079
302.675	1150.18
305.568	1262.28
308.461	1442.61
311.353	1744.75
314.246	1940.89
317.139	2210.79
320.031	2622.57
322.924	3066.5
325.817	3520.36
328.709	4048.88
331.602	4582.24
334.495	5083.41
337.388	5471.75
340.28	5699.71
343.173	4037.56
346.066	2166.49
348.958	1450.11
351.851	1131.62
354.744	898.08
357.637	929.004
360.529	895.466
363.422	1014.65
366.315	1117.79
369.207	1047.3
372.1	1109.04
374.993	976.583
377.885	642.939
380.778	98.4307
383.671	157.676
386.563	172.678
389.456	148.368
392.349	65.8159
395.242	73.5024
398.134	38.521
401.027	199.281
403.92	79.4082
406.812	163.514
409.705	152.546
412.598	70.1123
415.49	49.6763
418.383	95.2534
421.276	61.6245
424.169	55.8296
427.061	66.1357
429.954	194.519
432.847	232.212
435.739	354.383
438.632	395.194
441.525	600.43
444.418	680.491
447.31	863.435
450.203	1031.14
453.096	1150.53
455.988	1209.2
458.881	1033.75
461.774	973.012
464.666	871.957
467.559	987.063
470.452	1254.65
473.344	1785.27
476.237	2118.8
479.13	2296.7
482.023	1826.78
484.915	1360.52
487.808	1094.13
490.701	891.934
493.593	864.125
496.486	993.607
499.379	1440.49
502.272	2214.98
505.164	3650.75
508.057	5773.77
510.95	8566.05
513.842	12179.2
516.735	16410.9
519.628	19548
522.52	18316.2
525.413	13018.7
528.306	8225.08
531.198	5305.13
534.091	3551.85
536.984	2566.13
539.877	1887.04
542.769	1303.05
545.662	946.525
548.555	630.287
551.447	457.952
554.34	348.238
557.233	211.262
560.125	221.664
563.018	185.048
565.911	83.8037
568.804	29.9233
571.696	27.1777
574.589	28.1973
577.482	16.9609
580.375	2.06348
583.267	4.34619
586.16	16.1782
589.053	106.572
591.945	12.7822
594.838	91.7046
597.731	45.2178
600.623	39.5039
603.516	3.05273
606.409	15.7769
609.301	7.69922
612.194	47.5405
615.087	7.29492
617.98	35.5059
620.872	57.4473
623.765	154.117
626.658	104.412
629.55	167.822
632.443	229.448
635.336	226.64
638.228	255.141
641.121	253.134
644.014	340.393
646.907	376.916
649.799	283.094
652.692	444.761
655.585	552.227
658.477	619.082
661.37	727.597
664.263	910.714
667.155	1153.94
670.048	1522.19
672.941	1757.79
675.833	2118.5
678.726	2286.65
681.619	2294.37
684.512	2220.25
687.404	1847.54
690.297	1434.36
693.19	1072.48
696.082	906.931
698.975	742.2
701.868	571.519
704.76	397.185
707.653	199.713
710.546	113.398
713.439	43
716.331	51.3252
719.224	111.789
722.117	142.834
725.009	203.95
727.902	308.973
730.795	391.501
733.688	573.634
736.58	714.969
739.473	899.6
742.366	893.36
745.258	764.183
748.151	523.527
751.044	411.188
753.936	293.317
756.829	177.318
759.722	218.051
762.615	262.613
765.507	204.706
768.4	146.613
771.293	110.635
774.185	36.168
777.078	20.7588
779.971	26.8828
782.863	7.61426
785.756	11.8057
788.649	49.7148
791.542	51.2315
794.434	106.559
797.327	110.957
800.22	128.522
803.112	48.3457
806.005	65.1865
808.898	11.2715
811.79	33.2647
814.683	16.5977
817.576	29.124
820.468	35.5898
823.361	95.1113
826.254	46.5918
829.147	84.1436
832.039	73.0654
834.932	54.5938
837.825	41.9766
840.717	30.2627
843.61	13.4434
846.503	93.0508
849.395	43.4209
852.288	38.5225
855.181	9.24219
858.074	27.5439
860.966	69.7266
863.859	94.1279
866.752	10.6475
869.644	6.70996
872.537	41.0957
875.43	40.3086
878.322	78.7451
881.215	186.35
884.108	376.56
887.001	455.941
889.893	660.368
892.786	903.575
895.679	1140.13
898.571	1385.68
901.464	1842.06
904.357	2308.17
907.25	3117.4
910.142	4031.66
913.035	5339.31
915.928	6597.65
918.82	8005.63
921.713	8831.13
924.606	8586.9
927.498	7624.34
930.391	6692.96
933.284	5751.7
936.177	4761.22
939.069	3740.32
941.962	3096.16
944.855	2600.34
947.747	2209.54
950.64	1807.26
953.533	1580.69
956.425	1312.44
959.318	1112.44
962.211	964.219
965.104	986.807
967.996	891.812
970.889	824.893
973.782	843.027
976.674	720.519
979.567	721.269
982.46	665.652
985.352	502.269
988.245	391.062
991.138	275.712
994.03	96.1934
996.923	64.3955
999.816	79.0029
1002.71	48.2207
1005.6	36.1455
1008.49	4.61719
1011.39	57.1738
1014.28	108.434
1017.17	223.367
1020.07	329.117
1022.96	524.332
1025.85	703.807
1028.74	1039.77
1031.64	1398.2
1034.53	1799.48
1037.42	1878.86
1040.31	1945.12
1043.21	2034.17
1046.1	1958.78
1048.99	1889.09
1051.88	1806.55
1054.78	1657.66
1057.67	1264.53
1060.56	1081.86
1063.45	681.778
1066.35	527.891
1069.24	377.994
1072.13	372.545
1075.03	244.298
1077.92	252.296
1080.81	218.466
1083.7	244.839
1086.6	121.185
1089.49	195.398
1092.38	83.8955
1095.28	108.708
1098.17	120.404
1101.06	104.699
1103.95	119.099
1106.85	28.6602
1109.74	35.1953
1112.63	27.1953
1115.52	4.85254
1118.42	82.3057
1121.31	49.2647
1124.2	6.69531
1127.1	11.4199
1129.99	27.7842
1132.88	96.9561
1135.77	20.7969
1138.67	78.6963
1141.56	70.2178
1144.45	152.647
1147.34	65.1602
1150.24	101.497
1153.13	121.992
1156.02	33.7275
1158.91	43.3594
1161.81	63.5234
1164.7	38.1631
1167.59	94.8242
1170.48	32.4531
1173.38	119.003
1176.27	38.751
1179.16	7.0625
1182.06	61.1221
1184.95	90.2734
1187.84	61.8203
1190.73	59.2022
1193.63	47.4815
1196.52	51.6885
1199.41	113.01
1202.31	86.9658
1205.2	74.1006
1208.09	139.85
1210.98	117.302
1213.88	162.645
1216.77	98.1689
1219.66	12.5547
1222.55	84.2481
1225.45	121.73
1228.34	136.256
1231.23	131.549
1234.12	19.7852
1237.02	104.084
1239.91	131.363
1242.8	47.1699
