Measurement: Raman, 780 nm, unoriented, Raman Data Processed
Mineral: Galeite
Rruff sample: R130025
Ideal chemistry: Na_15_(S^6+^O_4_)_5_ClF_4_
Locality: Searles Lake, Trona, San Bernardino County, California, USA
Source: Marcus Origlieri
Description: Colorless hexagonal prisms with tapering pyramidal terminations, associated with gaylussite
Raman shift (cm-1)	intensity
109.52	0
112.895	4.48132
116.27	6.59399
119.644	7.97861
123.019	10.0989
126.394	8.64246
129.769	7.42496
133.144	3.10651
136.518	4.81638
139.893	5.16055
143.268	4.39981
146.643	3.43387
150.018	2.73593
153.393	4.21195
156.767	0.205231
160.142	1.49338
163.517	1.21628
166.892	0.850769
170.267	0.495728
173.642	1.91513
177.016	2.60977
180.391	1.07773
183.766	3.24158
187.141	2.84686
190.516	3.5891
193.89	1.85268
197.265	1.13753
200.64	2.37794
204.015	4.20906
207.39	3.8857
210.764	8.07027
214.139	6.88229
217.514	7.93942
220.889	7.71716
224.264	7.33623
227.638	4.61197
231.013	4.61577
234.388	4.78773
237.763	5.58388
241.138	4.28477
244.513	2.6093
247.887	3.52951
251.262	0.014923
254.637	0.584473
258.012	0.249268
261.387	0.773529
264.762	0.711014
268.136	0.947723
271.511	1.4073
274.886	1.74779
278.261	0.846252
281.635	0.957397
285.01	2.2758
288.385	2.42827
291.76	3.23395
295.135	1.74693
298.51	3.92514
301.884	1.92979
305.259	1.97783
308.634	1.88437
312.009	3.31592
315.384	3.69452
318.759	3.11083
322.133	2.21948
325.508	2.50355
328.883	3.57869
332.258	2.69882
335.633	3.19583
339.007	4.32907
342.382	6.26936
345.757	8.74568
349.132	13.9618
352.507	17.8521
355.882	17.6951
359.256	16.615
362.631	14.5627
366.006	12.5839
369.381	10.8429
372.755	8.85353
376.13	4.81607
379.505	3.92802
382.88	3.563
386.255	1.25264
389.63	0.124222
393.004	0.130783
396.379	0.089813
399.754	0.984955
403.129	0.103638
406.504	1.68906
409.878	0.212112
413.253	1.76025
416.628	0.216675
420.003	1.60437
423.378	4.15779
426.753	3.05839
430.127	3.27071
433.502	4.11139
436.877	4.04716
440.252	3.99272
443.627	5.61853
447.001	7.96309
450.376	13.0184
453.751	18.4222
457.126	30.6431
460.501	41.6763
463.875	52.6175
467.25	63.3151
470.625	66.453
474	44.2158
477.375	18.9681
480.75	11.4988
484.124	10.6832
487.499	9.28769
490.874	11.1257
494.249	12.5548
497.624	14.5357
500.998	13.5102
504.373	15.6606
507.748	10.7199
511.123	7.71095
514.498	4.22234
517.873	1.24538
521.247	0.661194
524.622	1.27509
527.997	1.66147
531.372	0.226334
534.747	0.577789
538.121	0.154312
541.496	0.65802
544.871	0.712799
548.246	0.389359
551.621	0.250595
554.995	0.114365
558.37	0.036942
561.745	1.00003
565.12	1.82057
568.495	1.09384
571.87	0.784592
575.244	0.659821
578.619	0.017029
581.994	2.38568
585.369	2.92882
588.744	2.70152
592.119	2.78906
595.493	4.7329
598.868	5.30553
602.243	7.09395
605.618	8.92596
608.993	7.83313
612.367	11.1195
615.742	13.1334
619.117	22.0908
622.492	37.7873
625.867	46.4333
629.241	63.6962
632.616	78.6335
635.991	75.3206
639.366	31.1556
642.741	9.76709
646.115	5.36932
649.49	4.16322
652.865	2.8918
656.24	3.61363
659.615	4.33713
662.99	2.9852
666.364	2.40669
669.739	3.06783
673.114	0.926254
676.489	1.38472
679.864	1.70064
683.239	1.94432
686.613	0.799362
689.988	1.29622
693.363	1.06662
696.738	0.155792
700.112	0.156448
703.487	0.385284
706.862	0.333969
710.237	0.338943
713.612	0.528946
716.987	0.539536
720.361	1.87381
723.736	0.958221
727.111	1.34878
730.486	1.93324
733.861	2.15634
737.236	1.65326
740.61	1.20392
743.985	1.33585
747.36	1.69882
750.735	1.56222
754.11	1.5069
757.484	1.70352
760.859	1.46924
764.234	1.26434
767.609	1.67297
770.984	1.46707
774.359	2.59766
777.733	0.896652
781.108	1.17036
784.483	0.043869
787.858	0.913834
791.232	0.845032
794.607	0.211624
797.982	1.29677
801.357	0.488083
804.732	2.3508
808.107	3.85207
811.481	5.6288
814.856	2.67931
818.231	1.78436
821.606	1.01909
824.981	3.19084
828.356	1.48572
831.73	0.914215
835.105	0.471863
838.48	1.05583
841.855	2.53783
845.23	5.38908
848.604	11.3264
851.979	16.5778
855.354	21.1214
858.729	21.3923
862.104	13.697
865.479	8.6087
868.853	5.81165
872.228	3.88587
875.603	1.57621
878.978	1.61397
882.352	1.56175
885.727	0.136444
889.102	0.689377
892.477	0.068481
895.852	0.030769
899.227	0.245895
902.601	0.492401
905.976	0.660774
909.351	0.536301
912.726	1.68954
916.101	1.14889
919.476	0.88723
922.85	0.065361
926.225	0.362297
929.6	1.31988
932.975	0.34816
936.35	1.20868
939.724	0.817116
943.099	0.7005
946.474	0.434219
949.849	0.043945
953.224	1.49374
956.598	1.5503
959.973	1.47082
963.348	2.34787
966.723	3.00436
970.098	3.4929
973.472	5.11451
976.847	9.26819
980.222	17.2989
983.597	29.9721
986.972	64.8449
990.347	175.501
993.721	387.336
997.096	429.244
1000.47	281.937
1003.85	203.96
1007.22	78.3503
1010.6	27.2868
1013.97	14.639
1017.35	10.4024
1020.72	7.03095
1024.1	7.79433
1027.47	6.71014
1030.84	4.58199
1034.22	5.51984
1037.59	4.53329
1040.97	4.11893
1044.34	2.74179
1047.72	2.18369
1051.09	2.45136
1054.47	2.44618
1057.84	2.85582
1061.22	1.70637
1064.59	0.273529
1067.97	0.376869
1071.34	0.583244
1074.72	2.15179
1078.09	0.447159
1081.47	0.321518
1084.84	1.08019
1088.22	1.39767
1091.59	4.66518
1094.97	7.45953
1098.34	14.4461
1101.71	20.0483
1105.09	17.1822
1108.46	15.8641
1111.84	15.8554
1115.21	17.8932
1118.59	18.4376
1121.96	25.2348
1125.34	42.303
1128.71	53.4218
1132.09	29.3857
1135.46	15.5229
1138.84	8.49894
1142.21	5.52753
1145.59	5.68189
1148.96	3.73444
1152.34	5.00078
1155.71	5.56651
1159.09	4.19537
1162.46	4.14475
1165.84	6.81475
1169.21	10.1987
1172.59	4.7868
1175.96	3.20199
1179.34	1.95662
1182.71	2.89108
1186.09	1.78684
1189.46	2.85705
1192.84	1.29585
1196.21	0.018967
1199.59	1.15304
1202.96	0.694664
1206.34	0.012459
1209.71	0.29673
1213.08	0.133522
1216.46	0.324066
1219.83	0.343071
1223.21	1.043
1226.58	0.961288
1229.96	0.488991
1233.33	1.17081
1236.71	2.30506
1240.08	2.13254
1243.46	1.64982
1246.83	1.31485
1250.21	2.28037
1253.58	0.298286
1256.96	0.499962
1260.33	0.160866
1263.71	1.42948
1267.08	1.11877
1270.46	1.24686
1273.83	1.77486
1277.21	0.721191
1280.58	0.483437
1283.95	0
