Measurement: Raman, 532 nm, unoriented, Raman Data Processed
Mineral: Galeite
Rruff sample: R130025
Ideal chemistry: Na_15_(S^6+^O_4_)_5_ClF_4_
Locality: Searles Lake, Trona, San Bernardino County, California, USA
Source: Marcus Origlieri
Description: Colorless hexagonal prisms with tapering pyramidal terminations, associated with gaylussite
Raman shift (cm-1)	intensity
211.819	0
214.712	3.37833
217.605	5.47494
220.497	0.89798
223.39	2.80661
226.283	3.75488
229.175	4.17081
232.068	0.926025
234.961	1.87689
237.854	2.96182
240.746	5.54413
243.639	5.45523
246.532	4.35461
249.424	3.20883
252.317	2.70584
255.21	0.130981
258.103	1.16614
260.995	1.73538
263.888	0.857666
266.781	0.186401
269.673	0.422333
272.566	1.35513
275.459	1.44055
278.351	0.756042
281.244	1.15289
284.137	1.29239
287.029	1.35111
289.922	0.932098
292.815	2.48502
295.708	0.284546
298.6	1.17258
301.493	0.090698
304.386	1.6492
307.278	0.852325
310.171	1.42697
313.064	2.90655
315.957	3.37119
318.849	2.90063
321.742	3.42615
324.635	2.46716
327.527	3.25351
330.42	4.20904
333.313	2.74948
336.205	4.53647
339.098	5.73309
341.991	6.71002
344.884	10.0742
347.776	10.926
350.669	14.8885
353.562	17.9079
356.454	16.6299
359.347	16.4634
362.24	14.3568
365.132	10.4152
368.025	10.5639
370.918	8.88776
373.81	7.64539
376.703	5.51309
379.596	3.32309
382.489	3.31314
385.381	2.978
388.274	1.58618
391.167	0.566162
394.059	0.14917
396.952	0.589752
399.845	0.649261
402.738	0.729187
405.63	2.12082
408.523	0.848053
411.416	2.37826
414.308	1.32089
417.201	0.000854
420.094	3.10263
422.986	1.9978
425.879	3.31168
428.772	2.63474
431.664	2.41504
434.557	4.34299
437.45	4.53101
440.343	4.09811
443.235	9.60089
446.128	10.91
449.021	16.5758
451.913	25.7911
454.806	39.5192
457.699	56.9383
460.591	80.4299
463.484	95.6684
466.377	110.35
469.27	123.478
472.162	117.772
475.055	78.4543
477.948	36.5914
480.84	20.4592
483.733	12.3962
486.626	11.1126
489.519	9.27039
492.411	9.11389
495.304	8.83957
498.197	8.42581
501.089	9.28992
503.982	7.18546
506.875	6.35449
509.767	4.95825
512.66	3.45932
515.553	0.431366
518.446	0.795593
521.338	1.22528
524.231	4.94665
527.124	0.765594
530.016	0.864807
532.909	1.8819
535.802	1.02069
538.694	1.4068
541.587	1.82941
544.48	1.21069
547.372	1.57022
550.265	1.67362
553.158	1.70544
556.051	2.67795
558.943	2.51923
561.836	0.502991
564.729	1.08807
567.621	2.07663
570.514	0.583679
573.407	1.14597
576.299	0.70517
579.192	1.13754
582.085	0.834625
584.978	2.48303
587.87	2.58963
590.763	4.90335
593.656	3.41882
596.548	6.02246
599.441	6.30633
602.334	5.0524
605.226	4.97452
608.119	5.8913
611.012	10.3637
613.905	11.026
616.797	17.1201
619.69	22.9581
622.583	34.8818
625.475	43.4281
628.368	49.6027
631.261	54.5694
634.154	55.0401
637.046	50.758
639.939	26.202
642.832	6.01007
645.724	4.10815
648.617	2.18723
651.51	0.410126
654.402	1.82266
657.295	1.35904
660.188	1.24002
663.081	1.63965
665.973	1.01352
668.866	0.818817
671.759	0.516235
674.651	1.10498
677.544	0.724945
680.437	1.48291
683.329	0.160278
686.222	1.47842
689.115	1.39752
692.008	3.64215
694.9	0.739288
697.793	0.897888
700.686	0.496918
703.578	1.07965
706.471	1.87274
709.364	0.974823
712.256	2.56598
715.149	0.903046
718.042	1.79456
720.934	2.58423
723.827	2.08142
726.72	2.93893
729.613	0.426849
732.505	1.55991
735.398	1.73898
738.291	1.79651
741.183	0.577698
744.076	1.43198
746.969	4.22675
749.861	2.8494
752.754	1.07809
755.647	1.20621
758.54	1.56583
761.432	1.66809
764.325	2.01324
767.218	2.85074
770.11	0.882629
773.003	3.47024
775.896	0.977264
778.788	3.03803
781.681	1.42895
784.574	1.26465
787.467	1.11105
790.359	2.12341
793.252	3.55463
796.145	2.94827
799.037	0.665985
801.93	2.84732
804.823	0.614105
807.716	3.61417
810.608	3.93704
813.501	3.70148
816.394	4.05164
819.286	2.35071
822.179	5.66489
825.072	2.57135
827.964	1.85666
830.857	1.75763
833.75	0.557007
836.643	2.0603
839.535	4.45291
842.428	2.77292
845.321	7.42886
848.213	9.87067
851.106	12.3278
853.999	15.674
856.891	18.5497
859.784	17.0291
862.677	19.3694
865.569	10.8324
868.462	7.45728
871.355	5.78018
874.248	3.98782
877.14	2.69479
880.033	0.790375
882.926	0.699188
885.818	1.37402
888.711	2.12878
891.604	0.067108
894.496	1.32092
897.389	0.710327
900.282	3.50427
903.175	2.89655
906.067	1.60248
908.96	1.4194
911.853	1.19452
914.745	1.18311
917.638	2.1322
920.531	1.75723
923.423	0.968109
926.316	3.20233
929.209	1.29449
932.102	0.9841
934.994	2.17731
937.887	2.81338
940.78	0.306213
943.672	0.181427
946.565	1.74048
949.458	0.274719
952.351	0.104706
955.243	0.462799
958.136	3.90778
961.029	3.02084
963.921	3.42642
966.814	3.96518
969.707	8.07764
972.599	7.29761
975.492	10.498
978.385	13.4112
981.278	21.599
984.17	40.4167
987.063	77.5104
989.956	138.695
992.848	240.663
995.741	336.996
998.634	317.522
1001.53	219.955
1004.42	161.772
1007.31	93.1436
1010.21	41.7126
1013.1	26.467
1015.99	20.2207
1018.88	17.7352
1021.77	13.6592
1024.67	11.9165
1027.56	13.4483
1030.45	11.5623
1033.35	10.8267
1036.24	10.4123
1039.13	8.77939
1042.02	7.32257
1044.92	7.4494
1047.81	5.83801
1050.7	5.42377
1053.6	2.57584
1056.49	1.83328
1059.38	1.03241
1062.27	0.198395
1065.17	0.691559
1068.06	0.673218
1070.95	1.82828
1073.84	0.125519
1076.74	1.33197
1079.63	0.506561
1082.52	0.244476
1085.41	2.65628
1088.31	3.82584
1091.2	4.9729
1094.09	6.45462
1096.99	10.4272
1099.88	15.7866
1102.77	17.5904
1105.66	14.9942
1108.56	15.0942
1111.45	18.1885
1114.34	19.9989
1117.23	21.6271
1120.13	26.302
1123.02	34.3326
1125.91	42.1922
1128.81	53.6641
1131.7	45.2561
1134.59	29.8791
1137.48	24.099
1140.38	15.1938
1143.27	16.9577
1146.16	18.6299
1149.05	22.4825
1151.95	25.2946
1154.84	29.8781
1157.73	27.5253
1160.62	16.3111
1163.52	11.8492
1166.41	7.6658
1169.3	7.63638
1172.2	8.87466
1175.09	3.73184
1177.98	4.21231
1180.87	2.97906
1183.77	3.01123
1186.66	4.5123
1189.55	0.403351
1192.44	3.71478
1195.34	2.45245
1198.23	0.040894
1201.12	0.001892
1204.02	1.30279
1206.91	0.696136
1209.8	1.99072
1212.69	3.37326
1215.59	1.24487
1218.48	0.327271
1221.37	1.27429
1224.26	1.0867
1227.16	1.50269
1230.05	1.79016
1232.94	0.797607
1235.84	0.542145
1238.73	7.31924
1241.62	8.57288
1244.51	3.3493
1247.41	5.76419
1250.3	1.7626
1253.19	2.41458
1256.08	2.16574
1258.98	7.86475
1261.87	8.74725
1264.76	6.83377
1267.65	6.26535
1270.55	8.79352
1273.44	7.30804
1276.33	5.87558
1279.23	6.40137
1282.12	5.15631
1285.01	2.91507
1287.9	1.87927
1290.8	2.67545
1293.69	2.62094
1296.58	0.08667
1299.47	0.795044
