Measurement: Raman, 785 nm, unoriented, Raman Data Processed
Mineral: Galkhaite
Rruff sample: R070394
Ideal chemistry: (Cs,Tl)(Hg,Cu,Zn)_6_(As,Sb)_4_S_12_
Locality: Getchell Mine, Adam Peak, Potosi District, Humboldt County, Nevada, USA
Source: Michael Scott
Description: Dark red cubes associated with quartz
Raman shift (cm-1)	intensity
139.35	0
142.242	2.34909
145.135	14.5286
148.028	42.8028
150.92	109.381
153.813	65.9904
156.706	32.179
159.599	10.6952
162.491	14.7731
165.384	93.0498
168.277	148.683
171.169	238.601
174.062	330.535
176.955	390.825
179.847	461.644
182.74	584.139
185.633	677.98
188.525	861.021
191.418	1051.27
194.311	1238.24
197.204	1441.25
200.096	1674.02
202.989	1814.04
205.882	1917.2
208.774	1947.15
211.667	1783.63
214.56	1515.79
217.452	1187.88
220.345	845.841
223.238	524.123
226.131	307.839
229.023	143.167
231.916	81.1167
234.809	64.9974
237.701	22.9136
240.594	19.8448
243.487	130.324
246.38	208.298
249.272	417.438
252.165	819.661
255.058	1418.15
257.95	2225.88
260.843	3256.02
263.736	4401.81
266.628	5566.73
269.521	6687.06
272.414	7848.97
275.307	9431.69
278.199	11332.7
281.092	13204.3
283.985	13277.9
286.877	10956.1
289.77	7543.68
292.663	4972.78
295.555	3238.71
298.448	2032.48
301.341	1216.54
304.233	584.215
307.126	220.672
310.019	23.8535
312.912	55.4163
315.804	23.5278
318.697	105.823
321.59	354.245
324.482	610.018
327.375	959.409
330.268	1339.19
333.161	1740.37
336.053	2333.43
338.946	3171.47
341.839	4456.46
344.731	6555.75
347.624	9641.34
350.517	11808.5
353.409	10546
356.302	7164.76
359.195	4548.52
362.087	2718.89
364.98	1584.39
367.873	1085.89
370.766	1204.91
373.658	1782.25
376.551	2877.1
379.444	4580.67
382.336	6564.6
385.229	9089.88
388.122	11749.1
391.014	12357
393.907	9017.2
396.8	4524.5
399.693	1897.76
402.585	764.812
405.478	287.538
408.371	110.5
411.263	1.98413
414.156	54.8875
417.049	43.684
419.942	30.186
422.834	22.0098
425.727	22.3355
428.62	7.3349
431.512	15.6732
434.405	46.354
437.298	60.2553
440.19	67.3177
443.083	76.675
445.976	93.1084
448.868	86.931
451.761	97.5986
454.654	100.863
457.547	125.027
460.439	126.59
463.332	137.508
466.225	140.932
469.117	128.161
472.01	126.633
474.903	105.321
477.796	66.7873
480.688	43.7982
483.581	48.1034
486.474	33.6402
489.366	44.8284
492.259	56.4487
495.152	41.5589
498.044	48.9185
500.937	43.3186
503.83	39.4339
506.723	40.042
509.615	25.4065
512.508	39.0432
515.401	34.2435
518.293	32.5988
521.186	33.2789
524.079	41.8632
526.971	33.1029
529.864	34.736
532.757	30.42
535.649	23.728
538.542	40.7967
541.435	32.231
544.328	28.7568
547.22	31.5473
550.113	33.1589
553.006	37.4987
555.898	35.6431
558.791	40.4432
561.684	35.7843
564.577	49.7947
567.469	36.2656
570.362	47.5685
573.255	41.7487
576.147	35.5563
579.04	30.2769
581.933	16.2695
584.825	22.7752
587.718	18.6639
590.611	21.7889
593.504	11.7499
596.396	10.3503
599.289	5.19414
602.182	2.11008
605.074	4.15839
607.967	1.11227
610.86	8.2632
613.752	10.5299
616.645	13.7113
619.538	6.491
622.431	0.317947
625.323	1.62695
628.216	5.8663
631.109	9.20773
634.001	20.4292
636.894	38.0783
639.787	52.0906
642.679	77.1055
645.572	72.7773
648.465	86.9497
651.357	84.8939
654.25	107.391
657.143	100.758
660.036	109.627
662.928	96.1837
665.821	117.101
668.714	111.824
671.606	91.5909
674.499	91.5536
677.392	82.9445
680.284	90.4919
683.177	80.6747
686.07	74.6899
688.963	77.3
691.855	68.4223
694.748	64.5038
697.641	74.2213
700.533	79.2502
703.426	81.0622
706.319	89.0991
709.212	78.0452
712.104	77.8452
714.997	75.0877
717.89	63.3353
720.782	55.0005
723.675	29.434
726.568	25.137
729.46	11.8359
732.353	10.9601
735.246	9.1229
738.139	9.03178
741.031	0.760811
743.924	2.48903
746.817	6.3896
749.709	6.9046
752.602	15.1671
755.495	18.1924
758.387	20.1003
761.28	25.3021
764.173	33.836
767.066	34.1086
769.958	29.7997
772.851	34.7181
775.744	26.922
778.636	26.1578
781.529	17.5337
784.422	14.4283
787.314	10.7506
790.207	5.33085
793.1	7.13512
795.992	6.72373
798.885	4.18886
801.778	0.787018
804.671	4.77196
807.563	1.28931
810.456	3.17715
813.349	0.686687
816.241	1.12761
819.134	2.74041
822.027	6.04301
824.919	2.48205
827.812	6.07741
830.705	2.25755
833.598	8.69681
836.49	5.08498
839.383	6.31207
842.276	4.08368
845.168	11.6755
848.061	2.81177
850.954	1.80202
853.846	8.14687
856.739	3.42117
859.632	8.35055
862.525	6.64311
865.417	3.17602
868.31	2.53404
871.203	6.60403
874.095	5.18232
876.988	1.76121
879.881	4.9396
882.774	8.23967
885.666	6.22218
888.559	3.6918
891.452	7.72647
894.344	3.07647
897.237	2.00448
900.13	3.41863
903.022	6.79629
905.915	0.345867
908.808	2.95945
911.701	5.9928
914.593	1.70476
917.486	3.33491
920.379	4.23672
923.271	4.11597
926.164	4.2233
929.057	7.87088
931.949	3.62484
934.842	2.93016
937.735	5.02559
940.628	4.50515
943.52	6.26427
946.413	5.49005
949.306	2.298
952.198	7.81238
955.091	0.071091
957.984	5.50286
960.876	2.92469
963.769	5.86557
966.662	1.37997
969.554	6.65248
972.447	3.4968
975.34	3.51251
978.233	4.95997
981.125	6.48937
984.018	8.31135
986.911	5.06556
989.803	7.09345
992.696	4.855
995.589	3.99886
998.481	2.48788
1001.37	9.18957
1004.27	9.66119
1007.16	5.29753
1010.05	1.82883
1012.95	3.52687
1015.84	8.3926
1018.73	5.06094
1021.62	9.42258
1024.52	4.82584
1027.41	4.6684
1030.3	5.67461
1033.19	6.9029
1036.09	5.75406
1038.98	9.29909
1041.87	6.73585
1044.77	3.85646
1047.66	2.91494
1050.55	5.1882
1053.44	5.93561
1056.34	0.070377
1059.23	6.57092
1062.12	4.08589
1065.01	7.08465
1067.91	0.990829
1070.8	7.12065
1073.69	0.519287
1076.58	4.33143
1079.48	6.15669
1082.37	1.79769
1085.26	7.95412
1088.15	4.74842
1091.05	1.33933
1093.94	0.394962
1096.83	1.82076
1099.73	9.17911
1102.62	1.4512
1105.51	9.73795
1108.4	12.4841
1111.3	4.99972
1114.19	9.31601
1117.08	6.3341
1119.97	9.15923
1122.87	8.65029
1125.76	3.87385
1128.65	5.5678
1131.55	10.6019
1134.44	8.90559
1137.33	4.48953
1140.22	0.727936
1143.12	4.39093
1146.01	4.62952
1148.9	3.78788
1151.8	6.40779
1154.69	5.47195
1157.58	4.7605
1160.47	7.50577
1163.37	5.09586
1166.26	7.93996
1169.15	1.53366
1172.04	0.017853
1174.94	7.63429
1177.83	3.39296
1180.72	6.81578
1183.61	5.35349
1186.51	3.92201
1189.4	5.67304
1192.29	5.58893
1195.18	6.59002
1198.08	3.37379
1200.97	9.6052
1203.86	2.00225
1206.76	4.84881
1209.65	3.37795
1212.54	3.82163
1215.43	0.88942
1218.33	6.18192
1221.22	4.32481
1224.11	4.2772
1227.01	0.008148
1229.9	3.5143
1232.79	5.04868
1235.68	2.36975
1238.58	0
