Measurement: Raman, 532 nm, unoriented, Raman Data Processed
Mineral: Galkhaite
Rruff sample: R070394
Ideal chemistry: (Cs,Tl)(Hg,Cu,Zn)_6_(As,Sb)_4_S_12_
Locality: Getchell Mine, Adam Peak, Potosi District, Humboldt County, Nevada, USA
Source: Michael Scott
Description: Dark red cubes associated with quartz
Raman shift (cm-1)	intensity
153.78	0
156.672	3.77161
159.565	20.5679
162.458	8.74927
165.351	60.4263
168.243	75.2781
171.136	115.825
174.029	156.209
176.921	264.374
179.814	354.863
182.707	381.338
185.6	483.56
188.492	571.038
191.385	693.853
194.278	778.497
197.17	943.256
200.063	1031.97
202.956	1088.37
205.848	1030.32
208.741	1016.32
211.634	853.089
214.526	754.453
217.419	540.207
220.312	399.11
223.205	262.115
226.097	198.42
228.99	74.8791
231.883	43.5447
234.775	25.413
237.668	20.4904
240.561	27.1369
243.453	39.1383
246.346	51.3921
249.239	79.7743
252.132	179.211
255.024	350.399
257.917	566.994
260.81	891.287
263.702	1267.33
266.595	1634.58
269.488	2077.55
272.38	2537.13
275.273	3021.19
278.166	3391.42
281.059	3454.41
283.951	3192.26
286.844	2561.03
289.737	1962.3
292.629	1445.67
295.522	1004.41
298.415	669.167
301.308	443.08
304.2	301.58
307.093	177.746
309.986	133.901
312.878	198.806
315.771	231.854
318.664	361.037
321.556	464.963
324.449	600.271
327.342	696.552
330.235	871.443
333.127	977.253
336.02	1222.48
338.913	1477.03
341.805	1800
344.698	2058.46
347.591	2196.85
350.483	2065.7
353.376	1627.5
356.269	1230.93
359.162	869.51
362.054	721.801
364.947	693.02
367.84	799.101
370.732	993.268
373.625	1229.09
376.518	1528.38
379.411	1834.07
382.303	2059.07
385.196	2136.6
388.089	1998.76
390.981	1536.53
393.874	951.211
396.767	426.332
399.659	159.872
402.552	56.1841
405.445	37.2739
408.337	22.0261
411.23	66.5374
414.123	47.1001
417.016	31.0894
419.908	15.9006
422.801	18.5007
425.694	3.46655
428.586	36.0801
431.479	41.4117
434.372	59.6344
437.264	46.7118
440.157	100.999
443.05	77.4477
445.943	87.2371
448.835	99.2665
451.728	65.3044
454.621	90.4367
457.513	106.02
460.406	84.5339
463.299	97.426
466.192	114.869
469.084	72.9739
471.977	85.8323
474.87	67.8871
477.762	42.3135
480.655	45.5825
483.548	62.7858
486.44	29.5341
489.333	22.3784
492.226	29.3932
495.118	45.026
498.011	49.072
500.904	57.7927
503.797	48.7695
506.689	35.7628
509.582	26.855
512.475	6.92456
515.367	31.9775
518.26	39.7385
521.153	52.9639
524.045	19.9403
526.938	63.0282
529.831	53.9099
532.724	50.2989
535.616	22.4232
538.509	8.59509
541.402	56.0358
544.294	50.0338
547.187	70.7128
550.08	29.0868
552.972	58.9036
555.865	42.0272
558.758	73.7585
561.651	26.7873
564.543	73.2662
567.436	61.8712
570.329	51.0903
573.221	17.7335
576.114	60.6118
579.007	5.58032
581.899	23.3046
584.792	20.4496
587.685	5.76721
590.578	20.3683
593.47	4.95679
596.363	0.752563
599.256	15.636
602.149	2.34448
605.041	30.6141
607.934	50.327
610.827	22.403
613.719	27.4993
616.612	0.758057
619.505	16.5348
622.397	18.0342
625.29	24.9418
628.183	62.4565
631.076	54.9571
633.968	83.2638
636.861	62.9587
639.754	102.842
642.646	76.5139
645.539	79.3887
648.432	76.515
651.324	74.6733
654.217	58.3716
657.11	111.104
660.003	66.3825
662.895	101.431
665.788	32.5051
668.681	76.4567
671.573	69.6195
674.466	61.2942
677.359	56.752
680.251	50.9214
683.144	43.6604
686.037	65.9089
688.929	62.9407
691.822	74.073
694.715	61.517
697.608	62.5494
700.5	54.5736
703.393	76.6052
706.286	44.9764
709.178	52.9628
712.071	72.6575
714.964	37.2325
717.856	38.9816
720.749	15.7839
723.642	16.55
726.535	16.9644
729.427	21.9404
732.32	8.54077
735.213	24.616
738.105	2.46753
740.998	23.6381
743.891	30.6436
746.784	26.6183
749.676	9.83325
752.569	35.7179
755.462	66.225
758.354	52.5729
761.247	8.3811
764.14	37.8181
767.033	24.8895
769.925	27.2081
772.818	31.865
775.711	28.9751
778.603	23.033
781.496	6.56226
784.389	3.42102
787.281	22.9952
790.174	47.4676
793.067	44.9188
795.96	16.6824
798.852	12.5461
801.745	10.4519
804.638	39.3547
807.53	27.6949
810.423	37.2607
813.316	17.8132
816.208	37.8378
819.101	3.11853
821.994	48.1816
824.886	18.0923
827.779	39.2766
830.672	21.3032
833.565	31.0071
836.457	22.3442
839.35	36.996
842.243	43.3682
845.135	29.6581
848.028	34.072
850.921	45.6724
853.813	31.0901
856.706	45.5099
859.599	21.2499
862.492	44.6334
865.384	15.7949
868.277	27.271
871.17	19.59
874.062	30.1311
876.955	4.92835
879.848	1.72913
882.74	21.0629
885.633	34.236
888.526	24.6084
891.419	29.0541
894.311	15.6996
897.204	1.3103
900.097	19.2035
902.989	7.59448
905.882	21.6272
908.775	31.5286
911.668	25.7278
914.56	29.0395
917.453	21.4471
920.346	13.6012
923.238	38.7311
926.131	26.9027
929.024	29.702
931.916	35.8998
934.809	39.4851
937.702	21.9789
940.595	23.5419
943.487	23.7071
946.38	11.9766
949.273	34.2947
952.165	1.22681
955.058	13.2986
957.951	27.1818
960.843	6.51782
963.736	20.0852
966.629	15.7033
969.521	44.3667
972.414	37.3977
975.307	25.0839
978.2	26.3969
981.092	32.1473
983.985	13.0073
986.878	27.0525
989.77	13.5708
992.663	38.4314
995.556	15.8072
998.448	20.02
1001.34	38.1957
1004.23	8.61902
1007.13	46.541
1010.02	35.7836
1012.91	9.4679
1015.8	39.7999
1018.7	39.2782
1021.59	40.2888
1024.48	8.89477
1027.38	41.8402
1030.27	69.5977
1033.16	27.0425
1036.05	22.8613
1038.95	14.4452
1041.84	6.42017
1044.73	5.77271
1047.62	5.80689
1050.52	37.7943
1053.41	25.0884
1056.3	22.6113
1059.19	35.3232
1062.09	56.2922
1064.98	18.6012
1067.87	27.5459
1070.77	4.38965
1073.66	37.4307
1076.55	17.9817
1079.44	47.6731
1082.34	18.8696
1085.23	24.845
1088.12	43.1951
1091.02	14.4383
1093.91	49.0591
1096.8	11.6658
1099.69	58.7328
1102.59	0.713013
1105.48	10.0339
1108.37	2.10461
1111.26	9.89954
1114.16	20.8234
1117.05	13.1855
1119.94	36.1993
1122.84	26.8113
1125.73	24.3535
1128.62	34.5686
1131.51	39.3871
1134.41	26.443
1137.3	14.4313
1140.19	2.6593
1143.08	32.5029
1145.98	36.9188
1148.87	10.047
1151.76	13.9642
1154.65	30.8176
1157.55	13.848
1160.44	2.37317
1163.33	21.8761
1166.22	19.3313
1169.12	18.7255
1172.01	20.5909
1174.9	15.6534
1177.8	13.6268
1180.69	28.996
1183.58	2.42993
1186.47	19.712
1189.37	4.10083
1192.26	15.9187
1195.15	47.5737
1198.05	30.0433
1200.94	28.4206
1203.83	15.2021
1206.72	24.8988
1209.62	45.1885
1212.51	6.38513
1215.4	26.4862
1218.29	33.6141
1221.19	36.8261
1224.08	50.0633
1226.97	21.2788
1229.87	15.9504
1232.76	25.8745
1235.65	33.0544
1238.54	32.3691
1241.44	6.31433
1244.33	0.613892
1247.22	7.67285
1250.11	20.2419
1253.01	8.42749
1255.9	26.912
1258.79	32.6996
1261.68	24.8048
1264.58	13.882
1267.47	40.6705
1270.36	70.8284
1273.26	51.4834
1276.15	62.3798
1279.04	16.542
1281.93	0.900269
1284.83	14.2415
1287.72	27.1372
1290.61	12.4606
1293.5	45.6688
1296.4	38.2795
1299.29	41.0763
1302.18	24.8181
1305.08	0.980835
