Measurement: Raman, 532 nm, unoriented, Raman Data Processed
Mineral: Gamagarite
Rruff sample: R130111
Ideal chemistry: Ba_2_Fe^3+^(V^5+^O_4_)_2_(OH)
Locality: Molinello mine, Graveglia Valley, Genova Province, Liguria, Italy
Source: Don Doell (Small piece), Rock Currier (Large piece)
Description: Dark reddish brown massive
Raman shift (cm-1)	intensity
159.751	0
162.643	2.17241
165.536	6.98633
168.429	3.25159
171.321	7.01305
174.214	6.26339
177.107	0.57151
180	0.388664
182.892	3.33064
185.785	5.31962
188.678	5.7872
191.57	5.20087
194.463	3.46823
197.356	2.52805
200.249	0.57299
203.141	0.509438
206.034	0.024994
208.927	4.19202
211.819	8.14297
214.712	6.86935
217.605	9.06331
220.497	3.72401
223.39	0.843277
226.283	0.441559
229.175	2.69293
232.068	1.79583
234.961	6.08768
237.854	11.6734
240.746	13.1084
243.639	16.0585
246.532	16.4579
249.424	13.6079
252.317	6.48716
255.21	3.99779
258.103	8.43825
260.995	12.9492
263.888	9.87732
266.781	0.496246
269.673	1.5344
272.566	2.06865
275.459	5.94405
278.351	8.80965
281.244	7.47505
284.137	5.9671
287.029	8.1122
289.922	13.6998
292.815	24.2025
295.708	35.1786
298.6	31.148
301.493	19.2758
304.386	8.9715
307.278	5.67274
310.171	6.43924
313.064	10.4944
315.957	16.277
318.849	24.8536
321.742	30.2248
324.635	28.8029
327.527	32.059
330.42	46.1392
333.313	58.6972
336.205	63.5648
339.098	55.3489
341.991	52.586
344.884	60.5813
347.776	57.2169
350.669	51.3063
353.562	52.0371
356.454	56.0194
359.347	49.1297
362.24	32.5158
365.132	20.4238
368.025	12.6237
370.918	7.60735
373.81	5.80792
376.703	8.76218
379.596	12.1978
382.489	14.6985
385.381	18.3279
388.274	14.7759
391.167	6.89205
394.059	0.06691
396.952	2.48825
399.845	2.87125
402.738	0.884224
405.63	0.089462
408.523	4.31422
411.416	6.74491
414.308	10.817
417.201	9.79391
420.094	7.57431
422.986	4.16083
425.879	5.33395
428.772	7.66566
431.664	13.7476
434.557	15.9427
437.45	15.3439
440.343	10.6307
443.235	8.60139
446.128	10.863
449.021	10.9171
451.913	12.497
454.806	13.9963
457.699	12.2057
460.591	4.12389
463.484	0.002899
466.377	0.83477
469.27	4.31513
472.162	6.58786
475.055	7.39784
477.948	5.0328
480.84	2.81335
483.733	4.13303
486.626	5.38094
489.519	10.2443
492.411	16.29
495.304	15.5197
498.197	14.7545
501.089	12.6618
503.982	16.2082
506.875	17.8092
509.767	18.5218
512.66	17.9776
515.553	11.4398
518.446	4.72313
521.338	1.17145
524.231	0.669571
527.124	0.353981
530.016	0.288925
532.909	2.03329
535.802	4.24547
538.694	5.61223
541.587	6.86471
544.48	5.69381
547.372	4.46938
550.265	6.22715
553.158	8.1372
556.051	9.16415
558.943	8.31275
561.836	9.73439
564.729	9.94358
567.621	12.8956
570.514	13.8454
573.407	9.78844
576.299	4.54794
579.192	1.09023
582.085	0.40564
584.978	0.231483
587.87	0.658104
590.763	2.04971
593.656	1.72076
596.548	0.223106
599.441	0.76963
602.334	0.098328
605.226	0.062233
608.119	1.77145
611.012	3.02559
613.905	3.90001
616.797	3.72777
619.69	5.85814
622.583	8.12145
625.475	9.77997
628.368	11.4447
631.261	15.9166
634.154	23.3467
637.046	28.5744
639.939	41.0413
642.832	58.7728
645.724	87.3279
648.617	133.17
651.51	203.215
654.402	296.547
657.295	406.626
660.188	535.635
663.081	641.69
665.973	656.877
668.866	491.577
671.759	303.944
674.651	199.212
677.544	142.962
680.437	102.871
683.329	63.2018
686.222	40.6853
689.115	26.0848
692.008	18.5816
694.9	15.4308
697.793	15.0313
700.686	15.1106
703.578	18.2571
706.471	27.4378
709.364	35.1579
712.256	40.3813
715.149	34.9427
718.042	22.2962
720.934	13.8407
723.827	7.84595
726.72	7.78111
729.613	7.30704
732.505	6.68666
735.398	7.82428
738.291	5.3753
741.183	0.814636
744.076	0.905411
746.969	0.527145
749.861	0.555786
752.754	1.11722
755.647	1.83865
758.54	1.10077
761.432	0.916153
764.325	1.30844
767.218	0.074997
770.11	2.09633
773.003	0.949249
775.896	0.510605
778.788	1.16006
781.681	0.406647
784.574	1.36594
787.467	2.67831
790.359	3.73512
793.252	3.05266
796.145	3.60349
799.037	3.2581
801.93	1.93814
804.823	2.77832
807.716	2.40189
810.608	0.541473
813.501	0.24791
816.394	0.726028
819.286	0.353973
822.179	0.88414
825.072	0.676102
827.964	0.570282
830.857	0.452774
833.75	1.05188
836.643	1.59522
839.535	2.56378
842.428	4.02127
845.321	6.67133
848.213	6.899
851.106	4.99736
853.999	3.48526
856.891	4.02025
859.784	4.63266
862.677	3.01871
865.569	0.989853
868.462	2.67296
871.355	5.88495
874.248	8.9225
877.14	9.52559
880.033	3.66753
882.926	1.53523
885.818	1.62221
888.711	1.18501
891.604	1.49193
894.496	1.11716
897.389	0.550659
900.282	3.10416
903.175	6.92276
906.067	11.5265
908.96	11.3361
911.853	7.45557
914.745	3.54861
917.638	4.94656
920.531	5.55576
923.423	5.37643
926.316	7.12378
929.209	11.7144
932.102	19.4767
934.994	29.7143
937.887	25.6763
940.78	7.96976
943.672	0.562637
946.565	2.20444
949.458	2.69076
952.351	0.27652
955.243	6.53693
958.136	21.3598
961.029	44.145
963.921	78.539
966.814	124.199
969.707	191.692
972.599	248.134
975.492	230.363
978.385	200.575
981.278	222.608
984.17	293.496
987.063	394.69
989.956	480.671
992.848	554.045
995.741	633.727
998.634	624.69
1001.53	549.961
1004.42	380.803
1007.31	237.591
1010.21	161.233
1013.1	110.677
1015.99	72.5188
1018.88	50.6042
1021.77	36.6802
1024.67	27.9495
1027.56	21.6391
1030.45	16.474
1033.35	14.0387
1036.24	17.9032
1039.13	24.486
1042.02	36.1825
1044.92	49.8892
1047.81	73.8306
1050.7	98.2124
1053.6	79.7159
1056.49	43.3456
1059.38	19.5936
1062.27	9.81039
1065.17	2.95456
1068.06	0.017944
1070.95	1.20535
1073.84	0.556
1076.74	0.964386
1079.63	0.073151
1082.52	0.011627
1085.41	0.964172
1088.31	0.923462
1091.2	1.55051
1094.09	1.73697
1096.99	0.206299
1099.88	0.084808
1102.77	0.137543
1105.66	2.5354
1108.56	2.13403
1111.45	3.09262
1114.34	2.24582
1117.23	3.11578
1120.13	2.76639
1123.02	3.91559
1125.91	2.89481
1128.81	4.28564
1131.7	2.70447
1134.59	3.73834
1137.48	3.41058
1140.38	0.927063
1143.27	3.6546
1146.16	2.85684
1149.05	3.47824
1151.95	3.9184
1154.84	2.63278
1157.73	2.2027
1160.62	1.60107
1163.52	2.76602
1166.41	0.269165
1169.3	1.42133
1172.2	3.03238
1175.09	0.239441
1177.98	0.923492
1180.87	2.67294
1183.77	1.9509
1186.66	1.37067
1189.55	0.518921
1192.44	0.050415
1195.34	1.48566
1198.23	3.47525
1201.12	3.07364
1204.02	1.08664
1206.91	3.36832
1209.8	1.29352
1212.69	2.35565
1215.59	1.45099
1218.48	0.177856
1221.37	2.70438
1224.26	2.49371
1227.16	0.339264
1230.05	1.1279
1232.94	0.037567
1235.84	0.122467
1238.73	0.719421
1241.62	1.09592
1244.51	1.34439
1247.41	1.33276
1250.3	1.37555
1253.19	0.387451
1256.08	2.06714
1258.98	1.97067
1261.87	5.73096
1264.76	4.41354
1267.65	3.9372
1270.55	2.85111
1273.44	2.0564
1276.33	3.15726
1279.23	1.59744
1282.12	2.79419
1285.01	1.10171
1287.9	0.722015
1290.8	0.353271
1293.69	2.2652
1296.58	0.099182
1299.47	0.462769
