Measurement: Raman, 780 nm, unoriented, Raman Data Processed
Mineral: Gamagarite
Rruff sample: R130111
Ideal chemistry: Ba_2_Fe^3+^(V^5+^O_4_)_2_(OH)
Locality: Molinello mine, Graveglia Valley, Genova Province, Liguria, Italy
Source: Don Doell (Small piece), Rock Currier (Large piece)
Description: Dark reddish brown massive
Raman shift (cm-1)	intensity
108.074	0
111.448	31.1213
114.823	23.1665
118.198	2.4331
121.573	13.4298
124.948	16.9725
128.322	41.8302
131.697	52.8436
135.072	38.1575
138.447	42.8555
141.822	17.5156
145.197	2.64856
148.571	18.3419
151.946	33.9048
155.321	49.3606
158.696	34.2651
162.071	33.7221
165.446	45.2936
168.82	39.4019
172.195	21.4546
175.57	17.498
178.945	16.0024
182.32	5.60437
185.694	2.88562
189.069	2.8468
192.444	0.918091
195.819	4.66882
199.194	3.12659
202.569	1.08386
205.943	12.1676
209.318	18.7811
212.693	20.9376
216.068	18.4313
219.442	14.418
222.817	21.0383
226.192	26.6706
229.567	39.12
232.942	37.5231
236.317	35.7082
239.691	34.7645
243.066	40.6438
246.441	42.1182
249.816	47.9679
253.191	45.3342
256.565	55.1272
259.94	75.458
263.315	56.7081
266.69	35.236
270.065	23.9469
273.44	25.3922
276.814	27.4436
280.189	21.259
283.564	8.93518
286.939	0.115723
290.314	2.48169
293.688	13.6726
297.063	17.7492
300.438	14.0259
303.813	19.7009
307.188	34.1783
310.562	50.688
313.937	69.5466
317.312	83.0695
320.687	87.3603
324.062	69.2096
327.437	68.8719
330.811	78.0658
334.186	99.9357
337.561	99.0524
340.936	95.5664
344.311	94.3267
347.685	79.1798
351.06	64.6511
354.435	57.8969
357.81	72.45
361.185	86.0045
364.56	60.036
367.934	37.2188
371.309	21.4208
374.684	12.7942
378.059	9.28223
381.434	12.7739
384.808	19.5555
388.183	10.5343
391.558	0.165283
394.933	6.29834
398.308	4.89465
401.683	1.17371
405.057	5.17432
408.432	7.47693
411.807	18.0122
415.182	17.2205
418.557	11.9845
421.931	10.5944
425.306	4.73267
428.681	13.557
432.056	27.5869
435.431	26.6038
438.805	16.2688
442.18	14.2467
445.555	15.3551
448.93	19.609
452.305	23.4222
455.68	17.3533
459.054	17.3138
462.429	5.37354
465.804	3.71069
469.179	9.34546
472.554	11.8475
475.928	4.83032
479.303	5.06323
482.678	7.86987
486.053	4.58789
489.428	12.0486
492.803	10.3346
496.177	14.6249
499.552	5.8811
502.927	12.1065
506.302	11.2159
509.677	14.3639
513.051	7.80261
516.426	5.97217
519.801	1.98511
523.176	0.498291
526.551	2.67542
529.926	0.642212
533.3	0.62439
536.675	5.69702
540.05	11.1603
543.425	8.86731
546.799	9.85901
550.174	12.0731
553.549	17.8505
556.924	14.0185
560.299	13.7118
563.674	9.25391
567.048	11.0118
570.423	7.46851
573.798	3.94946
577.173	2.94238
580.548	0.235718
583.923	3.78455
587.297	6.04309
590.672	4.32178
594.047	4.04065
597.422	0.911499
600.797	0.187134
604.171	3.474
607.546	0.678223
610.921	3.92224
614.296	7.48218
617.671	5.92248
621.045	10.993
624.42	9.03186
627.795	15.0824
631.17	19.8458
634.545	30.4711
637.919	38.887
641.294	59.7726
644.669	88.6856
648.044	138.19
651.419	211.095
654.794	293.934
658.168	399.198
661.543	503.68
664.918	541.264
668.293	387.212
671.668	224.929
675.043	142.965
678.417	96.131
681.792	62.9824
685.167	39.2394
688.542	21.215
691.917	17.897
695.291	16.1644
698.666	13.5237
702.041	15.594
705.416	21.9663
708.791	28.7867
712.165	25.2904
715.54	20.3522
718.915	18.0591
722.29	14.0801
725.665	11.0908
729.039	15.0001
732.414	16.5154
735.789	12.7264
739.164	11.0617
742.539	5.17053
745.914	3.11389
749.288	6.48914
752.663	1.9906
756.038	0.647705
759.413	1.13708
762.788	5.21741
766.163	2.28345
769.537	2.44958
772.912	2.99036
776.287	0.475342
779.662	0.261108
783.037	2.40576
786.411	7.42383
789.786	8.17773
793.161	9.51929
796.536	12.2407
799.911	7.09155
803.285	13.4375
806.66	16.137
810.035	11.8108
813.41	3.05542
816.785	10.9727
820.159	13.667
823.534	26.7698
826.909	30.4231
830.284	33.1543
833.659	35.2275
837.034	36.8833
840.408	50.2888
843.783	65.4766
847.158	57.0769
850.533	50.4639
853.908	48.9744
857.283	48.1663
860.657	32.6707
864.032	24.4104
867.407	19.1755
870.782	35.0154
874.157	61.0308
877.531	64.0164
880.906	27.8162
884.281	16.7634
887.656	0.858887
891.031	4.03027
894.405	8.51709
897.78	15.5027
901.155	30.8613
904.53	55.6924
907.905	71.1995
911.279	30.6081
914.654	12.3999
918.029	6.34351
921.404	2.8999
924.779	0.998047
928.154	1.95996
931.528	13.3694
934.903	16.2783
938.278	8.88086
941.653	0.147217
945.028	3.63965
948.403	1.71826
951.777	2.34937
955.152	10.7986
958.527	22.0759
961.902	46.9817
965.277	78.7871
968.651	127.108
972.026	169.764
975.401	151.097
978.776	145.426
982.151	189.841
985.525	246.392
988.9	310.122
992.275	351.406
995.65	397.754
999.025	369.301
1002.4	261.463
1005.77	152.144
1009.15	93.6169
1012.52	59.7664
1015.9	49.0671
1019.27	33.1489
1022.65	20.9211
1026.02	14.1126
1029.4	18.7871
1032.77	6.23315
1036.15	23.0676
1039.52	18.5303
1042.9	34.0378
1046.27	34.9324
1049.65	37.8577
1053.02	35.0139
1056.4	22.5146
1059.77	14.0171
1063.15	9.07495
1066.52	0.182373
1069.9	4.73022
1073.27	0.410889
1076.64	1.29224
1080.02	1.44043
1083.39	5.95142
1086.77	9.43921
1090.14	4.53662
1093.52	12.9717
1096.89	3.5564
1100.27	4.70874
1103.64	3.12183
1107.02	8.17896
1110.39	3.28784
1113.77	0.199951
1117.14	1.88574
1120.52	0.352539
1123.89	6.6521
1127.27	10.0312
1130.64	11.4702
1134.02	16.5828
1137.39	26.2971
1140.77	28.8865
1144.14	29.9177
1147.52	34.5381
1150.89	33.0193
1154.27	39.0605
1157.64	36.3342
1161.02	33.9077
1164.39	27.7493
1167.77	26.8191
1171.14	27.3335
1174.52	22.8313
1177.89	25.4131
1181.27	23.5193
1184.64	16.4429
1188.01	13.8628
1191.39	26.2837
1194.76	16.0378
1198.14	15.585
1201.51	24.2971
1204.89	15.6118
1208.26	12.1018
1211.64	13.1938
1215.01	8.80151
1218.39	7.68994
1221.76	9.21997
1225.14	11.2065
1228.51	5.06421
1231.89	3.15063
1235.26	10.282
1238.64	7.83545
1242.01	0.920166
1245.39	0.387207
1248.76	1.6875
1252.14	8.7168
1255.51	5.26856
1258.88	8.88794
1262.26	0.366211
1265.63	0.397461
1269.01	3.41357
1272.38	7.50269
1275.76	7.88452
1279.13	5.63672
1282.51	5.33301
