Measurement: Raman, 532 nm, unoriented, Raman Data Processed
Mineral: Garronite-Ca
Rruff sample: R050281
Ideal chemistry: NaCa_2.5_(Si_10_Al_6_)O_32_14H_2_O
Locality: Pete's Point, Aneroid Lake, Wallowa County, Oregon, USA
Source: Marcus Origlieri
Description: White radiating crystal aggregates completely filling amygdules
Measured chemistry: (Na_0.94_K_0.06_)_Σ=1_Ca_2.50_(Si_10.00_Al_6.00_)O_32_·13H_2_O
Raman shift (cm-1)	intensity
134.486	0
137.378	2.57817
140.271	1.53935
143.164	0.471008
146.056	0.577698
148.949	3.80766
151.842	4.19482
154.734	8.96922
157.627	9.74603
160.52	8.93953
163.412	11.8593
166.305	15.5952
169.198	16.834
172.09	19.8727
174.983	20.6026
177.876	23.5931
180.769	21.6938
183.661	22.7312
186.554	20.3453
189.447	20.5501
192.339	16.5597
195.232	14.5381
198.125	12.9896
201.018	9.20598
203.91	7.82902
206.803	7.38255
209.696	5.82796
212.588	3.43756
215.481	4.95084
218.374	4.33097
221.266	1.90311
224.159	2.74664
227.052	2.50771
229.945	0.07209
232.837	0.620682
235.73	0.378685
238.623	0.723396
241.515	1.00721
244.408	0.215462
247.301	0.485245
250.193	1.13688
253.086	2.63621
255.979	3.36346
258.872	3.76246
261.764	3.77107
264.657	5.18117
267.55	4.99965
270.442	5.71704
273.335	5.85012
276.228	7.41543
279.12	7.37085
282.013	6.838
284.906	7.8982
287.798	7.28171
290.691	7.82088
293.584	7.69695
296.477	7.2811
299.369	8.35673
302.262	7.01999
305.155	7.71016
308.047	6.57026
310.94	6.64863
313.833	6.36362
316.726	6.61494
319.618	5.27523
322.511	5.7945
325.404	5.04136
328.296	3.31141
331.189	3.84778
334.082	3.33593
336.974	2.31433
339.867	1.98084
342.76	1.59065
345.652	1.74934
348.545	0.066692
351.438	0.592163
354.331	0.412151
357.223	0.364357
360.116	0.574806
363.009	2.09075
365.901	0.91975
368.794	1.0417
371.687	0.326458
374.579	0.430534
377.472	0.187878
380.365	1.37558
383.258	1.46738
386.15	2.05675
389.043	3.90092
391.936	4.70957
394.828	6.24559
397.721	8.09516
400.614	9.84261
403.507	13.0139
406.399	17.193
409.292	23.375
412.185	29.3663
415.077	33.9625
417.97	36.9027
420.863	37.1733
423.755	31.1332
426.648	26.8722
429.541	23.4719
432.433	22.5045
435.326	21.2979
438.219	25.7818
441.112	31.0334
444.004	38.8951
446.897	49.4389
449.79	62.2955
452.682	76.024
455.575	91.6894
458.468	107.798
461.361	122.735
464.253	136.462
467.146	147.928
470.039	154.006
472.931	158.484
475.824	155.784
478.717	151.708
481.609	144.671
484.502	129.398
487.395	114.501
490.288	98.0239
493.18	82.4154
496.073	64.0275
498.966	50.0108
501.858	37.5773
504.751	27.2828
507.644	19.7827
510.536	14.2432
513.429	11.0574
516.322	7.76574
519.215	6.10185
522.107	4.57458
525	3.41177
527.893	1.74622
530.785	1.54216
533.678	0.18259
536.571	0.483093
539.463	0.180061
542.356	0.42701
545.249	1.50777
548.141	1.26106
551.034	0.869995
553.927	0.128597
556.82	0.774513
559.712	0.463345
562.605	0.264885
565.498	0.647461
568.39	0.400822
571.283	0.976128
574.176	2.12358
577.068	2.45375
579.961	2.50934
582.854	2.2227
585.747	1.67099
588.639	3.28806
591.532	3.57769
594.425	3.68926
597.317	3.26073
600.21	4.14147
603.103	3.99955
605.995	3.50865
608.888	3.08736
611.781	3.13119
614.673	2.74598
617.566	2.10012
620.459	1.50713
623.352	1.42908
626.244	1.44956
629.137	1.53163
632.03	0.865528
634.922	1.39264
637.815	1.32114
640.708	1.23026
643.601	0.860878
646.493	1.13308
649.386	0.675806
652.279	0.393557
655.171	0.989569
658.064	0.198536
660.957	0.083599
663.849	0.582449
666.742	1.10704
669.635	0.103374
672.528	0.669277
675.42	0.046183
678.313	0.735804
681.206	0.667139
684.098	0.648136
686.991	0.311867
689.884	0.769619
692.776	0.955978
695.669	1.1004
698.562	1.22246
701.455	1.9222
704.347	3.32188
707.24	2.54026
710.133	3.47359
713.025	4.15386
715.918	4.21366
718.811	4.59739
721.703	4.25168
724.596	4.0619
727.489	4.3663
730.381	3.71075
733.274	3.48336
736.167	3.60808
739.06	3.3258
741.952	4.1851
744.845	4.1183
747.738	4.41153
750.63	3.85224
753.523	3.97747
756.416	4.31574
759.308	4.68424
762.201	4.56471
765.094	4.5291
767.987	4.21288
770.879	3.41926
773.772	3.02754
776.665	2.51312
779.557	2.51059
782.45	2.32026
785.343	1.2069
788.236	1.10816
791.128	0.443026
794.021	0.143354
796.914	0.256397
799.806	0.366201
802.699	0.131376
805.592	0.39695
808.484	0.36388
811.377	0.092083
814.27	0.202618
817.163	0.251871
820.055	0.253021
822.948	0.164413
825.841	0.473444
828.733	0.835913
831.626	0.58255
834.519	0.553295
837.411	0.767004
840.304	1.32901
843.197	1.32198
846.09	1.24171
848.982	1.52805
851.875	1.43893
854.768	1.60429
857.66	1.6029
860.553	1.72441
863.446	0.97578
866.338	1.72047
869.231	2.50525
872.124	2.3672
875.016	2.01774
877.909	2.16247
880.802	2.22102
883.695	1.52421
886.587	1.95727
889.48	1.98871
892.373	1.92009
895.265	2.10994
898.158	2.13073
901.051	1.86829
903.943	1.18754
906.836	1.0009
909.729	1.30025
912.622	1.21117
915.514	1.03258
918.407	1.06045
921.3	0.59165
924.192	0.210915
927.085	0.173725
929.978	0.485025
932.87	0.22781
935.763	0.390471
938.656	0.114874
941.549	0.01359
944.441	0.256565
947.334	0.243082
950.227	0.34256
953.119	0.168409
956.012	0.664469
958.905	1.24978
961.798	0.471285
964.69	1.00599
967.583	0.475916
970.476	0.496948
973.368	1.02637
976.261	0.70248
979.154	0.852789
982.046	1.1329
984.939	1.10987
987.832	0.868761
990.724	0.643406
993.617	0.061693
996.51	0.015326
999.403	0.323338
1002.29	0.263716
1005.19	0.038826
1008.08	0.072689
1010.97	0.658434
1013.87	1.56418
1016.76	1.15795
1019.65	1.37661
1022.54	2.08719
1025.44	2.29032
1028.33	2.8591
1031.22	2.42463
1034.12	2.81666
1037.01	2.7962
1039.9	2.31889
1042.79	2.67651
1045.69	2.65706
1048.58	2.92555
1051.47	3.3704
1054.36	4.82841
1057.26	5.67035
1060.15	5.56478
1063.04	6.24456
1065.93	6.61731
1068.83	8.26745
1071.72	7.85084
1074.61	7.87152
1077.51	7.56324
1080.4	6.90395
1083.29	7.75625
1086.18	6.38289
1089.08	6.43328
1091.97	5.5839
1094.86	4.51773
1097.75	5.61763
1100.65	5.1125
1103.54	4.52118
1106.43	3.59306
1109.33	3.68021
1112.22	2.53258
1115.11	2.38602
1118	2.39564
1120.9	2.10932
1123.79	1.96899
1126.68	2.22134
1129.57	0.803965
1132.47	0.891176
1135.36	1.4085
1138.25	0.958841
1141.14	1.412
1144.04	0.479824
1146.93	0.705225
1149.82	0.420685
1152.72	0.342281
1155.61	0.812111
1158.5	0.007776
1161.39	0.521103
1164.29	0.253357
1167.18	0.206415
1170.07	0.316189
1172.96	0.402687
1175.86	0.004076
1178.75	0.225695
1181.64	0.079
1184.54	0.023825
1187.43	0.494514
1190.32	0.300766
1193.21	0.248251
1196.11	0.537523
1199	0.129459
1201.89	0.80341
1204.78	0.76424
1207.68	0.688746
1210.57	1.20075
1213.46	1.29813
1216.36	1.26757
1219.25	0.963088
1222.14	1.5664
1225.03	1.49622
1227.93	1.83177
1230.82	1.78062
1233.71	1.48947
1236.6	1.72308
1239.5	1.494
1242.39	1.21786
1245.28	0.574958
1248.17	1.29582
1251.07	0.945308
1253.96	0.744385
1256.85	0.827064
1259.74	0.731139
1262.64	1.5642
1265.53	0.57901
1268.42	0.582541
1271.32	0.651455
1274.21	1.21433
1277.1	1.26695
1279.99	0.068584
1282.89	0.945188
1285.78	0.715473
