Measurement: Raman, 780 nm, unoriented, Raman Data Processed
Mineral: Garronite-Ca
Rruff sample: R050281
Ideal chemistry: NaCa_2.5_(Si_10_Al_6_)O_32_14H_2_O
Locality: Pete's Point, Aneroid Lake, Wallowa County, Oregon, USA
Source: Marcus Origlieri
Description: White radiating crystal aggregates completely filling amygdules
Measured chemistry: (Na_0.94_K_0.06_)_Σ=1_Ca_2.50_(Si_10.00_Al_6.00_)O_32_·13H_2_O
Raman shift (cm-1)	intensity
92.6728	0
96.0477	14.1997
99.4225	10.9709
102.797	2.35731
106.172	3.67354
109.547	2.57439
112.922	4.50627
116.297	7.13184
119.671	9.07878
123.046	12.7249
126.421	12.0437
129.796	12.0761
133.171	9.53655
136.546	9.87833
139.92	8.82512
143.295	7.66097
146.67	7.52135
150.045	10.047
153.419	10.1461
156.794	10.4965
160.169	12.5366
163.544	13.4962
166.919	13.8551
170.294	15.514
173.668	14.6448
177.043	15.514
180.418	15.7264
183.793	14.2736
187.168	12.4903
190.542	11.2549
193.917	9.87339
197.292	5.74587
200.667	5.9146
204.042	4.6059
207.417	2.21442
210.791	0.551781
214.166	1.65308
217.541	1.50167
220.916	0.316891
224.291	0.145111
227.666	0.144562
231.04	0.137863
234.415	0.176857
237.79	0.525204
241.165	0.395237
244.54	0.479
247.914	1.24585
251.289	0.987049
254.664	2.40208
258.039	2.22408
261.414	3.17888
264.788	4.30676
268.163	4.2056
271.538	5.31574
274.913	5.09721
278.288	6.35447
281.663	6.49119
285.037	6.87636
288.412	6.82422
291.787	5.9114
295.162	6.41188
298.537	5.32429
301.911	4.37559
305.286	4.97968
308.661	4.19371
312.036	4.62869
315.411	4.22877
318.786	3.3753
322.16	3.16744
325.535	2.93837
328.91	2.12937
332.285	2.08408
335.66	0.797987
339.034	1.08779
342.409	1.61792
345.784	0.077286
349.159	0.985651
352.534	0.138115
355.909	0.250648
359.283	0.643431
362.658	0.952957
366.033	0.446747
369.408	0.684765
372.783	0.694092
376.157	0.230885
379.532	0.614826
382.907	0.549488
386.282	1.13878
389.657	1.46469
393.031	2.26966
396.406	3.78013
399.781	4.35909
403.156	6.00761
406.531	8.15056
409.906	11.2958
413.28	13.219
416.655	15.4753
420.03	16.0139
423.405	14.9201
426.78	13.3934
430.154	12.7447
433.529	13.1869
436.904	15.6088
440.279	19.7877
443.654	27.1403
447.029	33.9686
450.403	42.236
453.778	52.6779
457.153	61.2201
460.528	72.1603
463.903	78.7887
467.277	87.2345
470.652	86.9541
474.027	86.4386
477.402	83.2386
480.777	76.775
484.152	68.3119
487.526	58.543
490.901	46.7523
494.276	35.1689
497.651	26.0537
501.026	19.0493
504.4	12.5795
507.775	8.88389
511.15	6.23889
514.525	4.2195
517.9	2.79667
521.274	1.63949
524.649	1.08422
528.024	0.651627
531.399	0.612329
534.774	0.534985
538.149	0.586388
541.523	0.497419
544.898	0.315937
548.273	0.497795
551.648	0.171764
555.023	0.49264
558.398	0.432333
561.772	0.089716
565.147	0.57999
568.522	0.305967
571.897	0.906786
575.272	1.17664
578.646	1.11688
582.021	1.23582
585.396	1.69483
588.771	1.78394
592.146	2.63262
595.52	2.00116
598.895	1.87804
602.27	1.6222
605.645	1.83971
609.02	1.94249
612.394	1.58528
615.769	1.46373
619.144	1.64893
622.519	1.03758
625.894	1.10225
629.269	0.9505
632.643	1.03705
636.018	0.614196
639.393	0.246408
642.768	0.228776
646.143	0.570798
649.518	0.562455
652.892	0.280731
656.267	0.693737
659.642	0.328934
663.017	0.004337
666.392	0.709944
669.766	0.513777
673.141	0.563164
676.516	0.206954
679.891	0.806998
683.266	0.870142
686.64	0.607378
690.015	1.07545
693.39	0.807698
696.765	1.32395
700.14	1.80864
703.515	1.93126
706.889	2.01165
710.264	1.98447
713.639	1.85225
717.014	2.52274
720.389	3.01391
723.764	2.42896
727.138	2.12161
730.513	1.88176
733.888	1.83986
737.263	1.71394
740.638	1.86191
744.012	1.99079
747.387	1.58926
750.762	2.06395
754.137	3.40249
757.512	1.93257
760.886	2.27178
764.261	1.7077
767.636	1.35652
771.011	1.32502
774.386	1.43049
777.761	1.1657
781.135	0.693707
784.51	0.347512
787.885	0.972267
791.26	0.053496
794.635	0.05385
798.01	0.154537
801.384	0.077655
804.759	0.250614
808.134	0.313984
811.509	0.146589
814.884	0.113766
818.258	0.02517
821.633	0.152468
825.008	0.365358
828.383	0.33326
831.758	0.549905
835.132	0.817004
838.507	0.61716
841.882	1.20387
845.257	0.795001
848.632	0.812815
852.006	0.86876
855.381	0.711069
858.756	0.87742
862.131	1.37821
865.506	0.98805
868.881	1.00871
872.255	0.969163
875.63	1.16939
879.005	1.08452
882.38	1.32902
885.755	0.951264
889.13	1.21288
892.504	1.00518
895.879	1.06062
899.254	0.687333
902.629	0.258431
906.004	0.298152
909.378	0.607774
912.753	0.421088
916.128	0.495656
919.503	0.168252
922.878	0.16142
926.252	0.296884
929.627	0.158816
933.002	0.104555
936.377	0.005367
939.752	0.103562
943.126	0.153333
946.501	0.038175
949.876	0.577622
953.251	0.523739
956.626	0.319985
960.001	0.383605
963.375	0.589909
966.75	0.787707
970.125	0.836605
973.5	0.864543
976.875	0.405875
980.25	0.547845
983.624	0.137494
986.999	0.228789
990.374	0.129297
993.749	0.76286
997.124	0.079068
1000.5	0.092224
1003.87	0.143022
1007.25	0.638399
1010.62	1.00973
1014	0.661234
1017.37	1.19953
1020.75	1.56049
1024.12	1.44214
1027.5	2.07129
1030.87	1.26873
1034.25	1.19872
1037.62	1.49529
1041	1.80563
1044.37	1.44336
1047.75	1.58889
1051.12	1.80211
1054.49	2.14184
1057.87	2.65404
1061.24	3.11402
1064.62	3.23411
1067.99	3.79547
1071.37	3.85509
1074.74	3.48912
1078.12	3.57486
1081.49	3.18141
1084.87	3.33613
1088.24	2.22364
1091.62	2.08209
1094.99	2.26459
1098.37	2.12788
1101.74	1.94335
1105.12	1.77226
1108.49	1.35908
1111.87	0.67811
1115.24	0.809258
1118.62	0.751925
1121.99	0.707222
1125.37	0.226718
1128.74	0.493769
1132.12	0.11261
1135.49	0.175729
1138.87	0.371305
1142.24	0.194732
1145.62	0.174141
1148.99	0.336693
1152.37	0.168372
1155.74	0.571331
1159.12	0.174376
1162.49	0.182068
1165.86	0.016352
1169.24	0.012136
1172.61	0.016392
1175.99	0.22362
1179.36	0.171344
1182.74	0.212563
1186.11	0.034924
1189.49	0.267426
1192.86	0.306147
1196.24	0.493074
1199.61	0.407986
1202.99	0.471382
1206.36	0.420074
1209.74	0.513152
1213.11	0.711005
1216.49	0.759558
1219.86	1.08948
1223.24	0.916984
1226.61	1.13701
1229.99	0.968332
1233.36	0.779119
1236.74	0.641963
1240.11	0.768552
1243.48	0.589285
1246.86	0.598384
1250.23	0.393943
1253.61	0.55868
1256.98	0.744051
1260.36	0.708942
1263.73	0.495543
1267.11	0.415759
1270.48	0.065454
1273.86	0.163462
1277.23	0.193246
1280.61	0.290886
1283.98	0.21792
