Measurement: Raman, 785 nm, unoriented, Raman Data Processed
Mineral: Gartrellite
Rruff sample: R060881
Ideal chemistry: Pb^2+^Cu^2+^Fe^3+^(As^5+^O_4_)_2_(OH)H_2_O
Locality: Ashburton Downs, Western Australia
Source: Bob Jenkins
Description: Yellow grainy incrustations
Measured chemistry: Pb_1.00_Cu_1.00_(Fe^3+^_0.77_Cu_0.18_Al_0.04_Zn_0.01_)_Σ=1_((As_0.97_S_0.03_)_Σ=1_O_4_)_2_(OH)_0.87_·H_2_O; trace amounts of P; OH estimated by charge balance, H_2_O by difference
Raman shift (cm-1)	intensity
176.007	0
178.9	0.699707
181.793	24.1243
184.685	117.961
187.578	218.575
190.471	370.398
193.363	392.946
196.256	439.178
199.149	596.023
202.042	573.609
204.934	579.377
207.827	496.579
210.72	397.252
213.612	304.091
216.505	239.327
219.398	197.937
222.29	127.544
225.183	140.934
228.076	163.668
230.969	121.596
233.861	145.251
236.754	142.056
239.647	72.8562
242.539	78.4575
245.432	35.4663
248.325	3.67798
251.217	32.5156
254.11	16.2683
257.003	23.0676
259.896	82.9324
262.788	79.4246
265.681	60.6204
268.574	11.3535
271.466	8.22974
274.359	22.1284
277.252	23.7129
280.144	47.8066
283.037	38.7585
285.93	49.0083
288.822	32.6558
291.715	67.1987
294.608	146.752
297.501	207.947
300.393	279.472
303.286	383.624
306.179	442.317
309.071	393.618
311.964	411.05
314.857	424.992
317.75	517.977
320.642	503.059
323.535	598.041
326.428	744.353
329.32	879.911
332.213	1031.86
335.106	1163.19
337.998	1454.86
340.891	1660.97
343.784	1961.72
346.676	2104.76
349.569	2124.47
352.462	2068.27
355.355	1866.46
358.247	1533.47
361.14	1126.37
364.033	816.127
366.925	553.78
369.818	389.288
372.711	183.281
375.603	65.3308
378.496	41.8918
381.389	59.1435
384.282	90.5869
387.174	51.7676
390.067	87.3384
392.96	244.131
395.852	393.254
398.745	421.567
401.638	483.717
404.531	352.974
407.423	317.263
410.316	279.304
413.209	270.95
416.101	287.947
418.994	305.76
421.887	342.852
424.779	398.063
427.672	443.051
430.565	454.475
433.457	482.596
436.35	530.534
439.243	548.641
442.135	582.414
445.028	667.512
447.921	803.757
450.814	1079.7
453.706	1419.83
456.599	2044.65
459.492	2647.46
462.384	2692.04
465.277	2299.42
468.17	1626.16
471.062	1264.77
473.955	1065.94
476.848	948.974
479.741	934.4
482.633	989.786
485.526	1122.8
488.419	1303.45
491.311	1632.15
494.204	1857
497.097	1998.8
499.99	1976.52
502.882	1778.45
505.775	1410.14
508.668	1070.73
511.56	778.74
514.453	517.982
517.346	380.603
520.238	233.576
523.131	137.035
526.024	69.3586
528.917	25.6118
531.809	14.3149
534.702	10.1113
537.595	34.0403
540.487	4.59961
543.38	23.8186
546.273	26.3408
549.165	21.179
552.058	9.70972
554.951	18.3263
557.843	20.6483
560.736	44.4033
563.629	72.0951
566.522	88.1171
569.414	53.1702
572.307	133.571
575.2	164.069
578.092	206.503
580.985	213.872
583.878	257.635
586.77	278.688
589.663	286.581
592.556	360.046
595.448	360.603
598.341	380.199
601.234	423.144
604.127	403.169
607.019	384.959
609.912	385.486
612.805	437.36
615.697	418.457
618.59	361.342
621.483	352.874
624.375	358.979
627.268	331.665
630.161	286.347
633.054	271.639
635.946	256.997
638.839	222.5
641.732	212.392
644.625	203.491
647.517	149.32
650.41	175.281
653.303	130.174
656.195	126.838
659.088	122.085
661.981	101.206
664.873	95.1971
667.766	44.6519
670.659	74.0485
673.552	91.1251
676.444	84.8612
679.337	40.7245
682.23	42.2369
685.122	30.6997
688.015	49.9436
690.908	19.8458
693.8	17.3142
696.693	21.8345
699.586	0.394531
702.479	4.13306
705.371	47.4935
708.264	17.3082
711.157	45.8119
714.049	2.9408
716.942	1.66052
719.835	10.3257
722.727	6.66382
725.62	11.6411
728.513	18.7871
731.405	34.272
734.298	76.5315
737.191	139.101
740.083	240.134
742.976	351.28
745.869	408.848
748.762	652.187
751.654	735.835
754.547	789.398
757.44	727.955
760.332	668.296
763.225	471.582
766.118	342.243
769.01	165.229
771.903	81.7053
774.796	7.4104
777.689	21.928
780.581	5.4978
783.474	39.26
786.367	115.073
789.259	241.386
792.152	354.035
795.045	543.106
797.938	732.378
800.83	967.646
803.723	1201.42
806.616	1395.59
809.508	1492.25
812.401	1568.47
815.294	1549.13
818.186	1522.58
821.079	1555.66
823.972	1766.95
826.865	1929.31
829.757	2157.99
832.65	2367.08
835.543	2468.34
838.435	2480.83
841.328	2397.62
844.221	2283.49
847.113	2162.43
850.006	2105.85
852.899	2062.83
855.792	2083.93
858.684	2144.47
861.577	2241.81
864.47	2211.68
867.362	2104.33
870.255	1796.09
873.148	1396.6
876.04	954.203
878.933	713.358
881.826	565.273
884.718	379.71
887.611	200.857
890.504	175.059
893.396	95.5987
896.289	63.9882
899.182	45.9254
902.075	6.4386
904.967	3.3562
907.86	22.2784
910.753	13.7506
913.645	11.0252
916.538	18.0702
919.431	11.0902
922.323	42.463
925.216	37.5751
928.109	2.96558
931.002	43.5994
933.894	46.0461
936.787	37.7881
939.68	42.873
942.572	90.9808
945.465	79.1844
948.358	84.4095
951.25	99.4526
954.143	95.2071
957.036	124.613
959.929	128.999
962.821	181.01
965.714	186.035
968.607	179.263
971.5	194.818
974.392	220.854
977.285	209.882
980.178	215.656
983.07	176.321
985.963	137.196
988.856	108.503
991.748	63.467
994.641	45.593
997.534	79.7988
1000.43	78.0824
1003.32	115.76
1006.21	91.7053
1009.1	50.973
1012	41.8789
1014.89	58.5311
1017.78	55.0201
1020.67	25.262
1023.57	14.2873
1026.46	2.30652
1029.35	10.1514
1032.25	68.0707
1035.14	35.4813
1038.03	33.7053
1040.92	16.8607
1043.82	42.2839
1046.71	41.7046
1049.6	28.787
1052.49	45.5724
1055.39	30.2008
1058.28	35.177
1061.17	27.4603
1064.07	32.7997
1066.96	52.3937
1069.85	23.6202
1072.74	1.51355
1075.64	32.0219
1078.53	33.902
1081.42	14.4913
1084.32	43.9869
1087.21	31.9191
1090.1	31.8406
1092.99	57.6508
1095.88	7.51721
1098.78	28.7721
1101.67	9.50891
1104.56	32.3175
1107.46	11.7278
1110.35	7.57886
1113.24	1.06628
1116.13	17.5945
1119.03	38.2795
1121.92	5.96252
1124.81	9.53931
1127.7	31.4627
1130.6	7.45459
1133.49	2.54614
1136.38	0.682007
1139.28	14.3669
1142.17	56.7372
1145.06	14.1708
1147.95	38.5204
1150.85	29.145
1153.74	53.9939
1156.63	67.4438
1159.53	82.3058
1162.42	96.3909
1165.31	69.4529
1168.2	48.8273
1171.1	22.6005
1173.99	41.5038
1176.88	52.6602
1179.77	12.6467
1182.67	18.4144
1185.56	36.4834
1188.45	26.821
1191.35	72.1405
1194.24	37.8193
1197.13	40.1229
1200.02	55.6743
1202.91	2.65588
1205.81	57.2047
1208.7	31.0731
1211.59	31.403
1214.49	21.8098
1217.38	69.3168
1220.27	29.8938
1223.16	69.5914
1226.06	53.97
1228.95	46.6692
1231.84	53.5906
1234.73	37.3854
1237.63	5.25671
1240.52	34.1605
1243.41	69.1686
1246.31	81.2324
1249.2	73.8904
1252.09	33.7533
1254.98	37.8041
1257.88	32.687
1260.77	0.103027
