Measurement: Raman, 532 nm, unoriented, Raman Data Processed
Mineral: Gartrellite
Rruff sample: R060881
Ideal chemistry: Pb^2+^Cu^2+^Fe^3+^(As^5+^O_4_)_2_(OH)H_2_O
Locality: Ashburton Downs, Western Australia
Source: Bob Jenkins
Description: Yellow grainy incrustations
Measured chemistry: Pb_1.00_Cu_1.00_(Fe^3+^_0.77_Cu_0.18_Al_0.04_Zn_0.01_)_Σ=1_((As_0.97_S_0.03_)_Σ=1_O_4_)_2_(OH)_0.87_·H_2_O; trace amounts of P; OH estimated by charge balance, H_2_O by difference
Raman shift (cm-1)	intensity
127.308	0
130.683	334.76
134.058	2277.38
137.433	5107.64
140.808	7676.07
144.183	8311.5
147.557	7511.18
150.932	7529.9
154.307	8611.79
157.682	9220.06
161.057	8391.33
164.431	5477.04
167.806	2274.76
171.181	420.688
174.556	-18.7252
177.931	-7.33154
181.305	40.0933
184.68	794.158
188.055	1658.1
191.43	3008.39
194.805	4580.19
198.179	6286.71
201.554	7676.81
204.929	8460.61
208.304	8171.03
211.679	6811.65
215.054	5076.56
218.428	3765.34
221.803	2836.17
225.178	2422.57
228.553	2357.55
231.928	2453.14
235.303	2358.37
238.677	2323.79
242.052	1888.74
245.427	1258.7
248.802	671.171
252.177	54.5752
255.551	35.1758
258.926	43.6855
262.301	173.586
265.676	137.789
269.051	100.69
272.425	83.3154
275.8	10.2891
279.175	51.5605
282.55	100.227
285.925	126.412
289.3	306.778
292.674	709.904
296.049	1041.21
299.424	1691.34
302.799	2356.41
306.174	2850.55
309.548	3264.05
312.923	3294.22
316.298	3497.97
319.673	3555.35
323.048	4044.1
326.422	5138.1
329.797	6257.63
333.172	7596.75
336.547	9763.98
339.922	12333.1
343.296	15132.1
346.671	17138.2
350.046	17823.4
353.421	17099
356.796	14811.9
360.171	11868
363.545	8931.08
366.92	5877.34
370.295	3315.31
373.67	1312.02
377.045	453.064
380.419	161.812
383.794	104.442
387.169	207.897
390.544	451.629
393.919	1605
397.293	2237.79
400.668	2882.84
404.043	2893.15
407.418	2309.79
410.793	2031.98
414.168	1903.98
417.542	2121.48
420.917	2443.03
424.292	2815.09
427.667	3180.84
431.042	3684.85
434.416	4005.02
437.791	4387.08
441.166	4525.86
444.541	4942.92
447.916	5671.35
451.291	7232.1
454.665	9586.39
458.04	12913.8
461.415	16494.7
464.79	17348.4
468.165	13849
471.539	11926.3
474.914	11913.9
478.289	12519.9
481.664	13689.5
485.039	16040.6
488.413	19306.8
491.788	23348.8
495.163	28100.7
498.538	31554.6
501.913	31182.7
505.288	26604.3
508.662	19485.1
512.037	12978.8
515.412	8470.26
518.787	5368.84
522.162	3412.7
525.536	1977.13
528.911	1083.67
532.286	464.171
535.661	237.959
539.036	68.2044
542.41	-95.5088
545.785	-127.957
549.16	-200.541
552.535	-166.045
555.91	-111.356
559.284	151.689
562.659	246.29
566.034	503.446
569.409	762.747
572.784	1015.24
576.159	1299.49
579.533	1517.28
582.908	1887.01
586.283	2223.13
589.658	2718.89
593.033	3084.03
596.408	3525.45
599.782	3792.34
603.157	3991.91
606.532	4132.11
609.907	4115.84
613.282	3935.11
616.656	3836.11
620.031	3675.96
623.406	3416.77
626.781	3167.87
630.156	2853.99
633.53	2731.91
636.905	2528.07
640.28	2184.33
643.655	2065.73
647.03	1934.38
650.404	1869.98
653.779	1806.33
657.154	1664.11
660.529	1485.16
663.904	1244.37
667.279	1144.74
670.653	1143.79
674.028	850.682
677.403	686.781
680.778	500.976
684.153	476.775
687.528	408.504
690.902	285.691
694.277	199.839
697.652	3.76758
701.027	130.167
704.402	159.809
707.776	277.721
711.151	130.004
714.526	109.83
717.901	102.911
721.276	148.746
724.65	109.524
728.025	57.7246
731.4	142.994
734.775	668.232
738.15	1610.98
741.524	3323.59
744.899	5747.63
748.274	8498.79
751.649	11056.1
755.024	12690.4
758.399	12543.2
761.773	10253.9
765.148	7326.45
768.523	4585.69
771.898	2340.32
775.273	730.633
778.648	52.0879
782.022	70.5508
785.397	767.717
788.772	2139.62
792.147	4496.07
795.521	7564.49
798.896	11517.7
802.271	15716.9
805.646	19590.8
809.021	22500.3
812.396	23084.7
815.77	21850.2
819.145	19943.2
822.52	19108.8
825.895	20292.2
829.27	22650.5
832.644	24824.1
836.019	26529.2
839.394	26545.8
842.769	25469.4
846.144	24023
849.519	22872.4
852.893	22778.7
856.268	23612.4
859.643	25340.8
863.018	27154.5
866.393	28263.6
869.767	26608
873.142	21159.6
876.517	14355.4
879.892	9211.13
883.267	6030.41
886.641	4144.25
890.016	2821.53
893.391	1884.63
896.766	1169.39
900.141	462.011
903.516	200.569
906.89	110.18
910.265	3.47051
913.64	26.3743
917.015	-1.55852
920.39	-4.25236
923.764	82.7045
927.139	129.774
930.514	339.754
933.889	450.926
937.264	653.745
940.639	790.219
944.013	867.856
947.388	1038.68
950.763	1175.25
954.138	1492.62
957.513	1559.81
960.887	1775.2
964.262	1961.1
967.637	2072.76
971.012	2206.18
974.387	2303.2
977.761	2502.64
981.136	2380.81
984.511	2079.59
987.886	1693.13
991.261	1387.73
994.635	1074.49
998.01	1053.09
1001.38	974.034
1004.76	843.408
1008.13	736.85
1011.51	753.935
1014.88	671.994
1018.26	483.144
1021.63	465.155
1025.01	451.478
1028.38	397.876
1031.76	390.19
1035.13	305.068
1038.51	279.372
1041.88	252.44
1045.26	169.185
1048.63	140.892
1052.01	122.686
1055.38	123.391
1058.76	166.47
1062.13	151.024
1065.51	230.956
1068.88	120.547
1072.26	65.5234
1075.63	133.592
1079.01	126.35
1082.38	235.594
1085.76	201.177
1089.13	31.7305
1092.51	6.14551
1095.88	89.6709
1099.26	28.4229
1102.63	120.397
1106	37.2305
1109.38	1.2334
1112.75	13.2715
1116.13	74.3857
1119.5	63.0635
1122.88	71.0215
1126.25	4.42871
1129.63	55.4082
1133	21.3691
1136.38	3.2041
1139.75	32.3272
1143.13	52.3857
1146.5	26.1855
1149.88	182.135
1153.25	381.763
1156.63	503.615
1160	647.443
1163.38	438.147
1166.75	259.13
1170.13	185.695
1173.5	213.074
1176.88	264.342
1180.25	175.135
1183.62	190.552
1187	116.774
1190.38	57.0498
1193.75	79.7637
1197.12	96.7666
1200.5	27.8213
1203.87	86.2363
1207.25	64.7314
1210.62	111.46
1214	58.7305
1217.37	28.1904
1220.75	76.9756
1224.12	59.3115
1227.5	62.8232
1230.87	47.4727
1234.25	97.5918
1237.62	127.436
1241	120.126
1244.37	128.656
1247.75	184.222
1251.12	100.472
1254.5	64.0518
1257.87	71.2481
1261.25	56.1465
1264.62	5.41406
1267.99	95.2148
1271.37	124.956
1274.74	317.368
1278.12	115.965
1281.49	56.71
1284.87	75.9277
1288.24	90.8174
1291.62	1.03027
