Measurement: Raman, 780 nm, unoriented, Raman Data Processed
Mineral: Garyansellite
Rruff sample: R130732
Ideal chemistry: (Mg,Fe^3+^)_3_(PO_4_)_2_(H_2_O,OH)_3_
Locality: Rapid Creek area, Dawson Mining District, Yukon Territory, Canada
Source: Rock Currier
Description: Brown flat, prismatic crystals associated with arrojadite NEW MINERAL
Measured chemistry: (Fe^3+^_1.76_Mg_1.15_Mn_0.05_)_Σ=2.96_(PO_4_)_2_(OH)_1.68_·1.32H_2_O
Raman shift (cm-1)	intensity
114.823	0.0103
118.198	4.95296
121.573	10.9811
124.948	19.4869
128.322	27.7388
131.697	31.4758
135.072	29.7469
138.447	30.6837
141.822	27.1572
145.197	23.9024
148.571	18.2889
151.946	14.862
155.321	12.5514
158.696	6.90225
162.071	2.97876
165.446	0.087631
168.82	0.15036
172.195	0.68631
175.57	6.23592
178.945	15.0674
182.32	25.7136
185.694	39.6107
189.069	55.3963
192.444	77.8522
195.819	99.7194
199.194	99.163
202.569	70.2928
205.943	38.1891
209.318	17.6661
212.693	7.56147
216.068	1.29807
219.442	0.755234
222.817	0.488556
226.192	0.117226
229.567	0.579056
232.942	3.61482
236.317	5.43771
239.691	7.73006
243.066	10.2226
246.441	14.0166
249.816	18.4753
253.191	19.5051
256.565	22.1277
259.94	24.1958
263.315	25.2241
266.69	26.6763
270.065	27.5433
273.44	27.79
276.814	27.4271
280.189	26.8509
283.564	27.2008
286.939	28.5992
290.314	29.6635
293.688	28.3213
297.063	27.102
300.438	24.2225
303.813	21.5178
307.188	18.9837
310.562	15.5858
313.937	12.9289
317.312	9.41532
320.687	7.20051
324.062	4.89935
327.437	2.81359
330.811	1.14494
334.186	0.187042
337.561	0.181053
340.936	0.720741
344.311	0.41951
347.685	0.372292
351.06	0.708107
354.435	2.14871
357.81	4.21583
361.185	5.12798
364.56	6.87424
367.934	8.80053
371.309	11.6842
374.684	10.6425
378.059	11.536
381.434	12.3388
384.808	13.064
388.183	12.3783
391.558	12.7343
394.933	11.7871
398.308	11.0887
401.683	9.73882
405.057	8.8913
408.432	7.48846
411.807	7.80617
415.182	8.42448
418.557	9.79165
421.931	9.45258
425.306	9.34298
428.681	7.53848
432.056	6.4152
435.431	4.3403
438.805	1.88928
442.18	0.186592
445.555	0.010315
448.93	0.265701
452.305	0.010597
455.68	0.508179
459.054	1.20063
462.429	1.84934
465.804	2.99873
469.179	3.66847
472.554	5.47334
475.928	6.50557
479.303	7.95625
482.678	9.01626
486.053	9.58878
489.428	9.85683
492.803	9.3995
496.177	8.57201
499.552	6.61473
502.927	4.46618
506.302	2.4036
509.677	0.02507
513.051	0.8531
516.426	1.70614
519.801	1.33418
523.176	0.900455
526.551	3.50785
529.926	7.97163
533.3	12.7697
536.675	15.1456
540.05	18.7987
543.425	20.2702
546.799	20.5101
550.174	20.8377
553.549	19.5926
556.924	19.6425
560.299	18.8861
563.674	18.7352
567.048	19.1339
570.423	19.3871
573.798	21.0232
577.173	21.7503
580.548	25.1446
583.923	28.9861
587.297	35.6491
590.672	42.44
594.047	49.4166
597.422	55.2386
600.797	60.018
604.171	59.9515
607.546	57.4689
610.921	50.5583
614.296	43.7172
617.671	36.5059
621.045	29.7484
624.42	23.9077
627.795	19.8634
631.17	15.0784
634.545	11.2541
637.919	7.47108
641.294	5.35206
644.669	3.44955
648.044	1.89521
651.419	0.524206
654.794	0.098791
658.168	0.208298
661.543	0.634315
664.918	0.850769
668.293	0.402597
671.668	0.064878
675.043	0.517937
678.417	0.290556
681.792	0.704443
685.167	0.587036
688.542	1.32114
691.917	1.82092
695.291	2.21286
698.666	2.44048
702.041	2.66631
705.416	3.20408
708.791	3.10164
712.165	3.6577
715.54	3.01032
718.915	3.56365
722.29	2.27737
725.665	2.4075
729.039	1.95696
732.414	1.81142
735.789	1.40337
739.164	1.58844
742.539	1.40213
745.914	1.26349
749.288	1.3716
752.663	1.11091
756.038	1.10467
759.413	0.932795
762.788	0.647371
766.163	0.860567
769.537	0.634016
772.912	0.652756
776.287	0.648691
779.662	0.442524
783.037	0.01853
786.411	0.011627
789.786	0.69451
793.161	0.327366
796.536	0.504519
799.911	0.868069
803.285	0.976517
806.66	0.839386
810.035	0.907167
813.41	1.6403
816.785	1.68092
820.159	1.92616
823.534	2.30306
826.909	3.16036
830.284	3.75874
833.659	3.61415
837.034	4.49744
840.408	4.44424
843.783	4.68972
847.158	4.66777
850.533	4.60835
853.908	4.26621
857.283	3.68089
860.657	2.82859
864.032	2.05686
867.407	1.466
870.782	1.05923
874.157	0.618803
877.531	0.452353
880.906	0.235033
884.281	0.288252
887.656	0.381136
891.031	0.323275
894.405	0.225693
897.78	0.434172
901.155	0.016161
904.53	0.426716
907.905	0.579147
911.279	0.059879
914.654	0.418678
918.029	1.68079
921.404	2.71055
924.779	4.61741
928.154	6.19519
931.528	9.0996
934.903	11.708
938.278	14.9334
941.653	18.5938
945.028	23.2936
948.403	29.8401
951.777	35.4122
955.152	42.4315
958.527	48.7411
961.902	54.2382
965.277	56.2823
968.651	54.4068
972.026	50.9466
975.401	44.6346
978.776	39.0594
982.151	34.574
985.525	29.1937
988.9	26.6009
992.275	22.8202
995.65	20.2781
999.025	17.912
1002.4	16.5458
1005.77	14.2989
1009.15	12.4295
1012.52	10.6835
1015.9	8.22002
1019.27	7.92819
1022.65	7.05689
1026.02	5.85783
1029.4	5.21342
1032.77	4.49485
1036.15	3.64166
1039.52	3.48299
1042.9	3.23329
1046.27	1.84356
1049.65	2.20223
1053.02	1.70292
1056.4	1.48672
1059.77	1.85735
1063.15	1.98045
1066.52	1.40079
1069.9	1.537
1073.27	0.921686
1076.64	0.332832
1080.02	0.154623
1083.39	0.142607
1086.77	0.592104
1090.14	0.727703
1093.52	0.419733
1096.89	0.287561
1100.27	0.196739
1103.64	0.336565
1107.02	1.18278
1110.39	1.58728
1113.77	1.91916
1117.14	2.80545
1120.52	2.41123
1123.89	3.13388
1127.27	3.28965
1130.64	3.211
1134.02	3.27448
1137.39	2.49954
1140.77	2.73476
1144.14	2.18373
1147.52	1.58039
1150.89	1.85242
1154.27	0.67128
1157.64	0.593089
1161.02	0.559281
1164.39	0.208968
1167.77	0.425037
1171.14	0.707258
1174.52	0.405637
1177.89	0.756843
1181.27	1.08274
1184.64	0.76464
1188.01	1.4121
1191.39	1.03649
1194.76	1.26405
1198.14	1.09694
1201.51	1.39644
1204.89	1.77611
1208.26	1.37212
1211.64	1.35661
1215.01	1.25982
1218.39	1.14027
1221.76	1.08851
1225.14	1.49727
1228.51	1.18784
1231.89	0.537132
1235.26	0.83539
1238.64	0.964084
1242.01	0.668528
1245.39	0.946842
1248.76	1.03904
1252.14	0.945113
1255.51	0.740042
1258.88	0.703519
1262.26	0.675241
1265.63	0.970559
1269.01	0.303266
1272.38	0.398241
1275.76	0.408375
1279.13	0.386124
1282.51	0.173282
