Measurement: Raman, 532 nm, unoriented, Raman Data Processed
Mineral: Garyansellite
Rruff sample: R130732
Ideal chemistry: (Mg,Fe^3+^)_3_(PO_4_)_2_(H_2_O,OH)_3_
Locality: Rapid Creek area, Dawson Mining District, Yukon Territory, Canada
Source: Rock Currier
Description: Brown flat, prismatic crystals associated with arrojadite NEW MINERAL
Measured chemistry: (Fe^3+^_1.76_Mg_1.15_Mn_0.05_)_Σ=2.96_(PO_4_)_2_(OH)_1.68_·1.32H_2_O
Raman shift (cm-1)	intensity
209.409	11.1158
212.301	6.73087
215.194	0.021332
218.087	0.113701
220.98	0.662231
223.872	3.41652
226.765	6.78467
229.658	8.60162
232.55	9.18198
235.443	11.162
238.336	13.6097
241.228	16.8073
244.121	18.9244
247.014	23.6898
249.906	26.9288
252.799	28.3196
255.692	31.4163
258.585	29.6104
261.477	32.3669
264.37	32.9833
267.263	33.3298
270.155	33.1201
273.048	35.0781
275.941	33.2013
278.834	32.9815
281.726	33.8054
284.619	34.5795
287.512	36.0248
290.404	36.0256
293.297	37.7319
296.19	35.4278
299.082	33.8152
301.975	32.5217
304.868	30.2114
307.76	26.3484
310.653	23.0097
313.546	20.03
316.439	16.4412
319.331	12.9769
322.224	9.35763
325.117	6.98399
328.009	4.91177
330.902	1.28351
333.795	0.977844
336.688	0.954185
339.58	0.597298
342.473	1.16278
345.366	0.948143
348.258	1.34611
351.151	0.305542
354.044	1.1502
356.936	3.50627
359.829	3.88781
362.722	7.35093
365.615	9.63258
368.507	14.3529
371.4	14.3307
374.293	13.9698
377.185	17.2206
380.078	17.9888
382.971	17.3083
385.863	15.821
388.756	15.6752
391.649	16.4293
394.541	17.0945
397.434	13.4756
400.327	12.7036
403.22	11.8298
406.112	9.89803
409.005	10.0754
411.898	9.62872
414.79	9.26209
417.683	8.93982
420.576	8.74252
423.469	8.39759
426.361	7.69498
429.254	6.22195
432.147	5.10129
435.039	2.75938
437.932	2.00626
440.825	1.3953
443.717	0.915428
446.61	0.268684
449.503	0.310333
452.396	0.45575
455.288	0.421745
458.181	1.42936
461.074	2.25997
463.966	2.74559
466.859	4.50765
469.752	5.06117
472.644	6.69514
475.537	8.17894
478.43	11.3744
481.322	11.4619
484.215	11.2836
487.108	11.5642
490.001	11.5686
492.893	12.4249
495.786	11.3325
498.679	10.2431
501.571	7.52055
504.464	5.54021
507.357	2.14558
510.25	0.061852
513.142	1.27101
516.035	1.90655
518.928	1.88256
521.82	0.160957
524.713	2.69341
527.606	9.64417
530.498	15.1482
533.391	21.7757
536.284	29.2589
539.177	34.1744
542.069	36.88
544.962	37.0774
547.855	36.6411
550.747	36.5206
553.64	33.1146
556.533	30.9777
559.425	28.4499
562.318	26.1171
565.211	25.9508
568.104	25.9963
570.996	26.1227
573.889	27.8457
576.782	30.4534
579.674	34.9377
582.567	40.9745
585.46	49.7832
588.352	59.7389
591.245	69.3358
594.138	81.1205
597.03	92.4732
599.923	100.932
602.816	105.304
605.709	105.204
608.601	100.605
611.494	92.7124
614.387	83.0665
617.279	71.8663
620.172	62.4073
623.065	53.4379
625.957	42.8563
628.85	35.9432
631.743	28.9063
634.636	23.1794
637.528	17.715
640.421	12.0753
643.314	9.21448
646.206	5.84809
649.099	3.76754
651.992	1.69051
654.885	0.913239
657.777	0.417255
660.67	1.53212
663.563	1.19973
666.455	0.883335
669.348	1.05021
672.241	0.476768
675.133	0.412552
678.026	0.039803
680.919	1.25267
683.812	1.30228
686.704	1.5174
689.597	1.77406
692.49	3.11733
695.382	3.33496
698.275	4.05016
701.168	3.86189
704.06	4.27461
706.953	4.96969
709.846	5.76453
712.739	5.13764
715.631	6.25416
718.524	5.5256
721.417	5.80259
724.309	4.83493
727.202	3.0359
730.095	3.42759
732.987	3.19961
735.88	2.61852
738.773	2.06625
741.665	2.35152
744.558	2.37623
747.451	2.54884
750.344	1.78153
753.236	2.24903
756.129	1.8962
759.022	1.94501
761.914	1.89811
764.807	1.29337
767.7	1.4011
770.592	0.972469
773.485	1.12635
776.378	0.337307
779.271	0.942551
782.163	1.1441
785.056	0.706085
787.949	0.820812
790.841	1.3608
793.734	0.72607
796.627	0.714123
799.519	0.413761
802.412	0.792152
805.305	0.990612
808.198	1.12892
811.09	1.38439
813.983	1.6615
816.876	2.15738
819.768	2.30631
822.661	3.04476
825.554	3.47347
828.447	4.13892
831.339	4.63337
834.232	5.5395
837.125	5.80762
840.017	6.30844
842.91	6.29871
845.803	6.54079
848.695	6.0735
851.588	5.95165
854.481	5.09877
857.374	4.71819
860.266	4.28969
863.159	3.3409
866.052	2.6958
868.944	1.78939
871.837	1.3438
874.73	0.76968
877.622	0.111176
880.515	0.048176
883.408	0.315384
886.301	0.29705
889.193	0.114101
892.086	0.646248
894.979	0.916378
897.871	0.81757
900.764	0.449276
903.657	0.519829
906.549	0.256229
909.442	0.167263
912.335	1.46756
915.227	0.633381
918.12	1.72846
921.013	2.5393
923.906	3.72691
926.798	6.7129
929.691	8.26745
932.584	11.9966
935.476	15.4325
938.369	18.309
941.262	22.5772
944.154	27.4852
947.047	32.1069
949.94	36.5644
952.833	42.2518
955.725	46.2103
958.618	51.3531
961.511	55.9574
964.403	59.1701
967.296	58.934
970.189	57.1351
973.082	54.0385
975.974	49.4108
978.867	44.924
981.76	39.2535
984.652	36.6126
987.545	33.6536
990.438	30.273
993.33	27.6602
996.223	24.9023
999.116	22.4131
1002.01	20.0588
1004.9	17.9521
1007.79	17.0601
1010.69	14.1441
1013.58	12.2043
1016.47	11.2079
1019.37	9.49846
1022.26	8.20383
1025.15	7.49984
1028.04	7.65699
1030.94	6.87305
1033.83	6.2384
1036.72	5.3575
1039.61	4.43565
1042.51	4.56557
1045.4	4.19967
1048.29	4.22945
1051.18	2.81323
1054.08	3.25223
1056.97	2.98492
1059.86	2.78052
1062.76	3.32033
1065.65	3.30742
1068.54	2.03074
1071.43	3.2409
1074.33	1.76029
1077.22	0.811935
1080.11	0.571251
1083	0.197281
1085.9	0.788574
1088.79	1.11505
1091.68	1.19922
1094.58	0.389439
1097.47	0.731804
1100.36	0.463036
1103.25	0.041962
1106.15	1.85167
1109.04	1.58701
1111.93	2.46511
1114.82	4.09545
1117.72	4.2722
1120.61	5.70422
1123.5	5.52899
1126.39	6.22614
1129.29	5.6117
1132.18	6.22212
1135.07	6.49243
1137.96	5.19519
1140.86	4.90969
1143.75	4.15139
1146.64	3.0338
1149.54	1.87537
1152.43	1.0619
1155.32	0.372253
1158.21	0.265072
1161.11	0.590977
1164	1.06376
1166.89	0.39542
1169.79	0.447742
1172.68	0.720287
1175.57	1.86755
1178.46	1.06981
1181.36	1.46752
1184.25	1.11509
1187.14	0.97739
1190.03	1.53263
1192.93	1.9391
1195.82	1.9278
1198.71	1.74734
1201.61	2.48018
1204.5	2.26633
1207.39	2.39672
1210.28	2.35789
1213.18	2.55627
1216.07	2.23448
1218.96	2.05921
1221.85	2.36818
1224.75	1.65436
1227.64	2.0068
1230.53	1.72638
1233.42	2.17948
1236.32	1.80017
1239.21	1.18459
1242.1	1.85912
1244.99	1.3509
1247.89	1.48968
1250.78	1.48505
1253.67	0.711323
1256.57	1.49879
1259.46	1.3428
1262.35	1.41504
1265.24	1.11812
1268.14	0.565353
1271.03	0.662102
1273.92	1.13908
1276.82	0.282429
1279.71	0.270729
1282.6	1.11315
1285.49	0.380474
1288.39	0.231888
1291.28	0.735378
1294.17	0.558567
1297.06	0.628441
1299.96	0.005619
