Measurement: Raman, 780 nm, unoriented, Raman Data Processed
Mineral: Garyansellite
Rruff sample: R100209
Ideal chemistry: (Mg,Fe^3+^)_3_(PO_4_)_2_(H_2_O,OH)_3_
Locality: Rapid Creek, Dawson Mining District, Yukon Territory, Canada
Source: Royal Ontario Museum
Description: Reddish-brown transparent fragments from the type sample NONPUBLIC BECAUSE IT IS A NEW MINERAL
Measured chemistry: (Fe^3+^_1.63_Mg_1.20_Mn_0.15_)_Σ=2.98_(PO_4_)_2_(OH)_1.59_·1.38H_2_O
Raman shift (cm-1)	intensity
94.5744	0
97.9492	3.04483
101.324	0.998779
104.699	3.80524
108.074	1.42258
111.448	0.302338
114.823	3.15851
118.198	7.23212
121.573	14.5664
124.948	17.401
128.322	23.4794
131.697	25.5444
135.072	27.6345
138.447	28.8412
141.822	27.6359
145.197	24.5734
148.571	25.61
151.946	26.2505
155.321	26.0279
158.696	27.0454
162.071	29.2655
165.446	27.1635
168.82	23.6623
172.195	19.9123
175.57	18.232
178.945	15.386
182.32	21.4935
185.694	25.1425
189.069	39.8444
192.444	61.0167
195.819	78.8772
199.194	78.4388
202.569	61.7317
205.943	43.693
209.318	25.6977
212.693	14.5534
216.068	4.48645
219.442	2.78894
222.817	3.04794
226.192	2.58157
229.567	0.627136
232.942	1.50467
236.317	6.34451
239.691	9.63748
243.066	17.9627
246.441	22.9221
249.816	31.0602
253.191	36.4801
256.565	37.2268
259.94	38.096
263.315	38.8348
266.69	36.3148
270.065	33.8524
273.44	33.7472
276.814	34.2483
280.189	35.6517
283.564	37.0196
286.939	35.9582
290.314	37.9731
293.688	38.5299
297.063	38.1674
300.438	34.2533
303.813	29.2047
307.188	27.9271
310.562	22.4449
313.937	20.1331
317.312	16.5285
320.687	16.2912
324.062	13.969
327.437	12.8858
330.811	10.8732
334.186	11.5163
337.561	11.6024
340.936	9.30844
344.311	7.63611
347.685	7.82269
351.06	6.78841
354.435	7.91298
357.81	5.19963
361.185	6.09129
364.56	4.83511
367.934	4.23491
371.309	2.78818
374.684	0.182983
378.059	0.328888
381.434	1.95003
384.808	1.72852
388.183	0.290009
391.558	0.062912
394.933	2.10034
398.308	1.0058
401.683	2.15607
405.057	4.35869
408.432	5.7751
411.807	6.12447
415.182	9.23254
418.557	10.6197
421.931	11.0741
425.306	9.50751
428.681	8.54831
432.056	7.96745
435.431	5.75043
438.805	3.22725
442.18	0.947464
445.555	0.27298
448.93	0.078781
452.305	0.158722
455.68	2.38902
459.054	2.89015
462.429	3.66789
465.804	4.24567
469.179	4.87009
472.554	5.77682
475.928	5.92389
479.303	6.89694
482.678	7.46248
486.053	7.98946
489.428	7.46014
492.803	7.81354
496.177	7.62921
499.552	4.3981
502.927	4.01085
506.302	0.142166
509.677	0.553802
513.051	2.8802
516.426	0.696564
519.801	1.36888
523.176	2.67587
526.551	6.74023
529.926	11.949
533.3	17.958
536.675	22.5627
540.05	24.8856
543.425	26.8589
546.799	26.4008
550.174	26.9734
553.549	25.5257
556.924	22.2488
560.299	20.904
563.674	19.3055
567.048	20.7533
570.423	22.6758
573.798	25.8792
577.173	29.7684
580.548	37.2439
583.923	43.7447
587.297	52.194
590.672	60.0244
594.047	68.6634
597.422	75.0599
600.797	78.8462
604.171	80.1777
607.546	76.8685
610.921	71.4462
614.296	62.5357
617.671	54.1589
621.045	47.5104
624.42	40.1692
627.795	33.0599
631.17	26.8589
634.545	22.5657
637.919	16.317
641.294	10.1196
644.669	8.69241
648.044	4.15997
651.419	1.67664
654.794	0.843956
658.168	1.00654
661.543	0.756409
664.918	1.40833
668.293	1.06708
671.668	0.331238
675.043	0.48275
678.417	1.6738
681.792	1.59428
685.167	1.74606
688.542	2.22349
691.917	3.54407
695.291	2.92639
698.666	4.60445
702.041	4.02933
705.416	5.81267
708.791	5.65316
712.165	6.44368
715.54	5.94963
718.915	5.63962
722.29	5.30046
725.665	3.18035
729.039	3.54689
732.414	3.36626
735.789	3.52873
739.164	2.42151
742.539	2.6199
745.914	2.08867
749.288	2.6514
752.663	2.32887
756.038	2.035
759.413	0.829063
762.788	1.48914
766.163	2.32165
769.537	1.74067
772.912	0.662804
776.287	1.43355
779.662	1.06117
783.037	0.657784
786.411	0.048325
789.786	2.10007
793.161	1.13555
796.536	1.40772
799.911	1.12154
803.285	2.16621
806.66	1.75251
810.035	1.51456
813.41	2.31937
816.785	3.19225
820.159	3.08195
823.534	2.87145
826.909	3.66391
830.284	4.60717
833.659	4.45452
837.034	4.83961
840.408	5.5023
843.783	6.28046
847.158	6.22869
850.533	5.75232
853.908	5.04081
857.283	5.43478
860.657	2.76381
864.032	2.37558
867.407	2.05232
870.782	1.05104
874.157	1.20741
877.531	0.67897
880.906	0.338356
884.281	0.487419
887.656	0.625732
891.031	0.369705
894.405	0.207901
897.78	0.745277
901.155	0.978531
904.53	0.02282
907.905	0.367554
911.279	0.228889
914.654	0.097801
918.029	0.56321
921.404	2.05943
924.779	2.40276
928.154	3.99489
931.528	8.10808
934.903	10.0925
938.278	12.6685
941.653	16.461
945.028	20.2514
948.403	23.9615
951.777	28.33
955.152	34.1114
958.527	39.5571
961.902	42.5781
965.277	44.762
968.651	45.0752
972.026	43.497
975.401	40.8962
978.776	35.7753
982.151	32.7649
985.525	29.018
988.9	28.1621
992.275	24.4413
995.65	22.678
999.025	21.8493
1002.4	16.2931
1005.77	14.9509
1009.15	13.9014
1012.52	11.1747
1015.9	9.09882
1019.27	7.89845
1022.65	7.18832
1026.02	4.74439
1029.4	6.58754
1032.77	8.07606
1036.15	5.41716
1039.52	4.95451
1042.9	4.75805
1046.27	5.22872
1049.65	4.78064
1053.02	4.87773
1056.4	4.90242
1059.77	5.46786
1063.15	4.78426
1066.52	3.2814
1069.9	2.49197
1073.27	0.276115
1076.64	0.052116
1080.02	0.22113
1083.39	0.79055
1086.77	0.418121
1090.14	1.20169
1093.52	0.370659
1096.89	0.628052
1100.27	0.892273
1103.64	2.83711
1107.02	4.50854
1110.39	4.75457
1113.77	6.60335
1117.14	7.30895
1120.52	7.71368
1123.89	8.69623
1127.27	8.39325
1130.64	8.36729
1134.02	6.15489
1137.39	5.36208
1140.77	5.30528
1144.14	3.60098
1147.52	2.10657
1150.89	0.486076
1154.27	0.240105
1157.64	0.071625
1161.02	0.130135
1164.39	0.495621
1167.77	0.926506
1171.14	1.53787
1174.52	2.25416
1177.89	2.35229
1181.27	3.03011
1184.64	3.23816
1188.01	3.66574
1191.39	4.17134
1194.76	2.82383
1198.14	3.62655
1201.51	2.29356
1204.89	3.20785
1208.26	2.15313
1211.64	1.38203
1215.01	2.06162
1218.39	1.49887
1221.76	1.25783
1225.14	1.64493
1228.51	0.957916
1231.89	0.748882
1235.26	2.3234
1238.64	1.99554
1242.01	1.46415
1245.39	2.48177
1248.76	1.51836
1252.14	1.01803
1255.51	0.11174
1258.88	1.61845
1262.26	1.05616
1265.63	0.988468
1269.01	1.39379
1272.38	0.895325
1275.76	0.741707
1279.13	0.971951
1282.51	0.020599
