Measurement: Raman, 532 nm, unoriented, Raman Data Processed
Mineral: Garyansellite
Rruff sample: R100209
Ideal chemistry: (Mg,Fe^3+^)_3_(PO_4_)_2_(H_2_O,OH)_3_
Locality: Rapid Creek, Dawson Mining District, Yukon Territory, Canada
Source: Royal Ontario Museum
Description: Reddish-brown transparent fragments from the type sample NONPUBLIC BECAUSE IT IS A NEW MINERAL
Measured chemistry: (Fe^3+^_1.63_Mg_1.20_Mn_0.15_)_Σ=2.98_(PO_4_)_2_(OH)_1.59_·1.38H_2_O
Raman shift (cm-1)	intensity
206.034	54.9182
208.927	42.3894
211.819	17.4092
214.712	2.29471
217.605	2.09796
220.497	1.96866
223.39	11.0508
226.283	15.545
229.175	18.3396
232.068	18.4124
234.961	20.383
237.854	24.8235
240.746	32.5292
243.639	40.8502
246.532	48.0661
249.424	53.8327
252.317	56.5855
255.21	60.2199
258.103	61.2063
260.995	61.4052
263.888	59.8934
266.781	63.0848
269.673	64.3293
272.566	67.1333
275.459	64.2572
278.351	65.3816
281.244	70.4782
284.137	70.9508
287.029	77.2505
289.922	80.6494
292.815	80.8044
295.708	79.692
298.6	75.7488
301.493	71.3784
304.386	66.2485
307.278	58.2736
310.171	50.3723
313.064	42.9427
315.957	35.777
318.849	27.6135
321.742	19.632
324.635	13.17
327.527	10.7917
330.42	6.19443
333.313	3.07986
336.205	0.689667
339.098	0.189484
341.991	1.20401
344.884	1.14569
347.776	1.55466
350.669	0.856964
353.562	3.82288
356.454	3.48575
359.347	3.03589
362.24	6.76416
365.132	8.32486
368.025	10.8465
370.918	10.4676
373.81	11.7878
376.703	11.1168
379.596	12.1079
382.489	8.70126
385.381	9.64517
388.274	10.5598
391.167	12.689
394.059	13.2916
396.952	13.9038
399.845	13.7001
402.738	13.251
405.63	12.7872
408.523	15.6533
411.416	15.5038
414.308	15.9985
417.201	15.9757
420.094	15.2902
422.986	14.7537
425.879	12.7013
428.772	12.4738
431.664	7.77899
434.557	8.75317
437.45	5.36969
440.343	2.93289
443.235	1.66657
446.128	0.192596
449.021	0.613098
451.913	1.43304
454.806	1.77057
457.699	3.38907
460.591	5.78122
463.484	6.84
466.377	7.9277
469.27	13.541
472.162	14.0415
475.055	17.0925
477.948	19.8906
480.84	22.3149
483.733	21.8676
486.626	25.0936
489.519	24.4948
492.411	23.7971
495.304	21.1342
498.197	18.8541
501.089	12.7051
503.982	8.69452
506.875	1.35446
509.767	2.36246
512.66	3.10059
515.553	1.82932
518.446	2.00693
521.338	3.23724
524.231	13.4741
527.124	24.6624
530.016	35.4181
532.909	49.0502
535.802	61.3952
538.694	70.1902
541.587	77.913
544.48	79.5978
547.372	77.9406
550.265	74.219
553.158	70.0104
556.051	62.8975
558.943	56.8853
561.836	51.7838
564.729	46.2969
567.621	43.6544
570.514	48.5335
573.407	49.4253
576.299	57.5153
579.192	66.776
582.085	80.495
584.978	96.2428
587.87	116.899
590.763	135.274
593.656	155.661
596.548	175.42
599.441	188.277
602.334	195.474
605.226	195.255
608.119	187.52
611.012	173.74
613.905	156.498
616.797	139.957
619.69	122.97
622.583	106.523
625.475	88.7619
628.368	71.8927
631.261	62.079
634.154	47.8789
637.046	37.3276
639.939	27.7549
642.832	18.5022
645.724	11.9374
648.617	8.64291
651.51	3.6221
654.402	1.58133
657.295	0.913452
660.188	1.39574
663.081	3.76219
665.973	2.2924
668.866	2.4303
671.759	0.450378
674.651	0.119217
677.544	2.71545
680.437	2.01411
683.329	2.25046
686.222	3.63855
689.115	4.54407
692.008	7.16373
694.9	7.89697
697.793	7.4346
700.686	8.51652
703.578	9.54782
706.471	10.2008
709.364	11.3729
712.256	10.6536
715.149	12.7837
718.042	11.6471
720.934	11.6925
723.827	9.32512
726.72	8.02855
729.613	6.6835
732.505	6.38959
735.398	6.6519
738.291	5.1563
741.183	5.1107
744.076	5.23144
746.969	4.79762
749.861	4.39668
752.754	3.33403
755.647	3.92564
758.54	3.93977
761.432	3.67462
764.325	3.94861
767.218	2.85797
770.11	2.45671
773.003	3.07674
775.896	3.26079
778.788	3.50334
781.681	2.62849
784.574	1.1487
787.467	1.87054
790.359	1.80508
793.252	4.70486
796.145	3.91539
799.037	1.56752
801.93	2.84457
804.823	2.77917
807.716	3.79912
810.608	3.86905
813.501	4.45221
816.394	6.29738
819.286	6.42502
822.179	7.94696
825.072	9.78368
827.964	10.9438
830.857	10.8505
833.75	11.1914
836.643	12.7653
839.535	13.1144
842.428	15.5914
845.321	12.7214
848.213	12.0816
851.106	10.1472
853.999	9.87486
856.891	8.71045
859.784	6.88797
862.677	4.14442
865.569	4.90169
868.462	2.26166
871.355	2.41187
874.248	1.47771
877.14	0.167633
880.033	0.232986
882.926	1.25905
885.818	1.37703
888.711	2.31605
891.604	0.462189
894.496	1.52379
897.389	0.89003
900.282	0.508209
903.175	0.645691
906.067	0.635101
908.96	0.804184
911.853	2.72568
914.745	3.17769
917.638	5.18568
920.531	7.68823
923.423	10.0936
926.316	13.4008
929.209	18.7582
932.102	23.2423
934.994	30.1713
937.887	37.4398
940.78	40.9372
943.672	48.2666
946.565	55.4974
949.458	63.89
952.351	71.6994
955.243	76.8034
958.136	83.6612
961.029	92.175
963.921	95.7945
966.814	97.2764
969.707	96.6866
972.599	90.0423
975.492	84.4405
978.385	76.5292
981.278	68.363
984.17	60.7164
987.063	55.8844
989.956	51.7657
992.848	46.8081
995.741	41.8424
998.634	36.808
1001.53	33.378
1004.42	28.1328
1007.31	25.4639
1010.21	21.8962
1013.1	18.3689
1015.99	16.0427
1018.88	12.9061
1021.77	11.1772
1024.67	9.84967
1027.56	8.54819
1030.45	6.81671
1033.35	6.60486
1036.24	9.71414
1039.13	4.81457
1042.02	6.46603
1044.92	7.39368
1047.81	5.97485
1050.7	6.24567
1053.6	7.01889
1056.49	6.5903
1059.38	6.46417
1062.27	6.01929
1065.17	6.00891
1068.06	4.70471
1070.95	4.33575
1073.84	1.75812
1076.74	1.34442
1079.63	0.490967
1082.52	1.01883
1085.41	1.38647
1088.31	2.37515
1091.2	1.91235
1094.09	1.29617
1096.99	0.342621
1099.88	1.28592
1102.77	4.69839
1105.66	8.43903
1108.56	8.29825
1111.45	12.7557
1114.34	14.8526
1117.23	17.1237
1120.13	17.891
1123.02	17.5551
1125.91	19.3674
1128.81	19.1806
1131.7	17.6692
1134.59	18.5022
1137.48	15.7207
1140.38	11.5359
1143.27	8.77982
1146.16	6.98044
1149.05	5.20682
1151.95	2.63687
1154.84	1.24719
1157.73	0.012894
1160.62	0.32991
1163.52	0.097946
1166.41	0.149124
1169.3	1.75145
1172.2	1.57111
1175.09	3.35066
1177.98	5.30302
1180.87	4.98012
1183.77	5.58578
1186.66	4.5274
1189.55	3.81989
1192.44	6.64059
1195.34	7.66826
1198.23	7.83624
1201.12	7.88358
1204.02	7.17146
1206.91	6.92566
1209.8	5.85013
1212.69	6.66547
1215.59	4.76459
1218.48	5.06767
1221.37	4.69627
1224.26	4.08176
1227.16	3.60706
1230.05	3.51036
1232.94	3.04701
1235.84	2.25528
1238.73	2.00894
1241.62	3.15659
1244.51	5.13467
1247.41	3.40115
1250.3	2.34312
1253.19	3.18988
1256.08	2.92857
1258.98	2.93965
1261.87	4.87784
1264.76	3.31184
1267.65	1.88084
1270.55	2.83163
1273.44	1.28455
1276.33	1.39775
1279.23	2.67566
1282.12	1.08496
1285.01	0.764862
1287.9	1.18262
1290.8	0.986084
1293.69	1.19612
1296.58	0.110764
1299.47	0.884354
