Measurement: Raman, 532 nm, unoriented, Raman Data Processed
Mineral: Gaspeite
Rruff sample: R060366
Ideal chemistry: NiCO_3_
Locality: Pilbara Region, Western Australia, Australia
Source: Herb Obodda
Description: Green fine-grained massive coating
Measured chemistry: (Ni_0.67_Mg_0.30_Ca_0.02_Co_0.01_)_Î£=1_CO_3_
Raman shift (cm-1)	intensity
167.631	0
170.524	2.84169
173.416	0.191795
176.309	2.38224
179.202	2.18778
182.094	2.46442
184.987	0.843845
187.88	3.38063
190.773	2.26779
193.665	2.41803
196.558	0.528221
199.451	1.89834
202.343	2.19594
205.236	2.6635
208.129	5.48257
211.021	10.0412
213.914	10.2607
216.807	14.372
219.699	17.5854
222.592	20.9815
225.485	23.1962
228.377	21.775
231.27	19.2609
234.163	12.375
237.056	8.19215
239.948	4.81275
242.841	2.29055
245.734	2.71791
248.626	1.37403
251.519	0.39922
254.412	1.03791
257.305	0.171391
260.197	0.098331
263.09	1.36379
265.983	0.018898
268.875	0.22361
271.768	0.064182
274.661	0.455524
277.553	0.061169
280.446	0.282249
283.339	0.976074
286.232	1.17941
289.124	0.314041
292.017	3.01317
294.91	2.35575
297.802	2.60902
300.695	2.33908
303.588	3.17712
306.481	4.46162
309.373	4.77294
312.266	8.04038
315.159	10.6521
318.051	17.039
320.944	21.8405
323.837	29.9697
326.729	38.9416
329.622	50.9543
332.515	64.7301
335.408	75.3881
338.3	77.7599
341.193	60.5844
344.086	39.3828
346.978	24.1215
349.871	13.1947
352.764	9.48825
355.656	7.17481
358.549	5.89586
361.442	3.34142
364.334	3.74524
367.227	2.33694
370.12	2.72718
373.012	2.22638
375.905	1.28215
378.798	1.6249
381.691	1.60959
384.583	0.972866
387.476	0.957058
390.369	0.398293
393.261	0.963863
396.154	2.243
399.047	1.48484
401.94	1.68887
404.832	1.71234
407.725	0.440144
410.618	0.607483
413.51	0.038074
416.403	0.144562
419.296	1.00238
422.188	0.185604
425.081	0.212158
427.974	0.532906
430.866	0.553276
433.759	0.052219
436.652	0.302837
439.545	0.405674
442.437	2.199
445.33	1.47513
448.223	2.04329
451.115	0.874908
454.008	0.297722
456.901	1.99977
459.793	3.0625
462.686	0.365517
465.579	0.96843
468.472	1.19251
471.364	0.287884
474.257	0.678619
477.15	0.786793
480.042	0.352348
482.935	1.82265
485.828	0.638775
488.721	1.47306
491.613	2.23244
494.506	0.88768
497.399	2.66166
500.291	1.2571
503.184	1.04832
506.077	1.16655
508.969	1.13408
511.862	1.60333
514.755	0.117405
517.648	1.55541
520.54	0.488327
523.433	0.465256
526.326	0.167179
529.218	0.41901
532.111	1.31991
535.004	1.08493
537.896	1.04991
540.789	1.97232
543.682	2.07051
546.575	0.377964
549.467	2.69913
552.36	1.97615
555.253	0.334717
558.145	1.22893
561.038	1.70153
563.931	2.05717
566.823	1.49427
569.716	1.45917
572.609	1.14005
575.502	2.19242
578.394	0.292042
581.287	0.957756
584.18	1.28564
587.072	1.25897
589.965	1.34802
592.858	1.62951
595.75	0.302483
598.643	1.21335
601.536	1.2411
604.428	2.03048
607.321	1.41888
610.214	1.94492
613.107	0.961761
615.999	1.53336
618.892	2.45995
621.785	0.175465
624.677	0.198536
627.57	1.48463
630.463	1.60987
633.356	0.736412
636.248	1.15895
639.141	0.910751
642.034	0.687309
644.926	0.759064
647.819	0.018955
650.712	0.048611
653.604	0.476578
656.497	1.3475
659.39	1.54274
662.283	0.693039
665.175	0.072598
668.068	0.452103
670.961	1.48185
673.853	1.22525
676.746	1.12146
679.639	0.032478
682.531	0.968102
685.424	0.542412
688.317	1.55318
691.21	0.685211
694.102	0.017742
696.995	0.886948
699.888	0.556946
702.78	2.22888
705.673	0.6502
708.566	1.68593
711.458	2.26469
714.351	1.17302
717.244	3.41298
720.136	0.641121
723.029	2.03347
725.922	3.23811
728.815	4.32106
731.707	4.36607
734.6	5.11403
737.493	6.46521
740.385	6.74548
743.278	6.71576
746.171	5.21674
749.063	3.97471
751.956	2.16571
754.849	2.24254
757.742	1.4853
760.634	0.858894
763.527	2.2921
766.42	1.42172
769.312	1.2234
772.205	1.406
775.098	0.692753
777.99	0.487209
780.883	0.879375
783.776	0.50761
786.669	0.558567
789.561	0.921989
792.454	1.18049
795.347	0.193855
798.239	0.80537
801.132	0.597351
804.025	1.44915
806.918	1.22817
809.81	0.817486
812.703	1.09958
815.596	0.631336
818.488	1.46618
821.381	1.10931
824.274	1.3173
827.166	1.20251
830.059	1.47909
832.952	1.65969
835.845	1.42434
838.737	2.05769
841.63	0.439571
844.523	1.28207
847.415	0.230865
850.308	2.37333
853.201	1.20945
856.093	2.32938
858.986	1.17457
861.879	1.60289
864.771	2.0833
867.664	1.76135
870.557	1.6666
873.45	1.46649
876.342	0.968285
879.235	1.06892
882.128	1.81168
885.02	0.89864
887.913	2.49393
890.806	0.953522
893.698	1.37938
896.591	0.791122
899.484	1.32461
902.377	0.866199
905.269	1.02617
908.162	2.86805
911.055	1.34519
913.947	0.811844
916.84	0.25544
919.733	0.926228
922.625	1.07371
925.518	0.959171
928.411	0.714272
931.304	0.987354
934.196	2.26661
937.089	0.849335
939.982	0.287983
942.875	0.75692
945.767	0.752014
948.66	0.5271
951.553	1.31584
954.445	0.830688
957.338	1.86492
960.231	0.013973
963.123	0.546547
966.016	0.979321
968.909	1.31105
971.802	0.520161
974.694	0.676193
977.587	1.14525
980.48	1.75947
983.372	1.2787
986.265	1.22537
989.158	1.96516
992.05	1.67062
994.943	1.73791
997.836	2.54124
1000.73	0.360958
1003.62	1.30644
1006.51	0.136612
1009.41	1.23021
1012.3	0.215042
1015.19	0.711212
1018.09	0.189083
1020.98	0.277367
1023.87	0.17971
1026.76	0.622623
1029.66	0.465111
1032.55	0.463161
1035.44	0.817764
1038.33	0.913006
1041.23	1.6213
1044.12	0.67635
1047.01	2.28828
1049.9	0.578041
1052.8	2.26345
1055.69	3.02393
1058.58	4.8426
1061.47	7.78803
1064.37	8.99864
1067.26	14.3823
1070.15	21.8163
1073.05	34.36
1075.94	51.0468
1078.83	74.7799
1081.72	104.01
1084.62	132.044
1087.51	149.925
1090.4	147.28
1093.3	126.1
1096.19	96.8122
1099.08	70.3633
1101.97	51.9231
1104.87	36.6447
1107.76	24.8805
1110.65	18.3825
1113.54	13.8131
1116.44	9.38942
1119.33	6.88836
1122.22	4.1599
1125.12	2.2124
1128.01	3.02129
1130.9	2.94933
1133.79	2.0032
1136.68	1.99892
1139.58	0.121471
1142.47	0.277248
1145.36	1.57784
1148.26	0.169151
1151.15	0.283974
1154.04	1.34213
1156.93	0.844025
1159.83	0.264862
1162.72	0.243015
1165.61	0.827202
1168.51	1.30307
1171.4	0.648693
1174.29	2.06531
1177.18	2.17199
1180.08	0.522366
1182.97	1.36428
1185.86	0.848957
1188.75	0.825298
1191.65	1.16302
1194.54	0.018951
1197.43	1.16018
1200.33	0.631279
1203.22	0.94046
1206.11	1.39922
1209	2.19082
1211.9	1.57418
1214.79	2.5029
1217.68	1.43426
1220.57	1.63043
1223.47	1.51889
1226.36	3.09368
1229.25	0.704163
1232.14	1.70176
1235.04	1.68613
1237.93	3.0579
1240.82	2.0699
1243.71	0.735291
1246.61	1.89111
1249.5	2.10385
1252.39	0.286701
1255.29	1.8862
1258.18	1.47086
1261.07	0.811584
1263.96	2.13625
1266.86	0.509468
1269.75	1.7255
1272.64	0.203983
1275.54	1.83987
1278.43	1.078
1281.32	1.86608
1284.21	1.40058
1287.11	0.924557
1290	0.988934
1292.89	1.17752
1295.78	0.715309
1298.68	0.937794
1301.57	0.42292
