Measurement: Raman, 514 nm, unoriented, Raman Data Processed
Mineral: Gaspeite
Rruff sample: R040157
Ideal chemistry: NiCO_3_
Locality: Lemieux Township, Gaspe Nord County, Gaspe Peninsula, Quebec, Canada
Source: University of Arizona Mineral Museum
Description: Green massive
Measured chemistry: (Ni_0.54_Mg_0.31_Fe_0.15_Ca_0.01_Co_0.01_)C_1.00_O_3_; = the gray bands. Light grey bands are also gaspeite: (Ni_0.57_Mg_0.41_Fe_0.08_)C_0.97_O_3_; Dark grey bands, magnesite: (Mg_0.98_Fe_0.04_Ni_0.03_)C_0.97_O_3_
Raman shift (cm-1)	intensity
126.758	0
130.922	12.204
135.083	81.444
139.243	62.435
143.401	58.409
147.557	126.564
151.711	26.723
155.863	108.097
160.013	60.205
164.161	169.712
168.308	138.859
172.452	43.994
176.594	295.184
180.734	257.436
184.872	243.759
189.008	223.944
193.143	338.009
197.275	356.793
201.405	380.528
205.534	662.512
209.66	817.836
213.784	1153.68
217.907	1794.62
222.027	2379.6
226.146	2323.64
230.263	1306.74
234.377	694.912
238.49	240.154
242.601	159.464
246.709	148.827
250.816	1.279
254.921	18.29
259.024	6.253
263.125	145.867
267.224	96.538
271.321	86.743
275.416	214.884
279.51	285.243
283.601	182.355
287.69	28.226
291.778	63.665
295.863	203.502
299.947	104.274
304.029	297.053
308.108	354.715
312.186	452.473
316.262	1572.6
320.336	1819.84
324.408	3534.69
328.478	6077.99
332.546	7462.32
336.612	6796.69
340.677	4379.11
344.739	2215.55
348.799	1235.03
352.858	925.531
356.915	637.9
360.969	583.303
365.022	467.65
369.073	220.021
373.122	214.477
377.169	464.258
381.215	93.896
385.258	166.637
389.299	365.035
393.339	303.807
397.376	207.594
401.412	180.396
405.446	64.203
409.478	90.324
413.508	167.078
417.536	153.525
421.562	192.812
425.586	140.932
429.609	178.977
433.629	142.211
437.648	293.137
441.665	161.283
445.68	193.332
449.693	214.994
453.704	77.002
457.713	65.732
461.721	41.051
465.726	151.219
469.73	75.391
473.731	117.938
477.731	136.801
481.729	219.66
485.725	291.527
489.72	255.844
493.712	215.869
497.703	134.748
501.691	330.217
505.678	450.984
509.663	373.182
513.646	517.318
517.627	264.539
521.607	416.934
525.584	228.734
529.56	342.654
533.534	241.938
537.506	406.4
541.476	261.812
545.444	16.113
549.41	165.947
553.375	467.891
557.337	135.531
561.298	212.32
565.257	97.064
569.214	218.209
573.17	261.25
577.123	151.234
581.075	143.102
585.024	190.658
588.972	301.168
592.918	85.467
596.863	60.482
600.805	115.457
604.746	95.348
608.685	199.049
612.621	121.414
616.557	238.166
620.49	298.947
624.421	424.955
628.351	8.658
632.279	15.371
636.205	333.34
640.129	64.059
644.051	178.613
647.972	211.268
651.89	83.33
655.807	139.307
659.722	279.166
663.636	294.584
667.547	70.797
671.457	277.496
675.365	385.643
679.271	320.514
683.175	164.643
687.077	365.33
690.978	142.838
694.877	254.215
698.774	150.07
702.669	357.801
706.562	111.74
710.454	39.158
714.344	560.389
718.232	114.682
722.118	319.486
726.002	370.574
729.885	290.32
733.766	594.908
737.645	1043.27
741.522	1217.24
745.397	922.592
749.271	484.949
753.143	640.873
757.013	375.262
760.881	29.369
764.748	163.727
768.613	503.615
772.476	407.295
776.337	32.01
780.196	258.586
784.054	27.088
787.91	301.906
791.764	138.75
795.616	75.047
799.467	174.633
803.316	76.938
807.163	351.73
811.008	115.277
814.851	47.812
818.693	55.75
822.533	73.986
826.371	293.506
830.208	139.012
834.042	41.695
837.875	391.82
841.706	188.502
845.536	70.059
849.363	285.795
853.189	376.049
857.013	294.568
860.836	132.725
864.656	125.406
868.475	338.861
872.292	354.426
876.108	364.816
879.922	441.197
883.733	171.545
887.544	94.877
891.352	170.15
895.159	373.391
898.964	79.613
902.767	225.779
906.568	150.869
910.368	541.949
914.166	284.072
917.962	208.818
921.757	181.828
925.55	408.418
929.341	395.766
933.13	414.488
936.918	401.07
940.703	138.127
944.488	322.191
948.27	472.258
952.051	134.715
955.83	54.148
959.607	305.6
963.383	129.658
967.156	203.061
970.928	47.98
974.699	402.477
978.468	192.707
982.234	143.436
986	167.344
989.763	143.529
993.525	248.668
997.285	477.695
1001.04	55.719
1004.8	450.176
1008.55	524.514
1012.31	265.334
1016.06	370.289
1019.81	493.408
1023.56	726.824
1027.31	292.256
1031.05	778.418
1034.79	658.395
1038.53	593.338
1042.27	966.166
1046.01	945.076
1049.75	654.102
1053.48	978.182
1057.22	835.115
1060.95	964.936
1064.68	1174.86
1068.4	1496.38
1072.13	2333.08
1075.86	3920.75
1079.58	6628.55
1083.3	11790.7
1087.02	17376.3
1090.74	20106.4
1094.45	17465
1098.17	12173.9
1101.88	8041.04
1105.59	4767.94
1109.3	3274.81
1113.01	1992.2
1116.71	1475.82
1120.42	1281.3
1124.12	1033.82
1127.82	661.34
1131.52	528.078
1135.22	69.426
1138.91	157.363
1142.61	44.078
1146.3	167.223
1149.99	307.52
1153.68	178.504
1157.37	230.086
1161.06	114.273
1164.74	299.055
1168.42	277.262
1172.1	341.078
1175.78	42.836
1179.46	37.652
1183.14	41.535
1186.81	145.648
1190.48	322.84
1194.15	503.691
1197.83	196.168
1201.49	665.398
1205.16	60.797
1208.82	606.375
1212.49	657.965
1216.15	355.625
1219.81	423.875
1223.46	441.426
1227.12	336.379
1230.78	427.973
1234.43	178.328
1238.08	248.699
1241.73	350.594
1245.38	551.641
1249.03	352.691
1252.67	272.867
1256.31	328.648
1259.95	44.262
1263.6	154.059
1267.23	5.266
1270.87	524.414
1274.51	746.664
1278.14	227.082
1281.77	123.258
1285.4	227.574
1289.03	20.41
1292.66	250.945
1296.28	49.145
1299.91	173.852
1303.53	2.824
1307.15	79.844
1310.77	10.148
1314.38	596.258
1318	115.941
1321.61	419.848
1325.23	306.867
1328.84	56.016
1332.45	283.477
1336.06	163.621
1339.66	327.449
1343.27	265.422
1346.87	330.352
1350.47	392.113
1354.07	307.625
1357.67	157.887
1361.26	353.195
1364.86	404.023
1368.45	504.531
1372.04	140.309
1375.63	394.332
1379.22	148.684
1382.81	474.824
1386.39	597.199
1389.98	589.738
1393.56	232.887
1397.14	297.309
1400.72	602.812
1404.3	507.688
1407.87	602.051
1411.45	1150.64
1415.02	934.098
1418.59	2274.94
1422.16	2981.56
1425.73	3524.72
1429.29	3240.41
1432.86	2679.3
1436.42	2185.14
1439.98	1583.02
1443.54	1342.19
1447.1	919.684
1450.66	896.676
1454.21	893.367
1457.77	125.574
1461.32	249.715
1464.87	288.656
1468.42	708.738
1471.96	639.594
1475.51	769.414
1479.06	296.734
1482.6	273.105
1486.14	296.812
