Measurement: Raman, 532 nm, unoriented, Raman Data Processed
Mineral: Gaspeite
Rruff sample: R040157
Ideal chemistry: NiCO_3_
Locality: Lemieux Township, Gaspe Nord County, Gaspe Peninsula, Quebec, Canada
Source: University of Arizona Mineral Museum
Description: Green massive
Measured chemistry: (Ni_0.54_Mg_0.31_Fe_0.15_Ca_0.01_Co_0.01_)C_1.00_O_3_; = the gray bands. Light grey bands are also gaspeite: (Ni_0.57_Mg_0.41_Fe_0.08_)C_0.97_O_3_; Dark grey bands, magnesite: (Mg_0.98_Fe_0.04_Ni_0.03_)C_0.97_O_3_
Raman shift (cm-1)	intensity
175.214	0
178.107	40.5734
180.999	60.4566
183.892	100.769
186.785	437.674
189.678	540.371
192.57	350.906
195.463	544.2
198.356	453.025
201.248	514.571
204.141	785.067
207.034	941.187
209.926	1392.91
212.819	1916.45
215.712	2396.48
218.605	3274.47
221.497	3507.45
224.39	3591.04
227.283	3289.01
230.175	2237.31
233.068	1120.83
235.961	518.161
238.853	486.865
241.746	382.851
244.639	397.973
247.532	365.619
250.424	126.634
253.317	128.837
256.21	160.079
259.102	133.578
261.995	173.162
264.888	129.654
267.781	22.1913
270.673	57.264
273.566	53.554
276.459	14.4806
279.351	25.4248
282.244	26.0374
285.137	6.94156
288.029	12.7746
290.922	75.5718
293.815	38.9066
296.707	140.811
299.6	56.9093
302.493	167.994
305.386	16.0039
308.278	222.247
311.171	326.626
314.064	920.363
316.956	1463.97
319.849	2342.42
322.742	3856.27
325.635	5978.16
328.527	8113.35
331.42	9627.8
334.313	9634.48
337.205	7981.77
340.098	5478
342.991	3169.57
345.883	1697.42
348.776	985.603
351.669	641.211
354.562	256.51
357.454	222.009
360.347	127.109
363.24	85.3772
366.132	37.1532
369.025	157.607
371.918	29.7288
374.81	18.8944
377.703	9.49899
380.596	47.7803
383.488	165.81
386.381	136.618
389.274	71.7417
392.167	61.861
395.059	8.92291
397.952	241.197
400.845	10.0065
403.737	6.06974
406.63	51.6362
409.523	60.1878
412.416	20.7241
415.308	5.34046
418.201	144.125
421.094	128.545
423.986	10.5643
426.879	207.129
429.772	114.033
432.664	92.2943
435.557	116.83
438.45	332.116
441.343	171.286
444.235	111.379
447.128	18.5401
450.021	82.1723
452.913	222.707
455.806	57.5546
458.699	166.892
461.591	198.424
464.484	153.294
467.377	143.042
470.27	194.995
473.162	14.3479
476.055	227.416
478.948	239.682
481.84	181.952
484.733	11.245
487.626	94.0427
490.519	415.858
493.411	154.8
496.304	394.36
499.197	269.228
502.089	312.52
504.982	397.694
507.875	200.595
510.767	219.011
513.66	318.711
516.553	316.141
519.446	165.921
522.338	244.594
525.231	385.806
528.124	354.444
531.016	423.381
533.909	280.253
536.802	339.395
539.694	109.014
542.587	99.7077
545.48	33.7372
548.372	145.255
551.265	166.931
554.158	16.2361
557.051	69.1108
559.943	91.6911
562.836	75.4622
565.729	76.7447
568.621	3.15978
571.514	15.7426
574.407	187.236
577.299	234.903
580.192	0.972843
583.085	14.9355
585.978	57.4291
588.87	143.305
591.763	75.1202
594.656	191.963
597.548	194.454
600.441	147.664
603.334	72.9413
606.227	114.281
609.119	192.257
612.012	204.646
614.905	174.667
617.797	143.508
620.69	94.4713
623.583	148.706
626.476	132.395
629.368	277.744
632.261	303.572
635.154	471.246
638.046	256.924
640.939	297.696
643.832	397.628
646.724	467.281
649.617	346.962
652.51	454.7
655.403	223.324
658.295	757.049
661.188	516.149
664.081	639.738
666.973	365.196
669.866	460.379
672.759	614.434
675.651	455.339
678.544	300.215
681.437	336.671
684.33	246.285
687.222	92.2532
690.115	56.3839
693.008	339.424
695.9	53.8728
698.793	77.6175
701.686	20.2004
704.578	66.8976
707.471	160.765
710.364	26.4472
713.256	21.3045
716.149	16.7843
719.042	159.317
721.935	190.385
724.827	389.684
727.72	465.254
730.613	857.372
733.505	1009.41
736.398	1318.04
739.291	1158.62
742.183	1163.72
745.076	843.428
747.969	532.028
750.862	391.188
753.754	269.852
756.647	13.4842
759.54	73.6909
762.432	139.713
765.325	171.423
768.218	105.654
771.111	25.706
774.003	31.9175
776.896	93.3388
779.789	145.091
782.681	51.2775
785.574	97.0752
788.467	91.5888
791.359	191.892
794.252	132.954
797.145	314.963
800.038	225.726
802.93	9.63404
805.823	82.5465
808.716	125.664
811.608	81.3272
814.501	254.16
817.394	201.502
820.286	135.794
823.179	282.228
826.072	141.922
828.965	102.204
831.857	15.7913
834.75	146.634
837.643	169.9
840.535	51.9428
843.428	73.6342
846.321	50.1931
849.213	64.9913
852.106	109.871
854.999	221.445
857.891	310.938
860.784	96.8457
863.677	211.545
866.57	317.188
869.462	170.85
872.355	195.442
875.248	170.078
878.14	144.393
881.033	65.4531
883.926	243.884
886.819	283.719
889.711	129.328
892.604	170.055
895.497	198.911
898.389	192.478
901.282	243.26
904.175	113.223
907.067	184.808
909.96	62.2635
912.853	92.4253
915.746	155.587
918.638	6.42653
921.531	30.0417
924.424	128.194
927.316	58.91
930.209	5.22843
933.102	266.438
935.995	292.708
938.887	11.3794
941.78	194.147
944.673	4.13501
947.565	288.582
950.458	9.59947
953.351	131.107
956.243	248.292
959.136	170.646
962.029	406.04
964.922	246.013
967.814	213.656
970.707	234.569
973.6	9.05485
976.492	154.834
979.385	366.402
982.278	487.143
985.17	56.0066
988.063	388.212
990.956	248.409
993.848	302.658
996.741	70.4254
999.634	195.346
1002.53	74.5322
1005.42	138.891
1008.31	19.6895
1011.21	48.7387
1014.1	25.8616
1016.99	6.26105
1019.88	27.2992
1022.78	15.9517
1025.67	75.4958
1028.56	53.8026
1031.45	20.4284
1034.35	11.2698
1037.24	36.9085
1040.13	26.9562
1043.02	70.1367
1045.92	49.0713
1048.81	156.128
1051.7	115.908
1054.6	190.826
1057.49	566.331
1060.38	638.981
1063.27	1086.33
1066.17	1748.26
1069.06	2544.85
1071.95	4106.89
1074.84	6678.08
1077.74	10836.9
1080.63	16185.2
1083.52	22635.8
1086.41	27199.1
1089.31	28785.3
1092.2	26068.6
1095.09	20984.4
1097.99	15153.8
1100.88	9866.67
1103.77	6846.03
1106.66	4654.77
1109.56	3269.85
1112.45	2174.86
1115.34	1617.86
1118.23	906.109
1121.13	777.384
1124.02	559.964
1126.91	382.323
1129.81	180.832
1132.7	275.757
1135.59	78.1921
1138.48	41.3698
1141.38	134.917
1144.27	144.658
1147.16	44.3901
1150.05	56.212
1152.95	146.131
1155.84	4.26457
1158.73	137.873
1161.62	6.37036
1164.52	153.026
1167.41	6.87098
1170.3	85.7158
1173.2	70.0494
1176.09	43.9765
1178.98	144.988
1181.87	27.916
1184.77	9.88924
1187.66	96.755
1190.55	59.5731
1193.44	68.6644
1196.34	181.48
1199.23	3.90111
1202.12	40.8865
1205.02	196.925
1207.91	317.814
1210.8	266.909
1213.69	1.54688
1216.59	275.723
1219.48	112.422
1222.37	354.211
1225.27	13.5942
1228.16	161.615
1231.05	193.304
1233.94	26.0414
1236.84	128.48
1239.73	6.80117
1242.62	365.988
1245.51	323.335
1248.41	296.46
1251.3	188.54
1254.19	219.821
1257.08	149.506
1259.98	389.923
1262.87	2.55813
1265.76	321.989
1268.65	203.289
1271.55	617.252
1274.44	397.525
1277.33	220.983
1280.23	339.281
1283.12	244.474
1286.01	358.421
1288.9	164.297
1291.8	212
1294.69	350.172
1297.58	430.422
1300.47	5.54497
1303.37	142.856
1306.26	8.12043
1309.15	123.519
