Measurement: Raman, 785 nm, unoriented, Raman Data Processed
Mineral: Gaspeite
Rruff sample: R040157
Ideal chemistry: NiCO_3_
Locality: Lemieux Township, Gaspe Nord County, Gaspe Peninsula, Quebec, Canada
Source: University of Arizona Mineral Museum
Description: Green massive
Measured chemistry: (Ni_0.54_Mg_0.31_Fe_0.15_Ca_0.01_Co_0.01_)C_1.00_O_3_; = the gray bands. Light grey bands are also gaspeite: (Ni_0.57_Mg_0.41_Fe_0.08_)C_0.97_O_3_; Dark grey bands, magnesite: (Mg_0.98_Fe_0.04_Ni_0.03_)C_0.97_O_3_
Raman shift (cm-1)	intensity
188.998	0
191.891	91.7539
194.783	1.01172
197.676	136.234
200.569	253.981
203.461	276.617
206.354	367.693
209.247	297.959
212.139	419.701
215.032	553.916
217.925	856.596
220.818	1122.13
223.71	1068.92
226.603	1172.79
229.496	788.025
232.388	417.84
235.281	276.799
238.174	288.893
241.066	388.217
243.959	336.773
246.852	284.799
249.745	211.025
252.637	219.961
255.53	143.457
258.423	115.943
261.315	199.981
264.208	148.217
267.101	147.065
269.993	85.2734
272.886	174.43
275.779	110.93
278.672	74.541
281.564	84.332
284.457	191.008
287.35	205.654
290.242	87.7871
293.135	37.0449
296.028	112.084
298.921	23.3594
301.813	38.7051
304.706	190.129
307.599	205.754
310.491	356.916
313.384	398.156
316.277	544.889
319.169	771.795
322.062	1130.76
324.955	1800.33
327.847	2389.72
330.74	3062.9
333.633	3118.36
336.526	2691.63
339.418	1917.7
342.311	1013.84
345.204	532.586
348.096	313.393
350.989	332.332
353.882	288.078
356.774	159.621
359.667	89.2129
362.56	8.60742
365.452	60.4004
368.345	8.33008
371.238	86.0957
374.131	117.045
377.023	159.428
379.916	320.029
382.809	0.472656
385.701	30.252
388.594	57.6738
391.487	15.5215
394.38	63.625
397.272	125.498
400.165	109.228
403.058	145.334
405.95	95.375
408.843	15.5859
411.736	54.6348
414.628	38.6582
417.521	65.7422
420.414	199.012
423.307	140.92
426.199	208.81
429.092	17.8984
431.985	26.5703
434.877	62.166
437.77	27.8867
440.663	73.2031
443.555	66.6231
446.448	119.164
449.341	94.4746
452.234	17.2363
455.126	54.8438
458.019	176.059
460.912	145.496
463.804	30.4844
466.697	140.359
469.59	237.902
472.483	126.787
475.375	82.1875
478.268	77.0977
481.161	3.45508
484.053	93.459
486.946	88.4961
489.839	218.582
492.731	211.449
495.624	103.113
498.517	153.496
501.409	198.559
504.302	96.0957
507.195	115.566
510.088	220.565
512.98	238.926
515.873	165.652
518.766	177.834
521.658	142.272
524.551	91.1367
527.444	154.231
530.337	155.1
533.229	89.9062
536.122	185.154
539.015	308.793
541.907	51.3047
544.8	75.707
547.693	86.2969
550.585	121.225
553.478	13.2051
556.371	62.8477
559.263	210.098
562.156	94.4492
565.049	102.109
567.942	36.2227
570.834	1.2207
573.727	8.37695
576.62	233.504
579.512	125.945
582.405	69.9512
585.298	75.0234
588.19	98.9766
591.083	19.916
593.976	43.4941
596.869	41.3945
599.761	208.766
602.654	139.318
605.547	193.685
608.439	130.613
611.332	152.805
614.225	138.158
617.117	114.744
620.01	106.525
622.903	2.70312
625.795	101.83
628.688	147.174
631.581	121.018
634.474	103.725
637.366	104.019
640.259	140.055
643.152	264.766
646.044	135.125
648.937	49.9551
651.83	90.9551
654.722	85.3887
657.615	105.699
660.508	64.2324
663.401	7.83008
666.293	70.7383
669.186	79.4981
672.079	107.981
674.971	159.865
677.864	265.516
680.757	272.613
683.649	180.111
686.542	112.869
689.435	149.512
692.328	118.01
695.22	152.717
698.113	234.656
701.006	100.295
703.898	225.199
706.791	187.92
709.684	181.688
712.577	22.5098
715.469	41.3652
718.362	172.135
721.255	178.668
724.147	176.769
727.04	227.529
729.933	305.988
732.825	356.777
735.718	405.902
738.611	453.027
741.504	296.559
744.396	279.227
747.289	342.793
750.182	151.982
753.074	90.6582
755.967	52.3281
758.86	88.0137
761.752	133.361
764.645	57.1934
767.538	146.812
770.431	39.5723
773.323	12.0508
776.216	191.172
779.109	10.4648
782.001	54.5312
784.894	65.9707
787.787	35.1621
790.679	81.6016
793.572	118.723
796.465	46.207
799.357	149.66
802.25	3.49414
805.143	14.8242
808.036	59.9414
810.928	67.8047
813.821	101.826
816.714	139.99
819.606	131.988
822.499	35.4648
825.392	44.043
828.284	110.32
831.177	157.236
834.07	50.5449
836.963	46.5156
839.855	35.4355
842.748	39.5586
845.641	30.502
848.533	49.1699
851.426	51.6113
854.319	143.596
857.212	100.031
860.104	17.9414
862.997	103.912
865.89	29.7051
868.782	76.6992
871.675	77.4824
874.568	75.4844
877.46	66.9707
880.353	92.8144
883.246	160.361
886.139	136.787
889.031	70.6816
891.924	43.2773
894.817	122.443
897.709	180.471
900.602	80.2871
903.495	20.9805
906.388	121.746
909.28	195.631
912.173	2.61133
915.066	109.43
917.958	131.143
920.851	6.28711
923.744	75.2949
926.636	117.225
929.529	134.441
932.422	120.842
935.314	50.1504
938.207	103.449
941.1	30.9707
943.993	129.397
946.885	130.262
949.778	159.19
952.671	65.8809
955.563	135.617
958.456	134.844
961.349	88.8457
964.241	115.678
967.134	53.7383
970.027	25.9316
972.92	63.5859
975.812	172.242
978.705	88.7676
981.598	40.9336
984.49	196.004
987.383	135.908
990.276	75.3828
993.168	30.5742
996.061	33.1875
998.954	102.764
1001.85	68.4922
1004.74	25.1738
1007.63	27.6973
1010.52	48.623
1013.42	76.3965
1016.31	1.25781
1019.2	31.4316
1022.1	20.5996
1024.99	8.125
1027.88	53.5723
1030.77	22.5176
1033.67	27.0508
1036.56	129.736
1039.45	9.91602
1042.34	33.5791
1045.24	34.0605
1048.13	40.9932
1051.02	74.2031
1053.91	25.0635
1056.81	79.8037
1059.7	183.668
1062.59	236.598
1065.49	338.334
1068.38	376.172
1071.27	681.565
1074.16	941.872
1077.06	1556.38
1079.95	2382.15
1082.84	3319.29
1085.73	4293.36
1088.63	4807.31
1091.52	4660.13
1094.41	3951.54
1097.31	2830.95
1100.2	2040.57
1103.09	1391.52
1105.98	913.076
1108.88	669.138
1111.77	485.508
1114.66	320.972
1117.56	298.283
1120.45	248.919
1123.34	143.818
1126.23	159.123
1129.12	169.661
1132.02	81.8828
1134.91	28.5127
1137.8	138.616
1140.7	68.4043
1143.59	65.4941
1146.48	26.2344
1149.37	93.4033
1152.27	187.609
1155.16	15.7295
1158.05	27.5117
1160.94	176.805
1163.84	132.195
1166.73	76.7832
1169.62	19.9258
1172.52	174.523
1175.41	99.6543
1178.3	7.23535
1181.19	0.396484
1184.09	95.124
1186.98	101.561
1189.87	26.7578
1192.77	85.6055
1195.66	100.37
1198.55	232.815
1201.44	99.3828
1204.34	72.0195
1207.23	124.234
1210.12	107.712
1213.01	63.1855
1215.91	122.312
1218.8	65.5039
1221.69	66.0469
1224.58	108.89
1227.48	47.4902
1230.37	21.1641
1233.26	70.0449
1236.15	0.446289
1239.05	0
