Measurement: Raman, 532 nm, unoriented, Raman Data Processed
Mineral: Gatumbaite
Rruff sample: R070388
Ideal chemistry: CaAl_2_(PO_4_)_2_(OH)_2_H_2_O
Locality: Buranga pegmatite, Gatumba District, Gisenyi Province, Rwanda
Source: Michael Scott
Description: White acicular radial aggregate on trolleite associated with wardite
Raman shift (cm-1)	intensity
163.161	0
166.054	1.06494
168.946	11.0386
171.839	55.8252
174.732	89.6357
177.625	129.315
180.517	95.1333
183.41	66.3467
186.303	73.7593
189.195	48.541
192.088	75.207
194.981	115.31
197.874	133.28
200.766	199.226
203.659	292.274
206.552	412.204
209.444	462.962
212.337	488.222
215.23	367.922
218.122	394.216
221.015	379.091
223.908	328.984
226.8	279.748
229.693	244.41
232.586	241.589
235.479	178.566
238.371	211.59
241.264	194.507
244.157	195.046
247.049	162.758
249.942	222.232
252.835	198.916
255.727	235.938
258.62	208.741
261.513	163.807
264.406	150.145
267.298	22.2314
270.191	10.0176
273.084	23.6562
275.976	161.787
278.869	184.126
281.762	260.834
284.655	371.325
287.547	423.588
290.44	331.819
293.333	198.64
296.225	93.728
299.118	35.4092
302.011	8.32275
304.904	66.8638
307.796	22.1362
310.689	3.18848
313.582	52.6255
316.474	60.6367
319.367	74.6929
322.26	93.1802
325.152	147.464
328.045	94.1367
330.938	138.028
333.83	158.9
336.723	327.927
339.616	347.707
342.509	388.664
345.401	460.796
348.294	446.658
351.187	473.071
354.079	499.008
356.972	411.272
359.865	400.295
362.757	378.222
365.65	386.728
368.543	423.67
371.436	349.759
374.328	355.171
377.221	254.532
380.114	145.328
383.006	17.2451
385.899	41.9648
388.792	16.9072
391.685	41.9228
394.577	75.9463
397.47	102.414
400.363	184.985
403.255	302.231
406.148	369.761
409.041	389.188
411.933	380.312
414.826	441.048
417.719	457.845
420.611	340.702
423.504	331.366
426.397	331.269
429.29	328.665
432.182	402.684
435.075	446.499
437.968	611.482
440.86	709.982
443.753	731.661
446.646	764.789
449.538	729.23
452.431	281.594
455.324	175.77
458.217	221.674
461.109	260.885
464.002	316.506
466.895	414.257
469.787	437.687
472.68	397.281
475.573	316.604
478.466	175.427
481.358	96.5137
484.251	90.3682
487.144	28.5098
490.036	37.4951
492.929	40.8125
495.822	14.7979
498.714	6.63184
501.607	107.105
504.5	104.856
507.393	249.351
510.285	400.427
513.178	476.879
516.071	438.993
518.963	483.567
521.856	460.401
524.749	353.226
527.641	294.209
530.534	214.916
533.427	116.457
536.32	159.442
539.212	149.2
542.105	132.463
544.998	50.791
547.89	53.291
550.783	88.7432
553.676	72.043
556.568	194.372
559.461	70.5664
562.354	14.6113
565.247	31.4014
568.139	56.8867
571.032	92.4922
573.925	114.856
576.817	208.795
579.71	208.243
582.603	233.345
585.495	107.788
588.388	175.068
591.281	214.236
594.174	297.951
597.066	404.337
599.959	343.557
602.852	362.7
605.744	425.116
608.637	619.06
611.53	661.629
614.423	687.674
617.315	689.776
620.208	437.417
623.101	213.494
625.993	132.805
628.886	21.5801
631.779	20.4365
634.671	6.78125
637.564	38.7412
640.457	15.3525
643.35	174.557
646.242	153.558
649.135	229.808
652.028	185.429
654.92	53.6963
657.813	87.9785
660.706	21.8213
663.598	30.5264
666.491	28.3135
669.384	62.4092
672.277	55.627
675.169	26.1094
678.062	60.9209
680.955	2.2832
683.847	118.405
686.74	29.4941
689.633	129.32
692.525	25.2178
695.418	71.3311
698.311	20.3877
701.204	29.7861
704.096	28.6182
706.989	87.2725
709.882	20.0381
712.774	37.5527
715.667	20.751
718.56	82.0576
721.452	83.4336
724.345	38.4844
727.238	73.9365
730.131	27.5381
733.023	11.0312
735.916	16.583
738.809	17.3926
741.701	74.085
744.594	93.1641
747.487	38.5781
750.38	28.1992
753.272	97.9326
756.165	123.219
759.058	66.8408
761.95	87.1592
764.843	134.144
767.736	104.564
770.628	112.511
773.521	116.132
776.414	134.336
779.307	116.574
782.199	59.5039
785.092	120.736
787.985	154.556
790.877	101.495
793.77	50.0127
796.663	96.1523
799.555	123.607
802.448	62.1865
805.341	16.6924
808.234	7.40234
811.126	1.98731
814.019	62.9775
816.912	19.3779
819.804	115.362
822.697	46.8213
825.59	53.2422
828.482	93.9756
831.375	16.3936
834.268	73.0098
837.16	8.98242
840.053	21.9805
842.946	50.6826
845.839	68.3164
848.731	80.2793
851.624	52.6562
854.517	49.9043
857.409	49.4141
860.302	63.0713
863.195	25.8896
866.087	73.1797
868.98	59.873
871.873	119.757
874.766	2.85449
877.658	136.622
880.551	98.7607
883.444	88.7314
886.337	73.0664
889.229	134.56
892.122	132.65
895.015	21.8848
897.907	87.8018
900.8	79.3281
903.693	146.685
906.585	40.3975
909.478	49.2256
912.371	124.405
915.264	38.2715
918.156	78.5449
921.049	30.5928
923.942	94.1592
926.834	29.0156
929.727	49.7607
932.62	37.9209
935.512	16.1152
938.405	34.0039
941.298	17.3301
944.191	23.4521
947.083	42.4639
949.976	170.868
952.869	281.506
955.761	259.036
958.654	255.482
961.547	365.831
964.439	508.036
967.332	563.056
970.225	761.192
973.117	1018.62
976.01	1135
978.903	1194.85
981.796	1149.56
984.688	1044.75
987.581	926.601
990.474	785.161
993.366	820.321
996.259	759.27
999.152	970.518
1002.04	1361.63
1004.94	1954.28
1007.83	2907.12
1010.72	4237.28
1013.62	5604.1
1016.51	6201.33
1019.4	5910.36
1022.29	4800.35
1025.19	3014.98
1028.08	1463.85
1030.97	831.418
1033.86	583.905
1036.76	424.547
1039.65	326.919
1042.54	282.196
1045.43	334.393
1048.33	337.18
1051.22	350.086
1054.11	422.965
1057.01	439.954
1059.9	703.089
1062.79	518.094
1065.68	325.487
1068.58	211.204
1071.47	50.4297
1074.36	66.1699
1077.26	70.3535
1080.15	28.9717
1083.04	49.6748
1085.93	4.22949
1088.83	8.2002
1091.72	139.274
1094.61	116.167
1097.5	237.81
1100.4	186.564
1103.29	109.74
1106.18	177.406
1109.07	86.9365
1111.97	103.733
1114.86	136.408
1117.75	54.541
1120.64	92.4805
1123.54	163.443
1126.43	13.4092
1129.32	65.9805
1132.22	25.6289
1135.11	51.5195
1138	17.7783
1140.89	11.1719
1143.79	100.355
1146.68	5.11231
1149.57	0.15332
1152.46	99.2861
1155.36	76.5371
1158.25	88.0518
1161.14	228.655
1164.04	177.611
1166.93	246.967
1169.82	296.92
1172.71	364.176
1175.61	246.898
1178.5	413.173
1181.39	338.681
1184.29	414.361
1187.18	349.541
1190.07	383.76
1192.96	291.13
1195.86	228.578
1198.75	169.346
1201.64	107.989
1204.53	33.2012
1207.43	23.125
1210.32	2.7334
1213.21	80.0283
1216.1	118.544
1219	58.3935
1221.89	70.4365
1224.78	33.791
1227.67	19.082
1230.57	11.4072
1233.46	54.8887
1236.35	32.8691
1239.25	21.4697
1242.14	41.7725
1245.03	28.0332
1247.92	84.293
1250.82	29.583
1253.71	97.4316
1256.6	62.7832
1259.49	75.9258
1262.39	130.06
1265.28	260.796
1268.17	110.928
1271.07	76.0742
1273.96	192.27
1276.85	30.9453
1279.74	99.4375
1282.64	177.265
1285.53	123.353
1288.42	92.582
1291.32	56.0117
1294.21	24.3008
1297.1	80.1973
1299.99	104.811
1302.88	12.502
1305.78	110.443
1308.67	32.6221
