Measurement: Raman, 785 nm, unoriented, Raman Data Processed
Mineral: Gatumbaite
Rruff sample: R070388
Ideal chemistry: CaAl_2_(PO_4_)_2_(OH)_2_H_2_O
Locality: Buranga pegmatite, Gatumba District, Gisenyi Province, Rwanda
Source: Michael Scott
Description: White acicular radial aggregate on trolleite associated with wardite
Raman shift (cm-1)	intensity
149.464	0
152.357	152.345
155.25	191.61
158.142	50.5762
161.035	1.60364
163.928	30.7372
166.821	41.0757
169.713	103.89
172.606	74.0737
175.499	59.353
178.391	92.8738
181.284	109.08
184.177	104.27
187.069	100.209
189.962	12.4142
192.855	15.6156
195.748	56.1426
198.64	110.487
201.533	198.602
204.426	282.942
207.318	412.599
210.211	482.736
213.104	475.01
215.996	407.606
218.889	387.13
221.782	375.078
224.674	390.512
227.567	372.503
230.46	291.294
233.353	246.935
236.245	214.222
239.138	234.995
242.031	290.71
244.923	305.295
247.816	246.547
250.709	254.768
253.601	307.501
256.494	316.035
259.387	332.038
262.28	293.512
265.172	208.337
268.065	150.768
270.958	86.1875
273.85	25.1331
276.743	3.92749
279.636	22.6028
282.529	43.8618
285.421	103.782
288.314	129.942
291.207	155.611
294.099	91.7437
296.992	38.1929
299.885	16.7415
302.777	29.2593
305.67	10.3748
308.563	13.3118
311.455	14.4993
314.348	12.9849
317.241	36.7556
320.134	57.1633
323.026	43.1196
325.919	49.876
328.812	64.5972
331.704	159.164
334.597	226.404
337.49	247.356
340.382	252.944
343.275	348.781
346.168	411.739
349.061	436.873
351.953	492.399
354.846	463.394
357.739	459.666
360.631	384.229
363.524	343.149
366.417	318.223
369.31	337.39
372.202	304.573
375.095	322.862
377.988	251.53
380.88	141.805
383.773	30.0927
386.666	9.07981
389.558	3.64173
392.451	11.6068
395.344	33.5432
398.236	60.4275
401.129	124.974
404.022	163.143
406.915	200.45
409.807	313.789
412.7	363.643
415.593	409.19
418.485	462.349
421.378	450.185
424.271	364.511
427.163	335.21
430.056	271.433
432.949	299.2
435.842	309.539
438.734	351.103
441.627	422.988
444.52	513.227
447.412	568.463
450.305	492.313
453.198	256.865
456.091	164.693
458.983	145.556
461.876	189.208
464.769	244.819
467.661	332.111
470.554	396.057
473.447	438.515
476.339	407.428
479.232	280.364
482.125	196.861
485.017	168.306
487.91	81.0283
490.803	53.0891
493.696	51.4338
496.588	25.0022
499.481	42.8889
502.374	22.8313
505.266	50.7058
508.159	75.3508
511.052	148.076
513.944	158.081
516.837	215.226
519.73	261.235
522.623	246.746
525.515	214.573
528.408	158.689
531.301	119.374
534.193	24.1335
537.086	32.3572
539.979	10.0193
542.871	52.2454
545.764	9.31641
548.657	39.7726
551.55	84.7163
554.442	116.93
557.335	178.586
560.228	230.515
563.12	177.654
566.013	91.2803
568.906	94.234
571.798	129.249
574.691	140.829
577.584	255.638
580.477	274.641
583.369	283.184
586.262	242.896
589.155	211.766
592.047	283.505
594.94	341.335
597.833	362.556
600.726	315.337
603.618	298.266
606.511	342.963
609.404	350.652
612.296	438.26
615.189	516.355
618.082	540.149
620.974	451.137
623.867	275.511
626.76	84.095
629.653	55.2507
632.545	9.62244
635.438	3.11926
638.331	15.974
641.223	33.5331
644.116	46.9586
647.009	67.6554
649.901	110.479
652.794	135.888
655.687	52.9102
658.58	39.2154
661.472	15.9742
664.365	5.05505
667.258	4.50073
670.15	30.345
673.043	1.99377
675.936	6.53259
678.828	46.7893
681.721	45.9919
684.614	37.1912
687.506	37.4699
690.399	49.3877
693.292	38.4535
696.185	5.96008
699.077	21.0383
701.97	14.5868
704.863	28.2402
707.755	10.2637
710.648	23.1249
713.541	34.2369
716.433	20.1115
719.326	37.3904
722.219	36.1038
725.112	7.83936
728.004	67.0509
730.897	5.02124
733.79	9.56616
736.682	6.11499
739.575	40.7363
742.468	18.1899
745.361	5.65942
748.253	7.24085
751.146	19.0678
754.039	6.56982
756.931	25.264
759.824	49.429
762.717	34.3241
765.609	21.7122
768.502	21.1637
771.395	47.5233
774.288	43.2202
777.18	72.6838
780.073	0.572632
782.966	40.9786
785.858	37.1515
788.751	36.3708
791.644	43.7167
794.536	45.6498
797.429	42.746
800.322	27.4636
803.215	16.9321
806.107	36.852
809	18.0856
811.893	13.009
814.785	23.4263
817.678	13.5762
820.571	40.306
823.463	20.5471
826.356	0.83728
829.249	52.6898
832.141	7.19397
835.034	31.9748
837.927	19.3043
840.82	0.256958
843.712	27.74
846.605	27.3189
849.498	27.844
852.39	23.2217
855.283	12.7967
858.176	5.71558
861.068	15.9993
863.961	38.6963
866.854	3.70239
869.747	36.9713
872.639	52.3579
875.532	40.9288
878.425	29.4043
881.317	35.252
884.21	49.7556
887.103	44.2181
889.995	39.3143
892.888	46.9772
895.781	29.5354
898.674	58.6222
901.566	29.4307
904.459	44.2003
907.352	37.619
910.244	46.8456
913.137	28.2843
916.03	39.5118
918.923	39.0646
921.815	30.7595
924.708	8.53992
927.601	3.08997
930.493	23.2602
933.386	12.4161
936.279	7.77625
939.171	8.771
942.064	18.2461
944.957	15.3411
947.85	20.9486
950.742	72.0022
953.635	112.11
956.528	116.084
959.42	168.627
962.313	200.402
965.206	259.88
968.098	316.694
970.991	447.156
973.884	513.6
976.777	652.084
979.669	746.242
982.562	725.484
985.455	665.367
988.347	527.302
991.24	498.546
994.133	427.906
997.025	428.092
999.918	457.905
1002.81	516.635
1005.7	760.728
1008.6	1128.38
1011.49	1622.8
1014.38	2216.01
1017.27	2683.68
1020.17	2903.28
1023.06	2675.63
1025.95	1950.57
1028.85	1075.14
1031.74	598.943
1034.63	408.736
1037.52	297
1040.42	263.751
1043.31	213.636
1046.2	233.485
1049.09	182.752
1051.99	167.37
1054.88	199.887
1057.77	201.713
1060.66	233.395
1063.56	256.303
1066.45	210.48
1069.34	154.863
1072.24	54.2402
1075.13	6.70764
1078.02	28.5986
1080.91	14.9345
1083.81	30.3003
1086.7	33.2411
1089.59	17.6464
1092.48	45.761
1095.38	63.4721
1098.27	55.4292
1101.16	22.5732
1104.06	44.8059
1106.95	53.146
1109.84	56.9246
1112.73	52.0933
1115.63	33.4209
1118.52	81.2861
1121.41	110.853
1124.3	92.5153
1127.2	62.748
1130.09	1.05872
1132.98	42.1522
1135.88	11.0717
1138.77	9.2793
1141.66	15.2566
1144.55	32.2352
1147.45	26.2776
1150.34	15.6425
1153.23	23.0987
1156.12	25.1888
1159.02	52.2828
1161.91	65.3889
1164.8	99.1427
1167.69	98.5636
1170.59	143.687
1173.48	198.38
1176.37	170.795
1179.27	177.588
1182.16	174.548
1185.05	154.517
1187.94	141.033
1190.84	135.799
1193.73	139.572
1196.62	101.011
1199.51	89.8415
1202.41	38.3372
1205.3	24.0543
1208.19	12.6127
1211.09	10.067
1213.98	9.68579
1216.87	7.25964
1219.76	32.832
1222.66	33.119
1225.55	33.8202
1228.44	12.4952
1231.33	12.5801
1234.23	12.4869
1237.12	18.3328
