Measurement: Raman, 532 nm, unoriented, Raman Data Processed
Mineral: Gaudefroyite
Rruff sample: R050675
Ideal chemistry: Ca_4_Mn^3+^_3_(BO_3_)_3_(CO_3_)(O,OH)_3_
Locality: Wessels mine, Cape Province, South Africa
Source: University of Arizona Mineral Museum
Description: Black hexagonal stubby dipyramidal crystals
Measured chemistry: Ca_4.00_(Mn^3+^_2.98_[box]_0.02_)_Σ=3_(BO_3_)_3_(CO_3_)(O_2.94_(OH)_0.06_)_Σ=3_ ; B, C, H not measured but estimated by charge balance.
Raman shift (cm-1)	intensity
135.101	0
138.475	6.26806
141.85	1.36779
145.225	5.5919
148.6	9.31832
151.975	17.564
155.35	22.3656
158.724	21.9335
162.099	26.9865
165.474	21.434
168.849	12.3152
172.224	5.70919
175.598	2.72884
178.973	1.60809
182.348	0.221584
185.723	1.73207
189.098	0.963768
192.472	0.485329
195.847	0.625893
199.222	1.78837
202.597	0.677299
205.972	0.751038
209.347	4.40459
212.721	4.06313
216.096	1.63753
219.471	1.47784
222.846	3.05422
226.221	6.51611
229.596	11.1453
232.97	14.0572
236.345	18.9719
239.72	26.3645
243.095	30.6149
246.47	29.4174
249.845	24.3522
253.219	21.5501
256.594	17.3619
259.969	15.5725
263.344	12.3391
266.719	14.4568
270.093	26.9943
273.468	46.1193
276.843	74.0109
280.218	115.175
283.593	155.393
286.967	165.386
290.342	120.297
293.717	71.2009
297.092	38.2931
300.467	18.8574
303.842	9.96807
307.216	5.54254
310.591	1.33196
313.966	4.16863
317.341	11.7928
320.716	20.7837
324.091	33.9689
327.465	54.1124
330.84	72.9956
334.215	86.7221
337.59	81.7955
340.965	69.5545
344.339	46.1362
347.714	24.9724
351.089	10.192
354.464	2.60055
357.839	0.621742
361.214	2.2429
364.588	1.33875
367.963	2.43597
371.338	5.28711
374.713	12.9475
378.088	20.1939
381.462	27.8385
384.837	36.194
388.212	35.6735
391.587	32.1645
394.962	25.4516
398.337	20.0966
401.712	16.221
405.086	13.6188
408.461	11.6668
411.836	10.077
415.211	6.55714
418.586	4.03773
421.96	0.387386
425.335	1.11739
428.71	0.735245
432.085	1.57326
435.46	1.88353
438.834	2.89745
442.209	3.00288
445.584	5.0773
448.959	4.01732
452.334	5.04106
455.709	4.32861
459.083	3.1021
462.458	2.74788
465.833	4.19702
469.208	3.08838
472.583	2.36371
475.957	1.93331
479.332	1.62397
482.707	0.334
486.082	0.292362
489.457	0.240406
492.832	0.990086
496.206	1.09513
499.581	0.493519
502.956	0.111786
506.331	3.95275
509.706	7.006
513.081	15.1219
516.455	26.8806
519.83	43.1484
523.205	68.352
526.58	96.7009
529.955	117.128
533.33	114.226
536.704	82.4202
540.079	51.9459
543.454	30.8362
546.829	18.6514
550.204	12.7091
553.578	12.2942
556.953	13.9482
560.328	21.0081
563.703	34.5766
567.078	53.2009
570.452	73.9997
573.827	73.6309
577.202	54.4218
580.577	36.6805
583.952	26.3282
587.327	17.9822
590.701	12.3854
594.076	7.39002
597.451	4.41048
600.826	3.85141
604.201	1.66
607.576	0.07399
610.95	0.56044
614.325	1.8792
617.7	3.70759
621.075	10.6493
624.45	20.7126
627.824	38.1167
631.199	60.626
634.574	92.6056
637.949	130.345
641.324	171.466
644.698	221.04
648.073	254.544
651.448	223.757
654.823	157.344
658.198	114.7
661.573	98.6919
664.947	100.15
668.322	107.127
671.697	98.3933
675.072	65.2003
678.447	38.8164
681.822	23.3279
685.196	14.608
688.571	7.45971
691.946	2.66559
695.321	0.002899
698.696	1.4673
702.071	1.51162
705.445	0.900993
708.82	0.996429
712.195	0.017036
715.57	0.946514
718.945	1.26837
722.319	1.52056
725.694	2.00977
729.069	1.7908
732.444	2.66739
735.819	1.81184
739.193	2.59761
742.568	4.96229
745.943	4.09792
749.318	3.7568
752.693	3.51249
756.068	4.63969
759.442	4.54928
762.817	3.94524
766.192	4.37013
769.567	1.27896
772.942	0.140644
776.317	1.52674
779.691	0.192638
783.066	0.456059
786.441	1.50506
789.816	1.24623
793.191	1.13982
796.566	1.65759
799.94	0.055759
803.315	1.20407
806.69	1.3047
810.065	0.509666
813.44	0.464737
816.814	2.72987
820.189	0.986439
823.564	0.17725
826.939	1.14082
830.314	0.884872
833.688	2.72003
837.063	1.44798
840.438	2.27494
843.813	2.81529
847.188	2.46309
850.563	1.99532
853.937	2.65927
857.312	2.19168
860.687	1.40351
864.062	2.01491
867.437	2.45051
870.812	2.99884
874.186	1.82743
877.561	1.66779
880.936	1.48132
884.311	0.386684
887.686	0.040981
891.061	0.964218
894.435	0.353386
897.81	1.36511
901.185	1.7588
904.56	4.66993
907.935	6.15932
911.309	9.7756
914.684	12.9732
918.059	15.4087
921.434	18.9564
924.809	27.3667
928.183	32.6739
931.558	32.4087
934.933	31.7878
938.308	33.6924
941.683	22.0928
945.058	10.7035
948.432	5.06726
951.807	3.21404
955.182	0.744427
958.557	0.515579
961.932	0.220909
965.307	0.098354
968.681	0.650776
972.056	0.346581
975.431	0.073334
978.806	0.029495
982.181	0.018276
985.556	0.300552
988.93	0.669785
992.305	1.21252
995.68	0.876244
999.055	0.937832
1002.43	1.18256
1005.8	1.5005
1009.18	1.98576
1012.55	1.19299
1015.93	0.94635
1019.3	1.45568
1022.68	1.61485
1026.05	0.978661
1029.43	1.12662
1032.8	1.54686
1036.18	2.04826
1039.55	3.00417
1042.93	3.19892
1046.3	2.76211
1049.68	2.2555
1053.05	2.34668
1056.43	1.40853
1059.8	2.5348
1063.18	2.81324
1066.55	7.33855
1069.93	12.6687
1073.3	21.8047
1076.68	38.6646
1080.05	10.4262
1083.42	1.17261
1086.8	0.104267
1090.17	0.185616
1093.55	0.094677
1096.92	0.542721
1100.3	0.234882
1103.67	1.07311
1107.05	0.344543
1110.42	0.951572
1113.8	0.605019
1117.17	0.018246
1120.55	0.829857
1123.92	2.09081
1127.3	3.75515
1130.67	3.48331
1134.05	1.80219
1137.42	2.35988
1140.8	0.782482
1144.17	0.460011
1147.55	1.73124
1150.92	1.33928
1154.3	0.909897
1157.67	0.308872
1161.05	2.12765
1164.42	2.6419
1167.8	2.62668
1171.17	6.74118
1174.55	9.83139
1177.92	14.7072
1181.3	18.4781
1184.67	21.7349
1188.05	28.5259
1191.42	33.1314
1194.79	33.4273
1198.17	31.651
1201.54	27.5298
1204.92	21.9561
1208.29	20.7433
1211.67	18.8356
1215.04	15.8277
1218.42	14.7707
1221.79	11.2882
1225.17	10.3276
1228.54	8.72534
1231.92	7.67445
1235.29	4.7676
1238.67	4.03688
1242.04	1.96734
1245.42	1.96499
1248.79	1.57656
1252.17	0.761478
1255.54	1.26265
1258.92	0.096272
1262.29	0.816845
1265.67	0.670471
1269.04	1.23463
1272.41	2.53466
1275.79	4.33946
1279.16	3.60057
1282.54	2.47049
1285.91	1.23237
1289.29	0.887749
1292.66	0.22757
1296.04	1.14006
1299.41	0.599804
