Measurement: Raman, 532 nm, unoriented, Raman Data Processed
Mineral: Gaylussite
Rruff sample: R040146
Ideal chemistry: Na_2_Ca(CO_3_)_2_5H_2_O
Locality: Searles Lake, Trona, San Bernardino County, California, USA
Source: University of Arizona Mineral Museum
Description: Colorless crystal fragments
Measured chemistry: Na_2.00_Ca_1.00_(C_1.00_O_3_)_2_Â·5H_2_O
Raman shift (cm-1)	intensity
151.108	0
154.483	902.948
157.858	3633.01
161.233	7447.97
164.607	9045.67
167.982	5591.63
171.357	3457.13
174.732	2831.28
178.107	2128.41
181.482	1209.23
184.856	428.465
188.231	23.269
191.606	76.1958
194.981	133.705
198.356	65.1152
201.731	174.786
205.105	255.473
208.48	248.029
211.855	99.457
215.23	147.678
218.605	319.847
221.979	487.541
225.354	409.167
228.729	513.581
232.104	699.033
235.479	733.466
238.853	948.761
242.228	1398.36
245.603	2319.98
248.978	3486.33
252.353	4277.26
255.727	4108.07
259.102	3386.61
262.477	2793.44
265.852	1936.1
269.227	1305.03
272.602	978.115
275.976	986.754
279.351	994.948
282.726	807.212
286.101	612.097
289.476	470.025
292.851	314.602
296.225	184.985
299.6	141.089
302.975	104.903
306.35	38.0024
309.725	26.5762
313.099	12.6304
316.474	72.2573
319.849	8.45947
323.224	27.5771
326.599	55.5874
329.974	69.4429
333.348	135.28
336.723	190.613
340.098	192.693
343.473	224.96
346.848	205.239
350.223	146.123
353.597	86.9346
356.972	111.585
360.347	70.0503
363.722	64.1733
367.097	41.8291
370.471	59.6611
373.846	17.7905
377.221	3.73242
380.596	1.98438
383.971	57.6714
387.346	2.59228
390.72	94.1338
394.095	77.1641
397.47	38.0391
400.845	85.7812
404.219	20.0386
407.594	26.728
410.969	53.4956
414.344	55.269
417.719	2.63916
421.094	25.0064
424.469	21.1572
427.843	15.6128
431.218	21.1099
434.593	2.46777
437.968	8.02734
441.343	48.0278
444.717	10.1094
448.092	23.207
451.467	59.4307
454.842	23.2461
458.217	19.9175
461.591	25.6743
464.966	29.3784
468.341	70.0957
471.716	15.3892
475.091	86.7134
478.466	45.1958
481.84	116.583
485.215	118.576
488.59	50.582
491.965	136.296
495.34	119.374
498.714	166.139
502.089	138.178
505.464	183.988
508.839	232.506
512.214	287.007
515.589	352.997
518.963	393.051
522.338	251.846
525.713	312.545
529.088	175.631
532.463	91.0322
535.837	102.243
539.212	41.416
542.587	69.376
545.962	26.0923
549.337	5.21777
552.712	28.7246
556.086	118.034
559.461	125.501
562.836	91.5166
566.211	104.903
569.586	94.6968
572.96	186.15
576.335	149.304
579.71	135.76
583.085	89.6934
586.46	91.9067
589.835	31.9165
593.209	48.605
596.584	1.38916
599.959	18.9951
603.334	40.1216
606.709	33.3472
610.083	20.3633
613.458	32.0137
616.833	28.1455
620.208	35.1592
623.583	42.8501
626.958	135.823
630.332	78.8994
633.707	91.792
637.082	80.1113
640.457	176.302
643.832	189.709
647.207	295.655
650.581	291.18
653.956	337.711
657.331	394.425
660.706	423.324
664.081	464.692
667.455	383.759
670.83	294.519
674.205	381.081
677.58	434.837
680.955	546.343
684.33	650.864
687.704	774.325
691.079	786.521
694.454	502.33
697.829	466.17
701.204	392.526
704.578	360.2
707.953	357.162
711.328	602.909
714.703	1079.94
718.078	1449.04
721.452	1036.12
724.827	417.328
728.202	124.931
731.577	95.6231
734.952	33.6904
738.327	25.6934
741.701	22.6377
745.076	38.0147
748.451	46.1943
751.826	14.8291
755.201	44.919
758.576	6.93945
761.95	31.6475
765.325	51.1992
768.7	18.7021
772.075	13.1924
775.45	76.8525
778.824	67.2227
782.199	12.6641
785.574	16.0234
788.949	95.79
792.324	92.5898
795.698	69.8037
799.073	60.4805
802.448	84.1523
805.823	56.6133
809.198	127.644
812.573	82.2627
815.947	112.245
819.322	133.336
822.697	191.013
826.072	91.0205
829.447	71.04
832.822	51.0254
836.196	81.8682
839.571	42.8447
842.946	74.4893
846.321	67.71
849.696	90.7578
853.07	31.3037
856.445	52.0557
859.82	56.6826
863.195	32.8594
866.57	59.3975
869.944	56.2578
873.319	127.862
876.694	118.975
880.069	179.217
883.444	213.203
886.819	281.103
890.193	296.854
893.568	236.823
896.943	255.23
900.318	162.244
903.693	142.453
907.067	118.335
910.442	75.8057
913.817	157.19
917.192	53.5508
920.567	59.4395
923.942	50.6699
927.316	25.9648
930.691	11.7344
934.066	59.2764
937.441	141.934
940.816	74.5078
944.191	8.84766
947.565	61.8066
950.94	59.0635
954.315	17.7939
957.69	20.2266
961.065	12.1435
964.439	15.9834
967.814	73.9326
971.189	17.5625
974.564	62.5977
977.939	27.9346
981.313	7.84082
984.688	64.9336
988.063	58.2588
991.438	40.4258
994.813	70.5527
998.188	24.9688
1001.56	11.3096
1004.94	13.4482
1008.31	26.6807
1011.69	26.8066
1015.06	44.0547
1018.44	67.9717
1021.81	83.8477
1025.19	101.403
1028.56	89.8613
1031.94	106.539
1035.31	97.499
1038.68	159.087
1042.06	141.513
1045.43	234.909
1048.81	379.529
1052.18	429.509
1055.56	489.669
1058.93	1145.72
1062.31	3361.51
1065.68	9300.42
1069.06	28335.4
1072.43	30169.8
1075.81	3963.89
1079.18	1254.29
1082.56	522.44
1085.93	378.029
1089.31	162.62
1092.68	101.628
1096.06	103.349
1099.43	53.8105
1102.81	58.2373
1106.18	28.3311
1109.56	7.24902
1112.93	30.9336
1116.31	48.9492
1119.68	41
1123.06	15.8994
1126.43	6.0166
1129.81	22.4277
1133.18	86.2295
1136.56	44.4277
1139.93	28.3164
1143.31	113.144
1146.68	51.4834
1150.05	50.584
1153.43	86.1318
1156.8	10.4258
1160.18	45.3008
1163.55	85.9912
1166.93	12.3135
1170.3	81.8281
1173.68	6.05957
1177.05	70.4434
1180.43	66.9619
1183.8	5.48242
1187.18	27.8154
1190.55	50.2275
1193.93	19.5615
1197.3	15.0596
1200.68	124.664
1204.05	58.8359
1207.43	101.766
1210.8	6.03418
1214.18	74.7725
1217.55	128.672
1220.93	95.7481
1224.3	48.2559
1227.67	93.875
1231.05	119.106
1234.42	18.1562
1237.8	124.42
1241.17	94.3272
1244.55	40.2559
1247.92	70.0889
1251.3	59.9111
1254.67	97.0977
1258.05	68.5518
1261.42	65.124
1264.8	39.6289
1268.17	37.8291
1271.55	46.3242
1274.92	60.7715
1278.3	71.2246
1281.67	33.8252
1285.05	46.5322
1288.42	78.9766
1291.8	41.7188
1295.17	78.8027
1298.55	43.2129
1301.92	75.3291
1305.3	18.8232
1308.67	44.0605
1312.05	55.54
