Measurement: Raman, 514 nm, unoriented, Raman Data Processed
Mineral: Gaylussite
Rruff sample: R040146
Ideal chemistry: Na_2_Ca(CO_3_)_2_5H_2_O
Locality: Searles Lake, Trona, San Bernardino County, California, USA
Source: University of Arizona Mineral Museum
Description: Colorless crystal fragments
Measured chemistry: Na_2.00_Ca_1.00_(C_1.00_O_3_)_2_Â·5H_2_O
Raman shift (cm-1)	intensity
86.404	0
90.587	457.355
94.768	2499.45
98.947	5194.59
103.124	4297.54
107.3	1027.76
111.473	107.63
115.644	618.069
119.813	1555.86
123.981	1957.88
128.146	1873.89
132.309	1534.71
136.47	718.544
140.63	588.067
144.787	578.554
148.942	991.689
153.096	2113.41
157.247	5256.18
161.396	9227.63
165.544	10274.5
169.689	6560.38
173.833	3154.93
177.974	1366.2
182.114	388.563
186.251	26.074
190.387	193.273
194.52	200.986
198.652	141.955
202.782	146.174
206.909	470.585
211.035	308.909
215.159	239.147
219.281	138.578
223.4	169.563
227.518	342.765
231.634	425.773
235.748	373.102
239.86	246.453
243.97	433.014
248.079	984.607
252.185	1760.33
256.289	2503.01
260.391	3093.56
264.492	2855.43
268.59	2100.45
272.687	1644.94
276.781	1453.52
280.874	1254.13
284.964	1006.24
289.053	702.729
293.14	397.004
297.225	199.096
301.308	5.946
305.389	14.773
309.468	35.092
313.545	15.401
317.62	76.581
321.693	31.616
325.765	39.714
329.834	14.339
333.902	2.173
337.967	108.82
342.031	27.44
346.093	21.647
350.153	116.41
354.21	13.226
358.267	22.488
362.321	50.527
366.373	70.755
370.423	95.967
374.471	57.198
378.518	88.868
382.563	100.082
386.605	109.163
390.646	43.203
394.685	147.701
398.722	41.415
402.757	110.655
406.79	134.604
410.821	147.29
414.851	129.462
418.878	161.521
422.904	161.416
426.927	235.918
430.949	182.782
434.969	243.163
438.987	182.331
443.003	145.237
447.018	165.962
451.03	224.096
455.041	248.979
459.049	292.009
463.056	229.599
467.061	262.273
471.064	213.375
475.065	370.518
479.064	311.906
483.062	356.184
487.057	259.047
491.051	301.143
495.043	383.938
499.032	269.012
503.02	377.091
507.007	476.85
510.991	547.62
514.973	573.39
518.954	562.676
522.933	572.228
526.91	534.165
530.885	455.985
534.858	396.355
538.829	241.305
542.799	132.379
546.766	214.404
550.732	227.736
554.696	189.95
558.658	142.437
562.618	211.157
566.576	131.988
570.533	163.365
574.488	161.833
578.44	170.626
582.391	184.139
586.341	168.896
590.288	207.675
594.233	133.306
598.177	193.655
602.119	79.39
606.059	216.527
609.997	8.465
613.933	148.099
617.868	66.887
621.801	64.689
625.731	121.207
629.66	168.982
633.588	260.474
637.513	92.383
641.437	365.621
645.358	162.225
649.278	391.562
653.196	309.622
657.113	367.08
661.027	344.698
664.94	399.571
668.851	536.405
672.76	432.384
676.667	431.168
680.572	399.27
684.476	443.084
688.378	531.652
692.278	319.769
696.176	271.452
700.072	50.029
703.967	255.508
707.86	344.055
711.751	388.642
715.64	489.46
719.527	913.788
723.413	668.93
727.297	323.98
731.179	232.066
735.059	170.979
738.937	122.685
742.814	152.323
746.689	123.102
750.562	85.841
754.433	11.304
758.303	76.277
762.17	42.333
766.036	61.627
769.901	33.118
773.763	5.498
777.624	95.988
781.482	70.695
785.339	34.089
789.195	82.211
793.048	30.127
796.9	28.528
800.75	110.173
804.598	19.117
808.445	80.767
812.289	7.439
816.132	3.07
819.973	35.622
823.813	56.054
827.65	84.395
831.486	209.732
835.32	130.56
839.152	120.768
842.983	115.948
846.812	174.117
850.639	7.96
854.464	56.44
858.288	318.48
862.11	29.404
865.93	244.303
869.748	89.172
873.564	203.046
877.379	346.682
881.192	331.709
885.004	317.337
888.813	247.195
892.621	339.969
896.427	296.617
900.232	363.971
904.034	260.336
907.835	328.562
911.634	215.95
915.432	241.646
919.227	64.398
923.021	342.897
926.813	204.652
930.604	219.809
934.393	193.137
938.18	162.112
941.965	176.15
945.749	133.562
949.53	110.834
953.311	230.174
957.089	196.137
960.866	187.783
964.641	64.301
968.414	258.119
972.185	256.104
975.955	127.514
979.723	56.789
983.49	149.166
987.254	262.469
991.017	375.756
994.779	179.195
998.538	296.498
1002.3	367.418
1006.05	117.053
1009.81	255.596
1013.56	288.357
1017.31	477.477
1021.06	154.287
1024.81	238.494
1028.55	344.723
1032.3	391.363
1036.04	422.965
1039.78	440.059
1043.52	470.004
1047.26	511.289
1050.99	926.074
1054.73	942.574
1058.46	1150.26
1062.19	1674.24
1065.92	4408.75
1069.65	28557.2
1073.37	35724.1
1077.1	7157.59
1080.82	2025.29
1084.54	939.816
1088.26	658.588
1091.97	557.58
1095.69	388.037
1099.4	227.627
1103.12	141.658
1106.83	209.055
1110.54	67.238
1114.24	52.588
1117.95	133.984
1121.65	225.967
1125.35	121.502
1129.06	171.289
1132.75	138.32
1136.45	46.256
1140.15	46.537
1143.84	21.6
1147.53	189.68
1151.22	66.23
1154.91	187.666
1158.6	56.332
1162.28	341.477
1165.97	102.293
1169.65	331.438
1173.33	68.848
1177.01	232.668
1180.69	247.217
1184.36	397.699
1188.04	189.039
1191.71	349.258
1195.38	179.768
1199.05	285.15
1202.71	139.361
1206.38	273.504
1210.04	2.141
1213.71	308.922
1217.37	147.9
1221.03	179.828
1224.68	192.818
1228.34	129.322
1231.99	289.354
1235.65	238.986
1239.3	457.186
1242.95	370.977
1246.59	231.332
1250.24	115.068
1253.88	268.395
1257.53	131.691
1261.17	169.57
1264.81	173.516
1268.45	228.256
1272.08	52.986
1275.72	229.342
1279.35	110.652
1282.98	94.584
1286.61	98.424
1290.24	290.49
1293.87	167.281
1297.49	245.656
1301.11	141.111
1304.73	161.061
1308.36	18.285
1311.97	221.447
1315.59	68.23
1319.2	139.398
1322.82	124.029
1326.43	31.02
1330.04	72.455
1333.65	88.318
1337.26	89.736
1340.86	39.807
1344.47	180.602
1348.07	150.777
1351.67	74.465
1355.27	392.877
1358.87	371.488
1362.46	283.414
1366.06	381.117
1369.65	406.021
1373.24	413.975
1376.83	346.135
1380.42	228.881
1384	319.361
1387.59	521.107
1391.17	482.004
1394.75	660.521
1398.33	1046.03
1401.91	870.295
1405.49	613.863
1409.06	448.982
1412.64	305.117
1416.21	428.418
1419.78	416.846
1423.35	717.166
1426.91	871.311
1430.48	759.994
1434.05	796.189
1437.61	794.158
1441.17	828.438
1444.73	802.508
1448.29	612.227
1451.84	450.762
1455.4	404.061
1458.95	642.539
1462.5	533.654
1466.05	605.227
1469.6	329.648
1473.15	480.881
1476.69	347.613
1480.24	348.994
1483.78	83.859
1487.32	165.709
1490.86	153.457
1494.39	194.963
1497.93	281.033
1501.46	89.854
1505	4.195
1508.53	88.766
1512.06	89.984
1515.59	397.613
