Measurement: Raman, 785 nm, unoriented, Raman Data Processed
Mineral: Gaylussite
Rruff sample: R040146
Ideal chemistry: Na_2_Ca(CO_3_)_2_5H_2_O
Locality: Searles Lake, Trona, San Bernardino County, California, USA
Source: University of Arizona Mineral Museum
Description: Colorless crystal fragments
Measured chemistry: Na_2.00_Ca_1.00_(C_1.00_O_3_)_2_Â·5H_2_O
Raman shift (cm-1)	intensity
141.75	0
144.643	64.0579
147.536	439.278
150.429	810.946
153.321	1228.06
156.214	1931.68
159.107	3017.57
161.999	4662.96
164.892	5116.91
167.785	3620.02
170.677	2376.17
173.57	1622.18
176.463	1146.73
179.356	764.649
182.248	404.375
185.141	181.077
188.034	74.8885
190.926	15.709
193.819	5.44275
196.712	25.9811
199.604	15.765
202.497	37.5405
205.39	108.76
208.282	117.303
211.175	22.7384
214.068	47.3744
216.961	26.5791
219.853	40.4038
222.746	78.2267
225.639	76.6381
228.531	105.155
231.424	148.008
234.317	120.59
237.209	107.599
240.102	143.615
242.995	224.045
245.888	425.12
248.78	683.265
251.673	1061.66
254.566	1302.57
257.458	1285.91
260.351	1237.15
263.244	1107.66
266.137	847.966
269.029	640.899
271.922	521.482
274.815	485.811
277.707	547.68
280.6	505.035
283.493	394.942
286.385	279.36
289.278	180.78
292.171	136.31
295.063	53.0635
297.956	37.7142
300.849	28.3085
303.742	1.14661
306.634	11.9307
309.527	0.482178
312.42	16.5713
315.312	14.1325
318.205	17.6371
321.098	1.44605
323.99	2.79004
326.883	29.8851
329.776	62.5497
332.669	70.6308
335.561	93.2514
338.454	101.633
341.347	106.788
344.239	99.7344
347.132	93.762
350.025	81.8727
352.918	81.103
355.81	73.1946
358.703	77.3019
361.596	55.7465
364.488	57.6072
367.381	42.207
370.274	63.7719
373.166	35.9167
376.059	46.919
378.952	29.6449
381.844	35.3092
384.737	32.5079
387.63	16.6283
390.523	15.7289
393.415	26.7754
396.308	38.9791
399.201	11.5557
402.093	33.2763
404.986	20.6868
407.879	8.20654
410.772	5.65424
413.664	20.36
416.557	4.65314
419.45	18.3129
422.342	25.4106
425.235	8.79675
428.128	1.72022
431.02	4.24548
433.913	4.41101
436.806	4.82092
439.699	5.45019
442.591	4.41205
445.484	10.0071
448.377	3.25293
451.269	11.2637
454.162	1.68073
457.055	12.9675
459.947	27.5275
462.84	5.37176
465.733	0.344788
468.625	2.48041
471.518	36.1398
474.411	16.4983
477.304	33.4169
480.196	26.9641
483.089	26.5562
485.982	16.5485
488.874	42.553
491.767	59.8887
494.66	55.7704
497.553	54.7327
500.445	58.9796
503.338	83.821
506.231	110.879
509.123	107.09
512.016	142.292
514.909	148.039
517.802	185.057
520.694	167.829
523.587	137.378
526.48	118.06
529.372	71.3191
532.265	51.686
535.158	32.233
538.05	23.2574
540.943	30.7006
543.836	1.25256
546.729	16.521
549.621	25.8621
552.514	14.5891
555.407	45.9589
558.299	33.1794
561.192	57.1742
564.085	48.3029
566.977	55.3785
569.87	80.803
572.763	32.0009
575.655	35.5826
578.548	44.0294
581.441	44.9971
584.333	14.1435
587.226	34.8523
590.119	22.0626
593.012	10.7737
595.904	11.9109
598.797	1.3493
601.69	1.34088
604.582	4.42511
607.475	7.47382
610.368	11.7556
613.26	0.065796
616.153	10.1147
619.046	3.13501
621.939	20.9644
624.831	5.32996
627.724	27.2897
630.617	16.2415
633.509	25.46
636.402	40.4303
639.295	70.7731
642.188	63.3734
645.08	77.0194
647.973	79.0862
650.866	114.348
653.758	121.586
656.651	127.276
659.544	144.284
662.436	168.534
665.329	163.327
668.222	151.962
671.115	135.823
674.007	134.54
676.9	145.495
679.793	149.097
682.685	166.216
685.578	204.167
688.471	227.378
691.363	227.169
694.256	140.697
697.149	120.451
700.042	119.486
702.934	119.031
705.827	106.001
708.72	135.162
711.612	143.142
714.505	251.128
717.398	370.574
720.29	409.873
723.183	210.669
726.076	107.871
728.968	48.6977
731.861	22.7909
734.754	26.1958
737.647	21.3325
740.539	31.4586
743.432	6.01941
746.325	17.2449
749.217	2.37872
752.11	11.2822
755.003	16.3138
757.895	10.1678
760.788	3.05957
763.681	11.4013
766.574	0.87384
769.466	19.9407
772.359	11.081
775.252	5.56
778.144	3.5177
781.037	9.84711
783.93	8.54913
786.822	32.2959
789.715	11.2012
792.608	12.2676
795.501	13.1259
798.393	19.8743
801.286	24.5452
804.179	11.9776
807.071	12.9391
809.964	23.5884
812.857	35.9917
815.75	34.2121
818.642	42.6013
821.535	27.3797
824.428	49.0987
827.32	57.7717
830.213	30.5658
833.106	23.833
835.998	31.0193
838.891	23.2036
841.784	11.4589
844.677	9.76898
847.569	8.4115
850.462	3.47656
853.355	8.68732
856.247	2.77094
859.14	16.252
862.033	11.4468
864.925	24.2776
867.818	15.1396
870.711	14.8019
873.604	14.5487
876.496	48.7209
879.389	39.231
882.282	42.8382
885.174	35.0821
888.067	55.6063
890.96	60.8787
893.852	45.5802
896.745	31.4669
899.638	54.7808
902.53	43.4747
905.423	42.7465
908.316	33.8386
911.209	34.1895
914.101	33.1111
916.994	35.3362
919.887	23.3886
922.779	13.2051
925.672	6.67755
928.565	15.9518
931.457	21.4655
934.35	10.812
937.243	22.0172
940.136	16.8171
943.028	25.0492
945.921	10.4581
948.814	9.85065
951.706	10.9431
954.599	17.3586
957.492	0.295593
960.385	4.85242
963.277	6.97662
966.17	16.3851
969.063	14.5974
971.955	7.54181
974.848	8.68164
977.741	3.62213
980.633	21.0433
983.526	1.35065
986.419	0.774353
989.312	7.3302
992.204	7.67255
995.097	4.79712
997.99	16.1513
1000.88	7.99103
1003.77	10.7789
1006.67	2.48914
1009.56	8.59448
1012.45	4.83624
1015.35	18.8837
1018.24	14.5423
1021.13	12.6635
1024.02	22.4963
1026.92	22.0525
1029.81	11.522
1032.7	28.9166
1035.6	41.6207
1038.49	31.2267
1041.38	38.8773
1044.27	67.2886
1047.17	117.995
1050.06	172.597
1052.95	169.958
1055.84	223.385
1058.74	498.152
1061.63	1388.23
1064.52	2946.55
1067.41	7289.84
1070.31	15910.9
1073.2	5910.82
1076.09	1309.7
1078.98	476.351
1081.88	229.896
1084.77	145.165
1087.66	90.2228
1090.56	60.8243
1093.45	56.1601
1096.34	27.7978
1099.23	19.465
1102.13	22.2476
1105.02	23.1244
1107.91	9.97217
1110.81	1.75275
1113.7	5.12341
1116.59	2.67743
1119.48	0.009094
1122.38	13.5477
1125.27	23.6304
1128.16	20.7232
1131.05	26.0876
1133.95	0.281189
1136.84	22.1238
1139.73	9.30713
1142.62	9.82788
1145.52	13.3234
1148.41	11.32
1151.3	4.28479
1154.19	6.38013
1157.09	3.452
1159.98	6.73422
1162.87	3.97559
1165.77	13.6958
1168.66	7.53168
1171.55	25.0331
1174.44	10.3765
1177.34	6.97702
1180.23	21.7902
1183.12	11.2173
1186.02	0.09964
1188.91	22.6654
1191.8	12.5777
1194.69	15.9887
1197.59	9.50205
1200.48	32.7119
1203.37	22.9652
1206.26	15.1242
1209.16	17.0442
1212.05	14.4857
1214.94	7.13333
1217.84	20.818
1220.73	26.9474
1223.62	7.81287
1226.51	19.2771
1229.41	21.9884
1232.3	10.9368
1235.19	32.074
1238.08	18.3716
1240.98	1.85358
