Measurement: Raman, 532 nm, unoriented, Raman Data Processed
Mineral: Gearksutite
Rruff sample: R050657
Ideal chemistry: CaAlF_4_(OH)H_2_O
Locality: Jamestown, Colorado, USA
Source: University of Arizona Mineral Museum
Description: White fragment
Measured chemistry: (Ca_0.98_Sr_0.02_)Al_1.00_F_4.00_(OH)Â·H_2_O
Raman shift (cm-1)	intensity
152.457	0
155.35	5.10315
158.242	0.508789
161.135	16.0366
164.028	34.365
166.92	74.7087
169.813	41.1627
172.706	28.6897
175.598	55.9502
178.491	80.2876
181.384	114.772
184.277	164.813
187.169	200.17
190.062	231.478
192.955	248.911
195.847	240.028
198.74	187.733
201.633	174.108
204.525	188.622
207.418	240.513
210.311	309.902
213.204	218.605
216.096	88.2283
218.989	60.9791
221.882	50.4807
224.774	52.7689
227.667	86.4487
230.56	122.193
233.452	105.74
236.345	89.5894
239.238	108.805
242.131	105.835
245.023	135.04
247.916	175.292
250.809	261.934
253.701	350.343
256.594	384.264
259.487	367.626
262.38	363.369
265.272	271.201
268.165	192.669
271.058	166.835
273.95	176.897
276.843	173.883
279.736	135.655
282.628	95.1536
285.521	79.4214
288.414	72.2299
291.307	72.6359
294.199	75.7352
297.092	49.8691
299.985	18.863
302.877	2.18018
305.77	4.63477
308.663	4.37732
311.555	14.4899
314.448	5.65466
317.341	3.51831
320.234	9.30225
323.126	0.369507
326.019	0.805054
328.912	19.1492
331.804	29.7073
334.697	53.9866
337.59	48.2996
340.483	72.0896
343.375	99.6039
346.268	131.923
349.161	153.654
352.053	162.13
354.946	166.466
357.839	169.185
360.731	187.742
363.624	194.837
366.517	197.593
369.41	167.603
372.302	167.047
375.195	152.99
378.088	179.115
380.98	188.185
383.873	171.456
386.766	126.433
389.659	82.5437
392.551	49.6294
395.444	31.509
398.337	25.1939
401.229	33.727
404.122	36.9485
407.015	44.0601
409.907	55.968
412.8	54.8435
415.693	73.6116
418.586	94.7935
421.478	129.095
424.371	163.617
427.264	201.712
430.156	222.414
433.049	207.811
435.942	159.605
438.834	126.175
441.727	120.652
444.62	106.46
447.513	129.455
450.405	140.206
453.298	160.349
456.191	132.993
459.083	91.0478
461.976	46.8245
464.869	31.6367
467.762	11.4175
470.654	5.6438
473.547	1.39038
476.44	0.614502
479.332	1.48584
482.225	5.35352
485.118	4.53369
488.01	7.86035
490.903	6.71338
493.796	5.08594
496.688	9.01148
499.581	5.9707
502.474	14.5764
505.367	15.2664
508.259	10.8098
511.152	20.8159
514.045	28.0503
516.938	33.4978
519.83	52.3457
522.723	55.5579
525.616	86.8728
528.508	109.272
531.401	138.758
534.294	169.621
537.186	203.117
540.079	231.188
542.972	277.408
545.865	306.409
548.757	329.054
551.65	332.093
554.543	346.383
557.435	379.083
560.328	451.604
563.221	526.572
566.114	633.046
569.006	731.366
571.899	808.187
574.792	840.007
577.684	786.422
580.577	623.031
583.47	430.647
586.362	292.459
589.255	191.205
592.148	151.206
595.04	94.0964
597.933	66.4941
600.826	57.1824
603.719	42.5681
606.611	36.6277
609.504	22.561
612.397	16.2129
615.289	12.1223
618.182	22.7082
621.075	17.0659
623.967	30.8921
626.86	33.7583
629.753	35.1492
632.646	31.8867
635.538	32.5813
638.431	26.3423
641.324	8.9165
644.216	3.25635
647.109	1.62988
650.002	5.05981
652.894	6.4585
655.787	2.10669
658.68	2.82373
661.573	10.4504
664.465	9.57593
667.358	4.01685
670.251	5.38989
673.144	7.67505
676.036	7.49927
678.929	8.27075
681.822	12.0181
684.714	25.4858
687.607	25.2024
690.5	35.2336
693.392	34.5056
696.285	63.7764
699.178	70.6987
702.071	78.5059
704.963	78.2004
707.856	98.8008
710.749	92.4583
713.641	103.633
716.534	102.684
719.427	83.0791
722.319	74.751
725.212	65.2781
728.105	51.9131
730.998	48.2417
733.89	46.5695
736.783	50.5996
739.676	74.5723
742.568	70.3311
745.461	82.731
748.354	94.2493
751.246	85.1018
754.139	82.218
757.032	85.6458
759.925	77.6802
762.817	65.7859
765.71	52.4888
768.603	33.3809
771.495	29.6016
774.388	32.959
777.281	21.6081
780.173	25.4126
783.066	9.56494
785.959	20.5066
788.852	13.6257
791.744	8.53565
794.637	1.20581
797.53	1.05103
800.422	4.1084
803.315	3.22388
806.208	8.63818
809.101	14.749
811.993	10.2959
814.886	7.64087
817.779	1.3457
820.671	4.67505
823.564	5.2312
826.457	12.9668
829.35	3.94727
832.242	13.447
835.135	22.6011
838.028	2.66553
840.92	8.79395
843.813	12.9097
846.706	15.1826
849.598	1.10913
852.491	7.28003
855.384	12.9316
858.277	4.25244
861.169	3.67896
864.062	8.73828
866.955	6.17163
869.847	12.6499
872.74	5.39453
875.633	0.369141
878.525	9.14746
881.418	14.3298
884.311	9.20435
887.204	4.4668
890.096	25.2722
892.989	16.6411
895.882	16.418
898.774	26.822
901.667	30.2114
904.56	28.4824
907.452	22.0764
910.345	39.2305
913.238	30.8896
916.131	33.7471
919.023	25.0066
921.916	17.5007
924.809	15.6802
927.701	8.9126
930.594	8.2002
933.487	10.1875
936.38	23.3374
939.272	18.9265
942.165	19.2004
945.058	13.3064
947.95	1.2605
950.843	3.6499
953.736	0.059814
956.629	6.08081
959.521	7.89844
962.414	2.72192
965.307	5.198
968.199	4.98584
971.092	4.76929
973.985	13.7847
976.877	13.115
979.77	23.6396
982.663	11.7297
985.556	13.3154
988.448	12.2356
991.341	1.27978
994.234	18.928
997.126	9.67896
1000.02	9.83423
1002.91	14.2619
1005.8	5.73462
1008.7	10.4077
1011.59	0.042236
1014.48	2.08618
1017.38	3.22022
1020.27	11.8801
1023.16	8.9231
1026.05	0.622559
1028.95	12.6763
1031.84	3.82471
1034.73	8.73169
1037.62	2.56982
1040.52	3.60425
1043.41	7.38159
1046.3	24.9514
1049.19	25.9099
1052.09	24.1636
1054.98	17.5469
1057.87	30.3435
1060.77	41.7212
1063.66	51.4106
1066.55	52.8743
1069.44	68.7891
1072.34	70.3357
1075.23	85.7085
1078.12	86.6291
1081.02	99.3489
1083.91	105.631
1086.8	103.563
1089.69	100.534
1092.59	89.6628
1095.48	81.6482
1098.37	66.6384
1101.26	54.1033
1104.16	31.6511
1107.05	26.0745
1109.94	27.032
1112.83	22.5725
1115.73	20.0642
1118.62	12.812
1121.51	8.81787
1124.4	0.084717
1127.3	14.2541
1130.19	6.65967
1133.08	15.2886
1135.98	0.898438
1138.87	2.28003
1141.76	11.9756
1144.65	6.01294
1147.55	18.8269
1150.44	10.9934
1153.33	2.13062
1156.22	5.56274
1159.12	10.5596
1162.01	3.76196
1164.9	6.04346
1167.8	4.67651
1170.69	10.9331
1173.58	13.167
1176.47	8.63281
1179.37	7.49731
1182.26	4.67065
1185.15	9.49536
1188.05	14.4016
1190.94	10.4214
1193.83	5.19727
1196.72	7.96362
1199.62	17.3796
1202.51	18.1235
1205.4	17.6345
1208.29	2.2478
1211.19	8.90723
1214.08	11.6848
1216.97	6.06494
1219.87	5.07471
1222.76	17.3613
1225.65	8.37036
1228.54	11.8262
1231.43	18.3543
1234.33	19.0447
1237.22	11.0984
1240.11	9.50366
1243.01	2.15405
1245.9	1.55859
1248.79	2.82397
1251.68	15.2798
1254.58	14.3042
1257.47	0.968262
1260.36	9.02075
1263.26	6.82031
1266.15	11.6506
1269.04	27.3557
1271.93	14.7036
1274.83	6.73047
1277.72	10.1069
1280.61	5.41764
1283.5	1.05322
1286.4	6.17163
1289.29	0.528564
1292.18	14.4768
1295.08	0.973633
1297.97	12.8848
1300.86	9.58545
