Measurement: Raman, 532 nm, unoriented, Raman Data Processed
Mineral: Gedrite
Rruff sample: R050339
Ideal chemistry: [box]Mg_2_(Mg_3_Al_2_)(Si_6_Al_2_)O_22_(OH)_2_
Locality: Bamble, Telemark, Norway
Source: California Institute of Technology
Description: Dark gray cleavage fragment
Measured chemistry: ([box]_0.61_Na_0.39_)(Mg_4.55_Fe^2+^_1.40_Al_0.91_Ti_0.07_Ca_0.07_)_Σ7_(Si_6.56_Al_1.44_)_Σ8_O_22_(OH)_2_
Raman shift (cm-1)	intensity
116.459	0
119.834	2.62007
123.209	20.8912
126.584	11.9384
129.959	10.1878
133.333	15.1268
136.708	16.2562
140.083	21.6746
143.458	11.9521
146.833	14.2126
150.208	20.5623
153.582	34.3393
156.957	49.1527
160.332	68.5584
163.707	86.4788
167.082	111.608
170.456	140.957
173.831	177.191
177.206	220.619
180.581	273.901
183.956	317.221
187.331	342.533
190.705	332.903
194.08	331.296
197.455	330.923
200.83	335.966
204.205	327.759
207.579	295.431
210.954	264.435
214.329	234.439
217.704	216.727
221.079	193.207
224.453	175.932
227.828	151.459
231.203	124.989
234.578	99.0178
237.953	76.2047
241.328	55.0776
244.702	40.4228
248.077	27.7011
251.452	17.2408
254.827	9.01553
258.202	7.42499
261.577	3.22223
264.951	0.838501
268.326	3.70395
271.701	6.38763
275.076	4.01813
278.451	4.578
281.825	1.8566
285.2	0.642029
288.575	4.22345
291.95	11.993
295.325	19.4672
298.7	24.4825
302.074	26.0295
305.449	25.7023
308.824	24.3901
312.199	19.3429
315.574	14.4789
318.948	8.41739
322.323	7.61301
325.698	4.22876
329.073	3.39563
332.448	5.6795
335.822	3.90744
339.197	2.75586
342.572	1.48346
345.947	0.221985
349.322	1.10101
352.697	0.236481
356.071	4.17743
359.446	8.84839
362.821	18.7163
366.196	31.233
369.571	42.1591
372.945	55.5829
376.32	70.3462
379.695	86.6939
383.07	94.7968
386.445	100.891
389.82	95.7055
393.194	82.5748
396.569	69.6164
399.944	57.9937
403.319	57.8006
406.694	60.0523
410.068	64.1481
413.443	68.5499
416.818	76.7501
420.193	87.5399
423.568	98.3394
426.942	113.901
430.317	128.17
433.692	136.21
437.067	142.98
440.442	141.554
443.817	139.96
447.191	132.051
450.566	118.173
453.941	99.3526
457.316	79.2262
460.691	59.3262
464.065	44.5915
467.44	32.6937
470.815	20.146
474.19	12.3587
477.565	7.26756
480.94	3.54182
484.314	0.80835
487.689	2.13423
491.064	3.209
494.439	1.58983
497.814	1.46637
501.188	0.674683
504.563	2.84081
507.938	4.90369
511.313	8.85922
514.688	15.8616
518.063	21.8307
521.437	27.7072
524.812	29.4031
528.187	34.2041
531.562	35.8326
534.937	40.6747
538.312	37.5918
541.686	35.7485
545.061	27.4278
548.436	20.518
551.811	12.5361
555.186	5.97348
558.56	0.073151
561.935	2.97919
565.31	4.92465
568.685	4.90863
572.06	1.86383
575.434	4.18265
578.809	6.84769
582.184	11.8313
585.559	15.7011
588.934	23.3739
592.308	35.897
595.683	42.6222
599.058	53.2242
602.433	66.0406
605.808	74.4454
609.183	78.1857
612.557	73.912
615.932	64.3166
619.307	55.9528
622.682	47.4374
626.057	43.3408
629.432	45.9221
632.806	59.761
636.181	75.7371
639.556	104.522
642.931	135.302
646.306	175.748
649.68	222.506
653.055	275.922
656.43	339.236
659.805	412.661
663.18	497.637
666.554	580.757
669.929	639.628
673.304	601.36
676.679	477.026
680.054	329.09
683.428	223.873
686.803	160.155
690.178	119.623
693.553	96.2294
696.928	75.7367
700.303	56.2002
703.677	39.9097
707.052	26.8458
710.427	18.3939
713.802	12.3701
717.177	8.5804
720.552	2.81165
723.926	0.4328
727.301	2.11581
730.676	1.97711
734.051	5.37401
737.426	4.26248
740.8	1.14908
744.175	2.58667
747.55	4.56531
750.925	6.48387
754.3	9.54953
757.674	12.2782
761.049	15.5854
764.424	16.1927
767.799	15.6977
771.174	15.8559
774.549	15.8129
777.923	15.4295
781.298	16.2479
784.673	17.3997
788.048	16.5406
791.423	14.3263
794.798	10.0897
798.172	9.09616
801.547	7.72418
804.922	8.61375
808.297	7.56442
811.672	8.78357
815.046	9.6935
818.421	8.49805
821.796	9.19817
825.171	9.32188
828.546	8.06898
831.92	6.94577
835.295	5.64624
838.67	4.0305
842.045	4.00903
845.42	1.96025
848.795	1.58879
852.169	1.23834
855.544	1.17687
858.919	0.460526
862.294	0.884232
865.669	0.75383
869.043	0.212341
872.418	0.626434
875.793	0.368988
879.168	0.509369
882.543	1.79855
885.918	2.63109
889.292	6.48906
892.667	6.22096
896.042	9.77274
899.417	12.6759
902.792	15.0234
906.166	17.0752
909.541	17.0519
912.916	19.9388
916.291	21.235
919.666	25.1325
923.04	23.2567
926.415	20.0845
929.79	13.4682
933.165	6.82877
936.54	4.487
939.915	0.352768
943.289	0.435623
946.664	0.887405
950.039	0.490875
953.414	3.22272
956.789	3.71207
960.163	6.13397
963.538	8.70366
966.913	13.5189
970.288	15.9177
973.663	19.6323
977.038	21.3149
980.412	24.5916
983.787	27.4245
987.162	31.1081
990.537	34.2692
993.912	37.8939
997.287	42.5671
1000.66	52.0701
1004.04	59.0668
1007.41	72.101
1010.79	85.9576
1014.16	94.761
1017.53	104.717
1020.91	108.814
1024.29	111.433
1027.66	114.05
1031.04	115.738
1034.41	118.938
1037.78	115.894
1041.16	89.3959
1044.53	58.9085
1047.91	35.506
1051.28	21.6569
1054.66	14.1965
1058.03	8.61548
1061.41	5.68578
1064.78	3.25075
1068.16	1.62123
1071.53	0.29892
1074.91	0.755188
1078.28	0.108795
1081.66	0.127792
1085.03	0.378876
1088.41	0.226166
1091.78	1.32106
1095.16	1.3466
1098.53	0.174255
1101.91	2.15399
1105.28	2.24545
1108.65	2.88362
1112.03	2.3539
1115.4	3.9194
1118.78	5.30249
1122.15	5.76538
1125.53	5.55435
1128.9	5.52882
1132.28	4.96843
1135.65	7.02531
1139.03	6.39281
1142.4	5.8766
1145.78	4.16639
1149.15	4.11985
1152.53	1.37029
1155.9	1.61379
1159.28	1.80223
1162.65	2.12083
1166.03	1.58376
1169.4	1.49927
1172.78	1.69479
1176.15	2.64393
1179.53	2.03866
1182.9	2.43775
1186.28	2.27786
1189.65	1.80035
1193.03	4.60664
1196.4	3.04161
1199.78	3.05047
1203.15	3.59608
1206.53	4.53751
1209.9	4.90226
1213.28	4.1575
1216.65	4.40958
1220.02	2.44686
1223.4	3.43556
1226.77	3.54121
1230.15	3.38653
1233.52	2.63083
1236.9	2.51939
1240.27	1.31188
1243.65	0.501625
1247.02	2.01701
1250.4	2.29237
1253.77	2.36771
1257.15	1.58254
1260.52	1.41289
1263.9	1.84409
1267.27	1.22089
1270.65	1.64705
1274.02	1.93146
1277.4	1.1644
1280.77	0
