Measurement: Raman, 780 nm, unoriented, Raman Data Processed
Mineral: Gedrite
Rruff sample: R050339
Ideal chemistry: [box]Mg_2_(Mg_3_Al_2_)(Si_6_Al_2_)O_22_(OH)_2_
Locality: Bamble, Telemark, Norway
Source: California Institute of Technology
Description: Dark gray cleavage fragment
Measured chemistry: ([box]_0.61_Na_0.39_)(Mg_4.55_Fe^2+^_1.40_Al_0.91_Ti_0.07_Ca_0.07_)_Σ7_(Si_6.56_Al_1.44_)_Σ8_O_22_(OH)_2_
Raman shift (cm-1)	intensity
113.254	0
116.629	5.35266
120.004	10.1792
123.379	15.4787
126.754	13.9945
130.129	7.11914
133.503	2.89865
136.878	0.728516
140.253	5.80902
143.628	12.5792
147.003	2.42722
150.377	2.70358
153.752	2.69409
157.127	7.16986
160.502	14.2598
163.877	24.2091
167.251	31.0389
170.626	44.9658
174.001	62.1694
177.376	82.5806
180.751	99.2099
184.126	121.059
187.5	129.308
190.875	130.666
194.25	128.708
197.625	132.642
201	136.605
204.375	134.435
207.749	128.396
211.124	118.265
214.499	112.854
217.874	111.962
221.249	110.114
224.623	109.285
227.998	90.3816
231.373	75.8158
234.748	66.2208
238.123	56.0832
241.498	48.027
244.872	40.7595
248.247	37.4931
251.622	26.0527
254.997	17.3432
258.372	14.1828
261.746	14.9488
265.121	11.7092
268.496	13.3337
271.871	13.6596
275.246	15.1791
278.62	19.8539
281.995	23.0309
285.37	32.322
288.745	44.8052
292.12	51.3542
295.495	36.2831
298.869	24.9715
302.244	11.7197
305.619	6.11383
308.994	0.897614
312.369	1.62119
315.743	3.04083
319.118	3.7146
322.493	3.23944
325.868	1.40823
329.243	2.25263
332.618	1.15784
335.992	0.700928
339.367	1.49377
342.742	4.58395
346.117	1.47223
349.492	6.2962
352.866	5.64954
356.241	9.61764
359.616	13.5069
362.991	19.735
366.366	21.4703
369.74	29.755
373.115	31.3701
376.49	37.6258
379.865	43.5562
383.24	43.0338
386.615	48.5246
389.989	53.3547
393.364	57.0476
396.739	62.8722
400.114	74.7053
403.489	86.7412
406.863	106.378
410.238	123.402
413.613	132.93
416.988	149.035
420.363	175.878
423.738	202.127
427.112	230.594
430.487	258.304
433.862	281.691
437.237	300.898
440.612	310.302
443.986	314.119
447.361	302.948
450.736	278.293
454.111	238.98
457.486	198.869
460.861	157.626
464.235	121.014
467.61	87.9178
470.985	65.3772
474.36	47.3442
477.735	33.2814
481.109	20.9059
484.484	10.8081
487.859	8.03204
491.234	2.02252
494.609	0.26413
497.983	2.14655
501.358	3.69443
504.733	3.61758
508.108	3.30563
511.483	1.13571
514.857	0.090393
518.232	1.42371
521.607	3.3035
524.982	4.30756
528.357	3.47864
531.732	4.84638
535.106	2.44345
538.481	3.34866
541.856	0.025452
545.231	1.42584
548.606	0.874573
551.981	1.98404
555.355	0.374298
558.73	1.16342
562.105	2.66165
565.48	4.09824
568.855	10.8822
572.229	18.3349
575.604	30.7727
578.979	40.3962
582.354	55.2679
585.729	73.979
589.104	92.49
592.478	113.798
595.853	134.532
599.228	158.713
602.603	178.802
605.978	190.767
609.352	195.581
612.727	186.343
616.102	168.413
619.477	145.732
622.852	119.285
626.226	98.0818
629.601	79.7372
632.976	64.4928
636.351	55.6476
639.726	54.5612
643.101	58.3486
646.475	58.7225
649.85	66.3136
653.225	77.8873
656.6	93.1922
659.975	111.177
663.35	131.115
666.724	148.163
670.099	156.412
673.474	146.334
676.849	114.03
680.224	79.1258
683.598	52.1191
686.973	34.1254
690.348	25.3375
693.723	18.2884
697.098	14.8123
700.472	10.6855
703.847	7.02121
707.222	3.06726
710.597	0.507904
713.972	0.046509
717.346	0.605682
720.721	0.7565
724.096	2.02243
727.471	2.55234
730.846	1.07471
734.221	0.34845
737.595	0.025665
740.97	1.21268
744.345	2.26736
747.72	3.57062
751.095	5.30652
754.47	5.75955
757.844	6.01914
761.219	8.68832
764.594	9.22733
767.969	8.91144
771.344	9.74158
774.718	11.3643
778.093	11.57
781.468	10.5308
784.843	10.2413
788.218	9.63168
791.592	8.54379
794.967	7.04938
798.342	8.47543
801.717	5.47086
805.092	5.34872
808.467	6.6452
811.841	7.85487
815.216	4.70664
818.591	6.5141
821.966	6.63354
825.341	6.82735
828.716	5.60304
832.09	5.31352
835.465	4.39714
838.84	4.23535
842.215	4.93553
845.59	3.74046
848.964	3.18861
852.339	2.78346
855.714	0.071762
859.089	0.097473
862.464	1.60524
865.838	1.03816
869.213	0.233414
872.588	1.31543
875.963	2.20822
879.338	0.334671
882.712	1.15027
886.087	1.60552
889.462	0.935547
892.837	2.37024
896.212	1.90663
899.587	2.64362
902.961	3.08319
906.336	3.01712
909.711	3.74553
913.086	4.16724
916.461	4.13887
919.836	3.96133
923.21	3.65366
926.585	2.8045
929.96	1.88283
933.335	1.79068
936.71	1.07684
940.084	2.05601
943.459	0.329803
946.834	1.62264
950.209	0.359589
953.584	1.05736
956.958	1.59918
960.333	2.86859
963.708	1.25299
967.083	3.60258
970.458	3.1969
973.832	4.49966
977.207	4.82738
980.582	4.98393
983.957	5.02028
987.332	6.50407
990.707	8.15411
994.081	7.73897
997.456	9.52586
1000.83	11.4176
1004.21	13.3415
1007.58	16.2181
1010.96	18.1618
1014.33	20.2895
1017.71	22.2324
1021.08	23.2849
1024.45	23.6475
1027.83	22.5016
1031.2	22.8399
1034.58	22.8153
1037.95	22.9331
1041.33	17.1316
1044.7	9.88989
1048.08	6.446
1051.45	4.97853
1054.83	3.10278
1058.2	1.94426
1061.58	1.99846
1064.95	1.2652
1068.33	2.04153
1071.7	0.594986
1075.08	1.39455
1078.45	1.23673
1081.83	1.71414
1085.2	0.034698
1088.58	0.234314
1091.95	0.610199
1095.33	1.57669
1098.7	0.821304
1102.08	0.662872
1105.45	0.280167
1108.83	0.556213
1112.2	1.17615
1115.58	0.782532
1118.95	0.824783
1122.32	0.157257
1125.7	1.92078
1129.07	0.688782
1132.45	1.65028
1135.82	1.00925
1139.2	0.753906
1142.57	0.16925
1145.95	1.48012
1149.32	2.45587
1152.7	2.80987
1156.07	2.4771
1159.45	1.72652
1162.82	0.305206
1166.2	0.910065
1169.57	0.466965
1172.95	0.818436
1176.32	1.00125
1179.7	2.83583
1183.07	2.39717
1186.45	2.19191
1189.82	3.54552
1193.2	2.07588
1196.57	1.76419
1199.94	0.214508
1203.32	1.34979
1206.69	1.11951
1210.07	2.3811
1213.44	0.889557
1216.82	3.00531
1220.19	2.11262
1223.57	2.34758
1226.94	1.04762
1230.32	1.14912
1233.69	2.01729
1237.07	1.29909
1240.44	2.54364
1243.82	1.39066
1247.19	0.761185
1250.57	0.929092
1253.94	1.15082
1257.32	0.219788
1260.69	1.64047
1264.07	0.183212
1267.44	1.96869
1270.82	1.0356
1274.19	1.41582
1277.57	1.14497
