Measurement: Raman, 532 nm, unoriented, Raman Data Processed
Mineral: Gehlenite
Rruff sample: R060841
Ideal chemistry: Ca_2_Al(SiAl)O_7_
Locality: Monzoni, Tyrol, Italy
Source: Michael Scott
Description: Brown rectangular prism
Measured chemistry: lighter phase: (Ca_1.92_Na_0.07_K_0.01_)_Σ=2_(Al_0.62_Mg_0.25_Fe^2+^_0.13_)_Σ=1_(Si_1.46_Al_0.54_)O_7_ ; darker phase: calcite
Raman shift (cm-1)	intensity
154.307	0
157.2	19.4126
160.092	111.257
162.985	77.8433
165.878	136.392
168.77	75.1216
171.663	20.25
174.556	27.2129
177.448	1.60303
180.341	14.2656
183.234	35.1953
186.127	99.9863
189.019	96.3418
191.912	154.551
194.805	199.267
197.697	186.768
200.59	228.752
203.483	319.972
206.375	333.085
209.268	335.688
212.161	327.587
215.054	322.531
217.946	342.912
220.839	465.376
223.732	500.582
226.624	663.839
229.517	726.131
232.41	791.59
235.303	743.985
238.195	718.441
241.088	717.448
243.981	753.246
246.873	713.883
249.766	648.913
252.659	557.011
255.551	561.639
258.444	487.83
261.337	406.84
264.229	373.717
267.122	264.401
270.015	283.222
272.908	168.399
275.8	315.821
278.693	238.343
281.586	300.753
284.478	315.377
287.371	309.824
290.264	525.711
293.156	604.22
296.049	707.615
298.942	923.454
301.834	1122.15
304.727	1210.71
307.62	1185.96
310.513	1086.82
313.405	875.113
316.298	690.301
319.191	511.409
322.083	431.495
324.976	346.176
327.869	290.329
330.762	195.272
333.654	94.1167
336.547	81.4248
339.44	49.9966
342.332	88.4077
345.225	12.8252
348.118	10.3979
351.01	96.2446
353.903	92.0942
356.796	41.7256
359.688	1.65039
362.581	27.001
365.474	33.2788
368.366	53.0102
371.259	50.8565
374.152	28.0571
377.045	28.1206
379.937	10.2871
382.83	10.7891
385.723	32.6367
388.615	44.9058
391.508	61.1782
394.401	45.7051
397.293	33.1025
400.186	72.146
403.079	179.343
405.972	110.397
408.864	108.334
411.757	217.525
414.65	204.068
417.542	289.877
420.435	281.763
423.328	294.018
426.221	366.389
429.113	348.423
432.006	332.424
434.899	251.502
437.791	272.72
440.684	331.06
443.577	292.242
446.469	353.157
449.362	263.54
452.255	287.758
455.147	346.594
458.04	317.666
460.933	345.512
463.826	416.457
466.718	440.956
469.611	474.423
472.504	521.287
475.396	475.505
478.289	492.087
481.182	462.928
484.074	552.03
486.967	438.428
489.86	432.352
492.752	288.033
495.645	296.923
498.538	213.065
501.431	235.497
504.323	210.742
507.216	209.416
510.109	241.855
513.001	253.811
515.894	283.342
518.787	299.168
521.679	313.639
524.572	354.285
527.465	277.674
530.358	170.18
533.25	29.8467
536.143	13.4683
539.036	27.9175
541.928	25.1533
544.821	53.0981
547.714	6.13916
550.606	9.1206
553.499	7.65527
556.392	22.5513
559.284	26.9673
562.177	104.677
565.07	78.8726
567.963	116.612
570.855	86.9419
573.748	109.617
576.641	46.7607
579.533	146.419
582.426	262.231
585.319	341.045
588.212	545.262
591.104	757.234
593.997	1081.02
596.89	1475.99
599.782	1960.07
602.675	2660.65
605.568	3512.72
608.46	4329.58
611.353	5179.44
614.246	5726.32
617.139	5755.07
620.031	5163.79
622.924	4526.93
625.817	3897.75
628.709	3370.87
631.602	2909.68
634.495	2577.73
637.387	2180.17
640.28	1874.12
643.173	1800.65
646.066	1993.36
648.958	2541.66
651.851	3373.42
654.744	4170.95
657.636	4486.05
660.529	4240.22
663.422	3512.2
666.314	2820.77
669.207	2103.36
672.1	1602.55
674.992	1039.57
677.885	724.629
680.778	423.899
683.67	298.15
686.563	205.901
689.456	56.7451
692.349	42.0752
695.241	25.0967
698.134	34.4619
701.027	39.3818
703.919	35.2344
706.812	22.8604
709.705	69.6367
712.597	57.2119
715.49	119.159
718.383	203.93
721.276	307.903
724.168	434.664
727.061	547.375
729.954	634.463
732.846	678.148
735.739	479.103
738.632	382.705
741.524	231.417
744.417	284.285
747.31	149.632
750.203	131.486
753.095	1.93066
755.988	7.75195
758.881	12.478
761.773	24.8574
764.666	63.8252
767.559	18.6665
770.452	35.3457
773.344	8.78467
776.237	16.2656
779.13	62.4263
782.022	99.563
784.915	181.215
787.808	323.279
790.7	432.322
793.593	460.529
796.486	591.052
799.378	631.337
802.271	612.609
805.164	534.672
808.057	389.359
810.949	292.765
813.842	269.092
816.735	146.071
819.627	72.2783
822.52	60.0928
825.413	17.2275
828.305	25.7471
831.198	24.0195
834.091	46.8613
836.984	49.2705
839.876	108.138
842.769	134.802
845.662	127.86
848.554	108.496
851.447	109.557
854.34	18.7773
857.232	21.7393
860.125	34.8574
863.018	12.335
865.91	49.6875
868.803	93.5908
871.696	13.6182
874.589	44.9004
877.481	126.587
880.374	264.482
883.267	568.068
886.159	910.135
889.052	1294.97
891.945	1589.42
894.837	1991.62
897.73	2515.12
900.623	2837.44
903.516	3255.41
906.408	3394.06
909.301	3204.35
912.194	2932.61
915.086	2664.98
917.979	2444.33
920.872	2342.97
923.764	2421.67
926.657	2391.8
929.55	2250.08
932.442	2110.92
935.335	1716.48
938.228	1372.79
941.121	1203.52
944.013	901.044
946.906	839.634
949.799	725.98
952.691	738.332
955.584	710.794
958.477	510.779
961.37	469.728
964.262	356.923
967.155	215.052
970.048	170.984
972.94	103.89
975.833	71.0938
978.726	70.9082
981.618	71.3545
984.511	6.18066
987.404	11.6211
990.296	66.1397
993.189	7.44043
996.082	57.6738
998.975	32.8555
1001.87	43.7148
1004.76	27.6592
1007.65	17.9736
1010.54	9.73535
1013.44	30.9023
1016.33	14.1895
1019.22	5.11719
1022.12	2.39746
1025.01	52.9199
1027.9	79.2461
1030.79	127.499
1033.69	77.9902
1036.58	127.498
1039.47	154.886
1042.37	129.011
1045.26	69.4834
1048.15	47.5791
1051.04	75.0117
1053.94	109.832
1056.83	170.388
1059.72	60.1699
1062.61	62.3213
1065.51	70.3779
1068.4	54.1455
1071.29	55.9365
1074.18	87.1748
1077.08	23.2188
1079.97	23.1777
1082.86	47.8809
1085.76	119.362
1088.65	153.195
1091.54	65.3516
1094.43	97.1562
1097.33	52.373
1100.22	13.8545
1103.11	90.4668
1106	75.0342
1108.9	74.5898
1111.79	99.7002
1114.68	78.4043
1117.58	28.4023
1120.47	70.5322
1123.36	13.46
1126.25	0.84082
1129.15	162.715
1132.04	114.547
1134.93	119.581
1137.82	156.595
1140.72	121.611
1143.61	73.126
1146.5	37.9346
1149.39	35.8818
1152.29	89.9512
1155.18	132.484
1158.07	132.776
1160.97	73.168
1163.86	4.11426
1166.75	27.5312
1169.64	37.1211
1172.54	21.2061
1175.43	137.842
1178.32	59.8174
1181.21	111.159
1184.11	60.1768
1187	22.7861
1189.89	55.956
1192.79	55.4082
1195.68	94.3477
1198.57	2.50391
1201.46	73.499
1204.36	66.4356
1207.25	62.0273
1210.14	93.3438
1213.03	61.6426
1215.93	48.1543
1218.82	93.9326
1221.71	86.8057
1224.61	34.3984
1227.5	73.6123
1230.39	61.9072
1233.28	106.177
1236.18	105.363
1239.07	104.603
1241.96	98.2412
1244.85	16.626
1247.75	138.427
1250.64	55.7861
1253.53	43.9473
1256.42	105.298
1259.32	137.048
1262.21	69.6299
1265.1	22.0986
1267.99	3.93262
1270.89	141.761
1273.78	146.231
1276.67	142.944
1279.57	66.2812
1282.46	128.453
1285.35	61.2168
