Measurement: Raman, 532 nm, unoriented, Raman Data Processed
Mineral: Gehlenite
Rruff sample: R061091
Ideal chemistry: Ca_2_Al(SiAl)O_7_
Locality: Carneal Plug, Glenoe Larne District, County Antrim, Northern Ireland
Source: Michael Scott
Description: Yellowish-brown anhedral blebs associated with black magnetite and white wollastonite
Measured chemistry: (Ca_1.64_Na_0.36_)_Σ=2_(Al_0.38_Fe_0.36_Mg_0.26_)_Σ=1_(Si_1.98_Al_0.02_)_Σ=2_O_7_
Raman shift (cm-1)	intensity
114.815	0
118.19	127.6
121.565	542.07
124.94	856.363
128.314	890.01
131.689	705.603
135.064	617.688
138.439	602.043
141.814	468.037
145.189	413.687
148.563	342.524
151.938	264.651
155.313	301.158
158.688	235.285
162.063	231.21
165.437	141.162
168.812	101.531
172.187	131.206
175.562	76.3879
178.937	68.1035
182.311	44.9353
185.686	1.45557
189.061	15.6169
192.436	57.407
195.811	42.4656
199.185	3.59155
202.56	69.936
205.935	180.631
209.31	274.046
212.685	425.281
216.06	507.088
219.434	611.508
222.809	613.699
226.184	559.235
229.559	562.86
232.934	469.387
236.309	362.937
239.683	278.098
243.058	209.47
246.433	177.084
249.808	92.8394
253.183	65.6047
256.557	32.054
259.932	17.4326
263.307	23.4429
266.682	42.1753
270.057	79.4375
273.431	110.798
276.806	150.261
280.181	196.89
283.556	314.414
286.931	475.792
290.305	653.372
293.68	794.997
297.055	999.277
300.43	1095.62
303.805	1094.09
307.18	1000.62
310.554	856.32
313.929	717.175
317.304	525.431
320.679	406.187
324.054	307.491
327.428	293.499
330.803	283.3
334.178	230.769
337.553	214.885
340.928	187.125
344.303	146.457
347.677	132.9
351.052	76.6796
354.427	49.9137
357.802	1.84241
361.177	12.9143
364.551	2.57336
367.926	20.0395
371.301	19.0759
374.676	33.3544
378.051	12.5236
381.425	3.73975
384.8	46.1187
388.175	8.91565
391.55	12.4421
394.925	16.3986
398.3	14.1179
401.674	0.224731
405.049	3.5105
408.424	45.6119
411.799	27.5065
415.174	41.8563
418.548	5.45288
421.923	34.3728
425.298	69.0026
428.673	99.7159
432.048	179.724
435.423	264.517
438.797	329.883
442.172	410.166
445.547	516.387
448.922	610.232
452.297	641.99
455.671	682.345
459.046	641.115
462.421	605.42
465.796	658.12
469.171	690.43
472.546	796.777
475.92	844.07
479.295	905.145
482.67	862.094
486.045	731.672
489.42	684.446
492.794	585.257
496.169	480.801
499.544	425.107
502.919	427.983
506.294	394.952
509.668	437.927
513.043	449.496
516.418	500.973
519.793	466.121
523.168	452.499
526.543	416.677
529.917	385.989
533.292	337.19
536.667	329.138
540.042	272.25
543.417	236.983
546.791	182.182
550.166	144.062
553.541	78.0388
556.916	32.526
560.291	40.8489
563.665	9.64185
567.04	65.0154
570.415	63.8699
573.79	73.0797
577.165	39.5217
580.54	2.62708
583.914	6.22485
587.289	66.6539
590.664	145.272
594.039	246.395
597.414	410.392
600.788	612.856
604.163	913.998
607.538	1311.54
610.913	1970.92
614.288	2795.84
617.663	3922.78
621.037	5173.14
624.412	6422.13
627.787	7065.27
631.162	6752.81
634.537	5560.81
637.911	4384.41
641.286	4056.41
644.661	4432.27
648.036	5611.79
651.411	7137.54
654.785	8622.47
658.16	9626.58
661.535	9799.02
664.91	9160.11
668.285	7707.73
671.659	6061.49
675.034	4496.43
678.409	3285.66
681.784	2372.55
685.159	1748.35
688.534	1214.98
691.908	839.911
695.283	606.776
698.658	418.589
702.033	315.525
705.408	220.889
708.783	154.002
712.157	86.2672
715.532	90.7709
718.907	12.7747
722.282	27.6791
725.657	2.40369
729.031	35.691
732.406	41.7219
735.781	16.6825
739.156	19.8932
742.531	14.8344
745.905	1.66589
749.28	55.5731
752.655	21.4056
756.03	50.2078
759.405	57.6453
762.779	49.2079
766.154	75.5543
769.529	97.3975
772.904	61.6142
776.279	64.5825
779.654	58.5697
783.028	61.3462
786.403	79.4599
789.778	87.9457
793.153	49.3683
796.528	29.9304
799.903	33.5487
803.277	10.6713
806.652	1.48816
810.027	1.98608
813.402	3.41028
816.777	20.8102
820.151	14.9823
823.526	52.5853
826.901	32.3657
830.276	41.7188
833.651	118.528
837.025	173.821
840.4	260.029
843.775	382.495
847.15	474.26
850.525	608.628
853.899	619.105
857.274	609.765
860.649	498.641
864.024	336.368
867.399	111.738
870.774	13.9471
874.148	20.4138
877.523	64.5156
880.898	211.837
884.273	430.942
887.648	675.518
891.023	1077.93
894.397	1522.5
897.772	2137.67
901.147	3081.85
904.522	4273.85
907.896	5706.41
911.271	7243.16
914.646	8721.74
918.021	9637.87
921.396	9359.11
924.771	8134.89
928.145	6223.16
931.52	4728.25
934.895	3450.13
938.27	2629.3
941.645	2008.82
945.019	1572.67
948.394	1283.71
951.769	1066.41
955.144	871.89
958.519	720.905
961.894	586.383
965.268	416.17
968.643	291.656
972.018	130.231
975.393	23.4089
978.768	6.49243
982.143	26.3064
985.517	2.89722
988.892	15.3572
992.267	35.4681
995.642	3.901
999.016	29.1392
1002.39	26.2678
1005.77	9.14502
1009.14	13.6187
1012.52	3.27454
1015.89	16.0794
1019.26	38.04
1022.64	61.7339
1026.02	44.3768
1029.39	37.0298
1032.77	11.8843
1036.14	27.1432
1039.51	30.6959
1042.89	16.4374
1046.26	18.7436
1049.64	21.0579
1053.01	14.5045
1056.39	6.07227
1059.76	54.3816
1063.14	78.7789
1066.51	21.3306
1069.89	57.1887
1073.26	88.4179
1076.64	111.951
1080.01	142.326
1083.39	134.343
1086.76	188.323
1090.14	187.606
1093.51	194.19
1096.89	158.795
1100.26	125.115
1103.64	68.1258
1107.01	51.3956
1110.38	52.7861
1113.76	23.5366
1117.13	0.329224
1120.51	6.83398
1123.88	29.6525
1127.26	28.8702
1130.63	12.1766
1134.01	24.7554
1137.38	35.8045
1140.76	46.0582
1144.13	47.915
1147.51	42.1959
1150.88	31.3771
1154.26	36.6039
1157.63	91.9182
1161.01	62.7593
1164.38	50.9558
1167.76	66.9066
1171.13	55.4087
1174.51	69.5813
1177.88	35.4061
1181.26	64.6685
1184.63	46.1156
1188.01	53.0253
1191.38	21.3793
1194.76	46.6335
1198.13	42.6743
1201.51	22.4147
1204.88	29.6267
1208.26	1.26032
1211.63	26.8204
1215.01	20.5354
1218.38	11.6529
1221.75	35.4785
1225.13	54.2618
1228.5	14.9543
1231.88	40.3331
1235.25	20.5096
1238.63	3.30743
1242	6.4823
1245.38	23.2621
1248.75	18.0285
1252.13	6.17877
1255.5	6.11475
1258.88	22.2969
1262.25	16.1923
1265.63	34.8349
1269	38.6296
1272.38	0.299072
1275.75	32.3004
1279.13	14.9564
1282.5	22.7404
1285.88	3.87671
1289.25	0
