Measurement: Raman, 785 nm, unoriented, Raman Data Processed
Mineral: Gehlenite
Rruff sample: R061091
Ideal chemistry: Ca_2_Al(SiAl)O_7_
Locality: Carneal Plug, Glenoe Larne District, County Antrim, Northern Ireland
Source: Michael Scott
Description: Yellowish-brown anhedral blebs associated with black magnetite and white wollastonite
Measured chemistry: (Ca_1.64_Na_0.36_)_Σ=2_(Al_0.38_Fe_0.36_Mg_0.26_)_Σ=1_(Si_1.98_Al_0.02_)_Σ=2_O_7_
Raman shift (cm-1)	intensity
137.057	0
139.95	21.7073
142.843	247.908
145.735	612.793
148.628	568.453
151.521	520.526
154.413	384.224
157.306	266.881
160.199	205.725
163.091	214.183
165.984	222.814
168.877	187.951
171.769	138.595
174.662	136.503
177.555	96.0836
180.448	86.3645
183.34	66.0326
186.233	79.2304
189.126	19.8543
192.018	22.7456
194.911	30.6122
197.804	19.353
200.696	20.8791
203.589	51.2854
206.482	48.5642
209.375	103.778
212.267	80.5196
215.16	151.896
218.053	185.518
220.945	213.179
223.838	242.386
226.731	184.783
229.624	189.25
232.516	165.223
235.409	139.253
238.302	115.356
241.194	62.8649
244.087	81.5123
246.98	51.1621
249.872	26.6777
252.765	45.507
255.658	30.0908
258.55	16.0908
261.443	18.074
264.336	13.3872
267.228	9.90308
270.121	22.2664
273.014	1.73962
275.907	35.9518
278.799	23.6219
281.692	42.8505
284.585	65.9325
287.477	86.4633
290.37	157.001
293.263	155.031
296.156	219.104
299.048	250.274
301.941	263.29
304.834	263.427
307.726	249.843
310.619	207.29
313.512	214.396
316.404	174.101
319.297	125.701
322.19	81.1751
325.083	97.007
327.975	74.1505
330.868	56.1422
333.761	53.9433
336.653	38.749
339.546	40.2969
342.439	20.4299
345.331	41.2117
348.224	18.4842
351.117	28.7752
354.01	11.5635
356.902	2.71674
359.795	11.202
362.688	2.87024
365.58	16.8759
368.473	3.00909
371.366	3.88184
374.258	4.70825
377.151	6.52319
380.044	2.08685
382.937	7.95917
385.829	3.04193
388.722	14.7503
391.615	1.27679
394.507	8.20142
397.4	13.9354
400.293	9.66766
403.185	4.41614
406.078	35.7532
408.971	11.8639
411.863	1.71069
414.756	28.9717
417.649	8.60175
420.542	12.0707
423.434	49.7903
426.327	13.5151
429.22	39.1289
432.112	64.8307
435.005	107.143
437.898	129.62
440.791	157.214
443.683	233.224
446.576	257.753
449.469	299.605
452.361	330.915
455.254	318.915
458.147	298.03
461.039	253.177
463.932	220.339
466.825	222.656
469.717	252.798
472.61	263.711
475.503	329.647
478.396	306.765
481.288	297.924
484.181	279.358
487.074	263.183
489.966	241.16
492.859	213.476
495.752	173.056
498.644	194.025
501.537	171.694
504.43	144.776
507.323	166.64
510.215	162.05
513.108	191.987
516.001	190.819
518.893	186.192
521.786	205.59
524.679	174.112
527.572	178.743
530.464	163.913
533.357	123.037
536.25	134.134
539.142	131.617
542.035	116.981
544.928	127.379
547.82	102.991
550.713	63.4321
553.606	45.248
556.499	51.1183
559.391	9.58087
562.284	36.3084
565.177	31.8956
568.069	16.3455
570.962	23.7681
573.855	15.6084
576.747	13.0645
579.64	21.8878
582.533	3.1972
585.425	9.58551
588.318	0.007874
591.211	16.9026
594.104	36.0496
596.996	74.2184
599.889	113.39
602.782	135.248
605.674	218.14
608.567	302.472
611.46	424.291
614.352	635.515
617.245	851.292
620.138	1197.63
623.03	1585.44
625.923	1932.78
628.816	2138.77
631.709	1994.92
634.601	1644.22
637.494	1272.21
640.387	1093.6
643.279	1070.69
646.172	1218.19
649.065	1601.38
651.957	2019.52
654.85	2520.21
657.743	2852.53
660.636	3037.41
663.528	2968.36
666.421	2767.7
669.314	2390.62
672.206	1940.67
675.099	1534.89
677.992	1206.25
680.885	917.221
683.777	699.443
686.67	509.449
689.563	377.614
692.455	280.662
695.348	221.046
698.241	186.866
701.133	136.923
704.026	74.6318
706.919	79.8212
709.812	71.7247
712.704	60.8793
715.597	43.0599
718.49	34.2812
721.382	27.5531
724.275	0.52002
727.168	25.1
730.06	8.31403
732.953	27.085
735.846	5.72614
738.739	9.98279
741.631	4.62061
744.524	12.0366
747.417	4.32184
750.309	12.1926
753.202	2.50348
756.095	20.9027
758.987	6.19568
761.88	0.186646
764.773	0.188416
767.665	3.5593
770.558	6.76147
773.451	3.36734
776.344	41.7111
779.236	40.382
782.129	21.2664
785.022	24.7122
787.914	41.2379
790.807	35.7634
793.7	2.621
796.592	5.54907
799.485	15.8918
802.378	17.9607
805.271	1.56927
808.163	14.1782
811.056	16.3522
813.949	2.95331
816.841	8.73419
819.734	16.0479
822.627	13.4972
825.519	0.570801
828.412	20.9111
831.305	3.22699
834.198	23.2045
837.09	0.322571
839.983	35.9562
842.876	82.5777
845.768	78.7053
848.661	104.837
851.554	158.698
854.447	134.646
857.339	140.61
860.232	136.124
863.125	101.625
866.017	46.3766
868.91	10.7298
871.803	10.6182
874.695	1.32519
877.588	2.68768
880.481	37.3471
883.373	54.7962
886.266	113.08
889.159	157.966
892.052	241.429
894.944	325.694
897.837	416.401
900.73	592.555
903.622	852.868
906.515	1080.56
909.408	1309.25
912.3	1688.96
915.193	2022.83
918.086	2278.59
920.979	2320.42
923.871	2031.99
926.764	1688.01
929.657	1306.41
932.549	1027.89
935.442	793.11
938.335	602.07
941.227	485.777
944.12	388.8
947.013	297.673
949.905	242.403
952.798	216.297
955.691	168.66
958.584	147.901
961.476	110.245
964.369	82.18
967.262	35.1299
970.154	32.9343
973.047	28.3472
975.94	40.1059
978.832	20.5045
981.725	30.6667
984.618	10.8047
987.511	9.82294
990.403	0.57666
993.296	12.7772
996.189	28.4358
999.081	4.72217
1001.97	4.54883
1004.87	11.8305
1007.76	44.808
1010.65	19.9548
1013.54	4.93158
1016.44	5.01672
1019.33	1.0592
1022.22	21.2591
1025.12	21.272
1028.01	23.1717
1030.9	3.18744
1033.79	33.8892
1036.69	35.7287
1039.58	13.2692
1042.47	13.7661
1045.37	41.1133
1048.26	25.8839
1051.15	19.644
1054.04	44.9184
1056.93	52.7136
1059.83	38.3427
1062.72	17.3686
1065.61	3.78424
1068.51	48.1351
1071.4	43.7199
1074.29	24.8037
1077.18	31.3651
1080.08	31.8715
1082.97	19.9262
1085.86	56.7085
1088.76	78.7644
1091.65	69.8234
1094.54	60.4506
1097.43	49.4984
1100.33	42.1406
1103.22	22.4212
1106.11	20.4282
1109	7.17337
1111.9	7.73596
1114.79	43.8879
1117.68	21.0063
1120.58	10.7321
1123.47	13.2934
1126.36	6.88913
1129.25	13.4706
1132.15	31.3987
1135.04	12.5898
1137.93	21.7644
1140.82	20.479
1143.72	35.1148
1146.61	44.562
1149.5	30.6754
1152.39	48.3482
1155.29	27.39
1158.18	16.5296
1161.07	44.5979
1163.96	36.3132
1166.86	30.1145
1169.75	63.1454
1172.64	37.336
1175.54	38.0285
1178.43	16.2565
1181.32	37.8858
1184.21	53.8379
1187.11	46.8499
1190	44.8155
1192.89	25.1007
1195.79	46.0873
1198.68	57.7117
1201.57	45.6798
1204.46	49.2523
1207.36	24.6525
1210.25	25.5014
1213.14	35.5424
1216.03	35.0188
1218.93	49.1493
1221.82	30.2454
1224.71	23.3951
1227.61	29.8044
1230.5	43.7414
1233.39	26.314
1236.28	11.7287
1239.17	25.369
1242.07	52.9582
1244.96	31.4459
1247.85	35.5875
1250.75	18.0007
1253.64	1.77905
1256.53	0.235657
