Measurement: Raman, 785 nm, unoriented, Raman Data Processed
Mineral: Gehlenite
Rruff sample: R060841
Ideal chemistry: Ca_2_Al(SiAl)O_7_
Locality: Monzoni, Tyrol, Italy
Source: Michael Scott
Description: Brown rectangular prism
Measured chemistry: lighter phase: (Ca_1.92_Na_0.07_K_0.01_)_Σ=2_(Al_0.62_Mg_0.25_Fe^2+^_0.13_)_Σ=1_(Si_1.46_Al_0.54_)O_7_ ; darker phase: calcite
Raman shift (cm-1)	intensity
163.954	0
166.846	47.7842
169.739	132.336
172.632	112.282
175.524	56.4473
178.417	30.9443
181.31	2.29126
184.203	3.10156
187.095	86.7764
189.988	123.157
192.881	103.96
195.773	210.005
198.666	259.327
201.559	260.829
204.452	289.436
207.344	235.208
210.237	226.868
213.13	253.428
216.022	289.553
218.915	329.416
221.808	460.956
224.7	583.969
227.593	664.63
230.486	719.359
233.379	809.129
236.271	746.241
239.164	707.982
242.057	669.259
244.949	556.173
247.842	543.289
250.735	463.252
253.627	472.982
256.52	456.633
259.413	402.602
262.305	342.737
265.198	266.494
268.091	209.57
270.984	150.802
273.876	203.466
276.769	164.526
279.662	282.58
282.554	259.12
285.447	282.236
288.34	413.295
291.233	489.603
294.125	602.777
297.018	696.607
299.911	846.529
302.803	1014.09
305.696	1039.32
308.589	1007.95
311.481	842.999
314.374	645.928
317.267	498.818
320.159	353.8
323.052	283.258
325.945	240.384
328.838	184.618
331.73	169.469
334.623	103.686
337.516	90.5764
340.408	72.9009
343.301	74.2188
346.194	40.4819
349.087	46.9824
351.979	63.5979
354.872	57.7107
357.765	27.0444
360.657	54.8113
363.55	13.4829
366.443	4.20264
369.335	1.40552
372.228	22.687
375.121	25.6013
378.014	26.9177
380.906	25.1731
383.799	12.198
386.692	1.46191
389.584	18.5916
392.477	28.5894
395.37	55.3225
398.262	106.081
401.155	37.9807
404.048	72.1055
406.941	114.333
409.833	128.757
412.726	193.112
415.619	298.908
418.511	353.505
421.404	427.196
424.297	448.623
427.19	541.341
430.082	534.325
432.975	587.16
435.868	499.95
438.76	484.713
441.653	441.08
444.546	408.957
447.438	423.654
450.331	340.594
453.224	355.122
456.116	385.305
459.009	448.386
461.902	483.376
464.795	499.326
467.687	538.244
470.58	522.294
473.473	568.613
476.365	553.288
479.258	517.477
482.151	549.311
485.043	465.693
487.936	391.598
490.829	347.812
493.722	264.802
496.614	212.482
499.507	234.613
502.4	209.995
505.292	179.011
508.185	191.998
511.078	209.021
513.971	264.019
516.863	286.501
519.756	297.658
522.649	300.12
525.541	288.108
528.434	193.717
531.327	100.255
534.219	61.1475
537.112	20.637
540.005	81.1841
542.898	18.9573
545.79	10.1863
548.683	4.95874
551.576	15.8023
554.468	46.324
557.361	6.50561
560.254	4.73315
563.146	14.908
566.039	13.3262
568.932	47.0818
571.824	17.6003
574.717	42.9927
577.61	73.4233
580.503	99.3855
583.395	157.872
586.288	284.707
589.181	458.844
592.073	608.731
594.966	895.211
597.859	1229.48
600.751	1730.53
603.644	2360.87
606.537	3205.15
609.43	3999.53
612.322	4804.74
615.215	5133.06
618.108	5029.11
621	4522.52
623.893	3915.95
626.786	3398.33
629.678	2996.12
632.571	2603.32
635.464	2281.35
638.357	1905.31
641.249	1657.5
644.142	1504.94
647.035	1815.36
649.927	2379.7
652.82	3227.49
655.713	3854.18
658.606	4055.03
661.498	3718.76
664.391	3078.59
667.284	2418.58
670.176	1827.13
673.069	1399.17
675.962	1018.71
678.854	705.127
681.747	483.407
684.64	264.252
687.533	216.916
690.425	122.7
693.318	77.2798
696.211	33.5886
699.103	50.2148
701.996	51.9399
704.889	5.27271
707.781	11.0701
710.674	17.158
713.567	3.77222
716.46	17.9644
719.352	60.9067
722.245	167.433
725.138	170.805
728.03	271.255
730.923	318.921
733.816	222.313
736.708	191.413
739.601	136.045
742.494	126.015
745.386	16.5941
748.279	61.1254
751.172	43.9714
754.065	30.2062
756.957	24.9346
759.85	2.27173
762.743	39.7299
765.635	5.2478
768.528	37.7886
771.421	37.3557
774.313	19.0171
777.206	11.7906
780.099	25.3424
782.992	56.7858
785.884	102.452
788.777	187.079
791.67	233.198
794.562	270.424
797.455	332.924
800.348	306.127
803.24	248.793
806.133	247.961
809.026	241.757
811.919	216.949
814.811	154.789
817.704	106.912
820.597	92.8301
823.489	35.4523
826.382	50.6814
829.275	4.14075
832.168	28.4138
835.06	10.8693
837.953	11.4629
840.846	37.6697
843.738	21.1172
846.631	108.027
849.524	67.9827
852.416	46.1846
855.309	115.806
858.202	91.4773
861.095	92.7092
863.987	75.6509
866.88	82.7669
869.773	22.7398
872.665	41.3071
875.558	71.2478
878.451	141.368
881.343	286.47
884.236	470.983
887.129	686.613
890.021	969.54
892.914	1181.07
895.807	1445.6
898.7	1839.99
901.592	2220.36
904.485	2451.18
907.378	2512.26
910.27	2343.98
913.163	2098.03
916.056	1868.84
918.949	1757.45
921.841	1694.46
924.734	1738.5
927.627	1686.26
930.519	1665.18
933.412	1511.4
936.305	1210.22
939.197	1005.23
942.09	782.541
944.983	650.846
947.876	541.563
950.768	539.012
953.661	452.13
956.554	442.899
959.446	348.043
962.339	235.187
965.232	177.846
968.125	116.377
971.017	92.4607
973.91	14.5955
976.803	45.0469
979.695	59.484
982.588	25.437
985.481	10.1151
988.373	21.2096
991.266	8.46179
994.159	58.8268
997.052	4.86304
999.944	23.4842
1002.84	11.8519
1005.73	15.1834
1008.62	21.8463
1011.51	24.4193
1014.41	49.4988
1017.3	21.2683
1020.19	54.1257
1023.09	42.3058
1025.98	1.27014
1028.87	41.8757
1031.76	90.6075
1034.66	78.6113
1037.55	77.5295
1040.44	102.993
1043.34	97.5775
1046.23	106.792
1049.12	64.36
1052.01	125.238
1054.91	76.0367
1057.8	68.7756
1060.69	54.2327
1063.58	100.888
1066.48	36.4481
1069.37	26.2136
1072.26	63.4369
1075.15	25.7241
1078.05	32.9336
1080.94	65.3023
1083.83	45.42
1086.72	37.4283
1089.62	0.960693
1092.51	5.13782
1095.4	34.0315
1098.3	25.6752
1101.19	11.2518
1104.08	7.46594
1106.97	5.93543
1109.87	9.74377
1112.76	16.126
1115.65	13.2637
1118.55	26.839
1121.44	40.5903
1124.33	19.1101
1127.22	44.6278
1130.12	14.6875
1133.01	47.8202
1135.9	78.9117
1138.79	36.8787
1141.69	69.9144
1144.58	44.515
1147.47	84.6812
1150.37	87.89
1153.26	84.5002
1156.15	69.8585
1159.04	104.998
1161.93	87.4471
1164.83	97.0791
1167.72	123.177
1170.61	100.925
1173.51	86.3163
1176.4	88.0348
1179.29	103.113
1182.18	98.658
1185.08	137.541
1187.97	86.4399
1190.86	119.648
1193.76	144.425
1196.65	150.995
1199.54	130.703
1202.43	92.7095
1205.33	101.27
1208.22	45.9127
1211.11	139.135
1214	91.4646
1216.9	102.814
1219.79	79.4236
1222.68	88.6774
1225.58	83.3047
1228.47	39.4145
1231.36	61.1918
1234.25	28.8969
1237.15	8.89771
1240.04	14.0763
1242.93	63.793
1245.82	82.7421
1248.72	56.1937
1251.61	20.7176
1254.5	37.8186
1257.39	33.457
1260.29	31.2615
