Measurement: Raman, 780 nm, unoriented, Raman Data Processed
Mineral: Geikielite
Rruff sample: R070479
Ideal chemistry: MgTiO_3_
Locality: Colombo, Sri Lanka
Source: Royal Ontario Museum
Description: Dark red fragment
Raman shift (cm-1)	intensity
154.214	0
157.106	14.71
159.999	26.6704
162.892	28.6296
165.784	42.4033
168.677	50.1645
171.57	58.9502
174.462	33.7317
177.355	21.4648
180.248	3.79834
183.141	4.20679
186.033	1.16089
188.926	20.0659
191.819	31.7925
194.711	37.7112
197.604	39.481
200.497	48.4836
203.389	50.6057
206.282	46.9893
209.175	43.4453
212.067	20.7966
214.96	6.17065
217.853	10.7615
220.746	14.3728
223.638	24.0164
226.531	12.02
229.424	5.59204
232.316	25.7063
235.209	51.439
238.102	95.7451
240.994	145.323
243.887	206.904
246.78	315.337
249.673	430.32
252.565	534.264
255.458	633.038
258.351	727.707
261.243	829.543
264.136	901.818
267.029	926.89
269.921	868.158
272.814	717.793
275.707	557.599
278.6	427.85
281.492	350.24
284.385	323.347
287.278	325.684
290.17	334.322
293.063	378.271
295.956	413.218
298.849	466.784
301.741	507.936
304.634	548.773
307.527	589.443
310.419	630.768
313.312	662.573
316.205	680.695
319.097	689.618
321.99	658.071
324.883	617.13
327.776	598.003
330.668	593.775
333.561	583.313
336.454	557.443
339.346	514.688
342.239	436.686
345.132	340.643
348.024	234.201
350.917	154.592
353.81	78.3467
356.702	29.8079
359.595	2.74634
362.488	17.6287
365.381	12.8354
368.273	7.77979
371.166	17.0869
374.059	45.427
376.951	66.2942
379.844	93.6431
382.737	118.107
385.63	135.064
388.522	143.59
391.415	118.337
394.308	90.0569
397.2	61.0447
400.093	31.3323
402.986	26.0852
405.878	10.835
408.771	4.10962
411.664	4.53516
414.557	0.922607
417.449	0.858398
420.342	10.4026
423.235	3.39111
426.127	8.4585
429.02	0.003662
431.913	10.0193
434.805	22.8862
437.698	33.0706
440.591	58.0266
443.483	66.3735
446.376	93.8027
449.269	109.578
452.162	141.182
455.054	160.194
457.947	179.748
460.84	184.405
463.732	188.872
466.625	177.852
469.518	174.428
472.411	146.352
475.303	127.64
478.196	92.4199
481.089	63.594
483.981	58.2717
486.874	42.4224
489.767	30.7117
492.659	8.95508
495.552	7.02637
498.445	5.84131
501.337	6.64014
504.23	3.53198
507.123	4.37988
510.015	5.05591
512.908	18.3137
515.801	10.9929
518.694	26.394
521.586	18.7234
524.479	24.8667
527.372	24.0706
530.264	23.0059
533.157	21.4846
536.05	24.6868
538.943	24.313
541.835	24.5725
544.728	19.6209
547.621	21.2744
550.513	14.9499
553.406	12.2136
556.299	12.9836
559.192	14.4961
562.084	8.2854
564.977	6.05957
567.87	0.759277
570.762	4.24292
573.655	4.59106
576.548	2.72266
579.44	1.42188
582.333	5.61865
585.226	3.35644
588.118	10.8613
591.011	9.9856
593.904	12.4827
596.797	9.75293
599.689	18.1777
602.582	12.5503
605.475	21.3665
608.367	17.679
611.26	22.8003
614.153	23.677
617.045	26.0571
619.938	21.7493
622.831	21.7305
625.723	14.4148
628.616	7.30371
631.509	11.3501
634.402	11.1768
637.294	6.4292
640.187	1.34473
643.08	3.26953
645.972	9.7627
648.865	0.373779
651.758	2.04053
654.65	10.2434
657.543	13.8374
660.436	27.5149
663.329	39.7195
666.221	53.4094
669.114	69.958
672.007	85.7412
674.899	106.004
677.792	123.56
680.685	138.023
683.577	163.656
686.47	182.124
689.363	208.557
692.256	209.5
695.148	229.672
698.041	233.527
700.934	238.953
703.826	245.789
706.719	233.668
709.612	238.197
712.505	227.144
715.397	212.13
718.29	206.712
721.183	203.686
724.075	180.673
726.968	169.292
729.861	152.108
732.753	133.508
735.646	127.452
738.539	105.448
741.432	96.7466
744.324	80.3005
747.217	68.874
750.11	69.7361
753.002	57.6763
755.895	46.0735
758.788	35.7251
761.68	28.0869
764.573	29.3345
767.466	26.852
770.359	18.6895
773.251	12.6623
776.144	12.8789
779.037	6.34936
781.929	7.47681
784.822	5.38086
787.715	4.73022
790.607	1.24048
793.5	1.97363
796.393	3.57544
799.285	6.2832
802.178	0.157715
805.071	6.52734
807.964	0.799805
810.856	3.50244
813.749	5.9314
816.642	4.45019
819.534	3.05688
822.427	3.13623
825.32	1.28442
828.212	3.68506
831.105	9.53101
833.998	9.13477
836.891	9.37915
839.783	13.4841
842.676	14.1206
845.569	11.541
848.461	9.99219
851.354	15.3516
854.247	10.8008
857.139	11.2515
860.032	6.70361
862.925	2.23169
865.818	5.27295
868.71	3.05591
871.603	9.26074
874.496	7.95239
877.388	6.17236
880.281	2.41626
883.174	1.87183
886.067	2.20557
888.959	8.99609
891.852	4.8999
894.745	11.7976
897.637	1.11426
900.53	7.70361
903.423	5.24731
906.315	0.79541
909.208	2.79736
912.101	6.62622
914.994	6.46533
917.886	14.252
920.779	14.189
923.672	15.3271
926.564	14.9927
929.457	9.11084
932.35	8.42456
935.242	12.4954
938.135	9.39575
941.028	13.7356
943.92	12.0942
946.813	7.73584
949.706	8.69312
952.599	10.374
955.491	4.90991
958.384	9.47656
961.277	10.7437
964.169	9.05908
967.062	7.97046
969.955	4.44507
972.847	2.77246
975.74	1.93433
978.633	0.009766
981.526	4.88989
984.418	4.13306
987.311	5.45752
990.204	3.51294
993.096	3.17993
995.989	2.90503
998.882	2.31665
1001.77	8.62695
1004.67	9.29663
1007.56	1.4187
1010.45	8.09546
1013.35	2.96851
1016.24	7.20386
1019.13	19.3137
1022.02	6.01221
1024.92	2.83154
1027.81	5.44604
1030.7	11.4648
1033.59	5.28882
1036.49	5.84473
1039.38	12.9834
1042.27	1.72388
1045.16	12.6226
1048.06	1.75171
1050.95	11.2488
1053.84	16.6174
1056.74	13.5041
1059.63	12.7087
1062.52	19.0727
1065.41	16.4036
1068.31	12.2212
1071.2	16.3892
1074.09	14.6733
1076.98	19.4419
1079.88	8.9707
1082.77	12.7844
1085.66	16.4712
1088.56	13.7971
1091.45	11.4482
1094.34	16.2974
1097.23	8.22363
1100.13	2.10986
1103.02	3.71338
1105.91	8.9834
1108.8	0.874023
1111.7	3.93921
1114.59	0.573486
1117.48	0.738037
1120.38	0.377686
1123.27	1.70215
1126.16	1.47681
1129.05	0.810547
1131.95	5.13135
1134.84	6.62158
1137.73	12.7512
1140.62	11.0007
1143.52	10.6453
1146.41	9.64233
1149.3	10.1697
1152.19	6.73022
1155.09	12.9502
1157.98	15.4133
1160.87	24.8562
1163.77	25.3298
1166.66	27.0747
1169.55	20.7151
1172.44	19.1936
1175.34	13.1489
1178.23	22.4858
1181.12	25.1916
1184.02	17.2974
1186.91	16.8335
1189.8	14.521
1192.69	21.9407
1195.59	23.3257
1198.48	22.0017
1201.37	10.6218
1204.26	18.5618
1207.16	12.6135
1210.05	9.58252
1212.94	10.5732
1215.83	8.83105
1218.73	14.4419
1221.62	0.037842
1224.51	8.44019
1227.4	5.05884
1230.3	4.48657
1233.19	5.71704
1236.08	5.7854
1238.98	7.08374
1241.87	3.8794
1244.76	4.63599
1247.65	16.4067
1250.55	8.89697
1253.44	9.90649
