Measurement: Raman, 532 nm, unoriented, Raman Data Processed
Mineral: Geikielite
Rruff sample: R070479
Ideal chemistry: MgTiO_3_
Locality: Colombo, Sri Lanka
Source: Royal Ontario Museum
Description: Dark red fragment
Raman shift (cm-1)	intensity
157.868	0
160.76	0.072155
163.653	0.420973
166.546	0.475071
169.438	0.590155
172.331	0.368448
175.224	0.042015
178.117	0.250763
181.009	0.570068
183.902	1.02407
186.795	2.30091
189.687	2.66539
192.58	3.4459
195.473	3.99497
198.365	5.53787
201.258	6.78069
204.151	7.85413
207.043	8.50628
209.936	9.26623
212.829	8.87051
215.722	7.98509
218.614	5.89482
221.507	4.01199
224.4	2.69614
227.292	2.09248
230.185	0.942667
233.078	0.334187
235.97	0.045572
238.863	0.289715
241.756	0.753923
244.649	0.017767
247.541	0.717848
250.434	1.76376
253.327	3.32007
256.219	4.43952
259.112	6.42448
262.005	8.46278
264.897	9.81662
267.79	10.0111
270.683	9.14297
273.576	7.06302
276.468	4.94613
279.361	3.57684
282.254	2.29015
285.146	1.36076
288.039	1.2853
290.932	1.69031
293.825	1.16979
296.717	1.91291
299.61	2.41904
302.503	2.92029
305.395	4.17329
308.288	5.69515
311.181	6.82947
314.073	8.33387
316.966	9.55507
319.859	10.6552
322.752	11.4045
325.644	12.1188
328.537	12.674
331.43	13.7855
334.322	14.374
337.215	13.7502
340.108	13.0239
343	10.8065
345.893	8.8591
348.786	6.49608
351.678	4.81132
354.571	3.09882
357.464	1.96768
360.357	1.04011
363.249	0.628582
366.142	0.755735
369.035	0.583258
371.927	1.47687
374.82	1.803
377.713	2.77836
380.606	3.44937
383.498	4.06534
386.391	4.19647
389.284	4.29633
392.176	2.90795
395.069	1.55722
397.962	0.802904
400.854	0.062429
403.747	0.230946
406.64	0.348906
409.532	0.246346
412.425	0.304209
415.318	0.098003
418.211	0.020678
421.103	0.037399
423.996	0.432222
426.889	0.45397
429.781	0.869352
432.674	1.01338
435.567	1.4187
438.459	1.15336
441.352	1.67123
444.245	2.31284
447.137	2.29527
450.03	2.8108
452.923	3.48931
455.816	3.55717
458.708	4.23892
461.601	4.19337
464.494	4.26243
467.386	4.51117
470.279	4.13545
473.172	3.77373
476.065	3.22164
478.957	3.02616
481.85	2.4399
484.743	2.32448
487.635	2.15667
490.528	1.9338
493.421	1.69807
496.313	1.28703
499.206	1.11973
502.099	1.01865
504.991	0.658821
507.884	0.611938
510.777	0.667952
513.67	0.617214
516.562	0.630613
519.455	0.46664
522.348	0.522665
525.24	0.173888
528.133	0.268706
531.026	0.39055
533.918	0.26353
536.811	0.301019
539.704	0.399618
542.597	0.180615
545.489	0.143698
548.382	0.263079
551.275	0.05838
554.167	0.17606
557.06	0.342991
559.953	0.218969
562.846	0.089632
565.738	0.24798
568.631	0.114931
571.524	0.00218
574.416	0.109398
577.309	0.263111
580.202	0.092205
583.094	0.065353
585.987	0.168804
588.88	0.289459
591.773	0.243841
594.665	0.034552
597.558	0.018003
600.451	0.062483
603.343	0.047007
606.236	0.005751
609.129	0.051588
612.021	0.029591
614.914	0.21734
617.807	0.024557
620.699	0.151588
623.592	0.02807
626.485	0.136269
629.378	0.201071
632.27	0.264736
635.163	0.214619
638.056	0.096802
640.948	0.033211
643.841	0.331316
646.734	0.431223
649.626	0.534321
652.519	0.930075
655.412	0.718931
658.305	1.22055
661.197	1.33784
664.09	1.91131
666.983	2.50352
669.875	2.86394
672.768	3.39264
675.661	4.1092
678.553	4.8
681.446	5.40457
684.339	5.78819
687.232	6.381
690.124	7.05469
693.017	7.36007
695.91	7.46634
698.802	8.17052
701.695	7.93873
704.588	7.8595
707.481	7.70941
710.373	7.02344
713.266	7.31787
716.159	7.01561
719.051	6.31117
721.944	6.06423
724.837	5.59864
727.729	4.97333
730.622	4.68011
733.515	4.18416
736.408	3.54964
739.3	3.47656
742.193	3.12427
745.086	2.46149
747.978	2.22626
750.871	2.14248
753.764	1.83351
756.656	1.70254
759.549	1.30129
762.442	1.07918
765.335	1.0771
768.227	0.902468
771.12	0.91214
774.013	0.425714
776.905	0.538599
779.798	0.351925
782.691	0.388439
785.583	0.102127
788.476	0.149263
791.369	0.030287
794.261	0.003336
797.154	0.011515
800.047	0.095165
802.94	0.055368
805.832	0.20195
808.725	0.296321
811.618	0.069278
814.51	0.303766
817.403	0.087592
820.296	0.018765
823.188	0.264425
826.081	0.083602
828.974	0.11283
831.867	0.198747
834.759	0.352615
837.652	0.426942
840.545	0.45292
843.437	0.502465
846.33	0.425848
849.223	0.381163
852.115	0.543216
855.008	0.463397
857.901	0.991856
860.794	0.752453
863.686	0.776316
866.579	0.730967
869.472	0.751533
872.364	0.649193
875.257	0.344697
878.15	0.589421
881.043	0.515637
883.935	0.332823
886.828	0.35896
889.721	0.432077
892.613	0.369071
895.506	0.136797
898.399	0.324986
901.291	0.461527
904.184	0.163662
907.077	0.326191
909.97	0.360662
912.862	0.005896
915.755	0.244525
918.648	0.140351
921.54	0.002844
924.433	0.110788
927.326	0.255863
930.218	0.316742
933.111	0.3248
936.004	0.149767
938.896	0.197881
941.789	0.298521
944.682	0.199419
947.575	0.091575
950.467	0.147192
953.36	0.376609
956.253	0.0008
959.145	0.193592
962.038	0.12871
964.931	0.146247
967.823	0.224078
970.716	0.183017
973.609	0.080137
976.501	0.039302
979.394	0.303722
982.287	0.164393
985.18	0.14737
988.072	0.09615
990.965	0.07798
993.858	0.202622
996.75	0.201112
999.643	0.184914
1002.54	0.283257
1005.43	0.101863
1008.32	0.039665
1011.21	0.002595
1014.11	0.111703
1017	0.185199
1019.89	0.081643
1022.78	0.329064
1025.68	0.282193
1028.57	0.074064
1031.46	0.074908
1034.36	0.084857
1037.25	0.205046
1040.14	0.227925
1043.03	0.374806
1045.93	0.32871
1048.82	0.236297
1051.71	0.371161
1054.6	0.206651
1057.5	0.296032
1060.39	0.227505
1063.28	0.129507
1066.17	0.351364
1069.07	0.215158
1071.96	0.118141
1074.85	0.260153
1077.75	0.025802
1080.64	0.133845
1083.53	0.187698
1086.42	0.18616
1089.32	0.202568
1092.21	0.06024
1095.1	0.277037
1097.99	0.371017
1100.89	0.209319
1103.78	0.083867
1106.67	0.02719
1109.57	0.19209
1112.46	0.215218
1115.35	0.188151
1118.24	0.287887
1121.14	0.027861
1124.03	0.087657
1126.92	0.183482
1129.82	0.291238
1132.71	0.214055
1135.6	0.084343
1138.49	0.028538
1141.38	0.077302
1144.28	0.16329
1147.17	0.03875
1150.06	0.21147
1152.96	0.082592
1155.85	0.178411
1158.74	0.041832
1161.63	0.154281
1164.53	0.296289
1167.42	0.179571
1170.31	0.068428
1173.2	0.225178
1176.1	0.106049
1178.99	0.006516
1181.88	0.043768
1184.78	0.272143
1187.67	0.102437
1190.56	0.297956
1193.45	0.12049
1196.35	0.264369
1199.24	0.076746
1202.13	0.169706
1205.03	0.29315
1207.92	0.332458
1210.81	0.317038
1213.7	0.121014
1216.6	0.148668
1219.49	0.037758
1222.38	0.269427
1225.27	0.097838
1228.17	0.072517
1231.06	0.332303
1233.95	0.078061
1236.84	0.183679
1239.74	0.119469
1242.63	0.265141
1245.52	0.22145
1248.41	0.135777
1251.31	0.146441
1254.2	0.170701
1257.09	0.369068
1259.99	0.177341
1262.88	0.169923
1265.77	0.216022
1268.66	0.025118
1271.56	0.050869
1274.45	0.046153
1277.34	0.068317
1280.23	0.20831
1283.13	0.253764
1286.02	0.161212
1288.91	0.261218
1291.81	0.216328
1294.7	0.010487
