Measurement: Raman, 780 nm, unoriented, Raman Data Processed
Mineral: Gelosaite
Rruff sample: R120031
Ideal chemistry: BiMo^6+^_(2-5x)_Mo^5+^_6x_O_7_(OH)H_2_O (0x0.4)
Locality: Old 25 pipe, Kingsgate, New South Wales, Australia
Source: Pete Williams and Bill Pinch
Description: Blue blocky crystals
Raman shift (cm-1)	intensity
92.5678	0
95.9426	154.943
99.3174	178.297
102.692	53.1517
106.067	33.3314
109.442	23.7321
112.817	17.0673
116.192	6.9555
119.566	9.62158
122.941	28.6722
126.316	43.3616
129.691	58.986
133.066	92.9319
136.44	184.798
139.815	287.244
143.19	270.867
146.565	216.336
149.94	189.61
153.315	161.95
156.689	105.865
160.064	66.9271
163.439	21.8369
166.814	2.66827
170.189	12.4561
173.563	1.67664
176.938	6.573
180.313	7.05182
183.688	2.61871
187.063	5.10864
190.437	18.7118
193.812	53.4029
197.187	112.874
200.562	185.754
203.937	248.291
207.311	229.091
210.686	157.001
214.061	94.5222
217.436	48.4099
220.811	33.0068
224.186	39.6542
227.56	56.6686
230.935	59.2188
234.31	64.2607
237.685	86.657
241.06	94.1935
244.435	102.105
247.809	98.1415
251.184	93.7097
254.559	93.5871
257.934	92.9304
261.309	85.8826
264.683	96.962
268.058	118.994
271.433	147.652
274.808	170.945
278.183	203.337
281.558	238.573
284.932	272.372
288.307	293.805
291.682	313.821
295.057	336.284
298.432	361.717
301.806	356.292
305.181	285.581
308.556	192.343
311.931	113.382
315.306	63.3315
318.68	27.0395
322.055	8.25079
325.43	3.13049
328.805	7.03955
332.18	8.98572
335.555	9.51923
338.929	4.77106
342.304	4.01739
345.679	8.4696
349.054	21.9079
352.429	35.0814
355.803	53.0505
359.178	71.2821
362.553	86.5006
365.928	98.2548
369.303	95.3035
372.678	85.6363
376.052	66.3084
379.427	51.2653
382.802	35.4156
386.177	21.9026
389.552	13.2475
392.926	14.1511
396.301	14.0847
399.676	16.2834
403.051	28.0464
406.426	39.6712
409.8	41.4403
413.175	41.6661
416.55	46.2128
419.925	52.7712
423.3	56.4592
426.675	64.8418
430.049	67.5499
433.424	71.9669
436.799	64.3127
440.174	63.9883
443.549	74.5965
446.923	89.1741
450.298	111.186
453.673	154.666
457.048	204.091
460.423	253.639
463.798	287.865
467.172	295.641
470.547	261.992
473.922	213.447
477.297	157.782
480.672	111.17
484.046	73.0339
487.421	43.2584
490.796	25.2184
494.171	11.4616
497.546	5.34949
500.921	0.01178
504.295	5.44971
507.67	6.86401
511.045	6.46997
514.42	3.78735
517.795	1.26471
521.169	7.13501
524.544	3.09552
527.919	13.663
531.294	22.5353
534.669	36.0485
538.044	52.9135
541.418	73.439
544.793	89.1093
548.168	109.103
551.543	121.823
554.918	130.397
558.293	122.573
561.667	95.6886
565.042	68.3161
568.417	36.8375
571.792	21.6982
575.167	11.51
578.541	4.31134
581.916	7.89178
585.291	2.77704
588.666	9.94617
592.041	10.6912
595.415	21.4262
598.79	29.1309
602.165	45.6429
605.54	59.917
608.915	74.2823
612.29	72.0086
615.664	65.0146
619.039	65.4657
622.414	68.1763
625.789	71.787
629.164	67.2161
632.538	50.1375
635.913	38.0012
639.288	25.0467
642.663	19.5253
646.038	16.8981
649.413	9.09912
652.787	4.53686
656.162	0.689514
659.537	2.00751
662.912	1.11035
666.287	2.52112
669.661	0.050659
673.036	0.325867
676.411	2.05783
679.786	0.012817
683.161	1.64288
686.535	3.22479
689.91	0.465637
693.285	5.49115
696.66	3.13889
700.035	5.10086
703.41	1.09003
706.784	7.10422
710.159	3.33673
713.534	4.8429
716.909	5.7413
720.284	7.10556
723.659	6.04437
727.033	7.92731
730.408	8.61862
733.783	9.83402
737.158	7.57297
740.533	5.6246
743.907	7.02985
747.282	9.19568
750.657	5.57565
754.032	7.61472
757.407	5.73947
760.782	3.78293
764.156	2.40311
767.531	3.70776
770.906	1.30768
774.281	0.990875
777.656	1.75409
781.03	6.77216
784.405	0.600037
787.78	0.620117
791.155	4.53717
794.53	3.29535
797.904	1.05148
801.279	2.72897
804.654	3.29871
808.029	3.87973
811.404	2.38489
814.779	3.01816
818.153	6.88028
821.528	11.4621
824.903	4.39853
828.278	6.76019
831.653	6.17007
835.028	6.18121
838.402	10.3587
841.777	13.0488
845.152	10.9393
848.527	10.6939
851.902	12.5348
855.276	8.10379
858.651	12.2602
862.026	13.5282
865.401	11.2495
868.776	14.1141
872.15	12.3885
875.525	12.5346
878.9	15.758
882.275	5.58533
885.65	10.7615
889.024	5.30481
892.399	6.72046
895.774	5.15039
899.149	3.02008
902.524	10.0951
905.899	0.632324
909.273	1.75702
912.648	3.74982
916.023	2.03918
919.398	1.43829
922.773	3.48144
926.148	7.02661
929.522	0.491394
932.897	4.67542
936.272	2.09808
939.647	1.00293
943.022	3.85419
946.396	10.8044
949.771	28.1659
953.146	51.9119
956.521	91.5883
959.896	163.765
963.27	281.52
966.645	451.677
970.02	543.898
973.395	428.098
976.77	285.457
980.145	235.031
983.519	291.875
986.894	402.405
990.269	367.48
993.644	185.278
997.019	85.8635
1000.39	35.6243
1003.77	19.5201
1007.14	10.9811
1010.52	16.3188
1013.89	24.8729
1017.27	51.4879
1020.64	70.6146
1024.02	97.6412
1027.39	119.405
1030.77	145.742
1034.14	184.509
1037.52	259.084
1040.89	375.536
1044.27	528.392
1047.64	622.966
1051.02	670.682
1054.39	672.389
1057.77	528.51
1061.14	319.935
1064.52	182.223
1067.89	109.467
1071.27	77.9774
1074.64	71.0668
1078.01	74.8587
1081.39	69.3655
1084.76	48.6598
1088.14	28.4873
1091.51	13.2257
1094.89	8.42529
1098.26	5.81525
1101.64	3.06708
1105.01	5.96063
1108.39	1.18286
1111.76	1.52667
1115.14	5.1969
1118.51	7.2005
1121.89	11.4292
1125.26	12.877
1128.64	7.08392
1132.01	3.58813
1135.39	2.07629
1138.76	1.17474
1142.14	0.580505
1145.51	0.019653
1148.88	5.46838
1152.26	3.34998
1155.63	4.11401
1159.01	9.22009
1162.38	12.7838
1165.76	15.6095
1169.13	21.2946
1172.51	27.6412
1175.88	39.1767
1179.26	47.4842
1182.63	61.8735
1186.01	60.1865
1189.38	51.237
1192.76	38.6154
1196.13	29.5927
1199.51	21.5523
1202.88	19.7905
1206.26	9.03436
1209.63	10.0852
1213.01	8.56226
1216.38	6.10736
1219.76	5.58325
1223.13	8.47656
1226.51	2.62946
1229.88	2.66913
1233.26	2.04944
1236.63	5.71442
1240.01	1.59564
1243.38	2.18042
1246.76	1.70587
1250.13	3.25922
1253.51	2.27588
1256.88	4.17096
1260.25	2.19067
1263.63	2.3089
1267	7.27142
1270.38	1.24725
1273.75	7.52161
1277.13	4.44861
1280.5	2.98248
1283.88	5.36749
