Measurement: Raman, 532 nm, unoriented, Raman Data Processed
Mineral: Geminite
Rruff sample: R100200
Ideal chemistry: Cu^2+^(As^5+^O_3_OH)H_2_O
Locality: Salsigne mine, Aude France
Source: Bob Jenkins
Description: Pale green chisel-shaped crystals
Raman shift (cm-1)	intensity
159.014	0
161.906	17.3783
164.799	50.9114
167.692	77.3784
170.584	111.158
173.477	134.052
176.37	186.76
179.263	237.256
182.155	165.326
185.048	71.3553
187.941	42.2629
190.833	28.8738
193.726	14.9629
196.619	5.87839
199.512	4.75845
202.404	9.86585
205.297	21.463
208.19	35.7239
211.082	48.196
213.975	36.12
216.868	19.8286
219.761	4.86682
222.653	5.27339
225.546	5.46126
228.439	2.81883
231.331	8.78099
234.224	21.2995
237.117	33.7266
240.009	44.2128
242.902	47.3154
245.795	43.4167
248.688	28.5535
251.58	19.5709
254.473	7.07092
257.366	1.82182
260.258	2.29778
263.151	3.29086
266.044	2.4994
268.936	1.82604
271.829	3.45167
274.722	5.44234
277.615	2.43077
280.507	2.487
283.4	3.59488
286.293	2.65865
289.185	0.484009
292.078	0.145035
294.971	1.2448
297.863	10.1458
300.756	19.1552
303.649	31.8767
306.541	42.5619
309.434	50.6054
312.327	54.5498
315.22	49.9708
318.112	42.7122
321.005	46.2043
323.898	53.8387
326.791	71.1818
329.683	90.1026
332.576	114.804
335.469	124.929
338.361	131.817
341.254	133.325
344.147	127.099
347.039	120.354
349.932	107.752
352.825	99.1141
355.717	99.5445
358.61	104.537
361.503	110.099
364.396	108.128
367.288	100.915
370.181	75.7312
373.074	49.0041
375.966	23.872
378.859	4.68683
381.752	4.57461
384.644	1.7496
387.537	1.69464
390.43	9.25415
393.323	24.8082
396.215	37.2729
399.108	52.7672
402.001	60.9891
404.894	70.3036
407.786	69.5515
410.679	69.6013
413.572	67.9673
416.464	71.4488
419.357	65.9685
422.25	62.8158
425.142	54.488
428.035	44.937
430.928	33.6907
433.82	20.8518
436.713	11.4698
439.606	10.2425
442.499	7.78409
445.391	11.0006
448.284	14.519
451.177	16.6373
454.069	17.0191
456.962	10.5409
459.855	7.21155
462.748	4.34891
465.64	2.6796
468.533	4.77472
471.426	4.90947
474.318	5.54112
477.211	8.52287
480.104	12.1122
482.996	12.5991
485.889	16.3671
488.782	18.3007
491.675	21.6901
494.567	24.2387
497.46	28.7412
500.353	26.4818
503.245	21.9213
506.138	12.2042
509.031	6.40448
511.923	2.70142
514.816	0.271881
517.709	1.44521
520.602	0.931732
523.494	1.23569
526.387	1.7957
529.28	0.718399
532.172	0.569153
535.065	0.467911
537.958	0.114319
540.851	2.98181
543.743	0.931946
546.636	2.59357
549.529	5.13973
552.421	4.84779
555.314	6.19759
558.207	6.45122
561.099	10.2674
563.992	10.6087
566.885	11.8246
569.778	13.3444
572.67	13.1314
575.563	12.254
578.456	12.7104
581.348	14.0936
584.241	14.0165
587.134	14.7921
590.027	14.4071
592.919	15.3222
595.812	14.7005
598.705	14.2103
601.597	15.1642
604.49	13.7336
607.383	15.073
610.275	15.3284
613.168	16.6832
616.061	16.5953
618.953	16.4741
621.846	16.7807
624.739	18.2466
627.632	18.7799
630.524	17.2222
633.417	19.4895
636.31	19.8011
639.202	19.8603
642.095	21.3529
644.988	22.8487
647.881	21.0715
650.773	21.5184
653.666	22.8647
656.559	23.815
659.451	26.2138
662.344	27.1622
665.237	26.8424
668.13	25.5642
671.022	22.9606
673.915	22.8994
676.808	21.1931
679.7	18.975
682.593	18.1237
685.486	15.5574
688.378	13.5657
691.271	10.81
694.164	9.09731
697.057	6.735
699.949	4.55631
702.842	3.45824
705.735	0.538589
708.627	0.528275
711.52	1.78307
714.413	3.22441
717.305	4.24383
720.198	4.96956
723.091	2.74028
725.984	0.124496
728.876	5.09793
731.769	13.5198
734.662	22.4963
737.554	32.0136
740.447	34.3498
743.34	29.8268
746.232	22.0284
749.125	13.2158
752.018	9.64502
754.91	4.14755
757.803	3.9704
760.696	2.20084
763.589	0.028534
766.481	0.692108
769.374	1.18591
772.267	3.18622
775.159	4.6536
778.052	5.32675
780.945	10.9851
783.838	22.4043
786.73	42.5629
789.623	70.478
792.516	109.73
795.408	161.934
798.301	220.232
801.194	289.796
804.087	348.625
806.979	419.575
809.872	478.001
812.765	510.627
815.657	505.311
818.55	447.568
821.443	391.648
824.335	360.28
827.228	341.34
830.121	340.232
833.014	353.339
835.906	371.317
838.799	381.194
841.692	406.481
844.584	442.301
847.477	489.244
850.37	527.075
853.263	525.817
856.155	478.178
859.048	381.586
861.941	287.484
864.833	215.777
867.726	174.558
870.619	154.085
873.511	138.261
876.404	127.59
879.297	123.501
882.189	113.171
885.082	110.498
887.975	97.3109
890.868	78.9082
893.76	58.0641
896.653	40.5583
899.546	28.1596
902.438	18.0371
905.331	10.1323
908.224	2.62459
911.116	1.75032
914.009	1.36823
916.902	3.05742
919.795	4.35133
922.687	4.95943
925.58	4.81435
928.473	0.882324
931.365	2.36464
934.258	1.31198
937.151	0.816498
940.044	2.25081
942.936	4.14644
945.829	6.31238
948.722	7.92314
951.614	9.77554
954.507	11.4327
957.4	13.6954
960.293	14.5371
963.185	17.1459
966.078	19.0965
968.971	21.3122
971.863	21.3609
974.756	20.9859
977.649	20.6634
980.541	20.9489
983.434	20.4229
986.327	18.5134
989.22	17.9055
992.112	18.3629
995.005	17.0921
997.898	16.4132
1000.79	16.2842
1003.68	13.9775
1006.58	12.1956
1009.47	12.1803
1012.36	11.124
1015.25	10.7995
1018.15	10.7614
1021.04	9.88608
1023.93	6.86749
1026.83	9.94568
1029.72	8.94331
1032.61	6.99291
1035.5	6.45325
1038.4	8.1143
1041.29	7.22492
1044.18	9.64058
1047.07	4.88481
1049.97	5.84689
1052.86	5.14111
1055.75	3.09807
1058.64	3.2597
1061.54	3.64681
1064.43	4.81473
1067.32	3.56206
1070.21	2.71242
1073.11	4.07764
1076	3.84119
1078.89	3.95964
1081.79	1.0672
1084.68	3.69505
1087.57	3.16347
1090.46	1.7123
1093.36	0.892838
1096.25	2.04869
1099.14	0.172043
1102.04	0.017563
1104.93	1.29782
1107.82	0.296082
1110.71	1.12521
1113.61	0.082535
1116.5	0.115692
1119.39	0.522202
1122.28	1.12585
1125.18	0.874985
1128.07	1.69975
1130.96	0.139465
1133.86	1.675
1136.75	0.412338
1139.64	1.95579
1142.53	0.479019
1145.43	0.492294
1148.32	0.222
1151.21	2.16429
1154.1	0.549988
1157	0.25531
1159.89	1.69841
1162.78	0.817719
1165.67	0.419632
1168.57	1.64461
1171.46	2.13063
1174.35	2.43605
1177.24	1.4799
1180.14	1.38684
1183.03	2.02071
1185.92	1.97165
1188.82	2.27789
1191.71	0.643753
1194.6	1.45926
1197.49	2.03125
1200.39	2.43584
1203.28	0.596252
1206.17	0.470108
1209.07	1.92386
1211.96	1.6716
1214.85	1.95229
1217.74	2.02489
1220.64	0.318314
1223.53	2.95755
1226.42	1.22626
1229.31	1.12782
1232.21	0.091965
1235.1	0.852737
1237.99	1.75613
1240.88	1.25932
1243.78	2.08806
1246.67	1.42209
1249.56	1.60252
1252.45	1.05699
1255.35	1.31076
1258.24	1.01886
1261.13	1.09367
1264.03	0.278656
1266.92	0.049683
1269.81	2.43376
1272.7	2.62871
1275.6	1.21956
1278.49	3.60263
1281.38	1.19284
1284.28	2.14499
1287.17	1.18837
1290.06	1.89856
1292.95	1.96185
1295.85	1.35526
1298.74	1.85735
1301.63	0.793533
