Measurement: Raman, 532 nm, unoriented, Raman Data Processed
Mineral: Genthelvite
Rruff sample: R080134
Ideal chemistry: Be_3_Zn_4_(SiO_4_)_3_S
Locality: Rockport, Essex County, Massachusetts, USA
Source: James Shigley
Description: Massive pink, exhibiting greasy luster, associated with albite
Raman shift (cm-1)	intensity
125.72	0
129.095	34.3358
132.47	17.8975
135.845	75.9875
139.22	92.6172
142.594	4.28888
145.969	36.4418
149.344	113.181
152.719	216.428
156.094	311.26
159.468	375.951
162.843	433.04
166.218	502.457
169.593	560.301
172.968	554.219
176.343	291.851
179.717	136.649
183.092	113.835
186.467	68.6154
189.842	52.0304
193.217	79.8674
196.591	120.892
199.966	104.512
203.341	23.8956
206.716	5.43842
210.091	10.2849
213.465	7.18622
216.84	1.48725
220.215	13.5731
223.59	33.6268
226.965	53.5274
230.339	77.7717
233.714	106.13
237.089	152.548
240.464	194.274
243.839	177.497
247.214	130.639
250.588	80.5319
253.963	59.6116
257.338	54.4525
260.713	52.6704
264.088	47.8379
267.462	41.4061
270.837	40.9598
274.212	51.622
277.587	71.9653
280.962	101.507
284.337	143.398
287.711	200.13
291.086	245.21
294.461	261.682
297.836	250.736
301.211	226.991
304.586	210.72
307.96	193.587
311.335	149.533
314.71	101.512
318.085	81.5006
321.46	86.0155
324.834	85.041
328.209	44.763
331.584	21.6127
334.959	13.4638
338.334	7.07472
341.709	4.85229
345.083	2.51154
348.458	0.361076
351.833	0.110161
355.208	0.777802
358.583	0.23484
361.957	1.37891
365.332	2.39037
368.707	0.625572
372.082	1.26503
375.457	2.22998
378.832	1.61488
382.206	0.163002
385.581	0.069016
388.956	0.078964
392.331	0.026558
395.705	2.034
399.08	4.76121
402.455	7.90006
405.83	11.0228
409.205	13.14
412.58	18.0034
415.954	20.4342
419.329	18.4117
422.704	10.9399
426.079	10.6575
429.454	12.2959
432.829	13.1189
436.203	16.7754
439.578	20.9324
442.953	27.6496
446.328	24.0913
449.703	9.47673
453.077	3.17833
456.452	1.0754
459.827	1.9707
463.202	2.44682
466.577	2.10596
469.952	2.03952
473.326	2.79825
476.701	1.86861
480.076	1.28984
483.451	0.655365
486.826	0.009781
490.2	1.07589
493.575	0.690601
496.95	0.934719
500.325	1.32876
503.7	1.93519
507.075	2.98193
510.449	3.19902
513.824	3.52563
517.199	2.27118
520.574	3.80257
523.949	4.59931
527.323	8.65498
530.698	10.8179
534.073	14.3837
537.448	16.3697
540.823	12.7371
544.197	9.0536
547.572	7.62067
550.947	7.3613
554.322	8.36581
557.697	13.287
561.072	22.4371
564.446	33.8727
567.821	46.2505
571.196	64.0503
574.571	72.6335
577.946	50.3631
581.321	28.7395
584.695	21.0055
588.07	17.6851
591.445	14.4983
594.82	16.2638
598.194	22.5554
601.569	30.0516
604.944	30.8898
608.319	34.8563
611.694	33.6319
615.069	34.3957
618.443	26.2653
621.818	23.4385
625.193	20.6608
628.568	19.2753
631.943	14.8796
635.317	11.7339
638.692	8.35288
642.067	4.417
645.442	1.18952
648.817	0.000393
652.192	0.814739
655.566	0.124287
658.941	0.29726
662.316	0.934494
665.691	0.681664
669.066	0.335743
672.441	0.958214
675.815	2.51817
679.19	4.86021
682.565	8.24751
685.94	11.8702
689.315	15.7318
692.689	14.0096
696.064	8.49981
699.439	6.65434
702.814	6.02066
706.189	4.60899
709.563	5.9104
712.938	7.02431
716.313	7.60434
719.688	8.23821
723.063	9.70598
726.438	10.4244
729.812	10.8043
733.187	10.564
736.562	10.9436
739.937	11.1372
743.312	11.1929
746.687	11.8872
750.061	14.4693
753.436	16.9885
756.811	20.5497
760.186	21.9749
763.561	23.8426
766.935	26.891
770.31	28.152
773.685	23.8567
777.06	14.7721
780.435	9.7412
783.809	5.79308
787.184	4.60285
790.559	3.05151
793.934	2.65333
797.309	2.00116
800.683	0.311218
804.058	0.331093
807.433	1.70744
810.808	2.3876
814.183	1.98063
817.558	0.900948
820.932	0.377556
824.307	0.715336
827.682	1.11129
831.057	1.43063
834.432	1.35421
837.807	4.76518
841.181	4.54446
844.556	7.18641
847.931	11.4846
851.306	16.4588
854.681	24.8968
858.055	37.1497
861.43	54.3025
864.805	84.5391
868.18	141.583
871.555	255.305
874.929	444.495
878.304	698.192
881.679	1077.97
885.054	1442.87
888.429	1235.48
891.804	690.368
895.178	400.434
898.553	283.123
901.928	238.712
905.303	222.195
908.678	189.788
912.053	135.875
915.427	96.9472
918.802	75.2375
922.177	60.5976
925.552	45.9099
928.927	34.0386
932.301	34.1409
935.676	42.0433
939.051	55.8503
942.426	77.0365
945.801	94.7272
949.176	59.666
952.55	20.7682
955.925	6.77369
959.3	1.94744
962.675	0.603386
966.05	1.7794
969.424	4.49437
972.799	6.38705
976.174	2.47566
979.549	0.595909
982.924	2.10417
986.298	2.67626
989.673	1.22399
993.048	0.952435
996.423	0.549274
999.798	3.35989
1003.17	4.71272
1006.55	6.35442
1009.92	8.72628
1013.3	13.1647
1016.67	20.9069
1020.05	28.7314
1023.42	40.0464
1026.8	44.8221
1030.17	34.9278
1033.55	19.2648
1036.92	12.8446
1040.3	8.71079
1043.67	5.50631
1047.05	2.94366
1050.42	2.21863
1053.8	2.17865
1057.17	2.52427
1060.54	2.39772
1063.92	2.66543
1067.29	3.06632
1070.67	4.069
1074.04	3.39759
1077.42	3.77153
1080.79	4.41738
1084.17	3.31053
1087.54	2.82197
1090.92	2.27085
1094.29	1.7357
1097.67	1.41128
1101.04	0.931866
1104.42	0.437323
1107.79	0.416044
1111.17	0.597624
1114.54	0.231895
1117.92	0.132317
1121.29	0.642036
1124.67	0.96159
1128.04	0.654001
1131.42	1.9367
1134.79	1.81967
1138.16	1.54585
1141.54	2.00755
1144.91	1.74481
1148.29	2.45921
1151.66	2.18303
1155.04	2.56379
1158.41	1.59152
1161.79	2.3579
1165.16	1.80765
1168.54	1.84973
1171.91	0.73254
1175.29	0.781355
1178.66	0.526651
1182.04	0.13389
1185.41	0.297081
1188.79	0.271275
1192.16	0.307091
1195.54	0.039677
1198.91	0.261202
1202.29	0.051441
1205.66	0.578856
1209.04	0.566879
1212.41	0.674482
1215.79	1.47425
1219.16	1.78201
1222.54	1.57894
1225.91	2.16508
1229.29	1.79787
1232.66	2.87209
1236.04	2.85247
1239.41	3.14599
1242.79	3.24974
1246.16	3.14679
1249.53	2.54768
1252.91	3.00044
1256.28	3.0319
1259.66	2.6301
1263.03	2.94265
1266.41	2.56616
1269.78	2.29489
1273.16	2.18149
1276.53	1.83699
1279.91	1.41097
1283.28	0.633009
1286.66	1.21254
1290.03	0.519247
1293.41	0.482313
1296.78	0.477428
1300.16	0.62781
1303.53	0
