Measurement: Raman, 780 nm, unoriented, Raman Data Processed
Mineral: Genthelvite
Rruff sample: R080134
Ideal chemistry: Be_3_Zn_4_(SiO_4_)_3_S
Locality: Rockport, Essex County, Massachusetts, USA
Source: James Shigley
Description: Massive pink, exhibiting greasy luster, associated with albite
Raman shift (cm-1)	intensity
125.603	0
128.978	7.38289
132.353	0.552368
135.727	3.79024
139.102	11.1571
142.477	0.392426
145.852	9.68634
149.227	29.8555
152.601	57.2132
155.976	81.3509
159.351	101.305
162.726	124.453
166.101	146.524
169.476	171.919
172.85	181.616
176.225	108.48
179.6	50.3808
182.975	31.675
186.35	14.379
189.725	8.1243
193.099	10.7353
196.474	16.0704
199.849	16.5065
203.224	5.71729
206.599	1.11951
209.973	1.94046
213.348	0.181435
216.723	1.19149
220.098	5.04697
223.473	7.58305
226.847	12.9716
230.222	18.0394
233.597	24.9056
236.972	32.3125
240.347	40.138
243.722	33.9101
247.096	27.1457
250.471	17.912
253.846	12.8279
257.221	10.5706
260.596	10.2963
263.971	10.0085
267.345	8.83075
270.72	7.6487
274.095	8.33297
277.47	12.8745
280.845	18.8315
284.219	28.1274
287.594	38.5077
290.969	47.1883
294.344	50.3144
297.719	49.9141
301.094	48.9493
304.468	46.3038
307.843	44.8772
311.218	36.0346
314.593	25.6359
317.968	21.1128
321.342	20.4428
324.717	20.5292
328.092	11.859
331.467	6.28239
334.842	2.57282
338.216	2.9248
341.591	0.609161
344.966	0.008728
348.341	0.316544
351.716	0.706032
355.091	0.359558
358.465	0.461342
361.84	1.23811
365.215	0.577927
368.59	1.37335
371.965	0.027557
375.339	0.91433
378.714	0.926025
382.089	0.306717
385.464	0.691467
388.839	0.577263
392.214	0.332939
395.588	0.731544
398.963	2.05058
402.338	1.66928
405.713	1.89311
409.088	2.70045
412.462	3.14002
415.837	3.67471
419.212	3.2663
422.587	2.27456
425.962	2.48177
429.337	2.46202
432.711	4.86949
436.086	6.86667
439.461	9.1748
442.836	11.5218
446.211	10.988
449.586	3.45702
452.96	1.16565
456.335	1.25019
459.71	0.729469
463.085	0.763771
466.46	0.566971
469.834	0.77552
473.209	2.65579
476.584	2.29553
479.959	1.2711
483.334	0.139839
486.709	0.339333
490.083	0.141434
493.458	0.607605
496.833	0.485031
500.208	1.41887
503.583	2.50223
506.957	3.63712
510.332	4.75076
513.707	4.41563
517.082	2.34131
520.457	0.918358
523.832	0.409447
527.206	0.417847
530.581	1.01418
533.956	1.58986
537.331	2.36923
540.706	2.00735
544.08	1.46512
547.455	2.29758
550.83	1.59495
554.205	2.38034
557.58	1.84361
560.955	4.46423
564.329	6.58936
567.704	9.22664
571.079	13.9505
574.454	14.9585
577.829	10.8452
581.203	5.49664
584.578	3.55305
587.953	2.47819
591.328	1.44148
594.703	1.97008
598.078	2.08254
601.452	2.83275
604.827	3.46826
608.202	4.95155
611.577	4.13247
614.952	4.35084
618.327	4.07878
621.701	4.46993
625.076	4.72794
628.451	3.81518
631.826	2.54406
635.201	1.72223
638.575	1.00008
641.95	1.35412
645.325	0.839172
648.7	0.578514
652.075	0.329834
655.449	0.133751
658.824	0.253571
662.199	0.453728
665.574	0.430389
668.949	0.734894
672.323	0.677155
675.698	2.06075
679.073	2.3737
682.448	4.17877
685.823	5.838
689.198	7.63087
692.572	7.2476
695.947	4.10377
699.322	2.36831
702.697	2.73951
706.072	1.28452
709.447	2.09187
712.821	1.91371
716.196	2.66644
719.571	2.07189
722.946	2.9123
726.321	3.22005
729.696	3.70763
733.07	2.83892
736.445	2.5383
739.82	2.18733
743.195	2.06493
746.57	3.59752
749.944	3.23633
753.319	3.43258
756.694	3.66029
760.069	3.20083
763.444	3.07181
766.818	4.31004
770.193	3.35782
773.568	3.0052
776.943	1.74307
780.318	0.611023
783.693	0.223167
787.067	0.491669
790.442	0.404701
793.817	1.40325
797.192	0.124931
800.567	0.297005
803.942	0.205894
807.316	0.700699
810.691	0.266495
814.066	0.154533
817.441	0.421967
820.816	0.050156
824.19	0.284126
827.565	0.416077
830.94	1.08717
834.315	0.413727
837.69	1.15004
841.064	0.539284
844.439	1.06765
847.814	1.25564
851.189	2.60117
854.564	4.65348
857.939	6.12369
861.313	9.98826
864.688	14.9996
868.063	25.3317
871.438	47.2064
874.813	79.812
878.188	120.778
881.562	182.066
884.937	246.683
888.312	223
891.687	129.897
895.062	71.8652
898.436	48.6043
901.811	38.8964
905.186	34.1416
908.561	29.5899
911.936	20.8927
915.311	14.8156
918.685	12.0449
922.06	9.83492
925.435	6.49227
928.81	5.72591
932.185	5.47131
935.559	7.44086
938.934	7.30417
942.309	11.0145
945.684	13.356
949.059	9.35022
952.433	2.44728
955.808	0.288361
959.183	0.442253
962.558	0.537415
965.933	0.74649
969.308	1.98161
972.682	2.71545
976.057	1.72341
979.432	0.367142
982.807	0.106659
986.182	0.657234
989.557	0.574165
992.931	0.095535
996.306	0.56913
999.681	1.55904
1003.06	1.84777
1006.43	2.50562
1009.8	3.36504
1013.18	3.4835
1016.55	5.93105
1019.93	8.03322
1023.3	11.1822
1026.68	15.1486
1030.05	10.0906
1033.43	5.99805
1036.8	3.8584
1040.18	2.71049
1043.55	2.51753
1046.93	1.09485
1050.3	1.62816
1053.68	1.10811
1057.05	1.08485
1060.43	1.10136
1063.8	1.10673
1067.18	0.710609
1070.55	1.48301
1073.93	0.832375
1077.3	0.817978
1080.68	0.880066
1084.05	0.230476
1087.43	0.541542
1090.8	0.838882
1094.18	0.764328
1097.55	0.849426
1100.93	0.302055
1104.3	0.66674
1107.67	0.219025
1111.05	0.137329
1114.42	0.086136
1117.8	0.331993
1121.17	0.828506
1124.55	1.04845
1127.92	0.395493
1131.3	0.327568
1134.67	0.374405
1138.05	0.076202
1141.42	1.47887
1144.8	0.886299
1148.17	0.521172
1151.55	0.453781
1154.92	0.675789
1158.3	0.59671
1161.67	0.272125
1165.05	0.783241
1168.42	1.7915
1171.8	0.646873
1175.17	0.964958
1178.55	0.409782
1181.92	1.01878
1185.3	0.972481
1188.67	0.677101
1192.05	0.416061
1195.42	1.01224
1198.8	1.04087
1202.17	1.15125
1205.55	0.789749
1208.92	1.25318
1212.3	1.12582
1215.67	1.47205
1219.04	1.49794
1222.42	1.10472
1225.79	0.543999
1229.17	2.61056
1232.54	1.07287
1235.92	1.26554
1239.29	1.21551
1242.67	1.22324
1246.04	0.212715
1249.42	1.53624
1252.79	0.941254
1256.17	0.39476
1259.54	1.06458
1262.92	0.77169
1266.29	0.641548
1269.67	0.803444
1273.04	0.518501
1276.42	1.24036
1279.79	1.52393
1283.17	1.36951
1286.54	0.150803
