Measurement: Raman, 780 nm, unoriented, Raman Data Processed
Mineral: Georgerobinsonite
Rruff sample: R110148
Ideal chemistry: Pb_4_(CrO_4_)_2_(OH)_2_FCl
Locality: Mammoth mine, Tiger, Pinal County, Arizona, USA
Source: The University of Arizona Mineral Museum
Description: Red tabular crystal, resembling wulfenite, associated with quartz, cerussite, caledonite, and matlockite (R140538).
Raman shift (cm-1)	intensity
91.5599	0
94.9347	37.8486
98.3096	103.769
101.684	167.515
105.059	132.389
108.434	108.349
111.809	57.0995
115.184	27.315
118.558	15.8588
121.933	10.7696
125.308	3.08388
128.683	1.63743
132.058	2.62301
135.433	2.7548
138.807	1.77548
142.182	0.002277
145.557	1.9722
148.932	2.49571
152.307	6.97371
155.681	13.4084
159.056	19.6882
162.431	23.5824
165.806	22.3976
169.181	19.4307
172.555	16.7002
175.93	16.3191
179.305	16.3341
182.68	17.087
186.055	17.7113
189.43	16.451
192.804	15.1136
196.179	12.6157
199.554	10.2983
202.929	9.07281
206.304	8.01669
209.678	6.86411
213.053	6.17985
216.428	5.80129
219.803	5.26766
223.178	5.18817
226.553	4.65779
229.927	4.53738
233.302	3.51208
236.677	3.61064
240.052	3.14588
243.427	2.18338
246.801	2.36119
250.176	1.38485
253.551	1.64507
256.926	1.08283
260.301	0.688019
263.675	0.414335
267.05	0.194178
270.425	0.082483
273.8	0.068851
277.175	0.407953
280.55	0.390759
283.924	0.711384
287.299	1.07691
290.674	0.550882
294.049	1.14065
297.424	0.252832
300.798	0.734728
304.173	1.80976
307.548	3.62527
310.923	7.1605
314.298	10.7988
317.673	16.5963
321.047	24.7068
324.422	36.0905
327.797	50.759
331.172	69.0995
334.547	79.8197
337.921	108.197
341.296	172.773
344.671	280.525
348.046	421.266
351.421	453.718
354.796	253.138
358.17	129.697
361.545	85.3651
364.92	84.4177
368.295	115.985
371.67	190.007
375.044	143.399
378.419	66.1393
381.794	56.2987
385.169	28.6112
388.544	25.7676
391.918	38.2589
395.293	57.4684
398.668	103.956
402.043	187.066
405.418	317.981
408.793	282.05
412.167	100.339
415.542	34.7413
418.917	13.8207
422.292	6.72672
425.667	2.48163
429.041	1.09583
432.416	0.796328
435.791	1.79175
439.166	3.73342
442.541	1.75788
445.915	0.066126
449.29	0.132835
452.665	1.14461
456.04	1.42881
459.415	0.764839
462.789	0.378031
466.164	0.330474
469.539	0.603646
472.914	0.889403
476.289	1.61616
479.664	2.20057
483.038	2.82737
486.413	3.10276
489.788	3.66802
493.163	3.84497
496.538	4.07779
499.913	4.39641
503.287	4.77041
506.662	4.79026
510.037	4.82062
513.412	4.23275
516.787	3.18312
520.161	2.40229
523.536	2.21016
526.911	1.67602
530.286	1.29166
533.661	1.52683
537.035	0.99042
540.41	1.08112
543.785	1.12921
547.16	0.570172
550.535	0.47837
553.909	0.725204
557.284	0.439115
560.659	0.325626
564.034	0.398473
567.409	0.07963
570.784	0.11516
574.158	0.104022
577.533	0.117918
580.908	0.048695
584.283	0.059229
587.658	0.02572
591.033	0.211732
594.407	0.232454
597.782	0.266367
601.157	0.535576
604.532	0.585989
607.907	0.749313
611.281	0.70293
614.656	0.622704
618.031	0.61642
621.406	0.82685
624.781	0.760664
628.155	0.698867
631.53	1.15294
634.905	1.33528
638.28	1.19723
641.655	1.47683
645.029	1.61549
648.404	1.45284
651.779	1.69772
655.154	2.12328
658.529	2.1897
661.904	2.09404
665.278	2.42565
668.653	2.39259
672.028	2.32375
675.403	2.39009
678.778	2.44623
682.153	2.54157
685.527	2.80853
688.902	2.73171
692.277	2.7324
695.652	3.01714
699.027	2.47665
702.401	2.5029
705.776	2.23256
709.151	1.97939
712.526	1.61422
715.901	1.38056
719.275	1.13397
722.65	0.542688
726.025	0.234434
729.4	0.231348
732.775	0.33417
736.149	0.312543
739.524	0.519459
742.899	0.552715
746.274	1.06191
749.649	0.919508
753.024	1.06998
756.398	0.283175
759.773	0.38513
763.148	1.51572
766.523	4.2356
769.898	9.78651
773.273	14.9192
776.647	18.2052
780.022	16.5131
783.397	13.6012
786.772	9.92719
790.146	8.94716
793.521	9.56826
796.896	11.2203
800.271	13.7334
803.646	18.1197
807.021	22.5587
810.395	30.7253
813.77	41.8666
817.145	64.8769
820.52	108.444
823.895	193.386
827.269	351.548
830.644	564.492
834.019	772.701
837.394	801.61
840.769	611.848
844.144	387.365
847.518	216.552
850.893	122.382
854.268	70.8726
857.643	41.4901
861.018	23.1598
864.393	14.4625
867.767	9.74694
871.142	6.79475
874.517	5.81139
877.892	7.03975
881.266	11.6091
884.641	20.4162
888.016	31.5646
891.391	33.4229
894.766	18.4858
898.141	10.2049
901.515	8.23777
904.89	7.89262
908.265	5.90573
911.64	3.06311
915.015	1.36192
918.389	0.05883
921.764	1.03399
925.139	1.50117
928.514	1.24326
931.889	1.05038
935.264	0.864971
938.638	0.12857
942.013	0.365827
945.388	1.00908
948.763	2.10481
952.138	3.26765
955.512	4.59491
958.887	4.63437
962.262	3.42783
965.637	2.66071
969.012	2.84822
972.386	2.72239
975.761	2.65738
979.136	2.71976
982.511	2.72588
985.886	2.42209
989.261	2.38978
992.635	2.18259
996.01	2.00138
999.385	2.39144
1002.76	2.52114
1006.13	2.89754
1009.51	2.43589
1012.88	2.28289
1016.26	2.05407
1019.63	2.11523
1023.01	1.8849
1026.38	1.39351
1029.76	1.08346
1033.13	0.911647
1036.51	0.828549
1039.88	0.575709
1043.26	0.555015
1046.63	0.407994
1050.01	0.21867
1053.38	0.370426
1056.76	0.297581
1060.13	0.391883
1063.51	0.300965
1066.88	0.32207
1070.26	0.001612
1073.63	0.486816
1077.01	0.258638
1080.38	0.396198
1083.76	0.38256
1087.13	0.422819
1090.51	0.011948
1093.88	0.09467
1097.26	0.085661
1100.63	0.106645
1104	0.11374
1107.38	0.03551
1110.75	0.05206
1114.13	0.199425
1117.5	0.05592
1120.88	0.096628
1124.25	0.064367
1127.63	0.109168
1131	0.082098
1134.38	0.009469
1137.75	0.075892
1141.13	0.050814
1144.5	0.185661
1147.88	0.252431
1151.25	0.045809
1154.63	0.170691
1158	0.181165
1161.38	0.303493
1164.75	0.341863
1168.13	0.348764
1171.5	0.508101
1174.88	0.364084
1178.25	0.656902
1181.62	0.519401
1185	0.721028
1188.38	0.886066
1191.75	0.71242
1195.12	0.764789
1198.5	0.681905
1201.87	0.482048
1205.25	0.450348
1208.62	0.160904
1212	0.307588
1215.37	0.147287
1218.75	0.049532
1222.12	0.074267
1225.5	0.05359
1228.87	0.038266
1232.25	0.192292
1235.62	0.229436
1239	0.245582
1242.37	0.263263
1245.75	0.200027
1249.12	0.23227
1252.5	0.182505
1255.87	0.337976
1259.25	0.229209
1262.62	0.285722
1265.99	0.098633
1269.37	0.016474
1272.74	0.072865
1276.12	0.034749
1279.49	0.852004
1282.87	0.611758
