Measurement: Raman, 532 nm, unoriented, Raman Data Processed
Mineral: Georgerobinsonite
Rruff sample: R110148
Ideal chemistry: Pb_4_(CrO_4_)_2_(OH)_2_FCl
Locality: Mammoth mine, Tiger, Pinal County, Arizona, USA
Source: The University of Arizona Mineral Museum
Description: Red tabular crystal, resembling wulfenite, associated with quartz, cerussite, caledonite, and matlockite (R140538).
Raman shift (cm-1)	intensity
89.7832	0
93.158	10.2235
96.5328	34.4102
99.9077	71.5692
103.282	109.222
106.657	116.759
110.032	99.0025
113.407	72.4465
116.782	52.8208
120.157	38.0451
123.531	26.027
126.906	9.88809
130.281	1.91036
133.656	2.23705
137.031	2.28274
140.405	0.308197
143.78	5.78285
147.155	14.0036
150.53	24.0076
153.905	36.4057
157.28	48.2699
160.654	55.8448
164.029	52.9957
167.404	40.7801
170.779	26.4276
174.154	17.266
177.528	10.4791
180.903	6.49192
184.278	4.20892
187.653	3.74824
191.028	3.62556
194.403	2.47908
197.777	1.3383
201.152	1.23141
204.527	0.685036
207.902	0.351692
211.277	0.902306
214.651	0.402847
218.026	0.522041
221.401	0.100761
224.776	0.735817
228.151	0.296188
231.525	1.04199
234.9	1.4621
238.275	3.04251
241.65	2.7755
245.025	3.49225
248.4	3.38199
251.774	2.42302
255.149	3.46513
258.524	2.72246
261.899	2.50632
265.274	2.46072
268.649	1.83336
272.023	1.46955
275.398	1.3582
278.773	0.680328
282.148	0.310982
285.523	0.404076
288.897	1.03889
292.272	1.26375
295.647	0.975166
299.022	1.14611
302.397	1.29531
305.772	0.027885
309.146	0.647873
312.521	4.16499
315.896	6.21098
319.271	12.3654
322.646	23.038
326.02	36.2377
329.395	57.4741
332.77	82.1721
336.145	106.562
339.52	139.976
342.894	194.445
346.269	279.729
349.644	347.824
353.019	292.781
356.394	180.517
359.769	123.851
363.143	106.528
366.518	125.95
369.893	187.785
373.268	222.644
376.643	129.497
380.017	105.856
383.392	74.4094
386.767	42.0366
390.142	45.6398
393.517	63.912
396.892	88.4313
400.266	135.943
403.641	215.768
407.016	262.915
410.391	160.776
413.766	66.2873
417.14	30.2128
420.515	17.6514
423.89	11.108
427.265	7.66946
430.64	5.50034
434.014	3.98226
437.389	5.10019
440.764	3.90618
444.139	1.36523
447.514	0.038101
450.889	0.421986
454.263	1.03608
457.638	0.514511
461.013	1.12724
464.388	0.740768
467.763	0.818275
471.137	0.137878
474.512	0.22826
477.887	0.170536
481.262	1.39158
484.637	2.04951
488.012	2.77486
491.386	3.33331
494.761	4.41585
498.136	4.27724
501.511	4.77486
504.886	4.5426
508.26	5.10504
511.635	5.53497
515.01	4.30814
518.385	4.35431
521.76	3.98047
525.135	3.2823
528.509	2.49595
531.884	2.09969
535.259	1.91372
538.634	1.58609
542.009	1.02713
545.384	1.36701
548.758	0.855293
552.133	0.777489
555.508	0.628258
558.883	0.899757
562.258	0.293777
565.632	0.203747
569.007	0.131546
572.382	0.610832
575.757	0.202759
579.132	0.52282
582.506	0.407154
585.881	0.482998
589.256	0.594452
592.631	0.658688
596.006	0.686653
599.381	1.02106
602.755	1.49137
606.13	1.87079
609.505	1.70477
612.88	2.26484
616.255	3.0228
619.63	3.21649
623.004	3.04461
626.379	2.95621
629.754	3.53554
633.129	3.66919
636.504	4.55916
639.878	4.60877
643.253	5.75779
646.628	5.80651
650.003	6.35437
653.378	6.94879
656.752	7.27878
660.127	8.58198
663.502	8.53636
666.877	9.7223
670.252	10.1213
673.626	9.60942
677.001	8.52544
680.376	9.48183
683.751	9.51947
687.126	9.7411
690.501	10.8196
693.875	11.2615
697.25	11.6158
700.625	10.7536
704	10.2261
707.375	8.77821
710.75	8.37535
714.124	7.12242
717.499	6.43202
720.874	5.20661
724.249	5.42368
727.624	4.13082
730.998	2.75813
734.373	1.7763
737.748	0.348785
741.123	2.05017
744.498	4.39445
747.872	5.04443
751.247	4.82961
754.622	4.71485
757.997	3.25246
761.372	1.67882
764.747	8.87779
768.121	19.8737
771.496	33.3989
774.871	45.999
778.246	51.0704
781.621	48.3278
784.995	43.9314
788.37	38.1713
791.745	36.3127
795.12	38.791
798.495	44.7166
801.87	53.4598
805.244	67.2929
808.619	90.0696
811.994	127.684
815.369	198.692
818.744	334.396
822.119	569.656
825.493	940.819
828.868	1469.64
832.243	2066.31
835.618	2423.93
838.993	2209.7
842.367	1571.89
845.742	955.088
849.117	553.872
852.492	333.417
855.867	210.763
859.241	145.448
862.616	107.599
865.991	92.3245
869.366	88.5088
872.741	94.2848
876.115	112.418
879.49	144.96
882.865	184.188
886.24	220.023
889.615	198.216
892.99	115.133
896.364	56.182
899.739	34.8327
903.114	27.2574
906.489	19.9158
909.864	10.0104
913.239	3.74206
916.613	0.593475
919.988	4.24863
923.363	4.06283
926.738	4.84985
930.113	3.87794
933.487	3.70528
936.862	1.42095
940.237	0.490639
943.612	1.38976
946.987	4.89895
950.361	7.34269
953.736	9.55333
957.111	10.7633
960.486	9.97195
963.861	9.78101
967.236	10.0265
970.61	9.57131
973.985	10.9689
977.36	12.0594
980.735	11.6492
984.11	11.423
987.485	11.6709
990.859	10.8078
994.234	9.71403
997.609	10.2636
1000.98	10.062
1004.36	10.3513
1007.73	10.2487
1011.11	10.2842
1014.48	9.46886
1017.86	9.50666
1021.23	8.66277
1024.61	8.08794
1027.98	6.55396
1031.36	6.62373
1034.73	5.24187
1038.11	4.66295
1041.48	4.61366
1044.86	4.2658
1048.23	3.91507
1051.61	3.60959
1054.98	3.0707
1058.36	2.51726
1061.73	5.15053
1065.11	2.46136
1068.48	2.72297
1071.86	2.53818
1075.23	2.08624
1078.6	1.71213
1081.98	1.16762
1085.35	0.992203
1088.73	0.90361
1092.1	1.01815
1095.48	0.408386
1098.85	0.230213
1102.23	0.520699
1105.6	0.201885
1108.98	0.20866
1112.35	0.068481
1115.73	0.494339
1119.1	0.453835
1122.48	0.236805
1125.85	0.174652
1129.23	0.513653
1132.6	0.060352
1135.98	0.255692
1139.35	0.355988
1142.73	0.913464
1146.1	0.442059
1149.48	0.705276
1152.85	1.37912
1156.22	1.10619
1159.6	2.06781
1162.97	2.37683
1166.35	2.73355
1169.72	3.45091
1173.1	3.58403
1176.47	4.16756
1179.85	5.70265
1183.22	5.84276
1186.6	6.15981
1189.97	6.71973
1193.35	7.30332
1196.72	7.2081
1200.1	6.4607
1203.47	5.58014
1206.85	5.55703
1210.22	4.63073
1213.6	3.53451
1216.97	3.37274
1220.35	2.5826
1223.72	2.53788
1227.1	2.8394
1230.47	3.04835
1233.85	2.68356
1237.22	2.76292
1240.6	3.01809
1243.97	3.22473
1247.35	2.85415
1250.72	1.86322
1254.1	1.56084
1257.47	0.594822
1260.85	0.662281
1264.22	0.418816
1267.59	0.16526
1270.97	0.090729
1274.34	0.036755
1277.72	0.748123
1281.09	0.488369
1284.47	0.648369
1287.84	0.840973
1291.22	0.114544
1294.59	0.504398
1297.97	0.040985
1301.34	0.007568
