Measurement: Raman, 780 nm, unoriented, Raman Data Processed
Mineral: Georgechaoite
Rruff sample: R100082
Ideal chemistry: KNaZrSi_3_O_9_2H_2_O
Locality: Pocos de Caldas, Minas Gerais, Brazil
Source: Luiz Menezes
Description: Blocky yellowish-orange crystals associated with colorless analcime
Raman shift (cm-1)	intensity
112.264	0
115.639	0.901398
119.014	0.50029
122.389	4.12398
125.763	3.57216
129.138	6.27925
132.513	3.8009
135.888	2.56238
139.263	1.98868
142.638	0.482681
146.012	1.30518
149.387	6.22653
152.762	12.2334
156.137	16.668
159.512	21.1445
162.887	27.1019
166.261	31.8632
169.636	31.7981
173.011	23.4277
176.386	15.7114
179.761	7.92957
183.135	2.46864
186.51	0.86235
189.885	1.53538
193.26	0.930344
196.635	0.339432
200.01	1.28905
203.384	0.355911
206.759	1.88179
210.134	1.04651
213.509	0.885651
216.884	0.909409
220.258	3.77535
223.633	9.24686
227.008	8.72586
230.383	14.6017
233.758	15.0102
237.132	19.6544
240.507	21.0313
243.882	23.1271
247.257	20.998
250.632	21.9899
254.006	17.6261
257.381	19.8038
260.756	22.0561
264.131	21.6023
267.506	23.6885
270.881	29.865
274.255	34.585
277.63	37.4462
281.005	40.3586
284.38	40.8027
287.755	38.6237
291.13	37.2721
294.504	30.8849
297.879	25.5986
301.254	21.8203
304.629	18.1909
308.004	19.2031
311.378	22.9942
314.753	26.4
318.128	25.9897
321.503	24.4004
324.878	28.0482
328.252	34.3406
331.627	36.1245
335.002	39.2652
338.377	32.054
341.752	23.4995
345.127	16.4296
348.501	11.6056
351.876	12.6105
355.251	13.0136
358.626	12.3709
362.001	13.4008
365.375	13.1287
368.75	9.15981
372.125	7.0056
375.5	3.90202
378.875	1.63069
382.25	0.107971
385.624	2.41451
388.999	2.51906
392.374	3.13965
395.749	0.366669
399.124	1.69554
402.498	1.65175
405.873	4.74406
409.248	5.38741
412.623	4.93736
415.998	4.10838
419.373	1.7198
422.747	2.40042
426.122	4.70728
429.497	6.78978
432.872	7.79675
436.247	11.1715
439.622	13.1726
442.996	16.8116
446.371	15.9706
449.746	16.4145
453.121	22.8488
456.496	16.8615
459.87	14.3135
463.245	11.4583
466.62	8.60315
469.995	11.4986
473.37	15.2942
476.745	20.6931
480.119	19.9797
483.494	14.4693
486.869	8.39899
490.244	8.44676
493.619	7.13026
496.993	12.1237
500.368	22.4672
503.743	38.4669
507.118	59.2096
510.493	87.8438
513.867	126.752
517.242	174.688
520.617	207.81
523.992	172.775
527.367	104.944
530.741	57.8782
534.116	31.9786
537.491	20.623
540.866	13.4655
544.241	8.57384
547.616	5.28293
550.99	1.75209
554.365	2.24965
557.74	0.346695
561.115	0.275131
564.49	0.683838
567.865	0.318909
571.239	2.13908
574.614	0.336411
577.989	2.53233
581.364	1.66954
584.739	1.01401
588.114	0.694565
591.488	0.846085
594.863	1.00446
598.238	1.08089
601.613	0.265488
604.987	0.317169
608.362	0.396179
611.737	3.07861
615.112	1.55606
618.487	1.09509
621.862	1.19224
625.236	2.23319
628.611	3.31081
631.986	2.47169
635.361	4.21635
638.736	4.27327
642.111	3.69035
645.485	6.15959
648.86	5.08545
652.235	7.28281
655.61	6.95709
658.985	7.28375
662.359	11.1828
665.734	14.2138
669.109	16.9168
672.484	18.5805
675.859	22.9365
679.234	23.9024
682.608	23.1142
685.983	21.0296
689.358	18.2327
692.733	12.2405
696.108	8.73802
699.482	7.04358
702.857	4.83258
706.232	4.93921
709.607	6.46584
712.982	7.4857
716.356	8.50827
719.731	9.99141
723.106	8.64711
726.481	8.05917
729.856	7.53983
733.231	7.29771
736.605	9.12195
739.98	9.88786
743.355	9.28766
746.73	7.77504
750.105	4.46069
753.48	4.18391
756.854	2.52136
760.229	1.23113
763.604	1.29707
766.979	2.67017
770.354	1.86612
773.728	0.784225
777.103	1.94159
780.478	0.672287
783.853	0.85968
787.228	0.448669
790.602	0.022919
793.977	0.358276
797.352	4.75322
800.727	0.371414
804.102	0.418823
807.477	2.30008
810.851	3.21402
814.226	2.58533
817.601	2.76144
820.976	1.89809
824.351	2.9559
827.726	1.17021
831.1	1.8558
834.475	1.80971
837.85	1.48303
841.225	1.31778
844.6	0.476303
847.974	1.97728
851.349	1.25263
854.724	2.5753
858.099	0.293304
861.474	1.79192
864.848	0.194397
868.223	0.958237
871.598	1.53143
874.973	0.026123
878.348	0.374069
881.722	1.3224
885.097	2.30322
888.472	3.55692
891.847	6.26965
895.222	9.4673
898.597	13.9618
901.971	21.2172
905.346	27.7987
908.721	40.2884
912.096	55.7781
915.471	72.0676
918.846	87.9929
922.22	100.069
925.595	98.5004
928.97	90.7988
932.345	77.6395
935.72	64.1908
939.094	50.7912
942.469	40.5122
945.844	29.1593
949.219	23.906
952.594	18.1825
955.968	11.3413
959.343	11.1526
962.718	8.91405
966.093	8.48239
969.468	10.9056
972.843	10.8933
976.217	9.35556
979.592	9.98462
982.967	8.55922
986.342	6.58447
989.717	4.58189
993.091	1.10646
996.466	0.533386
999.841	0.180054
1003.22	0.594986
1006.59	0.953308
1009.97	0.998642
1013.34	1.38707
1016.72	6.06454
1020.09	7.69286
1023.47	8.54994
1026.84	16.3762
1030.21	18.7783
1033.59	22.1121
1036.96	28.9912
1040.34	28.7762
1043.71	26.9
1047.09	24.3986
1050.46	21.9703
1053.84	18.6614
1057.21	14.9495
1060.59	8.16661
1063.96	9.52657
1067.34	7.46439
1070.71	7.60025
1074.09	8.46924
1077.46	12.321
1080.84	20.484
1084.21	30.9779
1087.59	46.6387
1090.96	71.7701
1094.34	70.3347
1097.71	32.6738
1101.09	10.1867
1104.46	5.70831
1107.84	3.0721
1111.21	2.53558
1114.59	0.770325
1117.96	0.377487
1121.34	1.94008
1124.71	1.04109
1128.08	1.94376
1131.46	0.685028
1134.83	0.352173
1138.21	1.64774
1141.58	2.13553
1144.96	0.445206
1148.33	3.43993
1151.71	2.99913
1155.08	1.93797
1158.46	0.069122
1161.83	0.435272
1165.21	0.744232
1168.58	1.61339
1171.96	3.0916
1175.33	2.4427
1178.71	3.57863
1182.08	3.26291
1185.46	2.83403
1188.83	5.22827
1192.21	4.71486
1195.58	4.12643
1198.95	2.67776
1202.33	2.75449
1205.7	2.44067
1209.08	2.72632
1212.45	3.70087
1215.83	2.66893
1219.2	1.57263
1222.58	2.15814
1225.95	1.48701
1229.33	1.17409
1232.7	0.457474
1236.08	1.09422
1239.45	0.951401
1242.83	0.168823
1246.2	2.63747
1249.58	1.76833
1252.95	1.94705
1256.33	2.66054
1259.7	2.66974
1263.08	6.10084
1266.45	0.033493
1269.83	1.63097
1273.2	2.30914
1276.58	1.93585
1279.95	1.93526
1283.33	3.32301
