Measurement: Raman, 532 nm, unoriented, Raman Data Processed
Mineral: Georgechaoite
Rruff sample: R100082
Ideal chemistry: KNaZrSi_3_O_9_2H_2_O
Locality: Pocos de Caldas, Minas Gerais, Brazil
Source: Luiz Menezes
Description: Blocky yellowish-orange crystals associated with colorless analcime
Raman shift (cm-1)	intensity
174.381	0
177.273	6.10449
180.166	0.100708
183.059	0.659424
185.951	10.9919
188.844	9.64246
191.737	9.7677
194.629	7.58167
197.522	5.1654
200.415	9.28967
203.308	11.7041
206.2	2.82031
209.093	6.11841
211.986	4.87439
214.878	2.83203
217.771	4.40503
220.664	9.45288
223.556	12.8203
226.449	8.64514
229.342	15.9078
232.234	20.5472
235.127	22.2686
238.02	15.5013
240.913	19.6412
243.805	18.9664
246.698	20.0587
249.591	13.2881
252.483	14.6586
255.376	9.13684
258.269	6.90881
261.161	10.395
264.054	5.63123
266.947	4.04907
269.84	6.052
272.732	4.48291
275.625	2.04871
278.518	0.526001
281.41	3.70679
284.303	2.17029
287.196	5.20373
290.089	11.7034
292.981	17.5443
295.874	16.1741
298.767	22.6356
301.659	22.3291
304.552	27.4139
307.445	30.8546
310.337	33.8635
313.23	37.448
316.123	39.079
319.015	43.266
321.908	46.5194
324.801	48.8138
327.694	56.3558
330.586	64.805
333.479	62.4197
336.372	57.699
339.264	56.9037
342.157	46.073
345.05	37.854
347.942	29.8323
350.835	24.187
353.728	24.5978
356.621	26.1708
359.513	27.9773
362.406	24.9921
365.299	17.3373
368.191	16.5464
371.084	7.04932
373.977	3.52649
376.87	4.19739
379.762	2.55164
382.655	0.886719
385.548	3.02502
388.44	2.03088
391.333	0.711548
394.226	2.74329
397.118	2.75989
400.011	0.357422
402.904	5.97632
405.796	8.29688
408.689	4.60632
411.582	7.9491
414.475	6.47388
417.367	3.30469
420.26	0.361694
423.153	0.728638
426.045	1.45227
428.938	3.40295
431.831	6.22717
434.724	6.65967
437.616	14.3345
440.509	13.9512
443.402	14.7959
446.294	8.79797
449.187	13.0339
452.08	15.8247
454.972	15.7398
457.865	16.6288
460.758	11.4163
463.651	12.7163
466.543	15.134
469.436	18.528
472.329	21.4519
475.221	24.6743
478.114	29.7147
481.007	29.7019
483.899	22.1538
486.792	15.2087
489.685	11.1708
492.577	7.10803
495.47	13.152
498.363	23.1425
501.256	38.1254
504.148	58.6775
507.041	95.4493
509.934	139.112
512.826	186.099
515.719	251.384
518.612	315.208
521.505	347.38
524.397	284.277
527.29	185.673
530.183	105.554
533.075	70.3667
535.968	40.464
538.861	27.3805
541.753	17.6124
544.646	7.25623
547.539	4.89197
550.432	2.51111
553.324	3.77832
556.217	0.188843
559.11	0.953613
562.002	0.237549
564.895	6.27808
567.788	10.6124
570.68	9.44055
573.573	7.23169
576.466	4.2489
579.359	7.39356
582.251	3.62451
585.144	6.33484
588.037	9.64551
590.929	4.88354
593.822	2.6333
596.715	3.16089
599.607	1.90772
602.5	1.65466
605.393	1.29663
608.285	1.88147
611.178	1.83875
614.071	2.52844
616.964	2.76196
619.856	1.50403
622.749	0.203979
625.642	2.18225
628.534	1.14917
631.427	0.434692
634.32	5.26685
637.212	7.66455
640.105	4.57959
642.998	3.5332
645.891	6.27295
648.783	10.7833
651.676	4.03088
654.569	13.8386
657.461	18.2853
660.354	15.4363
663.247	17.6411
666.139	23.2821
669.032	21.1511
671.925	28.8294
674.818	34.3846
677.71	37.0267
680.603	38.8922
683.496	40.0864
686.388	30.0408
689.281	22.4182
692.174	19.2048
695.067	16.8552
697.959	11.8202
700.852	10.1548
703.745	4.73865
706.637	5.6637
709.53	7.06067
712.423	7.06897
715.315	10.8806
718.208	4.6062
721.101	7.12512
723.994	4.43628
726.886	14.6965
729.779	12.805
732.672	22.5758
735.564	18.9204
738.457	15.6156
741.35	19.8557
744.242	20.2567
747.135	19.8353
750.028	13.9072
752.92	11.2327
755.813	5.49463
758.706	2.48755
761.599	3.44251
764.491	9.15979
767.384	0.998413
770.277	4.07092
773.169	1.14819
776.062	1.29138
778.955	0.69104
781.847	2.46472
784.74	2.96252
787.633	1.63403
790.526	0.922119
793.418	5.92407
796.311	0.362061
799.204	3.07617
802.096	6.22131
804.989	3.30554
807.882	0.726196
810.774	5.22473
813.667	6.12415
816.56	1.79846
819.453	9.49121
822.345	7.72021
825.238	5.05212
828.131	4.27466
831.023	2.72876
833.916	3.98767
836.809	8.45496
839.702	0.474487
842.594	3.74438
845.487	2.73718
848.38	2.48132
851.272	3.63049
854.165	4.03552
857.058	2.26868
859.95	5.45435
862.843	5.73303
865.736	0.665283
868.629	0.515747
871.521	0.654541
874.414	3.07385
877.307	3.41699
880.199	2.23975
883.092	4.87402
885.985	2.78894
888.877	6.55212
891.77	11.7666
894.663	16.4979
897.556	23.5138
900.448	38.9868
903.341	45.5338
906.234	66.0658
909.126	96.0922
912.019	126.294
914.912	160.074
917.804	197.717
920.697	235.014
923.59	237.79
926.482	218.352
929.375	179.344
932.268	142.517
935.161	112.29
938.053	89.3186
940.946	71.6724
943.839	63.1382
946.731	48.6726
949.624	44.3954
952.517	34.7363
955.409	30.1761
958.302	21.5083
961.195	23.7168
964.088	17.8577
966.98	19.6805
969.873	11.7688
972.766	17.9988
975.658	20.8793
978.551	21.2695
981.444	17.493
984.337	18.2568
987.229	14.3601
990.122	11.0945
993.015	1.67554
995.907	1.87415
998.8	1.61621
1001.69	1.27917
1004.59	0.062378
1007.48	0.315186
1010.37	3.47888
1013.26	10.4734
1016.16	8.20691
1019.05	17.7244
1021.94	21.4781
1024.83	25.7761
1027.73	32.9651
1030.62	49.3522
1033.51	51.0814
1036.4	59.7506
1039.3	57.2899
1042.19	49.5251
1045.08	45.434
1047.98	33.8224
1050.87	35.1812
1053.76	31.41
1056.65	28.3538
1059.55	18.0312
1062.44	13.8054
1065.33	9.53357
1068.22	5.74329
1071.12	5.99841
1074.01	5.0686
1076.9	9.39331
1079.8	11.5044
1082.69	11.9568
1085.58	9.8031
1088.47	13.4778
1091.37	9.65063
1094.26	13.8191
1097.15	8.66046
1100.04	1.12036
1102.94	5.09314
1105.83	6.16254
1108.72	6.61768
1111.62	1.48761
1114.51	3.30664
1117.4	4.55438
1120.29	0.535828
1123.19	4.15277
1126.08	2.10706
1128.97	2.93732
1131.86	1.01093
1134.76	4.78198
1137.65	1.19373
1140.54	5.19873
1143.43	0.247559
1146.33	5.04803
1149.22	6.23968
1152.11	1.45196
1155.01	5.01654
1157.9	8.53607
1160.79	8.1358
1163.68	4.01269
1166.58	0.842773
1169.47	6.75922
1172.36	4.00391
1175.26	5.18927
1178.15	1.42004
1181.04	0.151855
1183.93	6.33704
1186.83	4.48468
1189.72	3.92682
1192.61	6.3241
1195.5	3.22522
1198.4	3.88995
1201.29	6.47656
1204.18	4.09625
1207.07	4.54138
1209.97	6.84045
1212.86	11.0513
1215.75	6.70349
1218.64	4.4942
1221.54	4.27765
1224.43	8.37476
1227.32	2.72913
1230.22	7.98431
1233.11	3.90387
1236	5.56879
1238.89	0.343445
1241.79	5.63397
1244.68	0.898315
1247.57	4.57599
1250.46	7.26343
1253.36	7.34332
1256.25	4.25561
1259.14	8.79834
1262.04	5.39288
1264.93	3.17059
1267.82	3.50879
1270.71	8.29602
1273.61	3.99072
1276.5	6.43543
1279.39	4.54248
1282.29	4.586
1285.18	3.17548
1288.07	3.27417
1290.96	0.770081
1293.86	3.23224
1296.75	2.82904
1299.64	8.37592
1302.53	1.00464
