Measurement: Raman, 532 nm, unoriented, Raman Data Processed
Mineral: Gerdtremmelite
Rruff sample: R100224
Ideal chemistry: Zn^2+^Al_2_AsO_4_(OH)_5_
Locality: Tsumeb, Namibia
Source: William Pinch
Description: Spherical aggregrates of tabular brown crystals with white pyrophyllite on scorodite. This is a portion of the type sample.
Raman shift (cm-1)	intensity
178.78	0
181.673	1.3891
184.566	7.52461
187.459	3.2874
190.351	10.2772
193.244	12.656
196.137	16.6603
199.029	13.7001
201.922	14.942
204.815	17.9775
207.708	11.7541
210.6	13.4482
213.493	11.8059
216.386	15.5742
219.278	17.3866
222.171	19.0624
225.064	14.5219
227.956	19.3673
230.849	19.2914
233.742	19.6014
236.635	22.0079
239.527	18.7748
242.42	15.9431
245.313	12.803
248.205	4.22348
251.098	5.34872
253.991	7.86893
256.884	4.67998
259.776	6.10129
262.669	4.32195
265.562	0.254105
268.454	1.41023
271.347	1.24669
274.24	2.81578
277.132	0.604134
280.025	1.26846
282.918	2.61509
285.81	1.66864
288.703	2.58593
291.596	4.40282
294.489	1.04646
297.381	5.59337
300.274	7.4665
303.167	11.7863
306.059	9.1117
308.952	12.2682
311.845	13.8731
314.738	15.1288
317.63	19.4919
320.523	23.0125
323.416	27.8595
326.308	28.0151
329.201	28.9475
332.094	25.9944
334.986	28.0485
337.879	22.311
340.772	26.7457
343.665	23.5116
346.557	23.6356
349.45	16.3662
352.343	17.3898
355.235	19.2621
358.128	13.3033
361.021	13.0367
363.913	14.1187
366.806	8.2457
369.699	5.85244
372.592	2.99047
375.484	4.2848
378.377	4.30853
381.27	1.99427
384.162	0.472324
387.055	0.006363
389.948	2.59982
392.841	3.66667
395.733	2.74399
398.626	0.26543
401.519	1.1082
404.411	3.19274
407.304	1.59201
410.197	6.98837
413.089	12.014
415.982	13.2386
418.875	11.3098
421.767	14.8588
424.66	14.973
427.553	17.9057
430.446	21.1709
433.338	14.9282
436.231	15.6802
439.124	16.2426
442.017	16.7075
444.909	14.4485
447.802	12.9524
450.695	10.9308
453.587	13.2174
456.48	12.0235
459.373	16.5074
462.265	15.4109
465.158	13.1104
468.051	14.952
470.943	24.419
473.836	21.9956
476.729	24.1224
479.622	25.3215
482.514	27.9664
485.407	27.0152
488.3	32.1579
491.192	32.1657
494.085	31.5023
496.978	34.8537
499.87	33.7422
502.763	33.9805
505.656	33.1305
508.549	32.4973
511.441	34.5057
514.334	30.0561
517.227	24.4804
520.119	23.5114
523.012	18.0125
525.905	15.3491
528.798	11.6329
531.69	10.9743
534.583	3.26646
537.476	2.00053
540.368	2.97465
543.261	0.225529
546.154	1.76537
549.047	1.85498
551.939	0.036171
554.832	0.30069
557.725	0.729298
560.617	1.35305
563.51	5.91638
566.403	5.2114
569.295	3.35304
572.188	6.92611
575.081	9.60732
577.973	5.94877
580.866	9.48676
583.759	14.255
586.652	10.3513
589.544	10.8825
592.437	11.287
595.33	9.59485
598.222	7.53379
601.115	9.79047
604.008	6.60407
606.901	8.31932
609.793	5.88895
612.686	3.52035
615.579	4.8506
618.471	7.33564
621.364	5.91944
624.257	8.44972
627.149	3.01393
630.042	3.00725
632.935	2.29729
635.828	1.75984
638.72	2.95825
641.613	0.367489
644.506	0.020918
647.398	2.41195
650.291	0.770094
653.184	3.30073
656.077	1.33691
658.969	0.144434
661.862	0.741739
664.755	4.1078
667.647	2.47045
670.54	4.19766
673.433	5.30751
676.325	5.73881
679.218	3.56121
682.111	6.94433
685.004	7.73345
687.896	9.25264
690.789	7.8516
693.682	7.54227
696.574	6.5317
699.467	7.50988
702.36	7.22055
705.253	6.73417
708.145	6.57736
711.038	8.90017
713.931	6.14717
716.823	4.31002
719.716	3.94763
722.609	7.39341
725.501	3.09452
728.394	3.83352
731.287	0.716064
734.179	0.739161
737.072	1.29254
739.965	1.24827
742.858	1.6635
745.75	2.29717
748.643	0.417574
751.536	1.78301
754.428	0.550358
757.321	1.00791
760.214	1.27833
763.107	0.999256
765.999	1.07244
768.892	2.57654
771.785	3.47823
774.677	4.55975
777.57	6.96305
780.463	6.70563
783.356	8.02263
786.248	12.7645
789.141	14.1642
792.034	17.0498
794.926	21.8427
797.819	22.2199
800.712	20.0247
803.604	20.743
806.497	19.9629
809.39	18.642
812.283	17.1944
815.175	16.4812
818.068	13.8141
820.961	14.5462
823.853	11.6098
826.746	10.5187
829.639	11.8646
832.531	14.9939
835.424	18.8784
838.317	18.8551
841.21	28.6107
844.102	35.1853
846.995	42.0498
849.888	54.3665
852.78	70.8914
855.673	90.6965
858.566	113.744
861.458	134.741
864.351	154.202
867.244	173.204
870.136	175.32
873.029	161.986
875.922	141.476
878.815	118.968
881.707	99.1811
884.6	75.7147
887.493	60.7542
890.385	47.3715
893.278	27.1076
896.171	28.4678
899.064	19.0592
901.956	15.1557
904.849	9.06621
907.742	6.87677
910.634	4.11455
913.527	0.530338
916.42	2.22097
919.312	1.15929
922.205	1.31804
925.098	1.8931
927.991	4.36505
930.883	0.189293
933.776	1.46221
936.669	2.67213
939.562	1.23614
942.454	1.61496
945.347	0.852077
948.24	1.38553
951.132	1.3445
954.025	2.8353
956.918	2.3064
959.81	2.18694
962.703	0.093904
965.596	3.01746
968.489	3.84125
971.381	1.6334
974.274	0.117359
977.167	3.77466
980.059	5.97168
982.952	4.35485
985.845	0.920437
988.737	6.26902
991.63	4.07964
994.523	1.83626
997.415	2.98217
1000.31	5.33173
1003.2	3.20872
1006.09	5.69395
1008.99	4.2773
1011.88	2.36344
1014.77	1.00983
1017.66	5.62349
1020.56	1.06486
1023.45	6.468
1026.34	4.42047
1029.23	4.01378
1032.13	6.09943
1035.02	8.52589
1037.91	4.72404
1040.81	6.03859
1043.7	2.33453
1046.59	5.7265
1049.48	2.89345
1052.38	3.78956
1055.27	3.14885
1058.16	3.29435
1061.06	2.41165
1063.95	4.40038
1066.84	4.38808
1069.73	2.64793
1072.63	1.62695
1075.52	1.92366
1078.41	1.96659
1081.3	4.4229
1084.2	2.87915
1087.09	1.92436
1089.98	2.55836
1092.88	1.33701
1095.77	2.32728
1098.66	4.86517
1101.55	1.67287
1104.45	1.21884
1107.34	5.76194
1110.23	3.0417
1113.12	1.66726
1116.02	3.04705
1118.91	4.92947
1121.8	3.02141
1124.69	2.82691
1127.59	4.15147
1130.48	3.29104
1133.37	1.2128
1136.27	1.79052
1139.16	0.629172
1142.05	1.80173
1144.94	2.65966
1147.84	1.00493
1150.73	3.12083
1153.62	2.45078
1156.51	0.146215
1159.41	1.84121
1162.3	-0.00707813
1165.19	1.12883
1168.09	1.12116
1170.98	1.95602
1173.87	3.89544
1176.76	3.97252
1179.66	5.22341
1182.55	3.92017
1185.44	0.393062
1188.33	3.24763
1191.23	4.99191
1194.12	0.818727
1197.01	3.14561
1199.9	0.976645
1202.8	0.323616
1205.69	2.67387
1208.58	3.79399
1211.48	3.42322
1214.37	2.57646
1217.26	4.84442
1220.15	1.11536
1223.05	4.81131
1225.94	3.53953
1228.83	6.22157
1231.72	2.40889
1234.62	3.48489
1237.51	7.34803
1240.4	1.20031
1243.3	5.42112
1246.19	3.29777
1249.08	1.09259
1251.97	4.63844
1254.87	5.29216
1257.76	5.36904
1260.65	7.14792
1263.54	4.42116
1266.44	1.62969
1269.33	5.10172
1272.22	4.10484
1275.12	4.78598
1278.01	2.02837
1280.9	8.2013
1283.79	1.86457
1286.69	3.2574
1289.58	5.98397
1292.47	4.84623
1295.36	3.37419
1298.26	6.91416
1301.15	3.54327
