Measurement: Raman, 780 nm, unoriented, Raman Data Processed
Mineral: Gerhardtite
Rruff sample: R120082
Ideal chemistry: Cu^2+^_2_N^5+^O_3_(OH)_3_
Locality: Tonapah-Belmont mine, Marizopa County, Arizona, USA
Source: Joe Ruiz
Description: Light blue crystalline associated with green malachite
Raman shift (cm-1)	intensity
92.5678	0
95.9426	33.0854
99.3174	19.6434
102.692	11.7174
106.067	16.4381
109.442	14.6205
112.817	5.10883
116.192	2.5881
119.566	1.68262
122.941	1.10452
126.316	6.23688
129.691	16.9355
133.066	31.8233
136.44	57.0031
139.815	89.1437
143.19	122.526
146.565	151.27
149.94	167.99
153.315	171.376
156.689	165.227
160.064	158.982
163.439	153.29
166.814	150.091
170.189	144.768
173.563	134.868
176.938	119.589
180.313	103.444
183.688	81.0756
187.063	60.4757
190.437	42.6734
193.812	29.4038
197.187	17.0008
200.562	9.56124
203.937	4.9883
207.311	1.58958
210.686	0.514648
214.061	0.21183
217.436	1.69897
220.811	0.931519
224.186	0.128326
227.56	0.78051
230.935	0.700737
234.31	2.80684
237.685	2.87006
241.06	4.04638
244.435	5.23723
247.809	4.72576
251.184	5.35299
254.559	6.85743
257.934	8.3372
261.309	7.71479
264.683	10.2351
268.058	8.8683
271.433	8.28976
274.808	8.55788
278.183	8.50396
281.558	7.06229
284.932	7.95127
288.307	6.89535
291.682	5.74706
295.057	5.1841
298.432	4.64595
301.806	3.76485
305.181	1.53632
308.556	1.6154
311.931	0.450424
315.306	0.254509
318.68	1.44151
322.055	2.47492
325.43	2.96478
328.805	5.05661
332.18	5.61163
335.555	7.63109
338.929	8.19413
342.304	12.3831
345.679	15.3472
349.054	19.4838
352.429	26.0123
355.803	27.9486
359.178	32.3471
362.553	27.1114
365.928	22.8062
369.303	16.3837
372.678	10.1283
376.052	5.93232
379.427	2.02385
382.802	0.503124
386.177	0.704273
389.552	1.23748
392.926	1.11176
396.301	0.082073
399.676	1.97156
403.051	5.61089
406.426	15.3858
409.8	24.9118
413.175	27.0989
416.55	19.7061
419.925	12.419
423.3	7.79079
426.675	3.81426
430.049	2.02032
433.424	0.252953
436.799	0.521748
440.174	1.52296
443.549	0.193945
446.923	0.726215
450.298	1.50941
453.673	0.632147
457.048	1.29627
460.423	0.544518
463.798	0.081457
467.172	0.648787
470.547	0.180208
473.922	0.305761
477.297	1.53076
480.672	0.771734
484.046	0.827444
487.421	1.54161
490.796	0.537642
494.171	0.830465
497.546	2.61898
500.921	2.33856
504.295	2.65824
507.67	5.36427
511.045	3.87326
514.42	6.08562
517.795	6.05762
521.169	7.52956
524.544	6.68719
527.919	5.59945
531.294	4.34432
534.669	3.47045
538.044	1.52123
541.418	1.65539
544.793	1.35434
548.168	0.435553
551.543	3.02347
554.918	1.77163
558.293	1.02758
561.667	1.35602
565.042	2.31249
568.417	0.636957
571.792	4.0098
575.167	4.83244
578.541	4.76056
581.916	5.79009
585.291	2.09532
588.666	2.90887
592.041	2.69136
595.415	1.12003
598.79	1.22224
602.165	1.07785
605.54	0.301968
608.915	1.13815
612.29	1.65199
615.664	0.086136
619.039	0.524656
622.414	0.979153
625.789	0.575073
629.164	1.11397
632.538	0.537724
635.913	0.651133
639.288	1.36719
642.663	0.07699
646.038	1.28453
649.413	0.131401
652.787	0.777306
656.162	0.053694
659.537	0.300432
662.912	1.51003
666.287	0.817097
669.661	0.771313
673.036	0.803579
676.411	1.5838
679.786	2.05563
683.161	1.80469
686.535	1.4489
689.91	5.98218
693.285	11.1151
696.66	7.49325
700.035	6.26465
703.41	5.65032
706.784	6.53238
710.159	13.1009
713.534	17.8967
716.909	15.8291
720.284	7.60018
723.659	4.18428
727.033	2.81917
730.408	2.18023
733.783	1.79432
737.158	1.56392
740.533	1.80868
743.907	2.38314
747.282	1.23771
750.657	2.92193
754.032	0.653788
757.407	0.550549
760.782	1.42934
764.156	2.23313
767.531	0.090355
770.906	1.83736
774.281	1.36991
777.656	0.886543
781.03	0.94507
784.405	0.29158
787.78	0.582798
791.155	1.33123
794.53	0.460869
797.904	0.20587
801.279	2.62644
804.654	0.329737
808.029	0.549623
811.404	1.26748
814.779	2.84752
818.153	1.79917
821.528	2.24642
824.903	1.58884
828.278	0.579245
831.653	1.57471
835.028	1.40154
838.402	2.90715
841.777	2.78403
845.152	2.03853
848.527	3.26406
851.902	1.96027
855.276	2.16799
858.651	1.69823
862.026	0.291063
865.401	1.10459
868.776	2.39367
872.15	2.28257
875.525	2.02888
878.9	3.08531
882.275	2.79213
885.65	2.0808
889.024	0.649467
892.399	0.825329
895.774	1.37647
899.149	0.309809
902.524	0.262621
905.899	0.990301
909.273	1.01084
912.648	1.12977
916.023	1.41149
919.398	0.744484
922.773	2.86852
926.148	2.55828
929.522	4.24423
932.897	4.2328
936.272	4.84076
939.647	6.25567
943.022	4.84849
946.396	5.28435
949.771	6.26828
953.146	5.79454
956.521	6.12755
959.896	8.8322
963.27	10.0284
966.645	10.1647
970.02	9.27772
973.395	8.08025
976.77	5.43203
980.145	2.58218
983.519	1.08518
986.894	1.15183
990.269	1.18327
993.644	0.177523
997.019	0.287296
1000.39	0.389048
1003.77	1.0557
1007.14	4.03684
1010.52	4.60481
1013.89	6.87264
1017.27	13.4693
1020.64	23.1352
1024.02	40.9518
1027.39	69.2383
1030.77	130.737
1034.14	230.793
1037.52	337.697
1040.89	324.748
1044.27	172.053
1047.64	70.4499
1051.02	28.968
1054.39	14.9175
1057.77	8.14444
1061.14	4.64005
1064.52	4.09728
1067.89	1.22314
1071.27	1.57417
1074.64	0.315666
1078.01	1.44126
1081.39	1.24604
1084.76	0.971197
1088.14	1.16997
1091.51	0.545876
1094.89	0.193079
1098.26	1.13283
1101.64	1.52757
1105.01	0.572603
1108.39	0.396585
1111.76	0.674671
1115.14	0.619265
1118.51	0.990477
1121.89	0.13834
1125.26	0.856153
1128.64	1.45057
1132.01	2.01352
1135.39	1.89405
1138.76	2.74976
1142.14	2.51746
1145.51	0.197588
1148.88	3.06077
1152.26	2.73319
1155.63	0.065338
1159.01	0.200073
1162.38	1.48439
1165.76	2.27135
1169.13	2.87016
1172.51	1.74781
1175.88	1.61278
1179.26	0.682255
1182.63	1.2366
1186.01	3.75711
1189.38	1.38082
1192.76	2.41289
1196.13	2.71481
1199.51	0.851477
1202.88	2.94547
1206.26	1.67493
1209.63	1.42061
1213.01	2.35812
1216.38	1.89976
1219.76	2.504
1223.13	1.81223
1226.51	1.37387
1229.88	2.48873
1233.26	0.249538
1236.63	0.499565
1240.01	1.56616
1243.38	1.18611
1246.76	0.672668
1250.13	2.51595
1253.51	2.95239
1256.88	3.83976
1260.25	2.59163
1263.63	0.3165
1267	2.34716
1270.38	2.81671
1273.75	2.99959
1277.13	1.84921
1280.5	0.333057
1283.88	0.014774
