Measurement: Raman, 532 nm, unoriented, Raman Data Processed
Mineral: Gerhardtite
Rruff sample: R120082
Ideal chemistry: Cu^2+^_2_N^5+^O_3_(OH)_3_
Locality: Tonapah-Belmont mine, Marizopa County, Arizona, USA
Source: Joe Ruiz
Description: Light blue crystalline associated with green malachite
Raman shift (cm-1)	intensity
161.363	0
164.256	1.24623
167.149	27.0703
170.041	71.4856
172.934	113.065
175.827	132.702
178.72	132.538
181.612	120.388
184.505	117.896
187.398	113.159
190.29	106.79
193.183	96.8779
196.076	83.2991
198.968	70.0802
201.861	60.4591
204.754	52.7652
207.647	50.1215
210.539	45.9313
213.432	43.6428
216.325	37.2814
219.217	32.3443
222.11	27.9802
225.003	23.9294
227.895	18.992
230.788	17.0797
233.681	15.2412
236.573	11.428
239.466	8.78495
242.359	5.68739
245.252	2.94824
248.144	2.45214
251.037	2.17335
253.93	1.16103
256.822	2.94645
259.715	2.62077
262.608	2.14341
265.5	1.59009
268.393	0.200256
271.286	1.60286
274.179	0.491386
277.071	0.648651
279.964	0.868683
282.857	1.13738
285.75	1.06164
288.642	0.801407
291.535	0.231003
294.428	0.243561
297.32	1.23238
300.213	1.81587
303.106	2.18391
305.998	0.238907
308.891	1.10481
311.784	1.88599
314.676	0.984818
317.569	0.016563
320.462	2.72504
323.355	4.42352
326.247	9.46648
329.14	11.9978
332.033	14.4878
334.925	17.2588
337.818	19.2586
340.711	23.6607
343.603	27.0601
346.496	34.2699
349.389	43.6888
352.281	53.8738
355.174	64.5268
358.067	73.7744
360.96	80.6088
363.852	79.7546
366.745	68.3261
369.638	51.3845
372.53	34.9376
375.423	23.6313
378.316	15.054
381.209	10.7931
384.101	7.45892
386.994	5.984
389.887	4.32753
392.779	4.7598
395.672	7.55305
398.565	11.7636
401.457	19.0507
404.35	31.5405
407.243	48.8642
410.135	66.8179
413.028	79.4652
415.921	61.3218
418.814	34.144
421.706	18.6126
424.599	10.8983
427.492	5.95867
430.384	3.39397
433.277	1.32075
436.17	1.16976
439.062	0.558395
441.955	0.788597
444.848	1.89905
447.741	3.49753
450.633	5.12063
453.526	5.89369
456.419	6.5802
459.311	6.97375
462.204	5.1919
465.097	3.03622
467.99	2.27461
470.882	1.54864
473.775	0.312981
476.668	0.095711
479.56	0.658401
482.453	1.15062
485.346	0.607231
488.238	1.3557
491.131	2.89302
494.024	3.96578
496.916	4.24824
499.809	4.52223
502.702	2.70812
505.595	1.69471
508.487	3.02192
511.38	3.90579
514.273	4.42472
517.165	4.12817
520.058	6.1944
522.951	7.32381
525.844	5.83424
528.736	4.72199
531.629	2.65145
534.522	1.22063
537.414	2.1254
540.307	1.06085
543.2	0.402176
546.092	0.346046
548.985	0.445946
551.878	1.25288
554.771	1.15662
557.663	0.969986
560.556	1.31374
563.449	1.86199
566.341	2.76731
569.234	3.0039
572.127	4.94086
575.019	6.25253
577.912	10.2616
580.805	10.9263
583.697	9.49016
586.59	4.40366
589.483	1.65668
592.376	1.22749
595.268	1.04412
598.161	0.935371
601.054	0.799744
603.946	0.125076
606.839	4.0873
609.732	1.23139
612.625	0.240921
615.517	1.29665
618.41	0.330055
621.303	1.02486
624.195	0.918129
627.088	0.062004
629.981	0.723801
632.873	0.154587
635.766	0.623878
638.659	0.601425
641.552	1.04386
644.444	1.42828
647.337	0.453239
650.23	0.484627
653.122	0.411057
656.015	0.913078
658.908	0.587837
661.8	0.210457
664.693	0.144783
667.586	0.370903
670.479	0.197449
673.371	0.160324
676.264	0.943413
679.157	0.495003
682.049	1.28737
684.942	2.13837
687.835	3.02108
690.727	6.00213
693.62	8.82911
696.513	10.7559
699.405	12.0464
702.298	14.0465
705.191	17.382
708.084	26.435
710.976	38.3749
713.869	50.9812
716.762	48.2302
719.654	25.4751
722.547	10.4895
725.44	4.92398
728.332	2.62853
731.225	1.5333
734.118	0.870148
737.011	0.031853
739.903	0.545685
742.796	0.114098
745.689	0.391167
748.581	0.691643
751.474	0.046776
754.367	1.031
757.26	1.17651
760.152	1.04548
763.045	0.063026
765.938	0.186234
768.83	0.171837
771.723	0.0065
774.616	0.11834
777.508	0.995903
780.401	0.250694
783.294	0.122803
786.187	0.617752
789.079	0.55825
791.972	0.897469
794.865	1.47717
797.757	0.285194
800.65	2.00191
803.543	2.13767
806.435	3.23928
809.328	3.85692
812.221	3.71389
815.114	5.15874
818.006	5.64261
820.899	5.47641
823.792	4.64616
826.684	4.13662
829.577	5.02914
832.47	5.58799
835.362	6.0437
838.255	6.07268
841.148	6.9262
844.04	7.81994
846.933	8.09916
849.826	7.17194
852.719	7.95648
855.611	7.49069
858.504	8.46591
861.397	9.06027
864.289	8.81303
867.182	8.32209
870.075	10.0725
872.967	11.8646
875.86	14.5937
878.753	16.4588
881.646	16.8333
884.538	16.7192
887.431	11.2121
890.324	9.17848
893.216	5.08729
896.109	4.1858
899.002	1.86637
901.894	1.67432
904.787	0.263992
907.68	0.682663
910.573	1.07216
913.465	0.068634
916.358	0.366013
919.251	0.482338
922.143	0.075397
925.036	1.59197
927.929	3.07444
930.822	2.95645
933.714	3.59736
936.607	4.18682
939.5	2.50828
942.392	2.51184
945.285	1.96387
948.178	2.02882
951.07	1.69217
953.963	1.698
956.856	2.27676
959.749	2.71227
962.641	4.78685
965.534	6.80702
968.427	6.16744
971.319	4.14393
974.212	2.56118
977.105	1.2488
979.997	1.42684
982.89	0.463444
985.783	0.670685
988.676	0.317989
991.568	0.469189
994.461	0.367142
997.354	0.642673
1000.25	1.43468
1003.14	0.490589
1006.03	2.10453
1008.92	3.75676
1011.82	4.95726
1014.71	6.66734
1017.6	10.8046
1020.5	17.7658
1023.39	26.9434
1026.28	44.0445
1029.17	90.5933
1032.07	192.923
1034.96	368.534
1037.85	671.381
1040.74	1088.36
1043.64	991.212
1046.53	467.794
1049.42	223.166
1052.32	74.983
1055.21	34.4531
1058.1	23.2283
1060.99	12.3564
1063.89	8.03827
1066.78	5.33711
1069.67	4.24306
1072.56	2.26711
1075.46	2.35435
1078.35	1.45584
1081.24	0.821083
1084.13	0.667988
1087.03	0.599785
1089.92	0.292282
1092.81	0.144203
1095.7	0.44585
1098.6	1.43874
1101.49	0.128349
1104.38	0.377327
1107.28	0.143337
1110.17	0.456501
1113.06	0.895535
1115.95	0.211884
1118.85	1.45272
1121.74	1.28027
1124.63	1.57525
1127.53	2.77997
1130.42	3.55979
1133.31	4.32927
1136.2	6.34654
1139.1	6.98585
1141.99	7.74931
1144.88	8.1479
1147.77	6.90165
1150.67	6.1342
1153.56	4.33778
1156.45	3.5665
1159.35	2.64867
1162.24	1.85336
1165.13	1.72512
1168.02	0.357723
1170.92	0.587017
1173.81	0.648846
1176.7	0.903797
1179.59	0.366238
1182.49	0.4025
1185.38	0.39756
1188.27	0.432297
1191.16	0.539841
1194.06	0.026817
1196.95	0.024055
1199.84	1.96648
1202.73	1.57674
1205.63	1.51626
1208.52	1.10227
1211.41	2.25733
1214.31	0.785755
1217.2	1.49185
1220.09	0.648891
1222.98	1.52802
1225.88	1.60762
1228.77	2.31631
1231.66	1.29975
1234.56	0.914204
1237.45	0.051762
1240.34	1.23243
1243.23	0.282909
1246.13	0.512909
1249.02	0.276566
1251.91	0.113995
1254.8	0.569759
1257.7	0.568913
1260.59	0.178844
1263.48	0.814377
1266.38	1.10658
1269.27	1.45473
1272.16	3.33786
1275.05	0.892277
1277.95	1.43784
1280.84	0.006351
1283.73	0.662125
1286.62	0.136341
1289.52	0.849724
1292.41	0.639843
1295.3	1.19269
1298.19	1.03012
1301.09	0.198708
