Measurement: Raman, 532 nm, unoriented, Raman Data Processed
Mineral: Germanite
Rruff sample: R050439
Ideal chemistry: Cu_13_Fe_2_Ge_2_S_16_
Locality: Tsumeb mine, Tsumeb, Otavi District, Oshikoto, Namibia
Source: University of Arizona Mineral Museum
Description: Black with purple hints, massive
Measured chemistry: dark-gray phase: (Cu_11.61_Fe^2+^_0.87_Zn_0.52_)_Σ=13_Fe_2.00_(Ge_1.71_As_0.29_)_Σ=2_S_16.00_; lighter-gray phase: (Cu_10.59_Zn_0.41_)_Σ=11_Fe_4.00_(Ge_1.46_As_0.54_)_Σ=2_S_16.00_ ; lightest phase is PbS.
Raman shift (cm-1)	intensity
119.453	0
122.828	7.5943
126.202	1.83333
129.577	8.8629
132.952	12.6621
136.327	17.1235
139.702	30.716
143.076	20.8098
146.451	25.7072
149.826	25.4229
153.201	24.3461
156.576	26.0436
159.951	27.124
163.325	27.8601
166.7	26.2172
170.075	28.6217
173.45	20.8307
176.825	16.9479
180.199	10.8951
183.574	8.67457
186.949	7.61002
190.324	2.85231
193.699	3.77748
197.073	4.10015
200.448	5.31471
203.823	3.53633
207.198	0.022743
210.573	3.7725
213.948	1.52032
217.322	2.09392
220.697	1.89819
224.072	0.491173
227.447	1.72981
230.822	0.321747
234.196	1.76651
237.571	0.921104
240.946	2.36617
244.321	5.40733
247.696	6.08782
251.071	12.4262
254.445	16.1347
257.82	26.6212
261.195	34.1571
264.57	41.9386
267.945	52.5988
271.32	63.5551
274.694	68.7953
278.069	69.2477
281.444	68.1868
284.819	71.8309
288.193	62.5537
291.568	52.2055
294.943	40.2165
298.318	38.9309
301.693	42.3517
305.068	45.559
308.442	39.2424
311.817	29.05
315.192	26.4721
318.567	27.0289
321.942	30.0044
325.317	30.4954
328.691	31.0317
332.066	40.6725
335.441	56.4
338.816	79.1393
342.191	109.094
345.565	148.121
348.94	182.474
352.315	183.387
355.69	148.302
359.065	99.7485
362.44	76.3615
365.814	64.1392
369.189	57.0973
372.564	53.748
375.939	50.2797
379.314	43.1141
382.688	36.3227
386.063	31.9751
389.438	21.7362
392.813	13.1312
396.188	6.94649
399.562	0.272041
402.937	3.62323
406.312	1.96268
409.687	1.48504
413.062	1.81814
416.437	0.02486
419.811	1.84478
423.186	2.91352
426.561	4.64159
429.936	8.63527
433.311	9.28568
436.685	10.4194
440.06	8.19938
443.435	4.37293
446.81	3.5746
450.185	3.14117
453.56	1.82145
456.934	3.68024
460.309	3.71237
463.684	3.34583
467.059	3.12334
470.434	4.1939
473.808	1.87323
477.183	1.46487
480.558	1.71636
483.933	2.18125
487.308	1.59279
490.683	2.47443
494.057	3.36026
497.432	2.17207
500.807	3.44178
504.182	3.75029
507.557	1.81455
510.931	1.86029
514.306	1.85946
517.681	2.19804
521.056	0.833645
524.431	2.19646
527.806	0.106884
531.18	2.42944
534.555	2.07489
537.93	2.22304
541.305	2.1862
544.68	0.257854
548.054	0.54229
551.429	2.59066
554.804	0.964947
558.179	1.91792
561.554	1.59209
564.928	0.604263
568.303	1.04463
571.678	0.895817
575.053	0.051521
578.428	0.641071
581.803	0.065693
585.177	2.17673
588.552	0.432526
591.927	0.54517
595.302	0.764549
598.677	0.021286
602.052	0.559643
605.426	0.67112
608.801	0.635654
612.176	1.22401
615.551	1.50103
618.926	2.63623
622.3	0.147213
625.675	2.71554
629.05	2.06339
632.425	2.42976
635.8	4.1062
639.174	2.87296
642.549	5.94401
645.924	5.52097
649.299	5.92902
652.674	3.6653
656.048	4.76376
659.423	3.21768
662.798	2.46705
666.173	2.45246
669.548	0.194351
672.923	1.8932
676.297	2.77557
679.672	3.69936
683.047	2.05463
686.422	1.8624
689.797	5.0193
693.172	4.85834
696.546	3.73999
699.921	3.84402
703.296	3.58684
706.671	4.67952
710.046	3.24155
713.42	2.13099
716.795	3.09002
720.17	0.44146
723.545	0.177402
726.92	0.247829
730.294	2.14673
733.669	0.554909
737.044	0.940094
740.419	0.145782
743.794	1.54617
747.169	1.39532
750.543	1.27743
753.918	0.106972
757.293	1.40654
760.668	0.638874
764.043	0.67625
767.418	0.028736
770.792	1.53001
774.167	0.175655
777.542	0.877609
780.917	1.11075
784.292	0.36018
787.666	1.68339
791.041	2.53466
794.416	1.20927
797.791	0.359909
801.166	1.56848
804.54	0.540703
807.915	1.48835
811.29	0.654758
814.665	2.26323
818.04	1.43533
821.415	2.74118
824.789	2.25286
828.164	1.62584
831.539	1.92482
834.914	2.66812
838.289	3.01288
841.663	2.21749
845.038	2.18318
848.413	2.49606
851.788	1.54145
855.163	2.69392
858.538	3.03176
861.912	2.91979
865.287	2.53649
868.662	2.09924
872.037	1.44879
875.412	3.50284
878.786	1.0628
882.161	1.79324
885.536	0.017323
888.911	1.51848
892.286	1.6765
895.66	1.71273
899.035	3.29561
902.41	1.01811
905.785	1.44026
909.16	1.08756
912.535	1.08173
915.909	0.218685
919.284	1.99437
922.659	1.67698
926.034	0.190239
929.409	0.735947
932.784	0.696068
936.158	1.79838
939.533	0.619614
942.908	2.60573
946.283	2.01
949.658	1.58323
953.032	1.8355
956.407	1.61431
959.782	1.88728
963.157	0.588108
966.532	0.87421
969.907	2.77407
973.281	3.03776
976.656	1.8582
980.031	2.45824
983.406	1.49341
986.781	0.139076
990.155	1.55583
993.53	1.03685
996.905	0.535927
1000.28	1.47897
1003.65	0.998684
1007.03	1.49181
1010.4	1.32751
1013.78	1.77903
1017.15	1.78571
1020.53	2.22036
1023.9	2.62448
1027.28	1.28379
1030.65	0.87109
1034.03	2.51434
1037.4	1.28348
1040.78	2.68531
1044.15	2.80917
1047.53	2.66651
1050.9	1.57037
1054.28	2.5577
1057.65	2.50001
1061.03	1.07977
1064.4	1.17439
1067.78	2.89824
1071.15	1.12653
1074.53	2.24574
1077.9	1.21282
1081.28	1.39143
1084.65	0.37513
1088.03	0.221104
1091.4	0.567013
1094.78	0.148827
1098.15	1.57821
1101.52	0.921795
1104.9	2.15319
1108.27	1.76697
1111.65	1.7
1115.02	0.975578
1118.4	0.603409
1121.77	1.31426
1125.15	1.41753
1128.52	0.285648
1131.9	1.61796
1135.27	0.005077
1138.65	0.35862
1142.02	0.20182
1145.4	2.02088
1148.77	0.267063
1152.15	0.715454
1155.52	0.328545
1158.9	0.2117
1162.27	1.11841
1165.65	0.132576
1169.02	0.550842
1172.4	0.570362
1175.77	1.33458
1179.14	1.60188
1182.52	1.21114
1185.89	1.0103
1189.27	1.92749
1192.64	2.14222
1196.02	1.23196
1199.39	2.65819
1202.77	1.6535
1206.14	1.47098
1209.52	0.569721
1212.89	2.60258
1216.27	1.04602
1219.64	0.65078
1223.02	0.287945
1226.39	0.24197
1229.77	0.074963
1233.14	1.87346
1236.52	1.21878
1239.89	1.69368
1243.27	2.09524
1246.64	1.86264
1250.02	0.734215
1253.39	1.35468
1256.77	1.12328
1260.14	2.05971
1263.52	1.40898
1266.89	2.34907
1270.27	2.01791
1273.64	1.54541
1277.02	1.7422
1280.39	1.08528
