Measurement: Raman, 780 nm, unoriented, Raman Data Processed
Mineral: Gerstleyite
Rruff sample: R060255
Ideal chemistry: Na_2_Sb_8_S_13_2H_2_O
Locality: Western mine, Boron, Kern County, California, USA
Source: Michael Scott
Description: Deep red granular or platy aggregates
Measured chemistry: Na_1.13_(Sb_8.23_Fe_0.29_As_0.18_Cu_0.01_)_Σ=8.71_S_13_(OH)·3.75H_2_O
Raman shift (cm-1)	intensity
97.4485	0
100.823	218.352
104.198	20.3564
107.573	330.178
110.948	696.69
114.323	751.059
117.697	1284.75
121.072	1240.46
124.447	1217.25
127.822	894.93
131.197	280.204
134.571	29.645
137.946	217.189
141.321	603.265
144.696	1274.59
148.071	1787.73
151.446	2037.73
154.82	2016.16
158.195	2089.46
161.57	1872.33
164.945	1600.86
168.32	1278.42
171.695	1023.69
175.069	713.211
178.444	408.892
181.819	144
185.194	35.676
188.569	96.8169
191.943	134.454
195.318	147.38
198.693	104.723
202.068	48.9993
205.443	21.8879
208.817	64.9434
212.192	98.3892
215.567	38.082
218.942	386.006
222.317	873.458
225.691	1572.09
229.066	2716.6
232.441	4060.73
235.816	5313.38
239.191	5678.79
242.566	4721.17
245.94	4331.94
249.315	3332.4
252.69	1939.66
256.065	1972.14
259.44	2937.66
262.815	4680.2
266.189	7083.74
269.564	9706.18
272.939	11689.6
276.314	13362.4
279.689	16717
283.063	22803.8
286.438	29077.6
289.813	27305.9
293.188	22104.8
296.563	18990.3
299.938	15562.1
303.312	11513.8
306.687	9107.69
310.062	8349.96
313.437	8471.75
316.812	9103.63
320.186	9735
323.561	10050
326.936	9904.66
330.311	8934.09
333.686	7452.83
337.06	6266.41
340.435	5127.81
343.81	3783.56
347.185	2663.82
350.56	1897.07
353.935	1101.7
357.309	335.556
360.684	103.499
364.059	204.834
367.434	106.148
370.809	53.2756
374.183	7.84436
377.558	45.606
380.933	72.9745
384.308	89.7635
387.683	130.224
391.058	118.75
394.432	82.9501
397.807	14.8574
401.182	96.321
404.557	198.916
407.932	269
411.307	345.607
414.681	403.984
418.056	495.099
421.431	527.439
424.806	550.944
428.18	603.868
431.555	649.168
434.93	677.889
438.305	683.37
441.68	721.278
445.055	685.102
448.429	619.344
451.804	530.748
455.179	484.378
458.554	435.055
461.929	401.985
465.303	356.836
468.678	350.311
472.053	365.281
475.428	304.673
478.803	309.924
482.178	289.219
485.552	268.759
488.927	243.08
492.302	234.251
495.677	226.06
499.052	164.954
502.426	142.564
505.801	106.091
509.176	103.703
512.551	84.4913
515.926	93.2874
519.301	80.6516
522.675	68.9028
526.05	40.8734
529.425	41.9522
532.8	35.1761
536.175	9.69409
539.549	35.3033
542.924	37.132
546.299	33.2283
549.674	9.00549
553.049	18.5031
556.424	13.1831
559.798	0.275604
563.173	4.81299
566.548	21.4229
569.923	14.8421
573.298	21.7907
576.673	21.1558
580.047	6.94015
583.422	2.42188
586.797	33.6013
590.172	4.81274
593.547	6.6897
596.921	2.36627
600.296	8.94769
603.671	14.578
607.046	13.747
610.421	39.8334
613.795	27.7217
617.17	64.0782
620.545	46.957
623.92	57.6519
627.295	54.4995
630.67	39.3107
634.044	39.9516
637.419	30.6255
640.794	27.4598
644.169	35.2062
647.544	22.1154
650.918	31.0331
654.293	28.1764
657.668	2.47256
661.043	31.6815
664.418	36.5929
667.793	31.7221
671.167	46.9145
674.542	39.732
677.917	12.6746
681.292	36.5601
684.667	30.934
688.041	27.8933
691.416	29.8712
694.791	36.1173
698.166	4.25952
701.541	16.8567
704.915	11.1435
708.29	3.64594
711.665	6.56348
715.04	9.18774
718.415	9.78632
721.79	5.18173
725.164	16.7345
728.539	14.5445
731.914	19.9463
735.289	13.9456
738.664	20.409
742.038	24.4495
745.413	6.14401
748.788	25.401
752.163	24.7108
755.538	22.3001
758.913	31.7196
762.287	24.9078
765.662	7.40048
769.037	8.1135
772.412	16.0835
775.787	14.583
779.162	29.5729
782.536	7.8334
785.911	24.0437
789.286	25.5952
792.661	24.9677
796.036	14.1218
799.41	19.7864
802.785	17.1295
806.16	18.465
809.535	19.4967
812.91	10.8946
816.284	24.3876
819.659	21.3966
823.034	14.1578
826.409	10.0044
829.784	31.1263
833.159	3.3747
836.533	35.704
839.908	22.9879
843.283	7.78348
846.658	9.62454
850.033	26.033
853.408	22.1859
856.782	28.1165
860.157	14.2894
863.532	35.2287
866.907	31.4924
870.282	35.8554
873.656	10.0898
877.031	23.7803
880.406	8.64993
883.781	3.15863
887.156	27.0977
890.53	9.64148
893.905	5.48792
897.28	19.158
900.655	21.4968
904.03	41.5353
907.404	23.0956
910.779	4.73273
914.154	14.7671
917.529	6.81345
920.904	25.0523
924.279	18.7622
927.653	1.5918
931.028	21.5477
934.403	12.6433
937.778	22.8144
941.153	14.969
944.528	4.64648
947.902	9.32553
951.277	18.9021
954.652	24.7967
958.027	10.6258
961.402	3.59624
964.776	24.8744
968.151	5.82787
971.526	9.94
974.901	11.2685
978.276	12.5975
981.65	27.3129
985.025	13.6586
988.4	15.4675
991.775	0.793091
995.15	3.85266
998.525	7.07165
1001.9	16.3501
1005.27	17.1769
1008.65	15.6425
1012.02	14.876
1015.4	27.0815
1018.77	25.8429
1022.15	14.9066
1025.52	12.9055
1028.9	12.7128
1032.27	22.8931
1035.65	32.4958
1039.02	26.251
1042.4	5.23137
1045.77	22.199
1049.15	20.2959
1052.52	22.9457
1055.9	24.6525
1059.27	14.849
1062.65	22.914
1066.02	18.7001
1069.4	18.401
1072.77	7.7233
1076.14	6.23898
1079.52	15.0681
1082.89	27.5095
1086.27	19.576
1089.64	23.7823
1093.02	13.895
1096.39	19.9782
1099.77	17.8717
1103.14	8.25677
1106.52	34.083
1109.89	15.4169
1113.27	5.33453
1116.64	26.3096
1120.02	8.73157
1123.39	28.5371
1126.77	31.3598
1130.14	14.1562
1133.52	23.7106
1136.89	2.15503
1140.27	29.3155
1143.64	10.0844
1147.02	8.02898
1150.39	11.1899
1153.77	29.4083
1157.14	31.1791
1160.52	9.29547
1163.89	34.7163
1167.27	21.449
1170.64	16.6066
1174.02	4.54286
1177.39	14.3892
1180.77	8.98068
1184.14	11.3286
1187.51	17.195
1190.89	10.6985
1194.26	18.8794
1197.64	21.1045
1201.01	5.79399
1204.39	8.55908
1207.76	12.437
1211.14	17.0163
1214.51	11.8549
1217.89	12.1603
1221.26	15.1681
1224.64	1.32843
1228.01	15.258
1231.39	25.914
1234.76	4.26309
1238.14	20.2816
1241.51	17.5089
1244.89	17.9432
1248.26	14.3409
1251.64	26.9992
1255.01	23.8458
1258.38	13.8323
1261.76	19.0858
1265.13	26.652
1268.51	14.6677
1271.88	4.80876
1275.26	15.0293
1278.63	4.92233
1282.01	18.2479
1285.38	0
