Measurement: Raman, 532 nm, unoriented, Raman Data Processed
Mineral: Getchellite
Rruff sample: R060109
Ideal chemistry: SbAsS_3_
Locality: Getchell mine, Humboldt County, Nevada, USA
Source: University of Arizona Mineral Museum
Description: Dark blood-red micaceous lamellae
Measured chemistry: Sb_1.00_As_1.00_S_3.00_
Raman shift (cm-1)	intensity
185.469	0
188.362	4.05432
191.255	2.73196
194.147	1.80144
197.04	3.61841
199.933	2.9795
202.825	6.12644
205.718	2.38026
208.611	2.26777
211.504	2.24176
214.396	0.689152
217.289	1.84675
220.182	2.61064
223.074	0.870758
225.967	1.1748
228.86	0.054375
231.752	0.459824
234.645	1.93883
237.538	4.41097
240.43	9.76607
243.323	17.3433
246.216	29.4314
249.109	46.0841
252.001	65.6991
254.894	92.0369
257.787	123.451
260.679	154.098
263.572	175.88
266.465	188.748
269.358	192.837
272.25	198.199
275.143	213.401
278.036	241.23
280.928	269.04
283.821	278.819
286.714	271.735
289.606	271.671
292.499	285.244
295.392	288.209
298.284	259.666
301.177	209.925
304.07	167.142
306.963	134.689
309.855	115.128
312.748	104.619
315.641	95.9616
318.533	89.0123
321.426	82.8979
324.319	79.7377
327.212	73.2267
330.104	67.0952
332.997	60.7773
335.89	55.682
338.782	50.1031
341.675	46.933
344.568	40.2424
347.46	33.4171
350.353	27.6197
353.246	21.1022
356.139	16.7325
359.031	12.3121
361.924	8.46523
364.817	6.32445
367.709	4.33782
370.602	0.784634
373.495	0.041054
376.387	0.250328
379.28	1.7412
382.173	3.01187
385.065	1.59685
387.958	1.81617
390.851	0.077339
393.744	0.322781
396.636	0.435772
399.529	1.13788
402.422	2.64428
405.314	2.59502
408.207	3.38173
411.1	3.42413
413.993	4.00507
416.885	4.81232
419.778	4.8719
422.671	4.76177
425.563	5.5993
428.456	7.65081
431.349	7.2484
434.241	7.67526
437.134	8.13507
440.027	7.17779
442.92	5.87877
445.812	4.99321
448.705	4.90366
451.598	4.01615
454.49	3.42327
457.383	4.23096
460.276	2.86163
463.168	4.13195
466.061	3.86922
468.954	2.0577
471.846	2.839
474.739	2.67856
477.632	1.87617
480.525	1.16962
483.417	1.16902
486.31	2.39939
489.203	1.16934
492.095	0.839794
494.988	0.798389
497.881	0.249664
500.774	0.476559
503.666	0.133076
506.559	0.201427
509.452	0.047951
512.344	0.120552
515.237	0.631783
518.13	1.71891
521.022	0.6987
523.915	0.363106
526.808	1.1812
529.701	2.315
532.593	1.80033
535.486	0.704288
538.379	1.07449
541.271	1.00612
544.164	1.94045
547.057	1.06934
549.949	1.02795
552.842	0.863674
555.735	1.55637
558.628	1.18475
561.52	1.42749
564.413	1.81711
567.306	0.517262
570.198	1.08214
573.091	0.568012
575.984	0.260227
578.876	0.65654
581.769	1.50665
584.662	0.992355
587.554	0.216808
590.447	1.19859
593.34	1.01463
596.232	0.565304
599.125	1.0032
602.018	0.728943
604.911	0.770618
607.803	0.759251
610.696	1.49718
613.589	2.03032
616.481	2.41683
619.374	0.670605
622.267	1.36796
625.159	1.47851
628.052	1.07865
630.945	2.25028
633.838	2.17923
636.73	0.790089
639.623	1.8684
642.516	1.07967
645.408	0.279667
648.301	0.58498
651.194	1.17961
654.087	1.36787
656.979	0.374527
659.872	0.863693
662.765	0.810585
665.657	0.895565
668.55	1.71779
671.443	2.11269
674.335	0.632793
677.228	0.988228
680.121	0.805019
683.014	1.5466
685.906	1.53851
688.799	2.10509
691.692	2.39941
694.584	1.01015
697.477	1.03012
700.37	0.084389
703.263	0.264069
706.155	0.368435
709.048	1.37752
711.941	0.507305
714.833	0.432819
717.726	1.5379
720.619	0.845045
723.511	1.05518
726.404	0.767996
729.297	0.364807
732.189	1.34784
735.082	1.08417
737.975	0.920218
740.868	1.70498
743.76	0.810745
746.653	1.63461
749.546	0.484051
752.438	2.02593
755.331	1.02684
758.224	0.54734
761.116	0.57868
764.009	0.792957
766.902	1.07311
769.795	0.230927
772.687	1.11135
775.58	0.961836
778.473	0.759676
781.365	1.33919
784.258	1.20481
787.151	0.697266
790.043	0.341261
792.936	0.972813
795.829	1.14595
798.722	1.0532
801.614	0.1723
804.507	1.13271
807.4	1.1203
810.292	1.79754
813.185	1.92925
816.078	1.43291
818.971	2.02965
821.863	2.16286
824.756	1.61836
827.649	0.689968
830.541	1.08396
833.434	1.48886
836.327	0.735676
839.219	0.966997
842.112	0.944813
845.005	1.25846
847.898	0.524101
850.79	1.01218
853.683	1.66802
856.576	0.444759
859.468	1.53423
862.361	1.13057
865.254	1.23848
868.146	0.508394
871.039	0.45435
873.932	1.57999
876.824	0.744583
879.717	1.26022
882.61	0.286623
885.503	1.47466
888.395	0.528021
891.288	1.5365
894.181	0.810526
897.073	0.469637
899.966	0.19908
902.859	0.613768
905.751	0.018492
908.644	0.598427
911.537	1.17804
914.43	0.125761
917.322	0.691605
920.215	0.533873
923.108	0.037321
926	0.386953
928.893	0.262737
931.786	0.887283
934.678	0.220682
937.571	0.184282
940.464	0.908472
943.357	0.392254
946.249	1.22016
949.142	0.771513
952.035	1.37085
954.927	1.19747
957.82	0.90683
960.713	1.37997
963.606	0.445047
966.498	0.177635
969.391	1.48281
972.284	1.10013
975.176	0.917894
978.069	0.499187
980.962	1.47939
983.854	1.51949
986.747	1.64132
989.64	1.32953
992.533	1.12165
995.425	0.023212
998.318	1.45857
1001.21	1.22189
1004.1	0.95713
1007	1.85445
1009.89	1.29398
1012.78	0.305576
1015.67	0.420843
1018.57	1.58312
1021.46	0.874422
1024.35	1.00749
1027.24	1.31284
1030.14	0.394119
1033.03	0.138613
1035.92	1.0592
1038.82	0.928442
1041.71	0.705084
1044.6	0.481503
1047.49	1.02433
1050.39	1.97611
1053.28	1.12204
1056.17	0.489397
1059.07	1.34664
1061.96	0.93038
1064.85	1.64416
1067.74	1.01301
1070.63	1.21952
1073.53	0.006409
1076.42	1.42784
1079.31	1.23855
1082.21	1.64629
1085.1	1.0735
1087.99	0.558023
1090.88	1.40185
1093.78	1.62895
1096.67	0.893627
1099.56	0.910711
1102.45	0.019522
1105.35	1.65223
1108.24	1.88894
1111.13	0.323923
1114.03	0.93803
1116.92	0.886934
1119.81	1.77964
1122.7	0.454685
1125.6	1.41406
1128.49	1.75672
1131.38	0.889498
1134.28	0.072004
1137.17	0.626791
1140.06	0.550184
1142.95	0.890387
1145.85	0.826374
1148.74	0.822235
1151.63	0.488024
1154.52	0.723467
1157.42	0.797915
1160.31	1.00035
1163.2	0.018045
1166.09	0.990797
1168.99	0.238752
1171.88	0.358429
1174.77	0.542559
1177.66	0.996307
1180.56	1.2795
1183.45	1.66694
1186.34	0.273035
1189.24	1.12672
1192.13	1.01078
1195.02	0.952215
1197.91	1.43598
1200.81	0.490271
1203.7	1.36112
1206.59	0.997787
1209.48	1.60373
1212.38	1.4496
1215.27	1.29456
1218.16	1.0618
1221.06	0.175133
1223.95	0.54217
1226.84	1.0551
1229.73	0.438166
1232.63	0.637556
1235.52	3.35234
1238.41	1.36564
1241.31	0.526999
1244.2	0.974035
1247.09	0.649035
1249.98	0.428379
1252.88	1.93464
1255.77	0.705286
1258.66	0.676622
1261.55	0.637184
1264.45	0.752617
1267.34	0.188395
1270.23	0.741461
1273.12	0.235806
1276.02	0.403181
1278.91	0.249636
1281.8	0.949646
1284.69	0.667402
1287.59	2.20991
1290.48	1.267
1293.37	0.550402
1296.27	0.159559
1299.16	0.310345
1302.05	0.343367
