Measurement: Raman, 780 nm, unoriented, Raman Data Processed
Mineral: Getchellite
Rruff sample: R050156
Ideal chemistry: SbAsS_3_
Locality: Khaidarkan, Kyrgyzstan
Source: Jim McGlasson
Description: Red platy crystals
Raman shift (cm-1)	intensity
92.5678	0
95.9426	339.399
99.3174	154.117
102.692	22.8394
106.067	93.2527
109.442	437.466
112.817	998.198
116.192	1558.56
119.566	2277.89
122.941	3356.9
126.316	4081.49
129.691	3427.21
133.066	2165.64
136.44	1277.57
139.815	939.816
143.19	1053.32
146.565	1656.66
149.94	2113.28
153.315	2300.36
156.689	2118.7
160.064	2185.17
163.439	2524.73
166.814	2410.48
170.189	1784.97
173.563	1258.24
176.938	872.118
180.313	572.146
183.688	427.822
187.063	367.37
190.437	199.119
193.812	59.3778
197.187	9.34778
200.562	12.3168
203.937	41.9752
207.311	52.3774
210.686	53.9402
214.061	42.7867
217.436	32.2894
220.811	11.9842
224.186	12.3033
227.56	40.3729
230.935	77.8944
234.31	114.606
237.685	171.645
241.06	248.042
244.435	399.61
247.809	658.491
251.184	1088.93
254.559	1745.23
257.934	2689.07
261.309	3723.91
264.683	4480.97
268.058	4738.33
271.433	4752
274.808	5194.28
278.183	6347.66
281.558	7508.47
284.932	7825.57
288.307	8050.3
291.682	9289.99
295.057	10445.4
298.432	9274.25
301.806	6818.01
305.181	4899.14
308.556	3789.85
311.931	3151.55
315.306	2709.36
318.68	2351.65
322.055	2039.41
325.43	1722.37
328.805	1442.87
332.18	1327.9
335.555	1382.42
338.929	1594.6
342.304	1700.25
345.679	1373.37
349.054	982.555
352.429	714.251
355.803	455.26
359.178	253.751
362.553	155.737
365.928	88.052
369.303	51.1898
372.678	22.2174
376.052	14.6379
379.427	55.5047
382.802	66.0157
386.177	51.28
389.552	34.1595
392.926	15.251
396.301	6.11067
399.676	24.4473
403.051	43.319
406.426	60.4334
409.801	74.1407
413.175	91.2598
416.55	105.713
419.925	116.156
423.3	130.709
426.675	141.843
430.05	154.77
433.424	162.722
436.799	162.575
440.174	147.747
443.549	129.578
446.924	114.056
450.298	99.3633
453.673	84.996
457.048	77.5097
460.423	74.6105
463.798	71.5712
467.173	66.569
470.547	62.8567
473.922	59.1352
477.297	57.8183
480.672	50.3418
484.046	46.643
487.421	39.3521
490.796	34.4221
494.171	28.5346
497.546	23.3226
500.921	17.3021
504.295	13.9381
507.67	11.4763
511.045	7.25835
514.42	5.25012
517.795	4.99445
521.169	4.79566
524.544	2.49755
527.919	2.82416
531.294	1.8503
534.669	1.1226
538.044	1.73305
541.418	0.56427
544.793	0.112099
548.168	0.705269
551.543	1.94135
554.918	2.45093
558.293	0.219131
561.667	1.41054
565.042	1.42303
568.417	1.30661
571.792	0.747101
575.167	0.222885
578.541	0.753304
581.916	1.62857
585.291	2.25375
588.666	1.36505
592.041	2.63088
595.415	2.10561
598.79	2.8042
602.165	3.88339
605.54	3.761
608.915	2.64326
612.29	4.19337
615.664	5.09094
619.039	5.74947
622.414	6.83208
625.789	5.49561
629.164	7.314
632.538	5.32217
635.913	5.9918
639.288	2.90801
642.663	4.4678
646.038	4.26778
649.413	2.73968
652.787	2.81251
656.162	2.70331
659.537	2.86917
662.912	2.22606
666.287	2.96633
669.662	1.81974
673.036	3.53392
676.411	3.56616
679.786	5.64255
683.161	5.64095
686.536	3.68865
689.91	6.73698
693.285	3.38825
696.66	0.612946
700.035	1.05968
703.41	0.144943
706.784	1.11656
710.159	0.406136
713.534	0.125298
716.909	0.892181
720.284	1.91089
723.659	0.587105
727.033	0.413834
730.408	2.44927
733.783	1.58662
737.158	2.09155
740.533	1.88296
743.908	3.1272
747.282	1.83814
750.657	2.372
754.032	1.17093
757.407	1.40415
760.782	0.606033
764.156	0.150597
767.531	0.107571
770.906	1.51298
774.281	2.93533
777.656	2.99398
781.03	2.96751
784.405	2.92642
787.78	3.86402
791.155	3.78121
794.53	3.39992
797.904	2.65449
801.279	2.17517
804.654	4.06678
808.029	2.47009
811.404	5.22763
814.779	3.81514
818.153	3.59115
821.528	3.97155
824.903	2.67287
828.278	1.47602
831.653	1.67194
835.028	2.38382
838.402	1.57607
841.777	1.27251
845.152	2.78164
848.527	2.43942
851.902	1.7602
855.276	2.89722
858.651	2.49258
862.026	1.56773
865.401	1.6765
868.776	1.64903
872.15	2.07196
875.525	2.11469
878.9	0.811359
882.275	1.02359
885.65	2.89571
889.025	1.66121
892.399	1.77057
895.774	0.45335
899.149	3.40931
902.524	2.24116
905.899	1.49271
909.274	0.304638
912.648	0.409939
916.023	0.934605
919.398	1.54467
922.773	1.66178
926.148	0.530872
929.522	1.65482
932.897	0.602085
936.272	1.39591
939.647	1.20638
943.022	0.108524
946.396	0.629028
949.771	1.31059
953.146	1.27062
956.521	1.49797
959.896	2.58549
963.271	0.215218
966.645	0.723225
970.02	0.29631
973.395	2.04629
976.77	3.30808
980.145	0.53207
983.519	2.45697
986.894	1.87608
990.269	1.34555
993.644	1.65915
997.019	2.38001
1000.39	2.30785
1003.77	2.90549
1007.14	2.34278
1010.52	2.03569
1013.89	0.751968
1017.27	1.95535
1020.64	1.9021
1024.02	1.67736
1027.39	1.70003
1030.77	1.75047
1034.14	1.81797
1037.52	1.57223
1040.89	1.92514
1044.27	2.37035
1047.64	1.97118
1051.02	0.715412
1054.39	2.30595
1057.77	1.35846
1061.14	2.68032
1064.52	1.59134
1067.89	3.63313
1071.27	2.47891
1074.64	1.55284
1078.01	1.89476
1081.39	1.17598
1084.76	1.51482
1088.14	0.283573
1091.51	2.23893
1094.89	1.21974
1098.26	2.91922
1101.64	1.43609
1105.01	0.840343
1108.39	0.34837
1111.76	0.971542
1115.14	1.04839
1118.51	2.45792
1121.89	0.818462
1125.26	0.334545
1128.64	1.11998
1132.01	1.44821
1135.39	2.21446
1138.76	0.302139
1142.14	1.83416
1145.51	2.35939
1148.88	1.90592
1152.26	3.50056
1155.63	0.660015
1159.01	0.83979
1162.38	2.74001
1165.76	1.13844
1169.13	3.36808
1172.51	3.36224
1175.88	4.02521
1179.26	2.71743
1182.63	5.42266
1186.01	3.19283
1189.38	5.54845
1192.76	7.44563
1196.13	5.85236
1199.51	8.9991
1202.88	10.2298
1206.26	9.67512
1209.63	9.95023
1213.01	12.3354
1216.38	13.3165
1219.76	13.3792
1223.13	13.703
1226.51	16.1267
1229.88	19.0067
1233.26	19.6235
1236.63	20.8944
1240.01	20.7937
1243.38	21.8292
1246.76	25.4424
1250.13	27.0646
1253.51	27.3492
1256.88	28.2032
1260.26	30.6764
1263.63	33.5372
1267	33.8173
1270.38	34.6139
1273.75	34.8552
1277.13	36.8663
1280.5	39.7669
1283.88	42.079
1287.25	0.964091
1290.63	1.35948
1294	3.88949
1297.38	1.69157
1300.75	0.378077
