Measurement: Raman, 532 nm, unoriented, Raman Data Processed
Mineral: Getchellite
Rruff sample: R050156
Ideal chemistry: SbAsS_3_
Locality: Khaidarkan, Kyrgyzstan
Source: Jim McGlasson
Description: Red platy crystals
Raman shift (cm-1)	intensity
190.29	0
193.183	3.71497
196.076	5.33115
198.968	4.33331
201.861	1.14752
204.754	0.98616
207.647	3.44228
210.539	0.436081
213.432	0.179428
216.325	1.05579
219.217	3.61577
222.11	0.60968
225.003	7.1032
227.895	13.9713
230.788	24.6593
233.681	37.3781
236.573	50.6661
239.466	74.5287
242.359	100.682
245.252	143.943
248.144	199.099
251.037	264.011
253.93	309.369
256.822	327.336
259.715	324.898
262.608	329.642
265.5	348.158
268.393	373.982
271.286	420.36
274.179	510.334
277.071	612.696
279.964	662.553
282.857	643.984
285.75	623.927
288.642	615.981
291.535	538.546
294.428	451.442
297.32	396.79
300.213	353.789
303.106	322.902
305.998	288.943
308.891	246.775
311.784	204.408
314.676	156.214
317.569	122.029
320.462	99.6049
323.355	86.6969
326.247	71.8477
329.14	66.3876
332.033	59.4641
334.925	50.1304
337.818	43.0221
340.711	36.5154
343.603	30.7396
346.496	24.0989
349.389	16.2252
352.281	12.7128
355.174	10.2682
358.067	5.97907
360.96	1.04558
363.852	1.04617
366.745	1.45959
369.638	1.88712
372.53	1.37743
375.423	4.03015
378.316	2.85471
381.209	3.55863
384.101	2.98734
386.994	1.12556
389.887	1.11625
392.779	0.650734
395.672	4.0574
398.565	4.71471
401.457	6.34098
404.35	6.91283
407.243	9.87871
410.135	11.5116
413.028	12.1842
415.921	13.4008
418.814	14.026
421.706	13.4378
424.599	15.7821
427.492	14.0677
430.384	14.62
433.277	13.7187
436.17	14.6857
439.062	10.791
441.955	12.5799
444.848	9.6576
447.741	8.72714
450.633	6.562
453.526	6.69395
456.419	5.95366
459.311	7.48683
462.204	6.45142
465.097	5.224
467.99	5.33704
470.882	3.45837
473.775	3.3921
476.668	3.0575
479.56	3.47739
482.453	2.8765
485.346	1.99064
488.238	0.539909
491.131	1.30006
494.024	2.01279
496.916	0.69693
499.809	0.081116
502.702	0.326889
505.595	1.22822
508.487	0.739754
511.38	1.89368
514.273	0.777023
517.165	0.140648
520.058	1.04936
522.951	1.61651
525.844	1.0788
528.736	1.55536
531.629	1.54245
534.522	0.327011
537.414	0.560043
540.307	1.87256
543.2	0.544113
546.092	1.5
548.985	1.06024
551.878	0.831078
554.771	1.46069
557.663	0.562286
560.556	1.98415
563.449	0.064224
566.341	1.64919
569.234	0.887657
572.127	2.52969
575.019	1.30006
577.912	2.97926
580.805	1.39069
583.697	2.36862
586.59	2.68859
589.483	2.21989
592.376	3.04678
595.268	2.80913
598.161	4.20915
601.054	2.42509
603.946	2.89276
606.839	1.48225
609.732	3.11282
612.625	1.82674
615.517	3.65959
618.41	2.77536
621.303	2.55294
624.195	2.3317
627.088	1.98893
629.981	2.27659
632.873	1.48319
635.766	2.31686
638.659	1.8663
641.552	0.160316
644.444	2.74122
647.337	2.29955
650.23	1.03658
653.122	1.73304
656.015	1.086
658.908	1.26499
661.8	1.09403
664.693	2.93472
667.586	2.40011
670.479	1.73878
673.371	2.77842
676.264	3.45912
679.157	3.17919
682.049	2.6365
684.942	3.32832
687.835	2.32325
690.727	2.3442
693.62	2.2116
696.513	1.49301
699.405	1.29733
702.298	2.28462
705.191	1.07584
708.084	1.7342
710.976	0.580051
713.869	1.43373
716.762	0.643467
719.654	1.05354
722.547	0.663834
725.44	0.026417
728.332	0.725918
731.225	0.253208
734.118	0.459984
737.011	0.319832
739.903	1.71118
742.796	1.07848
745.689	1.49911
748.581	1.40291
751.474	1.12445
754.367	0.241135
757.26	1.69151
760.152	0.955917
763.045	0.617176
765.938	0.779015
768.83	0.576775
771.723	1.07784
774.616	0.456314
777.508	1.07122
780.401	1.01591
783.294	0.734631
786.187	0.776245
789.079	1.6137
791.972	0.786381
794.865	0.384308
797.757	0.083061
800.65	1.00349
803.543	1.22201
806.435	2.26831
809.328	1.19038
812.221	0.625687
815.114	1.52636
818.006	0.557796
820.899	1.15054
823.792	0.784504
826.684	1.08501
829.577	1.48735
832.47	0.947899
835.362	1.22295
838.255	1.24583
841.148	1.15387
844.04	0.99197
846.933	1.27334
849.826	0.586929
852.719	0.754818
855.611	0.348396
858.504	1.03165
861.397	1.70582
864.289	0.104218
867.182	1.09277
870.075	1.20078
872.967	1.49582
875.86	1.20615
878.753	2.11538
881.646	0.512398
884.538	1.40638
887.431	0.926739
890.324	1.08587
893.216	1.22826
896.109	1.63566
899.002	1.52436
901.894	1.73989
904.787	0.765617
907.68	1.34638
910.573	0.646156
913.465	1.07499
916.358	1.28753
919.251	1.86221
922.143	1.94558
925.036	1.41853
927.929	1.1273
930.822	1.22562
933.714	1.053
936.607	0.708839
939.5	1.27515
942.392	0.191872
945.285	1.24702
948.178	1.07941
951.07	0.338951
953.963	1.63865
956.856	0.720531
959.749	0.208645
962.641	2.06503
965.534	0.912464
968.427	1.00454
971.319	1.84183
974.212	0.344093
977.105	2.58493
979.997	1.12597
982.89	0.520123
985.783	1.31856
988.676	0.631561
991.568	0.950047
994.461	1.62995
997.354	1.2468
1000.25	1.03262
1003.14	0.831963
1006.03	0.609203
1008.92	1.5838
1011.82	0.686291
1014.71	0.526814
1017.6	0.778637
1020.5	0.372292
1023.39	1.10281
1026.28	1.00483
1029.17	1.54653
1032.07	0.702446
1034.96	0.96027
1037.85	0.332249
1040.74	1.48111
1043.64	0.795097
1046.53	0.797401
1049.42	0.928894
1052.32	0.296898
1055.21	2.10588
1058.1	0.88802
1060.99	0.643593
1063.89	1.00959
1066.78	0.530155
1069.67	1.31936
1072.56	1.41762
1075.46	0.042709
1078.35	0.546185
1081.24	0.094086
1084.13	0.746025
1087.03	0.415714
1089.92	0.14534
1092.81	0.929142
1095.7	1.02396
1098.6	0.586426
1101.49	0.211926
1104.38	0.499115
1107.28	1.48683
1110.17	1.10184
1113.06	1.58171
1115.95	0.547424
1118.85	1.09464
1121.74	1.02954
1124.63	0.680347
1127.53	1.96956
1130.42	0.630283
1133.31	0.185154
1136.2	0.011349
1139.1	0.307388
1141.99	0.600849
1144.88	0.091763
1147.77	0.462303
1150.67	0.888718
1153.56	0.962425
1156.45	0.484543
1159.35	0.756489
1162.24	2.16553
1165.13	1.67643
1168.02	0.224022
1170.92	0.433929
1173.81	0.942898
1176.7	1.91996
1179.59	1.39644
1182.49	1.3194
1185.38	1.06133
1188.27	1.96443
1191.16	0.849522
1194.06	0.36105
1196.95	0.641781
1199.84	0.912659
1202.73	0.471272
1205.63	0.778503
1208.52	0.24091
1211.41	0.977268
1214.31	0.98624
1217.2	0.749233
1220.09	1.07702
1222.98	1.67977
1225.88	2.14888
1228.77	1.09872
1231.66	0.691433
1234.56	1.61855
1237.45	1.58612
1240.34	1.00864
1243.23	1.62992
1246.13	0.520485
1249.02	0.123619
1251.91	0.774799
1254.8	1.26207
1257.7	1.7497
1260.59	1.75648
1263.48	0.091335
1266.38	1.77785
1269.27	1.89317
1272.16	0.162033
1275.05	0.693645
1277.95	0.844036
1280.84	1.0946
1283.73	1.26668
1286.62	1.33428
1289.52	1.27519
1292.41	1.43907
1295.3	1.62286
1298.19	1.65411
1301.09	0.432156
