Measurement: Raman, 780 nm, unoriented, Raman Data Processed
Mineral: Getchellite
Rruff sample: R060109
Ideal chemistry: SbAsS_3_
Locality: Getchell mine, Humboldt County, Nevada, USA
Source: University of Arizona Mineral Museum
Description: Dark blood-red micaceous lamellae
Measured chemistry: Sb_1.00_As_1.00_S_3.00_
Raman shift (cm-1)	intensity
92.5678	0
95.9426	48.6465
99.3174	37.8228
102.692	6.98144
106.067	17.4302
109.442	74.5334
112.817	188.078
116.192	275.474
119.566	356.728
122.941	479.236
126.316	592.774
129.691	523.399
133.066	337.545
136.44	200.058
139.815	131.349
143.19	120.576
146.565	197.273
149.94	307.501
153.315	387.392
156.689	329.989
160.064	242.22
163.439	221.599
166.814	200.645
170.189	164.56
173.563	131.46
176.938	96.7612
180.313	61.2898
183.688	42.2519
187.063	41.4263
190.437	20.406
193.812	2.14127
197.187	1.68282
200.562	1.47291
203.937	8.89236
207.311	9.95305
210.686	7.73333
214.061	6.56863
217.436	1.72015
220.811	0.80246
224.186	4.26811
227.56	7.7813
230.935	9.18095
234.31	14.7377
237.685	22.8558
241.06	34.9832
244.435	57.7122
247.809	95.0306
251.184	163.459
254.559	262.275
257.934	408.121
261.309	571.929
264.683	669.243
268.058	690.292
271.433	693.741
274.808	774.189
278.183	960.142
281.558	1137.09
284.932	1181.02
288.307	1158.09
291.682	1239.95
295.057	1333.08
298.432	1195.69
301.806	894.97
305.181	640.008
308.556	491.654
311.931	423.718
315.306	382.276
318.68	339.412
322.055	298.522
325.43	263.678
328.805	236.647
332.18	218.78
335.555	215.595
338.929	212.802
342.304	209.487
345.679	174.631
349.054	127.082
352.429	98.1847
355.803	67.839
359.178	35.2318
362.553	20.0225
365.928	11.1116
369.303	6.30256
372.678	4.57161
376.052	0.731014
379.427	5.10894
382.802	10.6531
386.177	7.6848
389.552	3.85824
392.926	3.37382
396.301	1.07647
399.676	4.09558
403.051	5.16242
406.426	8.028
409.8	10.9516
413.175	12.3114
416.55	15.1176
419.925	17.4158
423.3	18.4915
426.675	19.814
430.049	21.9637
433.424	22.2428
436.799	23.2839
440.174	22.299
443.549	19.1043
446.923	14.7061
450.298	14.1702
453.673	13.2191
457.048	10.5608
460.423	14.6922
463.798	10.6657
467.172	10.032
470.547	9.49237
473.922	9.85972
477.297	7.18236
480.672	6.50706
484.046	6.67978
487.421	5.29405
490.796	3.15323
494.171	4.63784
497.546	2.05427
500.921	2.44492
504.295	2.00371
507.67	1.67711
511.045	1.76764
514.42	1.45125
517.795	0.603889
521.169	1.23385
524.544	1.55391
527.919	0.575724
531.294	0.619276
534.669	0.703224
538.044	0.780456
541.418	1.895
544.793	0.876819
548.168	0.140592
551.543	0.68137
554.918	2.57563
558.293	1.00372
561.667	1.40836
565.042	1.62542
568.417	1.91053
571.792	1.75566
575.167	1.05868
578.541	1.2293
581.916	1.22094
585.291	1.26815
588.666	0.846213
592.041	0.068922
595.415	0.330379
598.79	1.09679
602.165	1.52017
605.54	3.10732
608.915	2.57672
612.29	2.17787
615.664	2.0686
619.039	1.9334
622.414	2.16988
625.789	3.15948
629.164	2.20872
632.538	2.68886
635.913	1.42609
639.288	5.70839
642.663	1.34693
646.038	1.69672
649.413	0.978472
652.787	2.40734
656.162	1.12873
659.537	1.72352
662.912	1.25694
666.287	1.57323
669.661	2.20201
673.036	1.29105
676.411	0.089036
679.786	0.613842
683.161	1.67232
686.535	2.68177
689.91	1.81718
693.285	1.80021
696.66	1.21475
700.035	0.868921
703.41	0.266183
706.784	3.19942
710.159	0.463844
713.534	0.974918
716.909	2.00406
720.284	1.2048
723.659	0.071376
727.033	0.244964
730.408	1.2825
733.783	0.600177
737.158	8.32138
740.533	0.991454
743.907	1.06336
747.282	0.165112
750.657	0.164925
754.032	2.31318
757.407	1.27822
760.782	1.02875
764.156	1.01326
767.531	1.30216
770.906	0.604864
774.281	0.384826
777.656	0.183423
781.03	2.48995
784.405	2.57877
787.78	2.05202
791.155	2.50936
794.53	1.29719
797.904	2.11968
801.279	0.574613
804.654	1.97803
808.029	2.56746
811.404	1.21876
814.779	1.36982
818.153	0.622734
821.528	1.29436
824.903	1.50447
828.278	0.775283
831.653	2.8218
835.028	1.42885
838.402	0.334843
841.777	0.808165
845.152	2.72903
848.527	1.65675
851.902	0.118341
855.276	2.81799
858.651	0.734158
862.026	1.41355
865.401	0.951001
868.776	0.888271
872.15	2.58054
875.525	1.43967
878.9	0.897602
882.275	1.73439
885.65	1.68406
889.024	4.72576
892.399	1.69056
895.774	1.64443
899.149	2.30084
902.524	1.96867
905.899	1.65869
909.273	0.324076
912.648	1.15545
916.023	1.14769
919.398	1.65797
922.773	2.09372
926.148	0.070374
929.522	5.74832
932.897	0.892481
936.272	1.72585
939.647	1.74325
943.022	0.076977
946.396	1.10692
949.771	2.56307
953.146	2.10592
956.521	2.16175
959.896	1.89905
963.27	1.71705
966.645	3.2355
970.02	1.56346
973.395	2.95126
976.77	2.27581
980.145	2.55849
983.519	1.77781
986.894	2.87467
990.269	0.836716
993.644	1.00207
997.019	1.86164
1000.39	2.14856
1003.77	1.79467
1007.14	0.395851
1010.52	2.68124
1013.89	1.62392
1017.27	1.50509
1020.64	2.2198
1024.02	1.29881
1027.39	0.170349
1030.77	3.49691
1034.14	1.05534
1037.52	1.10685
1040.89	1.49768
1044.27	1.55375
1047.64	2.0718
1051.02	0.964802
1054.39	1.8634
1057.77	3.20996
1061.14	1.04647
1064.52	1.10556
1067.89	2.23668
1071.27	0.639353
1074.64	1.7411
1078.01	2.42734
1081.39	1.53102
1084.76	1.48925
1088.14	2.0048
1091.51	2.74487
1094.89	2.4068
1098.26	3.57156
1101.64	1.38842
1105.01	1.26282
1108.39	0.043102
1111.76	0.283459
1115.14	1.27677
1118.51	0.925072
1121.89	0.766893
1125.26	0.527578
1128.64	1.77646
1132.01	1.09003
1135.39	0.938313
1138.76	1.22108
1142.14	2.06112
1145.51	0.334099
1148.88	1.05808
1152.26	1.4699
1155.63	1.02232
1159.01	0.245211
1162.38	2.2175
1165.76	0.800247
1169.13	0.859558
1172.51	0.812693
1175.88	2.05517
1179.26	2.40656
1182.63	1.03817
1186.01	1.58679
1189.38	0.338203
1192.76	2.10526
1196.13	0.476112
1199.51	0.931892
1202.88	0.445662
1206.26	3.79351
1209.63	1.95478
1213.01	2.55818
1216.38	1.5995
1219.76	2.44445
1223.13	1.42187
1226.51	0.712149
1229.88	0.996201
1233.26	0.498043
1236.63	1.8747
1240.01	1.69513
1243.38	0.955919
1246.76	2.99316
1250.13	1.36182
1253.51	1.2263
1256.88	1.08964
1260.25	2.44387
1263.63	2.09607
1267	0.970676
1270.38	4.46921
1273.75	1.48372
1277.13	3.00776
1280.5	2.8338
1283.88	0.212704
