Measurement: Raman, 532 nm, unoriented, Raman Data Processed
Mineral: Gillespite
Rruff sample: R061031
Ideal chemistry: BaFe^2+^Si_4_O_10_
Locality: La Madrelena mine, Tres Pozos, Municipio de Tecate, Baja California Norte, Mexico
Source: Michael Scott
Description: Rose-red cleavage fragment embedded in white sanbornite
Measured chemistry: Ba_1.00_Fe^2+^_1.00_(Si_3.97_Ti_0.03_)_Σ=4_O_10_ ; = host gray phase : (Ba_0.99_K_0.01_)(Al_0.97_Fe^3+^_0.02_Ti_0.01_)_Σ=2_Si_2.00_O_8_ ; = lighter gray inclusion = celsian ; Ba_1.00_CO_3_ = lightest areas = witherite
Raman shift (cm-1)	intensity
111.399	0
114.773	193.524
118.148	1422.39
121.523	2369.88
124.898	2323.62
128.273	1778.88
131.648	1305.13
135.022	1150.78
138.397	1422.5
141.772	1473.87
145.147	1051.4
148.522	784.72
151.896	535.551
155.271	446.258
158.646	298.158
162.021	259.198
165.396	174.56
168.77	104.492
172.145	51.0925
175.52	17.1608
178.895	24.0745
182.27	7.96838
185.644	14.536
189.019	25.4071
192.394	29.1371
195.769	34.9493
199.144	13.0008
202.519	5.75818
205.893	26.5253
209.268	42.7712
212.643	59.9501
216.018	90.3159
219.393	42.4268
222.767	5.47928
226.142	16.6734
229.517	3.57571
232.892	29.9623
236.267	61.5388
239.642	92.8161
243.016	79.9389
246.391	72.3815
249.766	34.4591
253.141	12.5667
256.516	0.291321
259.89	10.4841
263.265	8.95355
266.64	1.58637
270.015	17.3339
273.39	26.2269
276.764	59.1296
280.139	99.9828
283.514	186.297
286.889	265.916
290.264	375.268
293.639	551.952
297.013	753.969
300.388	833.322
303.763	763.999
307.138	487.761
310.513	225.922
313.887	105.79
317.262	79.9669
320.637	217.917
324.012	585.992
327.387	903.278
330.762	294.678
334.136	68.9672
337.511	71.8252
340.886	114.458
344.261	69.2539
347.635	8.79102
351.01	77.3829
354.385	1.80176
357.76	171.665
361.135	533.153
364.51	1108.5
367.884	1860.94
371.259	2660.56
374.634	3052.54
378.009	2699.89
381.384	1873.34
384.759	1144.83
388.133	647.059
391.508	374.122
394.883	212.769
398.258	152.514
401.633	225.711
405.007	515.294
408.382	1095.55
411.757	2145.56
415.132	3874.46
418.507	6510.15
421.881	8879.97
425.256	6811.27
428.631	3851.9
432.006	2518.71
435.381	2067.4
438.755	2178.61
442.13	2518.98
445.505	2690.05
448.88	2324.96
452.255	1666.85
455.63	1043.41
459.004	624.496
462.379	355.564
465.754	222.821
469.129	122.411
472.504	52.1644
475.878	11.4636
479.253	13.207
482.628	14.8255
486.003	3.90265
489.378	25.8292
492.752	1.64746
496.127	5.85791
499.502	17.2278
502.877	7.19598
506.252	2.56833
509.627	14.7407
513.001	10.6661
516.376	29.2062
519.751	58.5302
523.126	64.2634
526.501	75.6837
529.875	105.034
533.25	119.445
536.625	143.688
540	186.605
543.375	274.196
546.75	384.687
550.124	591.818
553.499	727.778
556.874	562.207
560.249	300.212
563.624	149.545
566.998	103.199
570.373	76.7338
573.748	61.9703
577.123	41.4213
580.498	39.9727
583.872	29.4138
587.247	26.568
590.622	27.7815
593.997	23.3519
597.372	18.2725
600.747	8.02801
604.121	13.9245
607.496	6.42529
610.871	25.4165
614.246	21.0289
617.621	11.5975
620.995	21.6013
624.37	31.1906
627.745	34.1005
631.12	42.4858
634.495	60.8304
637.87	72.4562
641.244	97.1636
644.619	156.554
647.994	268.778
651.369	425.837
654.744	683.098
658.118	891.401
661.493	666.888
664.868	317.815
668.243	162.976
671.618	104.817
674.992	52.4172
678.367	19.8631
681.742	28.7029
685.117	13.5962
688.492	1.08246
691.866	5.52539
695.241	0.122681
698.616	6.14862
701.991	3.41089
705.366	3.09738
708.741	6.58649
712.115	4.64566
715.49	4.95749
718.865	6.8775
722.24	4.88559
725.615	7.98096
728.99	19.3178
732.364	9.25571
735.739	16.5197
739.114	18.9373
742.489	8.88049
745.864	15.9251
749.238	32.7161
752.613	11.073
755.988	65.6235
759.363	59.3155
762.738	26.6158
766.112	11.1222
769.487	15.5613
772.862	37.7937
776.237	19.0713
779.612	31.6172
782.986	32.7465
786.361	31.1055
789.736	19.4457
793.111	0.471893
796.486	10.3351
799.861	11.8774
803.235	10.4308
806.61	7.69675
809.985	20.4542
813.36	18.5073
816.735	21.9098
820.109	25.5588
823.484	40.2773
826.859	37.7107
830.234	48.0179
833.609	29.8839
836.984	31.6642
840.358	40.6502
843.733	45.5378
847.108	43.1179
850.483	46.4708
853.858	65.2286
857.232	44.7718
860.607	54.434
863.982	50.8322
867.357	65.5938
870.732	72.331
874.106	71.0591
877.481	95.6358
880.856	81.9382
884.231	76.1551
887.606	92.4359
890.981	96.6903
894.355	71.7327
897.73	53.9565
901.105	51.3349
904.48	35.698
907.855	29.817
911.229	33.3708
914.604	10.2355
917.979	10.2553
921.354	0.669708
924.729	5.49844
928.104	20.9026
931.478	16.9281
934.853	6.7739
938.228	7.9808
941.603	64.2249
944.977	148.844
948.352	314.3
951.727	579.438
955.102	772.02
958.477	910.453
961.852	885.833
965.226	955.722
968.601	909.118
971.976	610.663
975.351	524.323
978.726	702.429
982.101	994.037
985.475	1431.63
988.85	1480.9
992.225	1094.85
995.6	642.016
998.975	347.902
1002.35	183.656
1005.72	77.1941
1009.1	58.3265
1012.47	33.0782
1015.85	140.089
1019.22	193.054
1022.6	139.415
1025.97	88.1071
1029.35	29.4043
1032.72	16.8934
1036.1	25.7163
1039.47	34.6417
1042.85	14.103
1046.22	58.6316
1049.6	143.183
1052.97	231.841
1056.35	413.058
1059.72	628.267
1063.1	926.859
1066.47	1472.09
1069.85	2188.95
1073.22	3468.5
1076.6	5507.28
1079.97	9094.35
1083.35	14472.9
1086.72	20466.7
1090.09	19569.7
1093.47	12032.2
1096.84	6860.13
1100.22	4342.91
1103.59	2944.57
1106.97	2104.71
1110.34	1540.91
1113.72	1086.58
1117.09	761.106
1120.47	560.873
1123.84	390.366
1127.22	295.312
1130.59	235.487
1133.97	211.893
1137.34	282.087
1140.72	340.908
1144.09	296.874
1147.47	184.936
1150.84	66.0745
1154.22	8.72363
1157.59	15.6514
1160.97	0.731323
1164.34	14.5609
1167.71	6.98511
1171.09	14.5982
1174.46	5.9613
1177.84	2.32846
1181.21	15.2941
1184.59	24.5458
1187.96	49.4454
1191.34	33.5619
1194.71	29.4572
1198.09	50.7125
1201.46	59.8522
1204.84	61.2104
1208.21	70.6136
1211.59	71.0391
1214.96	78.5138
1218.34	94.3401
1221.71	86.2497
1225.09	84.888
1228.46	70.6449
1231.84	59.0173
1235.21	58.0237
1238.59	49.0352
1241.96	46.9461
1245.34	29.6168
1248.71	28.5441
1252.09	7.50391
1255.46	9.79275
1258.84	11.8367
1262.21	12.4347
1265.59	3.62595
1268.96	1.47064
1272.33	11.5932
1275.71	17.6276
1279.08	11.2262
1282.46	10.3025
1285.83	12.1472
1289.21	15.7016
