Measurement: Raman, 785 nm, unoriented, Raman Data Processed
Mineral: Gillespite
Rruff sample: R061031
Ideal chemistry: BaFe^2+^Si_4_O_10_
Locality: La Madrelena mine, Tres Pozos, Municipio de Tecate, Baja California Norte, Mexico
Source: Michael Scott
Description: Rose-red cleavage fragment embedded in white sanbornite
Measured chemistry: Ba_1.00_Fe^2+^_1.00_(Si_3.97_Ti_0.03_)_Σ=4_O_10_ ; = host gray phase : (Ba_0.99_K_0.01_)(Al_0.97_Fe^3+^_0.02_Ti_0.01_)_Σ=2_Si_2.00_O_8_ ; = lighter gray inclusion = celsian ; Ba_1.00_CO_3_ = lightest areas = witherite
Raman shift (cm-1)	intensity
122.01	0
124.903	21.3236
127.795	150.12
130.688	542.044
133.581	786.112
136.473	742.858
139.366	687.613
142.259	707.38
145.151	863.363
148.044	1205.86
150.937	1237.45
153.83	865.466
156.722	575.636
159.615	469.553
162.508	394.151
165.4	319.615
168.293	311.075
171.186	298.077
174.078	220.222
176.971	190.062
179.864	166.098
182.757	122.979
185.649	92.0285
188.542	66.4925
191.435	31.7972
194.327	38.106
197.22	36.7731
200.113	18.5182
203.006	42.5958
205.898	29.1515
208.791	40.9759
211.684	31.9868
214.576	67.1028
217.469	43.7394
220.362	31.339
223.254	8.19769
226.147	6.91705
229.04	6.82178
231.933	22.8118
234.825	16.856
237.718	48.9617
240.611	63.609
243.503	50.4986
246.396	11.3847
249.289	7.44043
252.181	14.6274
255.074	0.946594
257.967	4.54279
260.86	20.8898
263.752	11.9095
266.645	14.9734
269.538	3.75964
272.43	1.71643
275.323	21.6232
278.216	66.8497
281.108	135.216
284.001	203.623
286.894	252.511
289.786	404.102
292.679	578.402
295.572	802.559
298.465	973.372
301.357	1037.89
304.25	857.059
307.143	578.53
310.035	306.259
312.928	112.969
315.821	68.6375
318.714	167.129
321.606	472.828
324.499	951.588
327.392	1040.23
330.284	412.585
333.177	122.681
336.07	78.1346
338.962	142.366
341.855	178.272
344.748	92.2975
347.641	0.042847
350.533	58.4932
353.426	33.6561
356.319	78.7194
359.211	276.335
362.104	654.494
364.997	1192.11
367.889	1894.53
370.782	2728.02
373.675	3292.92
376.568	3126.12
379.46	2437.76
382.353	1671.71
385.246	1053.31
388.138	629.833
391.031	349.911
393.924	206.227
396.817	118.919
399.709	137.041
402.602	201.22
405.495	436.608
408.387	831.814
411.28	1646.63
414.173	3135.32
417.065	5516.11
419.958	8381.6
422.851	8754.44
425.743	5769.45
428.636	3483.05
431.529	2315.32
434.422	1832.19
437.314	1852.16
440.207	2108.34
443.1	2334.54
445.992	2379.55
448.885	2065.3
451.778	1505.26
454.671	1010.56
457.563	654.315
460.456	445.5
463.349	249.829
466.241	175.582
469.134	113.928
472.027	53.4749
474.919	27.031
477.812	29.2101
480.705	2.58307
483.598	30.4512
486.49	16.946
489.383	21.6374
492.276	0.576904
495.168	0.568359
498.061	1.89978
500.954	4.89246
503.846	4.26581
506.739	37.5832
509.632	11.1802
512.524	21.9875
515.417	40.0021
518.31	53.9534
521.203	56.0485
524.095	69.2552
526.988	61.1696
529.881	81.7548
532.773	82.2691
535.666	106.849
538.559	139.112
541.452	169.189
544.344	224.75
547.237	343.954
550.13	540.664
553.022	673.236
555.915	561.039
558.808	341.454
561.7	188.371
564.593	125.831
567.486	72.3004
570.379	58.094
573.271	54.828
576.164	49.5984
579.057	37.3496
581.949	26.4956
584.842	21.2956
587.735	34.9524
590.627	1.99655
593.52	3.55362
596.413	11.4877
599.306	4.10632
602.198	7.14658
605.091	13.2336
607.984	7.01877
610.876	4.21155
613.769	15.4553
616.662	11.8952
619.554	9.8978
622.447	2.92599
625.34	3.95071
628.232	28.5611
631.125	35.1176
634.018	32.7414
636.911	32.3929
639.803	62.1286
642.696	97.2528
645.589	135.447
648.481	212.603
651.374	375.629
654.267	587.802
657.159	760.38
660.052	679.786
662.945	380.673
665.838	200.893
668.73	129.772
671.623	80.4942
674.516	48.126
677.408	40.3044
680.301	35.379
683.194	8.07935
686.087	2.24902
688.979	8.43948
691.872	6.39847
694.765	6.53558
697.657	0.032593
700.55	14.1625
703.443	1.93955
706.335	14.4489
709.228	2.70608
712.121	8.29401
715.014	10.8041
717.906	14.0118
720.799	10.8318
723.692	14.2238
726.584	13.0291
729.477	20.4154
732.37	12.1691
735.263	8.95084
738.155	8.73398
741.048	6.30914
743.941	9.39288
746.833	5.78766
749.726	35.9772
752.619	32.5906
755.511	41.3151
758.404	43.1879
761.297	27.1677
764.189	7.05566
767.082	2.92279
769.975	10.9345
772.868	30.2365
775.76	17.4412
778.653	35.7878
781.546	25.7608
784.438	37.7884
787.331	13.3665
790.224	17.2827
793.116	6.31754
796.009	9.09976
798.902	1.25061
801.795	3.10281
804.687	16.0375
807.58	18.4813
810.473	10.7547
813.365	23.1447
816.258	11.3547
819.151	4.37152
822.043	5.66959
824.936	16.7679
827.829	16.0895
830.722	2.86539
833.614	16.1134
836.507	11.7856
839.4	25.4047
842.292	29.1571
845.185	18.6304
848.078	17.7951
850.971	23.4709
853.863	9.45819
856.756	25.1589
859.649	35.4027
862.541	22.9614
865.434	23.1623
868.327	29.6984
871.219	33.7215
874.112	35.6512
877.005	49.3521
879.898	49.471
882.79	57.3755
885.683	46.4587
888.576	37.8794
891.468	36.2662
894.361	40.785
897.254	46.5481
900.146	45.0631
903.039	19.9801
905.932	40.4585
908.824	35.1774
911.717	12.9615
914.61	7.83444
917.503	2.46606
920.395	15.3737
923.288	2.9408
926.181	2.06513
929.073	1.43268
931.966	1.82556
934.859	9.1106
937.751	3.3219
940.644	2.96411
943.537	27.8645
946.43	84.2747
949.322	216.083
952.215	323.425
955.108	434.188
958	516.133
960.893	458.429
963.786	394.538
966.678	386.432
969.571	307.998
972.464	191.125
975.357	240.919
978.249	304.429
981.142	489.894
984.035	705.747
986.927	819.616
989.82	749.526
992.713	542.189
995.606	367.826
998.498	205.764
1001.39	119.974
1004.28	84.6357
1007.18	38.4107
1010.07	26.8742
1012.96	42.6793
1015.85	109.981
1018.75	140.421
1021.64	142.989
1024.53	53.9453
1027.42	5.23444
1030.32	25.6698
1033.21	25.5159
1036.1	12.9451
1039	17.8495
1041.89	14.9903
1044.78	50.9516
1047.67	59.6225
1050.57	98.6481
1053.46	163.008
1056.35	235.561
1059.24	330.104
1062.14	452.626
1065.03	640.547
1067.92	925.934
1070.82	1312.91
1073.71	1913.57
1076.6	2917.01
1079.49	4700.06
1082.39	7553.39
1085.28	11024.4
1088.17	12916.8
1091.07	10186.6
1093.96	6291.84
1096.85	3859.82
1099.74	2554.84
1102.63	1763.1
1105.53	1303.36
1108.42	979.888
1111.31	738.164
1114.21	544.351
1117.1	372.567
1119.99	274.307
1122.88	211.168
1125.78	160.237
1128.67	119.847
1131.56	103.517
1134.45	80.2247
1137.35	109.82
1140.24	100.615
1143.13	117.606
1146.03	80.7479
1148.92	30.0146
1151.81	28.2701
1154.7	14.7562
1157.6	0.214111
1160.49	16.3048
1163.38	6.11172
1166.28	0.397156
1169.17	4.82523
1172.06	1.50549
1174.95	16.7735
1177.85	9.70837
1180.74	4.53693
1183.63	12.8333
1186.52	25.7648
1189.42	31.0451
1192.31	38.2517
1195.2	24.7535
1198.1	26.2169
1200.99	48.2242
1203.88	26.0713
1206.77	31.4235
1209.66	50.3322
1212.56	51.412
1215.45	52.7652
1218.34	53.3855
1221.24	47.0755
1224.13	42.4473
1227.02	36.5465
1229.91	25.4766
1232.81	25.3863
1235.7	40.9547
1238.59	12.7702
1241.48	22.6784
1244.38	24.6864
1247.27	17.3029
1250.16	9.7973
1253.06	21.7673
1255.95	6.38535
1258.84	24.5704
1261.73	1.17481
