Measurement: Raman, 780 nm, unoriented, Raman Data Processed
Mineral: Gillardite
Rruff sample: R100074
Ideal chemistry: Cu^2+^_3_Ni^2+^Cl^1-^_2_(OH)_6_
Locality: 132 North deposit, Widgiemooltha, Western Australia, Australia
Source: Marcus Origlieri
Description: Aggregates of dark green flat rhombohedra, associated with colorless gypsum and yellowish-green massive gaspeite
Raman shift (cm-1)	intensity
99.7559	0
103.131	7.82172
106.505	16.8226
109.88	12.8145
113.255	0.803864
116.63	12.3459
120.005	26.9055
123.38	65.9318
126.754	137.913
130.129	77.5445
133.504	26.4184
136.879	12.6193
140.254	12.2197
143.629	6.40895
147.003	7.71136
150.378	18.4677
153.753	17.9555
157.128	0.456894
160.503	2.16681
163.877	1.51613
167.252	2.85241
170.627	4.34018
174.002	6.1745
177.377	7.87475
180.751	11.0091
184.126	11.899
187.501	13.7228
190.876	15.3122
194.251	15.6837
197.625	15.2539
201	16.7047
204.375	16.2136
207.75	17.6557
211.125	19.0816
214.5	17.7
217.874	16.6934
221.249	15.0834
224.624	13.6584
227.999	13.4565
231.374	13.9034
234.749	12.4944
238.123	12.2696
241.498	12.3908
244.873	11.5367
248.248	11.3311
251.623	9.67162
254.997	8.54548
258.372	6.8487
261.747	6.77203
265.122	7.17812
268.497	5.11888
271.872	4.31124
275.246	3.10658
278.621	2.86571
281.996	2.26217
285.371	2.26871
288.745	1.36776
292.12	1.0003
295.495	1.22267
298.87	0.278149
302.245	0.348198
305.62	0.274864
308.994	0.152767
312.369	0.752724
315.744	0.731552
319.119	0.506592
322.494	0.23748
325.868	0.375328
329.243	0.038769
332.618	0.606815
335.993	0.221279
339.368	0.117939
342.743	0.424934
346.117	0.030571
349.492	1.34587
352.867	1.17755
356.242	1.89988
359.617	1.99451
362.991	4.53814
366.366	8.2772
369.741	11.2879
373.116	11.7942
376.491	6.1894
379.865	1.98127
383.24	0.698368
386.615	0.21167
389.99	0.147141
393.365	1.67311
396.74	2.34346
400.114	4.70042
403.489	6.99226
406.864	10.3895
410.239	10.0683
413.614	6.01801
416.988	3.02293
420.363	2.033
423.738	1.44489
427.113	0.652592
430.488	1.4606
433.863	0.389671
437.237	0.396881
440.612	0.43539
443.987	0.323139
447.362	0.112789
450.737	0.231354
454.111	0.582436
457.486	0.940811
460.861	1.28986
464.236	1.20625
467.611	1.5462
470.986	1.66562
474.36	2.30606
477.735	2.70709
481.11	2.2742
484.485	2.58257
487.86	3.46199
491.234	3.76443
494.609	5.08222
497.984	8.00333
501.359	11.0834
504.734	13.8248
508.108	10.4698
511.483	7.11946
514.858	4.43613
518.233	2.83803
521.608	1.704
524.982	1.00429
528.357	0.607601
531.732	0.383579
535.107	0.715338
538.482	0.847694
541.857	0.459518
545.231	0.563665
548.606	0.485395
551.981	1.32052
555.356	1.27582
558.731	1.0238
562.106	0.097591
565.48	0.116945
568.855	0.175219
572.23	0.014437
575.605	0.156553
578.98	0.107269
582.354	0.558472
585.729	0.344316
589.104	0.162786
592.479	0.135202
595.854	0.209784
599.229	0.004183
602.603	0.553392
605.978	0.43148
609.353	0.681131
612.728	0.067156
616.102	0.23201
619.477	0.734087
622.852	0.659481
626.227	0.659981
629.602	0.227976
632.977	0.327604
636.351	0.596323
639.726	0.656652
643.101	0.428871
646.476	0.335272
649.851	0.436865
653.226	0.883965
656.6	0.229908
659.975	1.166
663.35	0.974165
666.725	0.389322
670.1	0.751621
673.474	0.68792
676.849	0.15103
680.224	0.079115
683.599	0.046291
686.974	0.242508
690.348	0.161158
693.723	0.12199
697.098	0.295338
700.473	0.045153
703.848	0.085419
707.222	0.329197
710.597	0.010149
713.972	0.774929
717.347	1.12976
720.722	2.32692
724.097	3.4514
727.471	4.56429
730.846	6.53485
734.221	8.68075
737.596	8.72036
740.971	6.43555
744.346	4.26965
747.72	2.83938
751.095	1.98917
754.47	0.896549
757.845	0.880224
761.22	0.703854
764.594	0.255512
767.969	0.755419
771.344	0.161432
774.719	0.234844
778.094	0.401312
781.468	0.10984
784.843	0.027966
788.218	0.138329
791.593	1.07949
794.968	0.885971
798.342	1.19826
801.717	0.960041
805.092	1.22768
808.467	1.43898
811.842	1.90419
815.217	1.53543
818.591	2.1289
821.966	1.60059
825.341	1.96487
828.716	2.06402
832.091	2.13392
835.466	2.54279
838.84	2.16402
842.215	3.3305
845.59	2.97859
848.965	3.16041
852.34	3.41688
855.714	3.28457
859.089	3.4537
862.464	3.2126
865.839	2.96646
869.214	3.22952
872.588	2.91154
875.963	2.69859
879.338	1.64166
882.713	2.06456
886.088	1.69008
889.462	1.57021
892.837	1.98124
896.212	1.32719
899.587	0.946941
902.962	0.811935
906.337	0.213854
909.711	0.37344
913.086	0.092838
916.461	0.130487
919.836	0.042791
923.211	0.357355
926.585	1.37874
929.96	1.68486
933.335	3.57874
936.71	6.31865
940.085	10.1367
943.46	14.4802
946.834	18.3566
950.209	15.5858
953.584	9.62623
956.959	5.19931
960.334	3.54559
963.708	1.95817
967.083	1.74322
970.458	1.44112
973.833	0.99925
977.208	0.471392
980.582	1.00963
983.957	0.067629
987.332	0.494532
990.707	0.410124
994.082	0.380985
997.457	0.510933
1000.83	0.38513
1004.21	0.48008
1007.58	0.425493
1010.96	0.317652
1014.33	1.01476
1017.71	0.414536
1021.08	0.657345
1024.45	0.681694
1027.83	1.03746
1031.2	1.04202
1034.58	0.926897
1037.95	1.24739
1041.33	1.11656
1044.7	0.950745
1048.08	1.00342
1051.45	1.23499
1054.83	0.770515
1058.2	1.23053
1061.58	0.805796
1064.95	0.499573
1068.33	1.26622
1071.7	0.878296
1075.08	0.527987
1078.45	0.442253
1081.83	0.512754
1085.2	0.28993
1088.58	0.235754
1091.95	0.291597
1095.33	0.601198
1098.7	0.315796
1102.08	0.094088
1105.45	0.240765
1108.83	0.156982
1112.2	0.46979
1115.58	0.228634
1118.95	0.21319
1122.33	0.322727
1125.7	0.149942
1129.07	0.165766
1132.45	0.429642
1135.82	0.184572
1139.2	0.341612
1142.57	0.346218
1145.95	0.346395
1149.32	0.441402
1152.7	0.234344
1156.07	0.580965
1159.45	0.633345
1162.82	0.734499
1166.2	0.643223
1169.57	0.061424
1172.95	0.556227
1176.32	0.680424
1179.7	0.4613
1183.07	0.718607
1186.45	0.947901
1189.82	0.694717
1193.2	0.631035
1196.57	0.246456
1199.94	0.322617
1203.32	0.930943
1206.69	0.909174
1210.07	0.588778
1213.44	0.222422
1216.82	0.62603
1220.19	0.08066
1223.57	0.106657
1226.94	0.171625
1230.32	0.573292
1233.69	0.366653
1237.07	0.061323
1240.44	0.185482
1243.82	0.687458
1247.19	0.600721
1250.57	0.851881
1253.94	0.38727
1257.32	0.56745
1260.69	0.476925
1264.07	0.091711
1267.44	0.025476
1270.82	0.514336
1274.19	0.368734
1277.57	0.704031
1280.94	0.40399
1284.32	0.038654
