Measurement: Raman, 532 nm, unoriented, Raman Data Processed
Mineral: Gillardite
Rruff sample: R110068
Ideal chemistry: Cu^2+^_3_Ni^2+^Cl^1-^_2_(OH)_6_
Locality: 132 North deposit, Widgiemooltha, Western Australia, Australia
Source: Renato & Adriana Pagano
Description: Aggregates of dark green flat rhombohedra
Raman shift (cm-1)	intensity
90.7474	0
94.1222	18.2774
97.4971	12.5478
100.872	7.99423
104.247	2.7164
107.621	40.7671
110.996	54.5891
114.371	78.7681
117.746	123.628
121.121	188.393
124.496	398.563
127.87	481.984
131.245	181.451
134.62	85.8961
137.995	60.8776
141.37	61.5391
144.744	55.4637
148.119	82.5463
151.494	117.9
154.869	38.8717
158.244	5.12878
161.619	0.977631
164.993	1.43835
168.368	1.1615
171.743	1.37479
175.118	0.563919
178.493	0.324432
181.868	0.137115
185.242	0.526352
188.617	2.56738
191.992	3.22104
195.367	2.75803
198.742	2.14258
202.116	2.69244
205.491	1.31876
208.866	0.917053
212.241	2.51183
215.616	2.18031
218.99	4.58549
222.365	3.8593
225.74	3.81706
229.115	5.22809
232.49	0.193863
235.865	1.76755
239.239	0.756104
242.614	1.28136
245.989	2.58643
249.364	3.01883
252.739	3.9443
256.113	4.52591
259.488	6.11003
262.863	8.85692
266.238	9.65746
269.613	16.271
272.988	22.4869
276.362	29.0586
279.737	35.4084
283.112	36.6048
286.487	27.5934
289.862	17.4525
293.236	8.25728
296.611	3.22424
299.986	0.577347
303.361	2.00659
306.736	2.39232
310.111	2.46889
313.485	2.42995
316.86	0.078415
320.235	1.60292
323.61	5.46258
326.985	7.90497
330.359	11.1476
333.734	15.4699
337.109	21.9138
340.484	28.1145
343.859	41.8972
347.233	62.9139
350.608	99.0391
353.983	166.473
357.358	260.08
360.733	376.815
364.108	542.551
367.482	777.611
370.857	922.43
374.232	664.098
377.607	307.257
380.982	140.648
384.356	76.0395
387.731	55.8476
391.106	66.9819
394.481	100.422
397.856	154.083
401.231	238.339
404.605	360.861
407.98	460.5
411.355	408.646
414.73	262.229
418.105	158.656
421.479	103.3
424.854	71.922
428.229	55.6643
431.604	42.056
434.979	32.2946
438.354	24.1926
441.728	18.5258
445.103	11.283
448.478	5.02496
451.853	1.61621
455.228	3.82628
458.603	4.63297
461.977	2.30199
465.352	3.58417
468.727	10.4932
472.102	19.2396
475.477	31.1619
478.851	38.1598
482.226	47.3634
485.601	63.1439
488.976	100.026
492.351	157.847
495.726	241.325
499.1	362.371
502.475	505.179
505.85	557.346
509.225	432.152
512.6	277.047
515.974	172.261
519.349	109.524
522.724	73.4313
526.099	49.1725
529.474	32.1023
532.848	21.2265
536.223	12.7431
539.598	7.558
542.973	2.84733
546.348	1.00905
549.722	0.062424
553.097	0.205299
556.472	0.804588
559.847	0.821304
563.222	0.570244
566.597	0.891571
569.971	0.078217
573.346	0.846809
576.721	2.43707
580.096	3.36449
583.471	5.20567
586.846	6.64518
590.22	8.20148
593.595	9.73052
596.97	10.2299
600.345	9.93865
603.72	11.6212
607.094	10.8892
610.469	9.36855
613.844	7.02
617.219	6.05039
620.594	4.12685
623.968	3.75947
627.343	3.17776
630.718	2.17303
634.093	2.91672
637.468	3.17719
640.843	2.67591
644.217	3.55614
647.592	2.92732
650.967	2.84847
654.342	3.34956
657.717	3.03865
661.091	1.30985
664.466	1.57582
667.841	2.03635
671.216	0.684875
674.591	0.057365
677.966	0.174667
681.34	0.259583
684.715	0.65786
688.09	0.357109
691.465	0.240982
694.84	0.374802
698.215	0.634712
701.589	1.35301
704.964	3.2411
708.339	5.11027
711.714	9.31831
715.089	15.9804
718.463	25.689
721.838	39.8175
725.213	60.7399
728.588	87.197
731.963	114.683
735.337	138.014
738.712	132.205
742.087	99.567
745.462	67.2056
748.837	45.8419
752.212	34.3618
755.586	25.8207
758.961	21.0464
762.336	15.5387
765.711	13.5002
769.086	11.2304
772.46	9.46721
775.835	7.75216
779.21	5.12324
782.585	5.07403
785.96	3.93079
789.335	3.05059
792.709	2.8607
796.084	0.003723
799.459	0.062439
802.834	1.15033
806.209	0.49118
809.583	1.29628
812.958	1.32579
816.333	0.960709
819.708	0.630051
823.083	2.20933
826.457	3.15971
829.832	4.04507
833.207	4.46686
836.582	5.25813
839.957	5.44367
843.332	6.76491
846.706	5.72968
850.081	6.59448
853.456	4.72672
856.831	4.60799
860.206	3.0385
863.581	0.771591
866.955	0.086502
870.33	2.06822
873.705	1.4066
877.08	1.01074
880.455	2.54347
883.829	6.48805
887.204	10.0151
890.579	14.6441
893.954	18.0305
897.329	16.5207
900.703	14.4499
904.078	13.3237
907.453	13.2428
910.828	17.126
914.203	25.6434
917.578	39.538
920.952	60.4207
924.327	92.0353
927.702	137.903
931.077	212.011
934.452	329.073
937.827	495.924
941.201	704.661
944.576	935.024
947.951	1034.41
951.326	834.844
954.701	518.149
958.075	301.342
961.45	184.903
964.825	123.436
968.2	91.5124
971.575	71.2528
974.949	57.3489
978.324	44.8952
981.699	31.4403
985.074	20.8129
988.449	12.0786
991.823	7.16014
995.198	2.69653
998.573	0.673195
1001.95	0.540085
1005.32	0.899345
1008.7	1.44823
1012.07	1.07147
1015.45	0.45166
1018.82	0.523033
1022.2	0.203865
1025.57	0.400459
1028.95	0.346657
1032.32	1.32953
1035.7	2.79759
1039.07	3.27476
1042.45	3.86163
1045.82	4.66735
1049.19	5.46553
1052.57	4.39269
1055.94	4.78736
1059.32	3.93843
1062.69	4.20085
1066.07	3.99885
1069.44	4.28271
1072.82	3.81561
1076.19	3.85386
1079.57	2.91771
1082.94	3.89897
1086.32	3.46738
1089.69	3.84509
1093.07	3.50257
1096.44	3.47566
1099.82	3.09141
1103.19	3.06835
1106.57	3.09597
1109.94	1.94801
1113.32	0.902142
1116.69	1.15095
1120.07	3.65857
1123.44	1.67155
1126.82	1.52669
1130.19	0.060398
1133.57	0.540253
1136.94	0.025677
1140.32	0.042099
1143.69	0.453674
1147.07	0.108509
1150.44	0.053719
1153.82	0.42485
1157.19	0.002094
1160.56	0.363884
1163.94	0.878716
1167.31	0.044399
1170.69	0.296253
1174.06	0.437431
1177.44	0.091705
1180.81	0.711048
1184.19	0.640503
1187.56	0.331612
1190.94	0.914948
1194.31	0.185291
1197.69	0.824127
1201.06	0.486805
1204.44	0.476688
1207.81	0.573505
1211.19	1.59883
1214.56	2.07513
1217.94	1.88322
1221.31	2.67757
1224.69	2.17648
1228.06	2.79822
1231.44	2.21753
1234.81	2.38765
1238.18	2.64421
1241.56	2.6425
1244.93	2.79979
1248.31	2.41722
1251.68	2.07309
1255.06	2.01958
1258.43	1.87775
1261.81	1.22962
1265.18	0.734428
1268.56	1.39994
1271.93	0.96862
1275.31	0.813725
1278.68	0.271259
1282.06	0.479511
1285.43	0.056355
1288.81	0.186184
1292.18	0.357185
1295.56	0.454208
1298.93	0.172009
