Measurement: Raman, 532 nm, unoriented, Raman Data Processed
Mineral: Gillardite
Rruff sample: R100074
Ideal chemistry: Cu^2+^_3_Ni^2+^Cl^1-^_2_(OH)_6_
Locality: 132 North deposit, Widgiemooltha, Western Australia, Australia
Source: Marcus Origlieri
Description: Aggregates of dark green flat rhombohedra, associated with colorless gypsum and yellowish-green massive gaspeite
Raman shift (cm-1)	intensity
178.72	0
181.612	7.37854
184.505	11.7369
187.398	24.1123
190.29	32.652
193.183	51.152
196.076	22.3044
198.968	18.3695
201.861	17.1486
204.754	21.6899
207.647	22.7664
210.539	18.012
213.432	18.1115
216.325	15.7423
219.217	14.7528
222.11	20.9152
225.003	19.8572
227.895	15.068
230.788	23.7769
233.681	20.1069
236.573	15.6429
239.466	4.98059
242.359	4.80994
245.252	4.44202
248.144	8.05493
251.037	7.65588
253.93	20.1085
256.822	13.1834
259.715	9.15662
262.608	13.5842
265.5	16.3165
268.393	18.8643
271.286	29.4729
274.179	31.9116
277.071	34.1798
279.964	33.3071
282.857	34.0087
285.75	31.9716
288.642	19.0373
291.535	8.87378
294.428	4.95581
297.32	5.27759
300.213	5.77319
303.106	4.16638
305.998	6.177
308.891	0.247437
311.784	2.52502
314.676	10.0209
317.569	1.58765
320.462	7.82739
323.355	20.1621
326.247	4.70862
329.14	18.9243
332.033	23.6219
334.925	29.3032
337.818	39.5984
340.711	58.209
343.603	65.9686
346.496	96.184
349.389	129.319
352.281	192.51
355.174	287.165
358.067	400.997
360.96	506.327
363.852	652.014
366.745	868.607
369.638	1076.63
372.53	994.141
375.423	586.844
378.316	292.998
381.209	149.106
384.101	99.3
386.994	81.6744
389.887	100.605
392.779	133.513
395.672	178.204
398.565	243.694
401.457	329.444
404.35	444.82
407.243	518.639
410.135	470.034
413.028	336.684
415.921	206.003
418.814	132.067
421.706	84.5636
424.599	58.0021
427.492	45.498
430.384	38.0946
433.277	31.1603
436.17	21.6115
439.062	23.8697
441.955	9.78345
444.848	3.93335
447.741	2.96106
450.633	0.226074
453.526	5.77026
456.419	6.24609
459.311	3.19495
462.204	4.44324
465.097	10.3562
467.99	19.9658
470.882	24.3722
473.775	19.3313
476.668	42.1765
479.56	41.2269
482.453	53.3182
485.346	62.3772
488.238	106.209
491.131	147.387
494.024	200.61
496.916	275.196
499.809	394.631
502.702	498.816
505.595	519.613
508.487	392.44
511.38	262.944
514.273	167.985
517.165	113.177
520.058	82.9885
522.951	56.1639
525.844	51.1138
528.736	38.7673
531.629	26.5303
534.522	21.3452
537.414	12.904
540.307	15.7394
543.2	11.5134
546.092	10.6603
548.985	13.0655
551.878	18.5446
554.771	22.3063
557.663	28.822
560.556	19.3604
563.449	7.49023
566.341	12.989
569.234	6.11719
572.127	1.36939
575.019	2.33276
577.912	3.14392
580.805	2.81567
583.698	9.07324
586.59	13.2922
589.483	12.421
592.376	17.269
595.268	9.52112
598.161	11.3026
601.054	13.2615
603.946	8.3363
606.839	14.5085
609.732	17.2494
612.625	14.0455
615.517	13.811
618.41	11.5197
621.303	4.9895
624.195	12.8085
627.088	7.63831
629.981	9.91028
632.873	6.96008
635.766	1.21814
638.659	4.57336
641.552	0.65625
644.444	0.526245
647.337	0.007446
650.23	3.03223
653.122	6.09619
656.015	7.68506
658.908	12.0862
661.8	4.57996
664.693	11.3105
667.586	16.8395
670.479	13.8477
673.371	13.6598
676.264	19.2758
679.157	12.0923
682.049	7.68933
684.942	8.12646
687.835	2.21082
690.727	2.67444
693.62	8.6106
696.513	7.24414
699.405	6.77405
702.298	3.01502
705.191	6.06067
708.084	18.0753
710.976	27.9955
713.869	37.1511
716.762	44.1415
719.654	58.7612
722.547	79.47
725.44	120.879
728.332	152.348
731.225	193.589
734.118	223.06
737.011	234.136
739.903	187.567
742.796	127.652
745.689	95.5201
748.581	68.936
751.474	50.2803
754.367	34.4958
757.26	21.071
760.152	21.3117
763.045	23.6553
765.938	13.1356
768.83	17.2377
771.723	11.5027
774.616	11.0884
777.508	17.3138
780.401	11.3793
783.294	6.13354
786.187	7.17871
789.079	8.54102
791.972	10.8539
794.865	5.6925
797.757	2.79431
800.65	0.543091
803.543	3.55627
806.435	1.59966
809.328	2.81055
812.221	1.45911
815.114	0.323975
818.006	3.09558
820.899	7.776
823.792	1.70373
826.684	1.93823
829.577	0.804199
832.47	7.29602
835.362	2.04785
838.255	6.75879
841.148	1.91211
844.04	9.32983
846.933	5.65832
849.826	1.00415
852.719	1.73267
855.611	0.701172
858.504	1.15991
861.397	2.27527
864.289	0.283203
867.182	2.05212
870.075	2.58253
872.967	1.57202
875.86	2.98169
878.753	3.16028
881.646	12.754
884.538	9.33618
887.431	18.5936
890.324	33.2091
893.216	42.9987
896.109	42.6333
899.002	36.0923
901.894	27.7721
904.787	23.2758
907.68	22.3578
910.573	32.1897
913.465	31.6091
916.358	43.6072
919.251	63.3607
922.143	83.9813
925.036	110.304
927.929	156.395
930.822	217.669
933.714	327.588
936.607	465.485
939.5	647.534
942.392	855.173
945.285	1067.98
948.178	1136.13
951.07	948.26
953.963	651.808
956.856	411.79
959.749	269.392
962.641	182.331
965.534	127.797
968.427	99.2485
971.319	78.6345
974.212	65.5153
977.105	55.8368
979.997	50.1499
982.89	35.045
985.783	25.2001
988.676	21.8063
991.568	8.87598
994.461	10.1478
997.354	0.195068
1000.25	3.32288
1003.14	6.28983
1006.03	2.31055
1008.92	0.677002
1011.82	3.70898
1014.71	3.58106
1017.6	1.55408
1020.5	5.18652
1023.39	0.986328
1026.28	4.23498
1029.17	2.71179
1032.07	3.11902
1034.96	4.12964
1037.85	3.53052
1040.74	4.18506
1043.64	0.959961
1046.53	3.33643
1049.42	4.58557
1052.32	6.6283
1055.21	9.19202
1058.1	8.73169
1060.99	2.0802
1063.89	6.5636
1066.78	5.21729
1069.67	7.6499
1072.56	2.37732
1075.46	7.49524
1078.35	11.8397
1081.24	12.8661
1084.13	12.7764
1087.03	7.06738
1089.92	14.1719
1092.81	9.5979
1095.7	17.2003
1098.6	9.61475
1101.49	7.64587
1104.38	6.00281
1107.28	7.84155
1110.17	5.33521
1113.06	8.56653
1115.95	5.97485
1118.85	11.0643
1121.74	7.31592
1124.63	8.30994
1127.53	3.10925
1130.42	4.80566
1133.31	3.31335
1136.2	8.95398
1139.1	8.96033
1141.99	6.34094
1144.88	0.682495
1147.77	4.53748
1150.67	12.0121
1153.56	10.3456
1156.45	9.14954
1159.35	7.42908
1162.24	0.81604
1165.13	6.08325
1168.02	12.4264
1170.92	5.03564
1173.81	5.29394
1176.7	4.01408
1179.59	2.70593
1182.49	4.7937
1185.38	4.63232
1188.27	9.9198
1191.16	0.204346
1194.06	3.84717
1196.95	6.29871
1199.84	5.50122
1202.73	3.33704
1205.63	3.05969
1208.52	6.67151
1211.41	11.5857
1214.31	17.708
1217.2	5.34961
1220.09	5.6875
1222.98	6.3728
1225.88	10.8213
1228.77	7.63135
1231.66	9.61511
1234.56	7.54358
1237.45	10.9362
1240.34	6.70081
1243.23	6.94983
1246.13	11.6891
1249.02	12.6523
1251.91	15.9553
1254.8	13.2524
1257.7	6.8634
1260.59	6.13037
1263.48	7.48547
1266.38	8.83142
1269.27	13.7345
1272.16	6.44653
1275.05	10.027
1277.95	5.995
1280.84	1.25085
1283.73	1.66223
1286.62	4.75525
1289.52	1.70886
1292.41	1.81885
1295.3	7.64148
1298.19	7.96399
1301.09	0.447266
