Measurement: Raman, 780 nm, unoriented, Raman Data Processed
Mineral: Gillespite
Rruff sample: R060060
Ideal chemistry: BaFe^2+^Si_4_O_10_
Locality: Incline, California, USA
Source: University of Arizona Mineral Museum
Description: Salmon-red platelets associated with white sanbornite
Measured chemistry: Ba_1.00_(Fe^2+^_0.99_Fe^3+^_0.01_)_Σ=1_(Si_3.99_Al_0.01_)_Σ=4_O_10_
Raman shift (cm-1)	intensity
123.027	0
125.92	0.113708
128.812	1.99532
131.705	11.9536
134.598	18.7346
137.49	19.7908
140.383	13.8783
143.276	6.70699
146.168	2.94236
149.061	2.69711
151.954	2.80027
154.847	1.10265
157.739	2.69583
160.632	0.92939
163.525	0.956146
166.417	1.31767
169.31	0.212811
172.203	0.147331
175.095	0.467613
177.988	0.450977
180.881	0.135231
183.774	3.651
186.666	7.3906
189.559	10.4575
192.452	12.2402
195.344	14.0493
198.237	14.5865
201.13	15.9519
204.022	16.8526
206.915	16.1607
209.808	16.6167
212.701	16.4266
215.593	16.3453
218.486	13.5761
221.379	14.0627
224.271	13.7058
227.164	12.8592
230.057	12.9782
232.949	10.9171
235.842	11.2709
238.735	10.7624
241.627	9.54188
244.52	8.65774
247.413	5.78898
250.306	4.38771
253.198	2.6197
256.091	1.27412
258.984	0.863438
261.876	1.16634
264.769	0.182194
267.662	0.087513
270.555	0.776821
273.447	0.197956
276.34	0.013992
279.233	2.36646
282.125	4.07252
285.018	6.00158
287.911	7.44176
290.803	9.10165
293.696	11.3983
296.589	12.3646
299.481	11.5411
302.374	9.35049
305.267	6.40637
308.16	4.48696
311.052	2.51604
313.945	1.91492
316.838	4.75467
319.73	8.10387
322.623	12.4886
325.516	15.7977
328.408	10.7221
331.301	5.85828
334.194	4.77074
337.087	4.04285
339.979	4.93695
342.872	0.716606
345.765	1.42923
348.657	0.747887
351.55	0.680573
354.443	5.08169
357.335	13.4442
360.228	19.9803
363.121	29.2578
366.014	38.0835
368.906	46.2006
371.799	49.4586
374.692	45.753
377.584	34.043
380.477	21.6344
383.37	11.764
386.262	3.88082
389.155	0.443901
392.048	1.19258
394.94	3.60743
397.833	11.9627
400.726	26.6837
403.619	53.018
406.511	78.6141
409.404	106.517
412.297	138.42
415.189	178.092
418.082	216.48
420.975	222.135
423.868	177.248
426.76	119.27
429.653	86.3721
432.546	71.0095
435.438	68.0833
438.331	68.9935
441.224	68.3829
444.116	65.2044
447.009	55.4362
449.902	41.5129
452.795	28.7844
455.687	19.3489
458.58	12.6893
461.473	8.26541
464.365	4.82109
467.258	3.84584
470.151	2.00544
473.043	0.594151
475.936	0.740005
478.829	0.292583
481.721	0.228962
484.614	1.0511
487.507	0.16861
490.399	0.432911
493.292	0.480305
496.185	0.000633
499.078	0.092339
501.97	0.441711
504.863	0.767536
507.756	1.61513
510.648	1.96413
513.541	2.28706
516.434	1.54292
519.327	3.07061
522.219	3.57884
525.112	4.08234
528.005	3.89912
530.897	5.15246
533.79	5.15168
536.683	7.27009
539.575	9.7656
542.468	11.364
545.361	12.2381
548.254	15.3516
551.146	16.6308
554.039	14.6207
556.932	10.6244
559.824	5.73394
562.717	3.70628
565.61	3.84019
568.502	2.15521
571.395	2.97189
574.288	2.39769
577.181	3.03429
580.073	2.77123
582.966	2.97287
585.859	3.49968
588.751	2.59309
591.644	2.77629
594.537	3.16084
597.429	2.43963
600.322	2.34878
603.215	1.44023
606.107	0.266117
609	0.836357
611.893	0.705685
614.786	0.401161
617.678	0.035488
620.571	0.445793
623.464	0.874451
626.356	1.02002
629.249	0.35574
632.142	0.643768
635.034	1.52751
637.927	2.34167
640.82	3.16457
643.712	4.02225
646.605	6.22278
649.498	7.3874
652.391	10.2276
655.283	10.8165
658.176	10.6184
661.069	6.99923
663.961	4.63284
666.854	2.9153
669.747	1.86496
672.639	1.87007
675.532	0.711609
678.425	0.624607
681.318	0.937378
684.21	0.231964
687.103	0.666832
689.996	0.004711
692.888	0.07159
695.781	0.30497
698.674	0.170208
701.567	0.009651
704.459	0.44556
707.352	0.186481
710.245	0.873543
713.137	0.090935
716.03	0.166306
718.923	0.91021
721.815	0.277031
724.708	0.062447
727.601	1.37994
730.494	0.30175
733.386	0.762959
736.279	1.20821
739.172	1.18826
742.064	1.28131
744.957	3.04214
747.85	2.87075
750.742	3.76583
753.635	4.17846
756.528	3.46517
759.42	1.99725
762.313	0.236919
765.206	0.589817
768.099	0.301727
770.991	0.39978
773.884	1.36158
776.777	1.17845
779.669	1.2097
782.562	1.17056
785.455	1.98117
788.347	0.9282
791.24	0.205769
794.133	0.778797
797.025	0.197361
799.918	0.195671
802.811	2.03136
805.704	0.350368
808.596	1.56898
811.489	1.9125
814.382	1.85461
817.274	1.7244
820.167	1.05879
823.06	2.19041
825.952	0.8587
828.845	1.17657
831.738	1.78513
834.631	1.01698
837.523	0.704044
840.416	1.97087
843.309	1.44136
846.201	2.09665
849.094	1.20925
851.987	1.52071
854.88	2.06047
857.772	2.16973
860.665	1.47847
863.558	2.3469
866.45	1.272
869.343	1.92201
872.236	1.87866
875.128	1.78484
878.021	1.84553
880.914	1.90699
883.807	1.82653
886.699	1.71915
889.592	0.781208
892.485	1.01876
895.377	1.43999
898.27	1.38188
901.163	1.7315
904.055	0.686401
906.948	0.523846
909.841	0.040905
912.734	0.485981
915.626	2.47891
918.519	0.745651
921.412	0.336018
924.304	0.322563
927.197	0.467117
930.09	0.306438
932.982	0.106266
935.875	1.24188
938.768	0.717979
941.66	2.98298
944.553	5.52077
947.446	8.07175
950.339	10.5589
953.231	13.0464
956.124	13.208
959.017	12.418
961.909	10.3458
964.802	8.69032
967.695	6.17736
970.587	6.12394
973.48	5.593
976.373	7.30246
979.265	9.3895
982.158	11.7103
985.051	13.5168
987.944	13.521
990.836	9.81657
993.729	5.3544
996.622	4.60679
999.514	2.671
1002.41	1.32537
1005.3	1.07156
1008.19	2.02843
1011.09	2.49427
1013.98	3.27387
1016.87	3.3683
1019.76	3.07267
1022.66	1.32094
1025.55	0.251026
1028.44	0.125038
1031.33	0.022472
1034.23	0.158699
1037.12	1.12225
1040.01	1.60226
1042.9	0.685848
1045.8	2.47277
1048.69	3.88237
1051.58	5.75353
1054.48	7.32342
1057.37	11.1113
1060.26	15.0717
1063.15	23.1171
1066.05	32.112
1068.94	48.1086
1071.83	74.1244
1074.72	109.837
1077.62	158.47
1080.51	209.316
1083.4	256.423
1086.3	270.43
1089.19	223.778
1092.08	149.246
1094.97	93.7866
1097.87	62.5595
1100.76	43.3653
1103.65	31.9471
1106.54	24.1036
1109.44	18.0553
1112.33	13.7044
1115.22	9.89396
1118.12	6.97261
1121.01	4.84347
1123.9	4.03848
1126.79	2.87964
1129.69	2.29465
1132.58	2.56903
1135.47	2.98463
1138.36	1.36071
1141.26	1.2768
1144.15	1.1362
1147.04	0.545925
1149.93	0.035072
1152.83	0.399273
1155.72	0.365192
1158.61	0.151554
1161.51	0.540268
1164.4	0.391689
1167.29	0.085152
1170.18	0.212994
1173.08	0.97649
1175.97	0.39463
1178.86	0.231155
1181.75	0.436192
1184.65	0.144966
1187.54	0.924034
1190.43	0.722805
1193.33	1.24901
1196.22	0.983521
1199.11	2.25665
1202	1.05566
1204.9	1.82359
1207.79	1.52085
1210.68	1.39386
1213.57	2.23476
1216.47	1.83503
1219.36	1.34972
1222.25	1.82574
1225.14	0.936409
1228.04	1.59618
1230.93	1.63746
1233.82	1.9676
1236.72	1.37992
1239.61	1.82458
1242.5	1.17203
1245.39	0.976036
1248.29	1.19547
1251.18	1.57068
1254.07	0.377174
1256.96	1.11583
1259.86	0.449715
1262.75	0.858841
1265.64	0.395912
1268.54	0.512344
1271.43	0.210526
1274.32	0.00061
