Measurement: Raman, 532 nm, unoriented, Raman Data Processed
Mineral: Gillespite
Rruff sample: R060060
Ideal chemistry: BaFe^2+^Si_4_O_10_
Locality: Incline, California, USA
Source: University of Arizona Mineral Museum
Description: Salmon-red platelets associated with white sanbornite
Measured chemistry: Ba_1.00_(Fe^2+^_0.99_Fe^3+^_0.01_)_Σ=1_(Si_3.99_Al_0.01_)_Σ=4_O_10_
Raman shift (cm-1)	intensity
120.616	0
123.509	11.4851
126.402	0.463127
129.294	5.82613
132.187	21.4774
135.08	29.5598
137.972	31.7618
140.865	19.8814
143.758	8.64728
146.651	3.49464
149.543	0.270862
152.436	0.263761
155.329	2.95011
158.221	0.979126
161.114	3.0085
164.007	3.49326
166.899	0.267083
169.792	4.13801
172.685	8.53709
175.578	12.9944
178.47	17.1722
181.363	21.8623
184.256	25.3928
187.148	29.0875
190.041	31.9418
192.934	33.7954
195.827	35.2847
198.719	35.5366
201.612	36.3298
204.505	36.0795
207.397	34.3422
210.29	32.9035
213.183	31.2746
216.075	28.6714
218.968	23.586
221.861	21.6466
224.753	19.0217
227.646	17.9001
230.539	17.3913
233.431	15.6752
236.324	15.4653
239.217	15.0746
242.11	13.5821
245.002	12.074
247.895	9.07454
250.788	6.74513
253.68	4.2814
256.573	2.8411
259.466	1.96909
262.358	1.63198
265.251	0.024962
268.144	0.46906
271.037	0.196889
273.929	0.532421
276.822	0.462653
279.715	1.05074
282.607	2.8728
285.5	4.61553
288.393	6.20808
291.286	7.63244
294.178	10.0192
297.071	10.8117
299.964	9.58062
302.856	7.19947
305.749	4.26486
308.642	2.28316
311.534	1.20775
314.427	0.431085
317.32	3.38189
320.212	6.83282
323.105	10.869
325.998	13.5906
328.891	7.86017
331.783	4.4562
334.676	2.92847
337.569	2.42674
340.461	1.87041
343.354	0.924898
346.247	1.49617
349.139	0.207592
352.032	0.90812
354.925	4.42293
357.818	13.2212
360.71	20.3285
363.603	29.5989
366.496	38.2615
369.388	45.8329
372.281	48.2566
375.174	42.6276
378.066	30.1148
380.959	18.2595
383.852	8.85826
386.745	2.48209
389.637	0.477276
392.53	0.113626
395.423	3.58754
398.315	12.7238
401.208	29.6834
404.101	56.1149
406.993	81.3928
409.886	109.348
412.779	144.077
415.671	182.296
418.564	218.656
421.457	216.525
424.35	164.553
427.242	110.267
430.135	81.8453
433.028	68.1695
435.92	66.4954
438.813	67.8581
441.706	66.6512
444.599	63.1933
447.491	52.4471
450.384	38.522
453.277	26.2149
456.169	16.5048
459.062	10.6764
461.955	6.73221
464.847	3.62622
467.74	3.10213
470.633	1.21821
473.526	0.163033
476.418	0.040939
479.311	0.561285
482.204	0.009281
485.096	0.152237
487.989	0.058462
490.882	0.070225
493.774	0.020133
496.667	0.317269
499.56	0.035876
502.452	0.265458
505.345	0.176182
508.238	1.26125
511.131	1.64609
514.023	1.09314
516.916	2.06238
519.809	3.13201
522.701	3.1637
525.594	3.18719
528.487	4.38368
531.38	4.92336
534.272	5.32175
537.165	7.33789
540.058	9.42499
542.95	11.4459
545.843	12.1091
548.736	14.5777
551.628	16.238
554.521	13.7638
557.414	8.98083
560.306	4.89827
563.199	2.76596
566.092	3.15537
568.985	1.54487
571.877	2.39275
574.77	1.84138
577.663	2.49682
580.555	2.22051
583.448	2.73452
586.341	3.03633
589.233	2.5779
592.126	1.91753
595.019	2.73261
597.912	2.03792
600.804	1.80628
603.697	1.50533
606.59	0.229441
609.482	0.681465
612.375	0.375585
615.268	0.175914
618.16	0.215729
621.053	0.005274
623.946	0.574105
626.838	0.750915
629.731	0.151375
632.624	0.573219
635.516	1.57499
638.409	2.60003
641.302	2.98664
644.195	4.57976
647.087	6.05982
649.98	7.91603
652.873	10.0838
655.765	11.3453
658.658	9.70531
661.551	6.38123
664.443	3.49834
667.336	2.60586
670.229	1.26326
673.122	2.05613
676.014	0.429649
678.907	0.520623
681.8	1.14446
684.692	0.084049
687.585	0.315698
690.478	0.084812
693.37	0.039254
696.263	0.168934
699.156	0.051037
702.049	0.073848
704.941	0.21018
707.834	0.243827
710.727	0.72695
713.619	0.143709
716.512	0.055972
719.405	0.387765
722.298	0.044681
725.19	0.131695
728.083	1.70557
730.976	0.103654
733.868	0.90199
736.761	0.633846
739.654	1.32972
742.546	1.58369
745.439	2.79373
748.332	3.48989
751.225	3.90855
754.117	4.0552
757.01	3.09065
759.903	1.84164
762.795	0.321639
765.688	0.516057
768.581	0.023092
771.473	0.334429
774.366	1.17376
777.259	0.897246
780.152	1.14839
783.044	1.10826
785.937	1.61072
788.83	0.486941
791.722	0.092167
794.615	0.471707
797.508	0.288397
800.4	0.116401
803.293	1.53221
806.186	0.192412
809.078	1.24697
811.971	1.03753
814.864	1.18349
817.756	0.987993
820.649	0.613051
823.542	2.14684
826.435	0.642085
829.327	0.97877
832.22	1.41228
835.113	0.562843
838.005	0.619472
840.898	1.58239
843.791	1.57281
846.683	1.48203
849.576	0.852821
852.469	1.78434
855.362	1.24153
858.254	1.27858
861.147	0.884502
864.04	2.23164
866.932	1.45679
869.825	1.35812
872.718	1.73711
875.611	1.52817
878.503	1.81177
881.396	1.72797
884.289	1.50963
887.181	1.59303
890.074	1.00782
892.967	0.734471
895.859	1.0187
898.752	0.916486
901.645	1.13905
904.538	0.386007
907.43	0.018413
910.323	0.219356
913.216	0.217899
916.108	1.35213
919.001	0.615165
921.894	0.044444
924.786	0.026379
927.679	0.248304
930.572	0.173488
933.465	0.030639
936.357	1.07962
939.25	1.28128
942.143	2.99596
945.035	5.39509
947.928	8.30762
950.821	11.4811
953.713	12.8673
956.606	13.0659
959.499	11.9117
962.391	9.0757
965.284	7.98121
968.177	5.2233
971.069	5.36557
973.962	5.81857
976.855	7.54955
979.748	9.90734
982.64	11.813
985.533	13.1529
988.426	12.5588
991.318	8.58574
994.211	4.34404
997.104	3.36381
999.996	2.19788
1002.89	0.94105
1005.78	1.06664
1008.67	0.772817
1011.57	2.03113
1014.46	3.07428
1017.35	2.97535
1020.25	2.45236
1023.14	0.507718
1026.03	0.160356
1028.92	0.395662
1031.82	0.235529
1034.71	0.379655
1037.6	0.550723
1040.49	0.574615
1043.39	0.492154
1046.28	1.58727
1049.17	2.71458
1052.07	5.35064
1054.96	6.75986
1057.85	11.3343
1060.74	15.6851
1063.64	23.4109
1066.53	33.0819
1069.42	51.0394
1072.31	78.6063
1075.21	116.919
1078.1	164.491
1080.99	217.405
1083.88	261.829
1086.78	266.565
1089.67	210.688
1092.56	137.734
1095.46	85.4151
1098.35	57.5496
1101.24	39.7609
1104.13	29.6959
1107.03	21.9332
1109.92	16.6491
1112.81	11.8166
1115.7	8.38818
1118.6	6.1021
1121.49	3.44707
1124.38	3.64234
1127.28	1.82069
1130.17	1.86191
1133.06	1.5876
1135.95	2.62115
1138.85	0.906559
1141.74	0.605889
1144.63	0.720313
1147.52	0.11594
1150.42	0.297256
1153.31	0.206881
1156.2	0.09129
1159.1	0.234961
1161.99	0.042561
1164.88	0.086101
1167.77	0.166994
1170.67	0.026984
1173.56	0.380852
1176.45	0.089441
1179.34	0.216288
1182.24	0.300149
1185.13	0.52631
1188.02	1.0923
1190.91	0.764928
1193.81	1.3152
1196.7	1.11161
1199.59	1.82897
1202.48	1.27814
1205.38	1.98063
1208.27	1.78853
1211.16	1.81983
1214.06	1.89611
1216.95	2.12318
1219.84	1.508
1222.73	1.54675
1225.63	0.452038
1228.52	1.32496
1231.41	1.69504
1234.31	1.21646
1237.2	1.25086
1240.09	1.46067
1242.98	1.35617
1245.88	0.61884
1248.77	1.19213
1251.66	1.21856
1254.55	0.244063
1257.45	0.626736
1260.34	0.374574
1263.23	0.342958
1266.12	0.242315
1269.02	0.642984
1271.91	0.000397
1274.8	0
