Measurement: Raman, 532 nm, unoriented, Raman Data Processed
Mineral: Gismondine
Rruff sample: R060809
Ideal chemistry: Ca_2_(Si_4_Al_4_)O_16_8H_2_O
Locality: Arensberg, Eifel Mountains, Germany
Source: Michael Scott
Description: Colorless pseudo-octahedral crystals
Raman shift (cm-1)	intensity
189.983	0
192.876	0.640625
195.769	108.045
198.661	186.71
201.554	122.148
204.447	207.217
207.339	274.54
210.232	196.26
213.125	159.131
216.018	159.468
218.91	184.565
221.803	138.03
224.696	86.1567
227.588	107.144
230.481	148.842
233.374	124.114
236.266	25.4614
239.159	22.8496
242.052	3.72168
244.945	124.96
247.837	10.3745
250.73	45.27
253.623	23.5742
256.515	66.6372
259.408	115.122
262.301	190.527
265.193	154.82
268.086	132.682
270.979	158.606
273.871	130.623
276.764	214.582
279.657	164.791
282.55	196.102
285.442	155.58
288.335	135.793
291.228	161.688
294.12	114.71
297.013	95.3555
299.906	68.1196
302.798	46.9419
305.691	82.5698
308.584	97.4404
311.477	4.34375
314.369	21.3467
317.262	20.1519
320.155	43.1377
323.047	14.1069
325.94	1.87305
328.833	60.477
331.725	91.7822
334.618	54.0874
337.511	30.041
340.404	150.889
343.296	46.9522
346.189	45.1997
349.082	66.2749
351.974	92.2969
354.867	49.2812
357.76	118.366
360.652	6.26562
363.545	42.6011
366.438	23.0449
369.331	55.4273
372.223	25.5337
375.116	93.5659
378.009	252.06
380.901	234.644
383.794	448.269
386.687	740.687
389.579	944.769
392.472	1073.36
395.365	1294.57
398.258	1311.58
401.15	1260.57
404.043	1058
406.936	814.839
409.828	590.415
412.721	333.368
415.614	173.892
418.506	96.6494
421.399	142.539
424.292	91.1914
427.185	288.505
430.077	349.61
432.97	470.653
435.863	644.837
438.755	922.809
441.648	1288.48
444.541	1511.05
447.433	1716.88
450.326	1880.88
453.219	2138.53
456.112	2180.38
459.004	2171.46
461.897	1971.89
464.79	1851.85
467.682	1769.27
470.575	1663.03
473.468	1571.06
476.36	1320.56
479.253	1208.7
482.146	975.97
485.039	867.559
487.931	742.346
490.824	570.034
493.717	428.014
496.609	409.247
499.502	363.221
502.395	298.885
505.287	332.849
508.18	268.81
511.073	175.407
513.966	122.947
516.858	86.4502
519.751	44.3184
522.644	47.5986
525.536	33.144
528.429	5.20361
531.322	11.2764
534.214	35.0425
537.107	40.8457
540	64.3638
542.892	24.4477
545.785	53.3203
548.678	0.822266
551.57	93.0176
554.463	44.477
557.356	19.5786
560.249	33.9375
563.141	128.316
566.034	50.4941
568.927	119.479
571.819	109.894
574.712	103.772
577.605	156.944
580.497	140.636
583.39	27.5449
586.283	137.62
589.176	81.8169
592.068	90.2866
594.961	114.362
597.854	55.9961
600.746	58.5747
603.639	66.9287
606.532	117.282
609.424	153.81
612.317	113.109
615.21	34.54
618.103	41.3418
620.995	158.515
623.888	112.289
626.781	90.3506
629.673	76.3516
632.566	79.0908
635.459	83.5019
638.351	32.8486
641.244	4.86816
644.137	51.71
647.029	63.2178
649.922	107.721
652.815	134.698
655.708	84.6074
658.6	75.1943
661.493	69.7822
664.386	117.981
667.278	101.966
670.171	107.044
673.064	48.3926
675.956	26.6064
678.849	5.20898
681.742	11.9531
684.635	71.9785
687.527	99.1504
690.42	104.401
693.313	121.299
696.205	140.443
699.098	150.199
701.991	187.169
704.883	237.781
707.776	186.384
710.669	232.429
713.562	234.696
716.454	189.612
719.347	214.411
722.24	265.901
725.132	89.8232
728.025	151.744
730.918	112.493
733.81	124.007
736.703	34.4912
739.596	103.981
742.489	49.502
745.381	155.359
748.274	143.562
751.167	49.6133
754.059	99.6631
756.952	89.6016
759.845	64.1182
762.737	34.0772
765.63	46.0703
768.523	10.7764
771.416	85.9238
774.308	16.4072
777.201	52.1348
780.094	18.1328
782.986	98.1582
785.879	78.3867
788.772	63.7178
791.664	55.1592
794.557	59.8486
797.45	80.7861
800.343	63.8818
803.235	57.9863
806.128	54.7236
809.021	15.4141
811.913	54.8262
814.806	15.331
817.699	61.1572
820.591	64.3945
823.484	54.2012
826.377	100.65
829.269	170.863
832.162	101.875
835.055	89.2041
837.948	54.877
840.84	109.759
843.733	58.1484
846.626	8.42578
849.518	24.54
852.411	52.1221
855.304	37.1484
858.196	75.9541
861.089	84.5957
863.982	136.435
866.875	102.492
869.767	71.3096
872.66	69.1279
875.553	100.784
878.445	57.6016
881.338	52.9287
884.231	81.8076
887.123	43.2568
890.016	38.3594
892.909	163.19
895.802	155.591
898.694	143.138
901.587	61.9941
904.48	31.7061
907.372	78.1231
910.265	36.5342
913.158	39.9092
916.05	72.5264
918.943	26.3955
921.836	49.2373
924.729	75.4268
927.621	144.5
930.514	96.2432
933.407	92.5977
936.299	13.6035
939.192	105.814
942.085	27.4912
944.977	0.515625
947.87	8.2793
950.763	12.6211
953.656	32.0527
956.548	82.8272
959.441	183.251
962.334	147.938
965.226	240.588
968.119	248.991
971.012	280.964
973.904	318.089
976.797	407.327
979.69	430.444
982.583	407.879
985.475	409.688
988.368	517.188
991.261	468.389
994.153	547.211
997.046	734.203
999.939	720.448
1002.83	778.08
1005.72	654.074
1008.62	726.282
1011.51	743.344
1014.4	794.048
1017.29	880.352
1020.19	1032.11
1023.08	1096.46
1025.97	1110.62
1028.87	975.116
1031.76	817.843
1034.65	692.564
1037.54	438.74
1040.44	373.793
1043.33	306.985
1046.22	88.3311
1049.12	56.7637
1052.01	68.4736
1054.9	42.4717
1057.79	25.8281
1060.68	53.459
1063.58	39.3935
1066.47	39.6797
1069.36	4.96875
1072.26	62.8897
1075.15	89.5723
1078.04	43.2393
1080.93	97.3262
1083.83	154.947
1086.72	222.195
1089.61	137.091
1092.51	217.5
1095.4	194.898
1098.29	218.494
1101.18	242.733
1104.08	149.927
1106.97	193.11
1109.86	157.329
1112.75	108.595
1115.65	67.7344
1118.54	104.394
1121.43	69.7637
1124.33	16.6846
1127.22	104.235
1130.11	81.0938
1133	75.4453
1135.9	46.7022
1138.79	11.2676
1141.68	54.1875
1144.57	36.7148
1147.47	88.2344
1150.36	75.6035
1153.25	97.7217
1156.14	117.429
1159.04	22.7295
1161.93	95.4287
1164.82	37.4258
1167.71	7.93652
1170.61	4.31934
1173.5	74.124
1176.39	155.541
1179.29	184.748
1182.18	126.7
1185.07	132.773
1187.96	185.518
1190.86	105.929
1193.75	46.8184
1196.64	94.2461
1199.54	1.41699
1202.43	115.954
1205.32	11.0732
1208.21	71.0791
1211.11	104.16
1214	110.176
1216.89	106.758
1219.78	71.4482
1222.68	106.397
1225.57	95.6094
1228.46	98.8154
1231.36	75.6533
1234.25	87.3711
1237.14	69.6523
1240.03	120.978
1242.92	111.918
1245.82	47.8232
1248.71	120.799
1251.6	108.221
1254.5	87.21
1257.39	138.241
1260.28	114.234
1263.17	15.5127
1266.07	8.71875
1268.96	88.7275
1271.85	178.645
1274.74	152.982
1277.64	110.652
1280.53	7.29883
1283.42	13.8018
1286.32	118.842
1289.21	88.3613
1292.1	5.58008
