Measurement: Raman, 785 nm, unoriented, Raman Data Processed
Mineral: Gismondine
Rruff sample: R060809
Ideal chemistry: Ca_2_(Si_4_Al_4_)O_16_8H_2_O
Locality: Arensberg, Eifel Mountains, Germany
Source: Michael Scott
Description: Colorless pseudo-octahedral crystals
Raman shift (cm-1)	intensity
191.435	0
194.327	10.6836
197.22	54.967
200.113	109.633
203.005	154.698
205.898	116.666
208.791	59.5513
211.684	31.8071
214.576	11.4695
217.469	1.2251
220.362	21.6873
223.254	28.5093
226.147	41.738
229.04	22.9351
231.932	63.5837
234.825	94.1514
237.718	53.0687
240.611	27.9022
243.503	50.9923
246.396	3.52881
249.289	8.28748
252.181	29.0678
255.074	19.243
257.967	38.6049
260.859	88.8153
263.752	90.6528
266.645	86.3315
269.538	97.1363
272.43	75.5364
275.323	112.3
278.216	88.1843
281.108	82.7826
284.001	106.181
286.894	68.5518
289.786	33.3728
292.679	35.0087
295.572	50.7629
298.465	0.514404
301.357	1.30664
304.25	18.5272
307.143	21.8258
310.035	4.67859
312.928	26.0997
315.821	36.693
318.714	4.33643
321.606	7.03369
324.499	44.3292
327.392	98.4856
330.284	154.211
333.177	173.656
336.07	147.026
338.962	167.995
341.855	166.364
344.748	185.849
347.641	154.98
350.533	177.786
353.426	171.071
356.319	149.196
359.211	200.064
362.104	101.598
364.997	30.2229
367.889	3.51611
370.782	18.9376
373.675	33.6423
376.568	65.0471
379.46	121.237
382.353	214.673
385.246	306.538
388.138	385.727
391.031	514.647
393.924	572.716
396.816	653.829
399.709	641.485
402.602	499.216
405.495	381.073
408.387	270.54
411.28	153.001
414.173	101.79
417.065	63.4556
419.958	45.9431
422.851	27.0291
425.743	70.968
428.636	125.288
431.529	164.181
434.422	233.696
437.314	373.766
440.207	485.973
443.1	636.796
445.992	795.167
448.885	917.563
451.778	1071.07
454.67	1131.52
457.563	1154.62
460.456	1140.33
463.349	1094.1
466.241	1068.46
469.134	1030.73
472.027	988.143
474.919	938.229
477.812	786.775
480.705	683.571
483.597	520.081
486.49	369.625
489.383	364.965
492.276	277.58
495.168	193.373
498.061	181.686
500.954	169.031
503.846	120.953
506.739	73.9221
509.632	40.2897
512.524	36.3489
515.417	31.4456
518.31	13.6168
521.203	10.2871
524.095	11.0179
526.988	9.92578
529.881	14.5725
532.773	11.0419
535.666	47.3721
538.559	27.4655
541.451	36.4522
544.344	29.0756
547.237	33.7539
550.13	65.7345
553.022	57.8918
555.915	52.1585
558.808	53.4408
561.7	61.1352
564.593	67.6588
567.486	1.61792
570.378	4.03967
573.271	79.0259
576.164	94.3319
579.057	77.0533
581.949	62.5204
584.842	73.6024
587.735	62.6371
590.627	75.2634
593.52	35.1066
596.413	13.0126
599.305	43.4829
602.198	32.7748
605.091	30.337
607.984	24.9286
610.876	34.0624
613.769	39.1741
616.662	33.5615
619.554	50.436
622.447	44.0582
625.34	15.8455
628.232	32.8887
631.125	39.9034
634.018	15.6044
636.911	4.33704
639.803	14.3726
642.696	16.9257
645.589	4.91223
648.481	52.041
651.374	31.8585
654.267	19.1799
657.159	34.6299
660.052	53.579
662.945	75.7001
665.838	41.9664
668.73	34.4072
671.623	25.9812
674.516	14.2208
677.408	39.8727
680.301	16.5146
683.194	22.1171
686.086	7.20325
688.979	23.714
691.872	50.9624
694.765	73.8738
697.657	118.552
700.55	122.219
703.443	172.541
706.335	157.601
709.228	153.638
712.121	134.192
715.013	114.321
717.906	123.824
720.799	89.7925
723.692	113.097
726.584	45.0573
729.477	44.6431
732.37	47.3755
735.262	22.0483
738.155	35.5057
741.048	26.3667
743.94	35.6686
746.833	32.1748
749.726	39.1638
752.619	43.5089
755.511	30.34
758.404	1.49744
761.297	6.8786
764.189	36.2004
767.082	9.17682
769.975	0.013
772.867	34.9517
775.76	24.4111
778.653	39.523
781.546	33.788
784.438	38.5045
787.331	56.6086
790.224	29.4153
793.116	56.6633
796.009	42.3285
798.902	10.6476
801.794	1.71765
804.687	36.3535
807.58	5.48822
810.473	58.0631
813.365	36.8754
816.258	45.5464
819.151	84.2867
822.043	62.0529
824.936	68.9302
827.829	72.6165
830.721	45.7963
833.614	48.6466
836.507	53.6901
839.4	47.8359
842.292	34.0274
845.185	48.5205
848.078	79.4975
850.97	57.2814
853.863	67.3193
856.756	72.3068
859.648	62.3758
862.541	36.456
865.434	46.3727
868.327	35.7986
871.219	39.2296
874.112	31.1711
877.005	20.5558
879.897	30.9714
882.79	33.7837
885.683	28.974
888.576	27.3851
891.468	33.6727
894.361	14.6472
897.254	18.1666
900.146	8.24103
903.039	2.83252
905.932	15.5864
908.824	23.6162
911.717	5.50537
914.61	15.6846
917.503	4.81525
920.395	32.7462
923.288	30.0351
926.181	42.3509
929.073	14.6786
931.966	40.0979
934.859	26.0875
937.752	29.8212
940.644	5.42914
943.537	25.3956
946.43	12.1552
949.322	10.1261
952.215	3.5404
955.108	28.0128
958	54.3519
960.893	123.711
963.786	153.027
966.679	163.581
969.571	165.065
972.464	202.943
975.357	204.687
978.249	212.518
981.142	231.244
984.035	238.751
986.927	286.079
989.82	223.879
992.713	245.457
995.606	291.225
998.498	322.379
1001.39	310.596
1004.28	335.398
1007.18	282.502
1010.07	313.057
1012.96	304.641
1015.85	349.292
1018.75	354.581
1021.64	381.449
1024.53	332.657
1027.42	358.833
1030.32	332.731
1033.21	243.239
1036.1	168.552
1039	144.249
1041.89	103.427
1044.78	81.3687
1047.67	69.1354
1050.57	35.831
1053.46	23.2598
1056.35	35.5499
1059.24	0.986511
1062.14	17.9245
1065.03	1.97821
1067.92	16.0991
1070.82	5.23358
1073.71	15.244
1076.6	15.9584
1079.49	32.7283
1082.39	50.6074
1085.28	14.9555
1088.17	39.4984
1091.07	50.6903
1093.96	39.5378
1096.85	46.4025
1099.74	30.9177
1102.63	57.7051
1105.53	28.083
1108.42	21.6191
1111.31	40.8762
1114.21	17.4185
1117.1	18.6849
1119.99	36.2368
1122.88	17.6083
1125.78	28.4349
1128.67	24.7151
1131.56	58.6656
1134.45	35.2569
1137.35	8.81189
1140.24	12.1646
1143.13	1.89539
1146.03	3.07886
1148.92	16.6893
1151.81	14.0372
1154.7	21.7506
1157.6	11.4694
1160.49	20.2539
1163.38	34.471
1166.28	45.5981
1169.17	61.0497
1172.06	29.5417
1174.95	32.8242
1177.85	25.4403
1180.74	22.5687
1183.63	20.7112
1186.52	48.6049
1189.42	56.2907
1192.31	71.1556
1195.2	57.1935
1198.09	21.8241
1200.99	56.5215
1203.88	64.6351
1206.77	7.01215
1209.66	47.0868
1212.56	46.9529
1215.45	57.1606
1218.34	32.8051
1221.24	45.3561
1224.13	49.9988
1227.02	56.2084
1229.91	57.0421
1232.81	56.605
1235.7	44.7217
1238.59	11.0884
1241.48	3.96948
1244.38	54.9073
1247.27	45.1865
1250.16	25.0945
1253.06	33.7137
1255.95	25.4117
1258.84	4.99481
1261.73	29.8596
1264.63	53.0664
1267.52	20.8915
