Measurement: Raman, 780 nm, unoriented, Raman Data Processed
Mineral: Glass-(Tm)
Rruff sample: R110085
Locality: Synthetic
Source: Elizabeth Cairns, University of Edinburgh
Description: Colorless glass fragment
Measured chemistry: CaO 22.78%, Tm_2_O_3_ 26.12%, Al_2_O_3_ 13.80%, SiO_2_ 37.30%, Ca_18_Tm_6_Al_12_Si_28_O_100_
Raman shift (cm-1)	intensity
97.871	58102
101.246	57809.4
104.621	58887.9
107.996	59908.6
111.37	61331.2
114.745	62626.9
118.12	63951.5
121.495	65089.4
124.87	66489.6
128.244	67544.6
131.619	68585.1
134.994	69684.7
138.369	70657.6
141.744	71756.8
145.119	72738.2
148.493	73653.8
151.868	74460.5
155.243	75116
158.618	76000.1
161.993	76670.6
165.367	77197.2
168.742	77433.2
172.117	77814.2
175.492	78088.1
178.867	78443.6
182.242	78452.8
185.616	78545.7
188.991	78423.1
192.366	78215.3
195.741	77842.4
199.115	77846.8
202.49	77257.7
205.865	76634.4
209.24	76182.1
212.615	75635.9
215.99	74955.5
219.364	74474.7
222.739	73619.1
226.114	73097.2
229.489	72396.5
232.864	71656.1
236.238	71206.1
239.613	70649.1
242.988	69985.9
246.363	69603.5
249.738	69290.1
253.113	68533.2
256.487	68271.5
259.862	68065.8
263.237	67931.8
266.612	67889.3
269.987	67871
273.361	67658.2
276.736	67945.9
280.111	68018.6
283.486	68223
286.861	68358.3
290.236	68559.6
293.61	68863.3
296.985	69311.3
300.36	69627.8
303.735	70158.6
307.11	70747
310.485	71111.8
313.859	71584.5
317.234	71943.8
320.609	72343
323.984	72604.5
327.359	73108.9
330.733	73375.5
334.108	73690.9
337.483	74258.3
340.858	74251.2
344.233	74410.9
347.608	74427.2
350.982	74611.1
354.357	74675.4
357.732	74435.2
361.107	73973.6
364.482	73627.5
367.856	73452.8
371.231	73174.8
374.606	72821.3
377.981	72295.5
381.356	71837.9
384.731	71400.2
388.105	70730.7
391.48	70270.2
394.855	69619.3
398.23	69290.1
401.605	68587
404.979	67894
408.354	67309.9
411.729	66726.5
415.104	66418.2
418.479	65700.2
421.853	65226.6
425.228	64725.9
428.603	64159.2
431.978	63872.4
435.353	63142.7
438.728	62794
442.102	62163.7
445.477	61955.8
448.852	61324.8
452.227	60805.1
455.602	60345.8
458.976	60043.7
462.351	59583
465.726	59062.7
469.101	58715.9
472.476	58116
475.851	57641.1
479.225	57050.8
482.6	56622.9
485.975	55970
489.35	55486.4
492.725	54984.2
496.099	54461.5
499.474	53891.7
502.849	53260.6
506.224	52396.9
509.599	52119.8
512.973	51438.7
516.348	50655
519.723	50019.2
523.098	49345
526.473	48452.2
529.848	47705.8
533.222	47123.2
536.597	46257.6
539.972	45479.7
543.347	44624.2
546.722	43728.1
550.096	42892.8
553.471	42226.6
556.846	41470
560.221	40609.3
563.596	39793.6
566.971	39023.3
570.345	38218.1
573.72	37309.5
577.095	36408.5
580.47	35618.8
583.845	34781.4
587.22	33995.2
590.594	33135.5
593.969	32360.3
597.344	31644.2
600.719	30892.5
604.094	30113.2
607.468	29356.1
610.843	28561.8
614.218	27781.1
617.593	27127.2
620.968	26367
624.342	25718.1
627.717	25050.2
631.092	24471.1
634.467	23923.3
637.842	23287.6
641.217	22656.4
644.591	21977.9
647.966	21500.3
651.341	20916.7
654.716	20433.5
658.091	19829.5
661.466	19357.2
664.84	18936
668.215	18445.6
671.59	17970.1
674.965	17515.6
678.34	17075.3
681.714	16698
685.089	16289.3
688.464	15909
691.839	15525.4
695.214	15084.7
698.588	14789.4
701.963	14470.6
705.338	14142
708.713	13845.6
712.088	13545.6
715.462	13273.1
718.837	12953.3
722.212	12776.1
725.587	12409.4
728.962	12241.5
732.337	11960.4
735.711	11678.8
739.086	11437
742.461	11209.1
745.836	11044.6
749.211	10796.1
752.586	10577.7
755.96	10382.8
759.335	10121.1
762.71	9885.93
766.085	9774.76
769.46	9556.9
772.834	9329.17
776.209	9196.97
779.584	9063.55
782.959	8914.45
786.334	8719.95
789.708	8512.43
793.083	8413.36
796.458	8201.88
799.833	8108.55
803.208	7898.43
806.583	7767.8
809.957	7658.34
813.332	7531.24
816.707	7340.1
820.082	7211.75
823.457	7074.05
826.832	6969.4
830.206	6780.38
833.581	6654.82
836.956	6578
840.331	6496.97
843.706	6310.55
847.08	6209.57
850.455	6018.69
853.83	6026.23
857.205	5845.45
860.58	5724.89
863.955	5634.2
867.329	5532.85
870.704	5448.98
874.079	5369.95
877.454	5236.19
880.829	5124.28
884.203	5043.76
887.578	4920.38
890.953	4833.01
894.328	4765.57
897.703	4641.58
901.077	4581.37
904.452	4466.56
907.827	4416.27
911.202	4289.47
914.577	4233.15
917.952	4183.8
921.326	4067.95
924.701	4017.11
928.076	3921.81
931.451	3889.32
934.826	3802.87
938.2	3713.86
941.575	3659.59
944.95	3564.07
948.325	3531.08
951.7	3450.5
955.074	3413.08
958.449	3311.62
961.824	3242.99
965.199	3209.5
968.574	3116.32
971.949	3097.22
975.323	2969.06
978.698	2964.64
982.073	2894.79
985.448	2863.07
988.823	2796.92
992.197	2760.01
995.572	2735.9
998.947	2656.64
1002.32	2622.38
1005.7	2585.88
1009.07	2512.47
1012.45	2466.73
1015.82	2423.99
1019.2	2416.93
1022.57	2344.89
1025.95	2311.41
1029.32	2279.19
1032.69	2222.57
1036.07	2197.12
1039.44	2174.11
1042.82	2147.85
1046.19	2055.23
1049.57	1989.36
1052.94	2015.44
1056.32	1996.67
1059.69	1944.74
1063.07	1957.92
1066.44	1898.68
1069.82	1838.82
1073.19	1817.06
1076.57	1769.33
1079.94	1757.27
1083.32	1699.03
1086.69	1693.22
1090.07	1632.36
1093.44	1630.02
1096.82	1586.22
1100.19	1573.16
1103.57	1580.2
1106.94	1539.17
1110.32	1499.02
1113.69	1466.4
1117.07	1445.76
1120.44	1416.33
1123.82	1408.66
1127.19	1391.25
1130.57	1343.56
1133.94	1309.56
1137.32	1293.22
1140.69	1268.55
1144.06	1250.38
1147.44	1229.49
1150.81	1228.75
1154.19	1167.16
1157.56	1175.41
1160.94	1139.2
1164.31	1124.32
1167.69	1102.17
1171.06	1090.37
1174.44	1071.72
1177.81	1033.67
1181.19	1018.8
1184.56	997.404
1187.94	1003.88
1191.31	955.966
1194.69	941.832
1198.06	930.996
1201.44	924.414
1204.81	890.322
1208.19	887.49
1211.56	877.093
1214.93	844.017
1218.31	849.151
1221.68	805.235
1225.06	799.946
1228.43	783.249
1231.81	760.474
1235.18	757.771
1238.56	742.231
1241.93	737.945
1245.31	707.651
1248.68	699.979
1252.06	690.88
1255.43	682.476
1258.81	658.859
1262.18	637.634
1265.56	641.008
1268.93	620.191
1272.31	609.436
1275.68	631.049
1279.06	594.809
1282.43	580.409
