Measurement: Raman, 780 nm, unoriented, Raman Data Processed
Mineral: Glass-(Y)
Rruff sample: R110073
Locality: Synthetic
Source: Elizabeth Cairns, University of Edinburgh
Description: Colorless glass fragment
Measured chemistry: CaO 21.0%, Y_2_O_3_ 13.97%, Al_2_O_3_ 12.70%, SiO_2_ 52.33%, Ca_14_Y_5_Al_9_Si_33_O_100_
Raman shift (cm-1)	intensity
92.5678	4613.94
95.9426	5129.48
99.3174	4990.35
102.692	4865.1
106.067	4902.09
109.442	4885.39
112.817	4914.72
116.192	4934.15
119.566	4973.05
122.941	4991.93
126.316	4989.61
129.691	5023.37
133.066	5049.8
136.44	5059.04
139.815	5098.33
143.19	5131.72
146.565	5148.17
149.94	5154.79
153.315	5197.34
156.689	5218.06
160.064	5218.3
163.439	5263.43
166.814	5277.49
170.189	5260.99
173.563	5277.18
176.938	5306.42
180.313	5322.33
183.688	5345.4
187.063	5349.18
190.437	5393.09
193.812	5353.15
197.187	5386.67
200.562	5406.08
203.937	5403.23
207.311	5448.27
210.686	5427.7
214.061	5467.01
217.436	5479.26
220.811	5482.97
224.186	5515.43
227.56	5499.18
230.935	5509.57
234.31	5549.68
237.685	5552.49
241.06	5564.28
244.435	5561.49
247.809	5620.9
251.184	5605.79
254.559	5630.61
257.934	5660.14
261.309	5712.29
264.683	5727.63
268.058	5747.25
271.433	5767.3
274.808	5784.31
278.183	5828.12
281.558	5832.21
284.932	5837.22
288.307	5889.44
291.682	5950.1
295.057	5966.74
298.432	6001.57
301.806	6040.81
305.181	6062.65
308.556	6075.64
311.931	6116.79
315.306	6169.93
318.68	6206.35
322.055	6246.21
325.43	6299.21
328.805	6359.71
332.18	6398.47
335.555	6466.73
338.929	6539.35
342.304	6628.45
345.679	6700.76
349.054	6782.61
352.429	6843.68
355.803	6921.19
359.178	7035.94
362.553	7109.76
365.928	7182.82
369.303	7319.04
372.678	7435.58
376.052	7493.51
379.427	7560.67
382.802	7652.09
386.177	7762.83
389.552	7864.06
392.926	7890.21
396.301	7988.84
399.676	8037.83
403.051	8122.31
406.426	8148.08
409.8	8181.14
413.175	8192.48
416.55	8239.85
419.925	8231.7
423.3	8252.41
426.675	8258.71
430.049	8216.84
433.424	8193.85
436.799	8173.78
440.174	8132.04
443.549	8149.06
446.923	8068.24
450.298	8019.65
453.673	7975.13
457.048	7924.77
460.423	7880.63
463.798	7838.52
467.172	7783.19
470.547	7722.7
473.922	7686.59
477.297	7647.17
480.672	7575.04
484.046	7542.19
487.421	7521.78
490.796	7488.12
494.171	7451.61
497.546	7431.19
500.921	7385.85
504.295	7366.21
507.67	7339.77
511.045	7278.09
514.42	7259.91
517.795	7173.73
521.169	7175.44
524.544	7119.56
527.919	7054.63
531.294	7025.98
534.669	6974.52
538.044	6948.18
541.418	6910.04
544.793	6847.2
548.168	6786.69
551.543	6771.43
554.918	6767.88
558.293	6702.81
561.667	6658.15
565.042	6638.99
568.417	6606.82
571.792	6545.44
575.167	6521.75
578.541	6484.12
581.916	6412.44
585.291	6375.22
588.666	6319.41
592.041	6276.12
595.415	6250.67
598.79	6194.51
602.165	6150.01
605.54	6111.7
608.915	6072.11
612.29	6028.79
615.664	6002.98
619.039	5952.34
622.414	5935.75
625.789	5889.79
629.164	5841.01
632.538	5816.49
635.913	5797.69
639.288	5774.54
642.663	5737.85
646.038	5716.31
649.413	5656.36
652.787	5647.27
656.162	5623.01
659.537	5575.38
662.912	5510.11
666.287	5518.6
669.661	5483.17
673.036	5425.26
676.411	5393.92
679.786	5348.51
683.161	5337.55
686.535	5291.84
689.91	5268.23
693.285	5232.61
696.66	5191.41
700.035	5156.21
703.41	5129.96
706.784	5117.87
710.159	5099.53
713.534	5053.24
716.909	5022.11
720.284	4981.65
723.659	4949.66
727.033	4924.97
730.408	4907.5
733.783	4878.11
737.158	4845.98
740.533	4817.16
743.907	4813.3
747.282	4782.54
750.657	4776.26
754.032	4745.51
757.407	4712.43
760.782	4684.38
764.156	4647.73
767.531	4641.54
770.906	4642.48
774.281	4609.35
777.656	4576.91
781.03	4563.21
784.405	4519.45
787.78	4491.63
791.155	4485.69
794.53	4470.52
797.904	4440.59
801.279	4420.38
804.654	4381.54
808.029	4363.07
811.404	4347.59
814.779	4311.88
818.153	4311.6
821.528	4290.42
824.903	4288.31
828.278	4271.5
831.653	4252.12
835.028	4270.74
838.402	4242.01
841.777	4219.86
845.152	4218.63
848.527	4205.59
851.902	4241.94
855.276	4226.47
858.651	4243.23
862.026	4247.25
865.401	4248.49
868.776	4257.6
872.15	4270.61
875.525	4279.52
878.9	4287.87
882.275	4291.34
885.65	4307.58
889.024	4301.2
892.399	4336.6
895.774	4339.38
899.149	4340.45
902.524	4355.02
905.899	4368.48
909.273	4398.02
912.648	4431.66
916.023	4425.59
919.398	4441.61
922.773	4451.08
926.148	4455.63
929.522	4477.64
932.897	4519.11
936.272	4519.22
939.647	4530.24
943.022	4541.78
946.396	4558.34
949.771	4588.27
953.146	4600.27
956.521	4636.47
959.896	4650.39
963.27	4669.07
966.645	4679.21
970.02	4699.23
973.395	4718.45
976.77	4745.89
980.145	4758.85
983.519	4783.16
986.894	4821.59
990.269	4834.11
993.644	4854.37
997.019	4912.97
1000.39	4938.07
1003.77	4953.84
1007.14	4983.47
1010.52	5037.43
1013.89	5068.09
1017.27	5112.72
1020.64	5151.04
1024.02	5174.89
1027.39	5211.5
1030.77	5268.18
1034.14	5312.04
1037.52	5379.27
1040.89	5445.26
1044.27	5448.46
1047.64	5520.15
1051.02	5597.58
1054.39	5661.63
1057.77	5729.5
1061.14	5787.4
1064.52	5881.35
1067.89	5965.4
1071.27	6055.69
1074.64	6147.95
1078.01	6239.9
1081.39	6366.59
1084.76	6500.18
1088.14	6625.78
1091.51	6767.72
1094.89	6913.43
1098.26	7080.64
1101.64	7195.29
1105.01	7345.28
1108.39	7556.71
1111.76	7692.55
1115.14	7866.12
1118.51	8047.55
1121.89	8241.8
1125.26	8464.22
1128.64	8683.55
1132.01	8924.48
1135.39	9166.72
1138.76	9382.12
1142.14	9661.52
1145.51	9933.62
1148.88	10200.8
1152.26	10476.8
1155.63	10771.6
1159.01	11045.7
1162.38	11316.1
1165.76	11630.9
1169.13	11939.8
1172.51	12257.6
1175.88	12561.1
1179.26	12869.3
1182.63	13212.4
1186.01	13483.5
1189.38	13759
1192.76	14080
1196.13	14352.8
1199.51	14617
1202.88	14895.3
1206.26	15188.1
1209.63	15454
1213.01	15731.9
1216.38	15976.9
1219.76	16184.5
1223.13	16398.2
1226.51	16644.6
1229.88	16862.4
1233.26	17030.3
1236.63	17288.8
1240.01	17424.2
1243.38	17591.1
1246.76	17793
1250.13	17921.2
1253.51	18055.8
1256.88	18217.3
1260.25	18407.7
1263.63	18576.5
1267	18748.7
1270.38	18951.2
1273.75	19112.9
1277.13	19279
1280.5	19513.1
1283.88	19842.7
