Measurement: Raman, 780 nm, unoriented, Raman Data Processed
Mineral: Glass-(Dy)
Rruff sample: R110082
Locality: Synthetic
Source: Elizabeth Cairns, University of Edinburgh
Description: Colorless glass fragment
Measured chemistry: CaO 19.21%, Dy_2_O_3_ 21.30%, Al_2_O_3_ 11.63%, SiO_2_ 47.87%, Ca_14_Dy_5_Al_9_Si_33_O_100_
Raman shift (cm-1)	intensity
95.4604	923.541
98.8353	904.98
102.21	874.776
105.585	870.728
108.96	860.16
112.335	861.815
115.709	852.082
119.084	846.822
122.459	837.716
125.834	828.636
129.209	830.081
132.583	812.013
135.958	807.289
139.333	803.355
142.708	792.489
146.083	792.518
149.458	781.773
152.832	780.718
156.207	770.691
159.582	768.851
162.957	761.615
166.332	757.804
169.706	753.984
173.081	749.415
176.456	744.664
179.831	742.231
183.206	740.53
186.581	733.175
189.955	724.678
193.33	727.431
196.705	721.625
200.08	720.025
203.455	715.773
206.829	719.696
210.204	712.904
213.579	709.76
216.954	712.901
220.329	715.195
223.703	708.086
227.078	705.573
230.453	707.626
233.828	705.845
237.203	706.088
240.578	707.838
243.952	707.235
247.327	702.829
250.702	705.261
254.077	702.548
257.452	699.023
260.827	700.195
264.201	700.998
267.576	700.999
270.951	702.061
274.326	699.561
277.701	702.742
281.075	703.221
284.45	699.746
287.825	701.865
291.2	703.284
294.575	700.948
297.95	701.31
301.324	703.103
304.699	701.146
308.074	701.852
311.449	702
314.824	704.114
318.198	707.978
321.573	705.213
324.948	705.019
328.323	705.821
331.698	709.874
335.072	704.421
338.447	710.848
341.822	709.068
345.197	709.436
348.572	712.602
351.947	705.864
355.321	708.109
358.696	709.247
362.071	707.044
365.446	703.212
368.821	705.442
372.195	706.848
375.57	698.996
378.945	697.534
382.32	697.487
385.695	696.495
389.07	694.637
392.444	694.512
395.819	689.318
399.194	690.563
402.569	684.867
405.944	685.564
409.318	685.651
412.693	684.166
416.068	684.52
419.443	681.297
422.818	680.404
426.192	682.694
429.567	681.458
432.942	680.203
436.317	676.582
439.692	680.708
443.067	680
446.441	676.746
449.816	675.718
453.191	675.002
456.566	676.648
459.941	676.611
463.315	673.236
466.69	674.453
470.065	668.047
473.44	666.586
476.815	666.515
480.19	661.05
483.564	663.291
486.939	658.416
490.314	656.919
493.689	657.028
497.064	651.188
500.438	652.003
503.813	646.374
507.188	643.711
510.563	642.177
513.938	638.193
517.313	634.259
520.687	622.985
524.062	617.484
527.437	614.949
530.812	609.541
534.187	598.7
537.562	592.95
540.936	590.42
544.311	583.066
547.686	576.834
551.061	570.456
554.436	565.997
557.81	563.684
561.185	560.721
564.56	555.992
567.935	552.984
571.31	544.18
574.684	539.006
578.059	535.463
581.434	532.05
584.809	526.312
588.184	517.966
591.558	508.714
594.933	502.326
598.308	497.139
601.683	488.294
605.058	480.93
608.433	476.278
611.807	468.477
615.182	463.845
618.557	459.76
621.932	453.684
625.307	451.646
628.682	446.993
632.056	443.438
635.431	445.191
638.806	436.745
642.181	436.556
645.556	428.493
648.93	425.638
652.305	421.829
655.68	416.534
659.055	410.742
662.43	405.441
665.804	400.118
669.179	394.5
672.554	390.755
675.929	380.651
679.304	380.24
682.679	370.089
686.053	365.173
689.428	360.403
692.803	356.297
696.178	347.773
699.553	340.542
702.928	336.77
706.302	331.315
709.677	326.626
713.052	323.171
716.427	317.23
719.802	314.239
723.176	309.063
726.551	304.678
729.926	299.706
733.301	300.618
736.676	297.624
740.051	294.48
743.425	289.432
746.8	288.363
750.175	280.647
753.55	280.107
756.925	279.375
760.299	271.607
763.674	267.947
767.049	267.43
770.424	263.439
773.799	261.863
777.173	254.8
780.548	253.791
783.923	252.438
787.298	247.754
790.673	243.705
794.048	238.748
797.422	238.196
800.797	234.034
804.172	229.591
807.547	225.753
810.922	223.821
814.296	219.762
817.671	219.705
821.046	215.732
824.421	213.341
827.796	213.683
831.17	213.781
834.545	213.237
837.92	215.125
841.295	217.635
844.67	220.012
848.045	224.429
851.419	227.931
854.794	229.336
858.169	238.031
861.544	239.255
864.919	243.797
868.293	252.349
871.668	254.475
875.043	261.083
878.418	261.011
881.793	269.484
885.168	272.821
888.542	277.294
891.917	283.33
895.292	286.815
898.667	291.761
902.042	296.735
905.417	299.41
908.791	305.072
912.166	309.721
915.541	311.774
918.916	316.175
922.291	319.126
925.665	319.581
929.04	325.956
932.415	326.075
935.79	328.613
939.165	328.577
942.539	331.591
945.914	334.358
949.289	336.355
952.664	339.072
956.039	337.831
959.414	339.101
962.788	339.945
966.163	337.254
969.538	341.358
972.913	341.892
976.288	342.027
979.663	341.869
983.037	343.211
986.412	340.984
989.787	337.854
993.162	339.004
996.537	338.281
999.911	336.874
1003.29	334.069
1006.66	332.662
1010.04	329.783
1013.41	328.238
1016.78	326.762
1020.16	318.154
1023.53	313.059
1026.91	312.515
1030.29	306.231
1033.66	300.115
1037.03	294.59
1040.41	289.585
1043.78	284.738
1047.16	274.894
1050.53	268.812
1053.91	258.769
1057.28	252.025
1060.66	243.274
1064.03	235.275
1067.41	224.795
1070.78	218.529
1074.16	208.099
1077.53	198.713
1080.91	193.31
1084.28	180.755
1087.66	176.213
1091.03	165.208
1094.41	159.786
1097.78	152.017
1101.16	144.083
1104.53	139.761
1107.91	134.096
1111.28	124
1114.65	121.648
1118.03	115.596
1121.4	109.238
1124.78	106.157
1128.15	100.502
1131.53	97.4758
1134.9	93.2524
1138.28	89.7562
1141.65	87.9343
1145.03	82.2285
1148.4	80.0408
1151.78	78.0667
1155.15	75.6008
1158.53	72.9773
1161.9	71.7359
1165.28	66.5373
1168.65	65.6024
1172.03	63.1915
1175.4	60.5768
1178.78	59.6837
1182.15	55.68
1185.53	55.0551
1188.9	52.1335
1192.28	51.8338
1195.65	49.904
1199.03	51.8784
1202.4	46.8672
1205.78	44.8124
1209.15	46.7504
1212.53	44.6092
1215.9	41.4967
1219.27	41.6878
1222.65	40.0072
1226.02	38.5414
1229.4	39.6181
1232.77	35.5356
1236.15	37.8313
1239.52	36.0055
1242.9	34.3404
1246.27	35.3807
1249.65	35.3745
1253.02	34.763
1256.4	33.7748
1259.77	35.424
1263.15	34.3886
1266.52	32.9272
1269.9	33.0883
1273.27	34.4589
1276.65	33.0619
1280.02	30.6402
1283.4	30.6703
