Measurement: Raman, 780 nm, unoriented, Raman Data Processed
Mineral: Glass-(Gd)
Rruff sample: R110080
Locality: Synthetic
Source: Elizabeth Cairns, University of Edinburgh
Description: Colorless glass fragment
Measured chemistry: CaO 19.29%, Gd_2_O_3_ 20.85%, Al_2_O_3_ 11.71%, SiO_2_ 48.16%, Ca_14_Gd_5_Al_9_Si_33_O_100_
Raman shift (cm-1)	intensity
103.656	6760.31
107.031	6911.59
110.406	7061.08
113.781	7222.24
117.156	7385.2
120.531	7508.45
123.905	7677.67
127.28	7799.35
130.655	7942.11
134.03	8059.46
137.405	8192.46
140.779	8294.26
144.154	8420.9
147.529	8502.42
150.904	8588.85
154.279	8660.72
157.654	8735.9
161.028	8777.67
164.403	8824.39
167.778	8840.36
171.153	8840.65
174.528	8832.76
177.902	8829.64
181.277	8808.97
184.652	8776.3
188.027	8704.16
191.402	8658.94
194.776	8584.69
198.151	8517.32
201.526	8386.5
204.901	8300.24
208.276	8213.66
211.651	8101.27
215.025	7997.55
218.4	7888.75
221.775	7774.59
225.15	7666.12
228.525	7552.93
231.899	7462.81
235.274	7387.57
238.649	7291.37
242.024	7198.62
245.399	7125.74
248.774	7088.37
252.148	7013.29
255.523	6965.01
258.898	6938.11
262.273	6918.29
265.648	6906.81
269.022	6906.46
272.397	6898.41
275.772	6908.26
279.147	6935.83
282.522	6969.72
285.897	6982.32
289.271	7025.01
292.646	7068.68
296.021	7107.39
299.396	7179.27
302.771	7221.39
306.145	7288.07
309.52	7347.68
312.895	7411.87
316.27	7483.52
319.645	7536.64
323.019	7595.8
326.394	7640.4
329.769	7691.85
333.144	7739.21
336.519	7782.55
339.894	7817.03
343.268	7845.91
346.643	7846.39
350.018	7858.85
353.393	7849.93
356.768	7837.49
360.142	7811.41
363.517	7780.03
366.892	7733.42
370.267	7706.6
373.642	7627.7
377.017	7573.26
380.391	7508.07
383.766	7449.34
387.141	7382.83
390.516	7313.63
393.891	7238.9
397.265	7172.07
400.64	7115.11
404.015	7039.24
407.39	6977.41
410.765	6910.3
414.14	6854.87
417.514	6791.67
420.889	6736.98
424.264	6681.34
427.639	6617.81
431.014	6570.17
434.389	6515.79
437.763	6451.03
441.138	6398.09
444.513	6355.53
447.888	6304.65
451.263	6258.39
454.637	6209.24
458.012	6168.12
461.387	6112.93
464.762	6063.06
468.137	6019.34
471.512	5981.76
474.886	5924.81
478.261	5864.07
481.636	5812.85
485.011	5761.07
488.386	5698.42
491.76	5643.9
495.135	5586.58
498.51	5522.83
501.885	5452.64
505.26	5387.18
508.635	5329.7
512.009	5259.81
515.384	5197.12
518.759	5108.1
522.134	5038.44
525.509	4944.78
528.883	4866.54
532.258	4791.29
535.633	4716.15
539.008	4628.46
542.383	4545.15
545.757	4459.69
549.132	4382.71
552.507	4306.35
555.882	4213.89
559.257	4138.26
562.631	4049.17
566.006	3974.91
569.381	3896.05
572.756	3798.96
576.131	3728.01
579.506	3640.84
582.88	3561.5
586.255	3504.32
589.63	3408.27
593.005	3334.84
596.38	3247.89
599.755	3177.15
603.129	3103.67
606.504	3040.7
609.879	2963.86
613.254	2897.89
616.629	2836.03
620.003	2768.92
623.378	2711.02
626.753	2648.31
630.128	2589.03
633.503	2534.6
636.878	2475.09
640.252	2421.69
643.627	2373.57
647.002	2320.06
650.377	2276.41
653.752	2231.84
657.126	2179.6
660.501	2133
663.876	2091.08
667.251	2052.64
670.626	2007.86
674	1972.47
677.375	1931.21
680.75	1896.89
684.125	1864.78
687.5	1826.42
690.875	1795.34
694.249	1765.66
697.624	1732.46
700.999	1707.94
704.374	1675.61
707.749	1654.01
711.124	1624.98
714.498	1595.06
717.873	1568.93
721.248	1548.06
724.623	1528.76
727.998	1501.5
731.372	1487.55
734.747	1458.81
738.122	1437.72
741.497	1416.61
744.872	1395.77
748.246	1378.58
751.621	1359.67
754.996	1341.77
758.371	1325.16
761.746	1306.39
765.12	1289.8
768.495	1275.97
771.87	1254.23
775.245	1242.09
778.62	1225.96
781.995	1213.69
785.369	1193.57
788.744	1182.57
792.119	1172.38
795.494	1157.99
798.869	1142.96
802.244	1128.89
805.618	1114.88
808.993	1101.82
812.368	1090.18
815.743	1078.77
819.118	1065.31
822.492	1057.33
825.867	1044.1
829.242	1036.12
832.617	1024.7
835.992	1020.43
839.366	1010.75
842.741	997.274
846.116	991.638
849.491	982.052
852.866	978.022
856.241	971.365
859.615	966.978
862.99	952.263
866.365	952.666
869.74	948.141
873.115	937.83
876.49	937.841
879.864	934.01
883.239	926.012
886.614	920.191
889.989	915.288
893.364	911.317
896.738	905.605
900.113	899.746
903.488	897.471
906.863	892.753
910.238	892.473
913.612	887.828
916.987	883.23
920.362	881.116
923.737	877.009
927.112	869.805
930.487	871.482
933.861	865.204
937.236	866.192
940.611	862.115
943.986	854.99
947.361	855.513
950.736	852.427
954.11	847.609
957.485	845.543
960.86	841.03
964.235	832.985
967.61	838.412
970.984	834.825
974.359	824.928
977.734	824.018
981.109	825.419
984.484	817.895
987.859	818.82
991.233	816.542
994.608	812.986
997.983	812.907
1001.36	810.367
1004.73	806.862
1008.11	804.124
1011.48	803.208
1014.86	805.085
1018.23	799.654
1021.61	796.277
1024.98	790.146
1028.36	787.396
1031.73	785.49
1035.11	787.266
1038.48	781.171
1041.86	789.076
1045.23	769.321
1048.61	769.359
1051.98	766.219
1055.36	764.532
1058.73	761.429
1062.1	753.945
1065.48	752.091
1068.85	746.665
1072.23	750.031
1075.6	741.991
1078.98	746.393
1082.35	744.105
1085.73	748.45
1089.1	748.589
1092.48	742.22
1095.85	733.937
1099.23	739.371
1102.6	725.128
1105.98	722.003
1109.35	724.975
1112.73	721.509
1116.1	722.757
1119.48	722.318
1122.85	726.343
1126.23	728.518
1129.6	732.73
1132.98	729.389
1136.35	735.286
1139.72	737.134
1143.1	736.577
1146.47	740.417
1149.85	744.971
1153.22	749.759
1156.6	752.34
1159.97	754.326
1163.35	763.369
1166.72	769.773
1170.1	769.604
1173.47	777.153
1176.85	780.395
1180.22	782.474
1183.6	786.851
1186.97	786.478
1190.35	796.097
1193.72	800.846
1197.1	808.162
1200.47	808.607
1203.85	811.564
1207.22	816.338
1210.6	823.358
1213.97	825.91
1217.35	832.562
1220.72	833.226
1224.1	840.976
1227.47	845.839
1230.85	857.485
1234.22	849.148
1237.6	851.448
1240.97	851.652
1244.34	854.783
1247.72	858.789
1251.09	864.585
1254.47	862.329
1257.84	870.696
1261.22	875.153
1264.59	881.318
1267.97	881.215
1271.34	883.327
1274.72	891.724
1278.09	893.061
1281.47	900.447
1284.84	905.012
