Measurement: Raman, 532 nm, unoriented, Raman Data Processed
Mineral: Glass-(Pr)
Rruff sample: R110076
Locality: Synthetic
Source: Elizabeth Cairns, University of Edinburgh
Description: Greenish-yellow glass fragment
Measured chemistry: CaO 17.14%, Pr_2_O_3_ 16.27%, Al_2_O_3_ 10.56%, SiO_2_ 56.02%, Ca_12_Pr_4_Al_8_Si_36_O_100_
Raman shift (cm-1)	intensity
188.362	1093.12
191.255	1100.84
194.147	1079.08
197.04	1079.74
199.933	1086.02
202.825	1089.97
205.718	1087.7
208.611	1084.01
211.504	1073.51
214.396	1066.18
217.289	1068.66
220.182	1078.64
223.074	1074.34
225.967	1067.27
228.86	1062.94
231.752	1050.46
234.645	1044.82
237.538	1048.18
240.43	1044.87
243.323	1040.35
246.216	1038.51
249.109	1042.98
252.001	1037.93
254.894	1031.27
257.787	1046.78
260.679	1029.78
263.572	1025.62
266.465	1029.67
269.358	1041.42
272.25	1034.7
275.143	1036.38
278.036	1027.38
280.928	1026.37
283.821	1024.47
286.714	1021.79
289.606	1030.26
292.499	1029.76
295.392	1038.99
298.284	1028.51
301.177	1039.2
304.07	1051.12
306.963	1038.9
309.855	1046.82
312.748	1054.84
315.641	1047.82
318.533	1054.16
321.426	1045.75
324.319	1061.33
327.212	1053.33
330.104	1059.09
332.997	1060.15
335.89	1066.85
338.782	1070.73
341.675	1070.54
344.568	1070.58
347.46	1073.93
350.353	1077.96
353.246	1072.31
356.139	1080.27
359.031	1087.4
361.924	1077.53
364.817	1086.19
367.709	1074.83
370.602	1073.17
373.495	1078.67
376.387	1082.22
379.28	1072.8
382.173	1084.1
385.065	1082.6
387.958	1077.01
390.851	1078.97
393.744	1079.19
396.636	1078.87
399.529	1074.6
402.422	1075.58
405.314	1076.27
408.207	1078.68
411.1	1079.43
413.993	1086.27
416.885	1079.94
419.778	1074.95
422.671	1073.85
425.563	1080.08
428.456	1088.76
431.349	1088.4
434.241	1083.2
437.134	1089.42
440.027	1093.84
442.92	1095.47
445.812	1093
448.705	1096.94
451.598	1088.3
454.49	1094.59
457.383	1091.27
460.276	1091.26
463.168	1087.79
466.061	1085.47
468.954	1084.82
471.846	1086.57
474.739	1073.84
477.632	1069.29
480.525	1070.72
483.417	1073.75
486.31	1066.55
489.203	1066.31
492.095	1059.24
494.988	1066.31
497.881	1047.47
500.774	1043.34
503.666	1033.61
506.559	1029.77
509.452	1012.88
512.344	1009.48
515.237	995.785
518.13	983.368
521.022	961.002
523.915	954.677
526.808	944.16
529.701	929.97
532.593	909.574
535.486	898.862
538.379	881.049
541.271	874.942
544.164	860.16
547.057	846.468
549.949	833.273
552.842	828.351
555.735	819.589
558.628	805.219
561.52	805.805
564.413	795.512
567.306	787.62
570.198	775.765
573.091	758.255
575.984	760.912
578.876	757.427
581.769	744.175
584.662	739.602
587.554	714.779
590.447	712.822
593.34	712.528
596.232	700.963
599.125	683.413
602.018	668.974
604.911	661.11
607.803	653.601
610.696	644.9
613.589	632.896
616.481	618.377
619.374	612.318
622.267	597.024
625.159	596.28
628.052	581.367
630.945	571.741
633.838	570.986
636.73	564.036
639.623	561.352
642.516	550.216
645.408	544.155
648.301	540.141
651.194	530.097
654.087	524.043
656.979	513.861
659.872	515.934
662.765	505.047
665.657	501.799
668.55	491.347
671.443	479.049
674.335	482.014
677.228	465.335
680.121	460.59
683.014	451.668
685.906	447.932
688.799	434.8
691.692	423.935
694.584	422.599
697.477	422.267
700.37	404.503
703.263	399.944
706.155	391.038
709.048	397.403
711.941	380.751
714.833	381.43
717.726	379.532
720.619	367.203
723.511	362.81
726.404	359.049
729.297	359.45
732.189	359.135
735.082	347.934
737.975	349.902
740.868	349.87
743.76	341.721
746.653	335.973
749.546	331.989
752.438	328.838
755.331	335.882
758.224	335.977
761.116	326.811
764.009	329.054
766.902	325.699
769.795	318.61
772.687	315.242
775.58	321.913
778.473	316.706
781.365	309.798
784.258	312.099
787.151	311.698
790.043	309.943
792.936	305.187
795.829	301.49
798.722	286.547
801.614	290.489
804.507	287.162
807.4	274.075
810.292	274.936
813.185	268.703
816.078	271.511
818.971	261.43
821.863	256.736
824.756	248.487
827.649	243.791
830.541	237.989
833.434	238.957
836.327	242.239
839.219	234.476
842.112	241.305
845.005	244.492
847.898	239.257
850.79	245.815
853.683	260.615
856.576	258.601
859.468	266.398
862.361	274.243
865.254	283.118
868.146	288.163
871.039	295.706
873.932	308.583
876.824	316.43
879.717	327.418
882.61	331.787
885.503	350.537
888.395	356.836
891.288	363.675
894.181	380.539
897.073	394.55
899.966	397.862
902.859	408.476
905.751	424.135
908.644	431.092
911.537	443.668
914.43	452.257
917.322	460.705
920.215	474.11
923.108	478.535
926	493.081
928.893	501.686
931.786	508.643
934.678	512.259
937.571	524.285
940.464	523.613
943.357	528.967
946.249	543.482
949.142	548.672
952.035	551.076
954.927	557.916
957.82	557.038
960.713	567.641
963.606	568.525
966.498	581.574
969.391	582.561
972.284	588.138
975.176	590.82
978.069	588.595
980.962	599.587
983.854	596.026
986.747	596.443
989.64	602.763
992.533	606.599
995.425	608.643
998.318	610.821
1001.21	610.95
1004.1	616.978
1007	613.266
1009.89	608.014
1012.78	608.289
1015.67	603.429
1018.57	609.473
1021.46	607.788
1024.35	601.944
1027.24	591.229
1030.14	589.225
1033.03	587.826
1035.92	582.2
1038.82	571.811
1041.71	553.908
1044.6	536.703
1047.49	533.334
1050.39	524.654
1053.28	509.863
1056.17	499.732
1059.07	477.518
1061.96	464.918
1064.85	452.411
1067.74	427.143
1070.63	415.95
1073.53	397.383
1076.42	377.825
1079.31	360.106
1082.21	352.011
1085.1	334.965
1087.99	320.308
1090.88	305.217
1093.78	293.519
1096.67	279.119
1099.56	274.976
1102.45	258.226
1105.35	250.647
1108.24	237.334
1111.13	231.075
1114.03	220.606
1116.92	209.954
1119.81	207.95
1122.7	195.992
1125.6	187.096
1128.49	185.335
1131.38	175.735
1134.28	161.287
1137.17	169.053
1140.06	156.785
1142.95	155.193
1145.85	149.062
1148.74	149.251
1151.63	134.787
1154.52	131.852
1157.42	126.337
1160.31	121.661
1163.2	121.314
1166.09	113.022
1168.99	104.063
1171.88	102.543
1174.77	103.108
1177.66	96.7857
1180.56	100.116
1183.45	90.2087
1186.34	93.9696
1189.24	85.0238
1192.13	78.1298
1195.02	74.9765
1197.91	81.1022
1200.81	66.0026
1203.7	69.1864
1206.59	63.68
1209.48	63.4342
1212.38	58.0928
1215.27	61.9391
1218.16	54.5482
1221.06	47.6454
1223.95	55.5084
1226.84	42.9665
1229.73	42.2686
1232.63	38.2167
1235.52	44.9263
1238.41	35.6252
1241.31	36.6097
1244.2	36.9168
1247.09	36.9944
1249.98	33.4615
1252.88	37.2375
1255.77	32.6888
1258.66	29.9807
1261.55	30.5956
1264.45	29.6269
1267.34	34.3006
1270.23	30.5043
1273.12	34.8301
1276.02	26.2939
1278.91	30.3809
1281.8	27.6065
1284.69	29.6165
1287.59	37.1482
1290.48	28.2614
1293.37	27.7753
1296.27	22.549
1299.16	29.6979
1302.05	25.02
