Measurement: Raman, 532 nm, unoriented, Raman Data Processed
Mineral: Glass-(Ce)
Rruff sample: R110075
Locality: Synthetic
Source: Elizabeth Cairns, University of Edinburgh
Description: Pale yellow glass fragment
Measured chemistry: CaO 16.44%, Ce_2_O_3_ 19.71%, Al_2_O_3_ 10.13%, SiO_2_ 53.72%, Ca_11_Ce_5_Al_8_Si_35_O_100_
Raman shift (cm-1)	intensity
198.486	829.145
201.379	831.813
204.272	842.723
207.164	840.088
210.057	849.635
212.95	833.264
215.843	829.782
218.735	827.674
221.628	841.385
224.521	830.654
227.413	827.875
230.306	813.685
233.199	820.379
236.091	815.241
238.984	809.904
241.877	807.277
244.769	813.751
247.662	815.197
250.555	807.214
253.448	807.091
256.34	807.949
259.233	805.866
262.126	802.537
265.018	796.013
267.911	800.014
270.804	796.741
273.697	793.26
276.589	806.778
279.482	793.726
282.375	789.893
285.267	795.873
288.16	797.057
291.053	789.896
293.945	800.951
296.838	804.22
299.731	799.609
302.623	810.356
305.516	813.797
308.409	807.244
311.302	811.033
314.194	818.095
317.087	826.506
319.98	813.365
322.872	828.709
325.765	810.831
328.658	824.482
331.55	824.465
334.443	833.33
337.336	823.617
340.229	832.02
343.121	830.283
346.014	836.388
348.907	830.432
351.799	842.871
354.692	832.762
357.585	837.005
360.478	842.245
363.37	839.832
366.263	838.971
369.156	830.976
372.048	844.307
374.941	834.402
377.834	842.895
380.726	838.319
383.619	844.911
386.512	839.875
389.404	848.68
392.297	838.252
395.19	841.769
398.083	833.799
400.975	839.784
403.868	842.661
406.761	841.768
409.653	848.125
412.546	848.813
415.439	848.04
418.332	844.228
421.224	839.033
424.117	849.305
427.01	849.996
429.902	844.858
432.795	846.003
435.688	850.411
438.58	851.159
441.473	852.851
444.366	861.148
447.259	852.639
450.151	854.839
453.044	855.744
455.937	850.883
458.829	851.896
461.722	847.673
464.615	849.28
467.507	842.464
470.4	841.627
473.293	833.446
476.185	832.322
479.078	835.951
481.971	824.526
484.864	828.154
487.756	825.723
490.649	823.906
493.542	821.944
496.434	823.133
499.327	819.261
502.22	804.719
505.113	809.504
508.005	806.415
510.898	799.021
513.791	783.888
516.683	774.884
519.576	767.889
522.469	752.454
525.361	750.782
528.254	750.064
531.147	726.243
534.04	717.169
536.932	707.938
539.825	698.593
542.718	689.789
545.61	687.388
548.503	662.375
551.396	664.363
554.288	654.969
557.181	645.126
560.074	637.187
562.967	631.919
565.859	634.91
568.752	626.034
571.645	620.545
574.537	613.044
577.43	603.757
580.323	609.994
583.216	591.803
586.108	591.713
589.001	579.84
591.894	580.083
594.786	566.221
597.679	558.325
600.572	552.116
603.464	545.659
606.357	533.989
609.25	525.78
612.142	519.956
615.035	516.897
617.928	506.112
620.821	501.975
623.713	487.876
626.606	490.406
629.499	481.868
632.391	475.235
635.284	479.209
638.177	475.044
641.069	469.458
643.962	458.227
646.855	462.482
649.747	450.508
652.64	441.694
655.533	443.033
658.426	436.353
661.318	438.434
664.211	423.762
667.104	421.796
669.996	411.362
672.889	409.659
675.782	403.486
678.674	400.84
681.567	392.235
684.46	385.705
687.353	382.906
690.245	379.687
693.138	362.853
696.031	362.17
698.923	363.803
701.816	352.04
704.709	342.139
707.601	343.52
710.494	339.908
713.387	327.562
716.28	335.561
719.172	326.492
722.065	325.524
724.958	319.225
727.85	319.306
730.743	318.668
733.636	307.977
736.529	307.424
739.421	306.616
742.314	298.173
745.207	300.506
748.099	294.019
750.992	288.461
753.885	286.496
756.777	288.713
759.67	284.514
762.563	284.226
765.456	280.725
768.348	276.225
771.241	282.017
774.134	275.069
777.026	275.088
779.919	270.677
782.812	265.413
785.704	260.415
788.597	264.043
791.49	254.536
794.383	253.477
797.275	250.735
800.168	247.894
803.061	245.823
805.953	242.693
808.846	241.524
811.739	240.642
814.631	231.509
817.524	229.971
820.417	227.519
823.309	232.99
826.202	214.828
829.095	218.968
831.988	224.478
834.88	226.219
837.773	217.104
840.666	223.833
843.558	225.254
846.451	234.381
849.344	231.065
852.236	239.901
855.129	250.821
858.022	255.554
860.915	258.378
863.807	269.778
866.7	282.086
869.593	284.901
872.485	292.499
875.378	303.295
878.271	308.757
881.163	319.396
884.056	327.885
886.949	340.085
889.842	349.989
892.734	355.897
895.627	365.714
898.52	375.072
901.412	386.262
904.305	402.909
907.198	410.135
910.091	420.759
912.983	429.084
915.876	442.595
918.769	449.146
921.661	457.051
924.554	467.699
927.447	471.438
930.339	483.077
933.232	487.693
936.125	490.932
939.018	496.001
941.91	498.98
944.803	508.815
947.696	516.607
950.588	525.905
953.481	532.094
956.374	542.319
959.266	550.934
962.159	551.381
965.052	560.05
967.944	573.423
970.837	569.852
973.73	574.274
976.623	588.386
979.515	585.81
982.408	596.151
985.301	599.684
988.193	614.084
991.086	614.122
993.979	618.536
996.871	626.773
999.764	631.677
1002.66	636.497
1005.55	639.556
1008.44	644.212
1011.34	641.667
1014.23	650.177
1017.12	643.513
1020.01	648.028
1022.91	655.287
1025.8	642.11
1028.69	649.099
1031.58	641.263
1034.48	645.19
1037.37	627.641
1040.26	622.539
1043.15	614.254
1046.05	605.754
1048.94	592.433
1051.83	590.261
1054.73	577.095
1057.62	568.658
1060.51	549.5
1063.4	535.836
1066.3	513.473
1069.19	502.638
1072.08	492.702
1074.97	470.762
1077.87	461.002
1080.76	449.029
1083.65	434.33
1086.55	416.57
1089.44	397.238
1092.33	391.276
1095.22	378.955
1098.12	369.079
1101.01	353.102
1103.9	338.48
1106.79	332.256
1109.69	322.57
1112.58	302.903
1115.47	305.113
1118.37	293.845
1121.26	284.792
1124.15	274.904
1127.04	264.441
1129.94	257.333
1132.83	252.298
1135.72	248.581
1138.61	237.546
1141.51	239.627
1144.4	229.257
1147.29	226.403
1150.18	218.826
1153.08	212.085
1155.97	209.012
1158.86	201.576
1161.76	202.296
1164.65	193.408
1167.54	192.234
1170.43	191.559
1173.33	191.145
1176.22	185.141
1179.11	177.062
1182	173.63
1184.9	173.32
1187.79	172.87
1190.68	166.501
1193.58	157.304
1196.47	164.655
1199.36	157.674
1202.25	153.564
1205.15	160.287
1208.04	155.758
1210.93	145.35
1213.82	149.438
1216.72	146.236
1219.61	150.5
1222.5	150.57
1225.39	141.867
1228.29	142.74
1231.18	140.881
1234.07	140.239
1236.97	140.297
1239.86	141.657
1242.75	133.501
1245.64	143.754
1248.54	134.699
1251.43	135.086
1254.32	130.891
1257.21	136.252
1260.11	137.946
1263	137.192
1265.89	136.428
1268.79	136.492
1271.68	133.71
1274.57	135.393
1277.46	136.456
1280.36	129.912
1283.25	129.82
1286.14	130.832
1289.03	131.629
1291.93	133.657
1294.82	125.344
1297.71	123.076
1300.61	124.719
