Measurement: Raman, 780 nm, unoriented, Raman Data Processed
Mineral: Glass-(Tb)
Rruff sample: R110081
Locality: Synthetic
Source: Elizabeth Cairns, University of Edinburgh
Description: Colorless glass fragment
Measured chemistry: CaO 19.38%, Tb_2_O_3_ 22.28%, Al_2_O_3_ 11.74%, SiO_2_ 46.60%, Ca_14_Tb_5_Al_9_Si_32_O_100_
Raman shift (cm-1)	intensity
94.9783	1449.36
98.3531	1398.08
101.728	1334.05
105.103	1312.57
108.478	1304.63
111.852	1278.09
115.227	1266.01
118.602	1250.3
121.977	1246.8
125.352	1232.06
128.726	1232.29
132.101	1208.38
135.476	1200.8
138.851	1194.88
142.226	1179.93
145.601	1174.31
148.975	1162.48
152.35	1160.91
155.725	1153.27
159.1	1139.94
162.475	1131.12
165.85	1128.71
169.224	1124.77
172.599	1113.16
175.974	1112.98
179.349	1107.03
182.724	1102.32
186.098	1091.34
189.473	1081.89
192.848	1078.18
196.223	1076
199.598	1066.62
202.972	1063.52
206.347	1062.84
209.722	1056.89
213.097	1052.71
216.472	1052.36
219.847	1050.23
223.221	1043.21
226.596	1036.26
229.971	1038.16
233.346	1036.31
236.721	1028.47
240.095	1024.46
243.47	1027.05
246.845	1017
250.22	1018.77
253.595	1013.68
256.969	1011.29
260.344	1007.71
263.719	1009.53
267.094	1008.38
270.469	1000.55
273.844	1005.19
277.218	996.556
280.593	997.27
283.968	997.088
287.343	989.605
290.718	992.003
294.092	988.461
297.467	986.609
300.842	989.637
304.217	987.303
307.592	986.497
310.967	988.524
314.341	982.615
317.716	982.682
321.091	984.327
324.466	980.637
327.841	981.909
331.216	987.74
334.59	985.308
337.965	986.128
341.34	991.242
344.715	987.921
348.09	986.62
351.464	986.8
354.839	984.058
358.214	984.425
361.589	981.812
364.964	979.539
368.339	975.895
371.713	977.607
375.088	974.638
378.463	964.89
381.838	961.095
385.213	963.175
388.587	955.395
391.962	957.8
395.337	953.796
398.712	953.118
402.087	947.446
405.462	951.053
408.836	948.817
412.211	950.218
415.586	942.013
418.961	936.176
422.336	942.975
425.71	934.838
429.085	935.086
432.46	933.5
435.835	936.199
439.21	940.767
442.584	941.732
445.959	930.78
449.334	928.212
452.709	932.8
456.084	933.096
459.459	931.734
462.833	933.234
466.208	931.774
469.583	929.222
472.958	921.21
476.333	923.266
479.707	920.553
483.082	921.121
486.457	918.089
489.832	915.259
493.207	914.584
496.582	912.887
499.956	912.421
503.331	905.199
506.706	902.803
510.081	901.475
513.456	890.55
516.83	888.559
520.205	877.931
523.58	872.567
526.955	867.177
530.33	851.897
533.705	844.281
537.079	835.565
540.454	833.004
543.829	824.803
547.204	812.695
550.579	805.849
553.953	802.723
557.328	795.002
560.703	791.847
564.078	784.649
567.453	781.463
570.827	772.764
574.202	763.224
577.577	761.219
580.952	752.63
584.327	741.408
587.702	723.432
591.076	716.962
594.451	702.266
597.826	695.206
601.201	680.313
604.576	672.752
607.951	662.981
611.325	652.162
614.7	646.904
618.075	639.228
621.45	631.799
624.825	628.746
628.199	620.811
631.574	622.542
634.949	620.469
638.324	613.599
641.699	608.76
645.073	606.314
648.448	600.794
651.823	599.854
655.198	589.267
658.573	582.695
661.948	575.797
665.322	570.648
668.697	567.839
672.072	557.653
675.447	546.878
678.822	544.231
682.197	524.664
685.571	524.373
688.946	517.612
692.321	508.159
695.696	497.895
699.071	489.725
702.445	482.778
705.82	476.119
709.195	464.397
712.57	460.125
715.945	452.48
719.319	447.28
722.694	435.485
726.069	437.118
729.444	426.766
732.819	425.274
736.193	414.529
739.568	412.665
742.943	403.919
746.318	406.222
749.693	392.792
753.068	392.249
756.442	388.415
759.817	380.765
763.192	380.966
766.567	373.178
769.942	368.272
773.317	366.613
776.691	357.436
780.066	356.404
783.441	352.435
786.816	348.948
790.191	337.733
793.565	337.677
796.94	333.804
800.315	329.348
803.69	323.325
807.065	322.091
810.439	315.09
813.814	311.731
817.189	314.152
820.564	309.058
823.939	313.493
827.314	316.312
830.688	318.877
834.063	319.612
837.438	329.557
840.813	337.009
844.188	346.173
847.562	353.294
850.937	367.237
854.312	375.572
857.687	391.206
861.062	397.795
864.437	413.164
867.811	425.825
871.186	436.407
874.561	454.699
877.936	461.484
881.311	466.946
884.686	482.229
888.06	494.877
891.435	506.915
894.81	516.496
898.185	523.51
901.56	534.22
904.934	539.784
908.309	553.462
911.684	558.709
915.059	570.985
918.434	582.812
921.808	594.85
925.183	595.925
928.558	602.76
931.933	611.483
935.308	620.186
938.683	622.562
942.057	626.696
945.432	633.303
948.807	639.999
952.182	644.507
955.557	645.58
958.932	651.857
962.306	654.036
965.681	653.97
969.056	658.026
972.431	661.486
975.806	664.736
979.18	664.767
982.555	667.359
985.93	667.024
989.305	671.503
992.68	670.635
996.054	675.031
999.429	666.653
1002.8	662.373
1006.18	663.464
1009.55	666.507
1012.93	658.386
1016.3	654.781
1019.68	646.733
1023.05	639.906
1026.43	640.073
1029.8	629.314
1033.18	613.436
1036.55	613.602
1039.93	596.874
1043.3	595.721
1046.68	578.832
1050.05	564.188
1053.43	551.756
1056.8	540.173
1060.18	527.085
1063.55	516.004
1066.93	502.113
1070.3	486.201
1073.67	478.199
1077.05	459.782
1080.42	449.5
1083.8	435.142
1087.17	421.834
1090.55	412.188
1093.92	401.081
1097.3	388.769
1100.67	376.078
1104.05	371.741
1107.42	362.771
1110.8	350.413
1114.17	344.532
1117.55	339.974
1120.92	329.379
1124.3	328.277
1127.67	322.373
1131.05	318.357
1134.42	310.208
1137.8	305.538
1141.17	302.762
1144.55	300.623
1147.92	289.883
1151.3	293.59
1154.67	289.27
1158.05	284.445
1161.42	288.438
1164.8	280.33
1168.17	277.471
1171.55	278.99
1174.92	274.614
1178.3	273.105
1181.67	271.153
1185.04	273.898
1188.42	268.816
1191.79	269.415
1195.17	268.731
1198.54	268.004
1201.92	265.46
1205.29	263.628
1208.67	266.141
1212.04	268.66
1215.42	263.859
1218.79	263.503
1222.17	260.988
1225.54	263.614
1228.92	264.952
1232.29	258.79
1235.67	263.554
1239.04	261.621
1242.42	259.589
1245.79	263.807
1249.17	260.649
1252.54	260.986
1255.91	261.089
1259.29	263.888
1262.66	267.157
1266.04	264.698
1269.41	267.485
1272.79	270.595
1276.16	268.761
1279.54	265.896
1282.91	269.598
