Measurement: Raman, 532 nm, unoriented, Raman Data Processed
Mineral: Glass-(Y)
Rruff sample: R110073
Locality: Synthetic
Source: Elizabeth Cairns, University of Edinburgh
Description: Colorless glass fragment
Measured chemistry: CaO 21.0%, Y_2_O_3_ 13.97%, Al_2_O_3_ 12.70%, SiO_2_ 52.33%, Ca_14_Y_5_Al_9_Si_33_O_100_
Raman shift (cm-1)	intensity
188.362	997.186
191.255	998.571
194.147	991.857
197.04	1000.88
199.933	999.902
202.825	999.671
205.718	998.033
208.611	993.359
211.504	981.712
214.396	974.914
217.289	989.253
220.182	985.175
223.074	984.093
225.967	978.491
228.86	982.043
231.752	965.567
234.645	962.959
237.538	965.66
240.43	956.685
243.323	960.681
246.216	957.467
249.109	960.397
252.001	957.419
254.894	957.528
257.787	958.014
260.679	951.678
263.572	941.24
266.465	948.404
269.358	953.069
272.25	950.231
275.143	958.859
278.036	949.732
280.928	943.452
283.821	940.632
286.714	943.89
289.606	941.7
292.499	941.945
295.392	949.506
298.284	943.164
301.177	951.324
304.07	957.827
306.963	947.111
309.855	953.846
312.748	955.588
315.641	954.526
318.533	954.597
321.426	950.699
324.319	962.199
327.212	961.333
330.104	954.083
332.997	957.801
335.89	965.266
338.782	963.479
341.675	966.624
344.568	960.372
347.46	970.363
350.353	974.378
353.246	962.563
356.139	975.008
359.031	974.426
361.924	965.767
364.817	976.937
367.709	967.153
370.602	964.211
373.495	971.361
376.387	967.074
379.28	962.193
382.173	971.173
385.065	965.464
387.958	962.977
390.851	965.457
393.744	962.699
396.636	968.042
399.529	964.104
402.422	959.661
405.314	960.819
408.207	963.294
411.1	962.18
413.993	967.404
416.885	961.572
419.778	953.648
422.671	955.763
425.563	961.939
428.456	965.113
431.349	967.547
434.241	964.954
437.134	958.573
440.027	965.822
442.92	967.504
445.812	962.181
448.705	968.36
451.598	961.353
454.49	964.37
457.383	967.242
460.276	970.596
463.168	959.148
466.061	968.445
468.954	964.139
471.846	967.919
474.739	967.818
477.632	959.827
480.525	962.374
483.417	966.096
486.31	961.349
489.203	961.099
492.095	956.364
494.988	963.249
497.881	953.331
500.774	952.453
503.666	945.787
506.559	943.503
509.452	938.238
512.344	935.797
515.237	931.605
518.13	919.268
521.022	909.552
523.915	905.291
526.808	904.212
529.701	895.01
532.593	879.559
535.486	872.141
538.379	863.18
541.271	859.049
544.164	849.995
547.057	840.153
549.949	836.433
552.842	828.877
555.735	822.289
558.628	813.045
561.52	811.558
564.413	802.936
567.306	799.615
570.198	792.209
573.091	780.855
575.984	779.535
578.876	772.887
581.769	761.667
584.662	753.716
587.554	735.918
590.447	728.533
593.34	723.477
596.232	710.938
599.125	692.598
602.018	688.598
604.911	670.946
607.803	664.665
610.696	659.473
613.589	648.109
616.481	637.793
619.374	635.354
622.267	625.023
625.159	622.411
628.052	612.904
630.945	611.256
633.838	610.765
636.73	607.977
639.623	603.293
642.516	597.106
645.408	590.639
648.301	588.296
651.194	585.426
654.087	583.69
656.979	573.002
659.872	575.83
662.765	566.014
665.657	559.955
668.55	555.854
671.443	542.504
674.335	541.894
677.228	533.154
680.121	526.283
683.014	516.723
685.906	514.536
688.799	499.918
691.692	488.93
694.584	485.551
697.477	481.015
700.37	471.154
703.263	466.048
706.155	455.032
709.048	457.729
711.941	440.223
714.833	442.458
717.726	437.448
720.619	426.139
723.511	421.628
726.404	417.825
729.297	413.708
732.189	412.622
735.082	403.55
737.975	401.354
740.868	398.508
743.76	393.47
746.653	386.835
749.546	381.561
752.438	376.574
755.331	377.489
758.224	372.503
761.116	369.826
764.009	364.777
766.902	361.782
769.795	355.451
772.687	351.005
775.58	352.021
778.473	343.728
781.365	335.231
784.258	336.071
787.151	332.146
790.043	327.231
792.936	323.34
795.829	317.91
798.722	307.252
801.614	305.794
804.507	301.279
807.4	290.895
810.292	291.322
813.185	284.983
816.078	287.647
818.971	280.937
821.863	280.666
824.756	278.57
827.649	275.591
830.541	276.6
833.434	278.066
836.327	287.352
839.219	287.148
842.112	296.479
845.005	305.395
847.898	309.111
850.79	321.995
853.683	337.183
856.576	342.744
859.468	352.948
862.361	363.925
865.254	379.656
868.146	387.784
871.039	404.258
873.932	416.451
876.824	430.238
879.717	443.76
882.61	451.749
885.503	470.173
888.395	483.428
891.288	494.554
894.181	508.416
897.073	523.614
899.966	531.702
902.859	544.053
905.751	558.7
908.644	569.365
911.537	581.646
914.43	592.204
917.322	602.148
920.215	615.08
923.108	621.508
926	637.243
928.893	647.25
931.786	654.624
934.678	658.382
937.571	673.64
940.464	681.871
943.357	689.335
946.249	701.959
949.142	705.29
952.035	712.493
954.927	720.545
957.82	726.517
960.713	740.411
963.606	743.101
966.498	759.329
969.391	757.469
972.284	763.473
975.176	766.956
978.069	774.913
980.962	787.509
983.854	785.895
986.747	790.199
989.64	793.978
992.533	800.552
995.425	804.42
998.318	810.102
1001.21	810.692
1004.1	818.981
1007	816.913
1009.89	819.214
1012.78	815.381
1015.67	815.543
1018.57	813.784
1021.46	811.307
1024.35	807.776
1027.24	801.358
1030.14	796.93
1033.03	796.165
1035.92	789.466
1038.82	775.844
1041.71	763.811
1044.6	747.692
1047.49	736.699
1050.39	726.951
1053.28	715.889
1056.17	699.791
1059.07	678.826
1061.96	664.015
1064.85	651.872
1067.74	626.088
1070.63	615.372
1073.53	595.313
1076.42	573.721
1079.31	557.224
1082.21	543.537
1085.1	525.611
1087.99	509.123
1090.88	489.717
1093.78	475.574
1096.67	456.844
1099.56	449.504
1102.45	430.22
1105.35	420.259
1108.24	402.739
1111.13	395.088
1114.03	380.418
1116.92	367.428
1119.81	361.194
1122.7	348.529
1125.6	336.291
1128.49	329.352
1131.38	322.533
1134.28	308.702
1137.17	307.387
1140.06	293.709
1142.95	288.813
1145.85	283.26
1148.74	281.757
1151.63	269.131
1154.52	263.823
1157.42	253.942
1160.31	254.997
1163.2	249.148
1166.09	243.009
1168.99	236.688
1171.88	233.147
1174.77	234.744
1177.66	226.677
1180.56	222.151
1183.45	219.214
1186.34	222.613
1189.24	216.417
1192.13	212.512
1195.02	208.997
1197.91	210.639
1200.81	199.988
1203.7	202.542
1206.59	200.08
1209.48	198.97
1212.38	195.998
1215.27	197.713
1218.16	191.167
1221.06	188.061
1223.95	192.374
1226.84	187.771
1229.73	187.604
1232.63	185.478
1235.52	186.632
1238.41	181.435
1241.31	183.897
1244.2	186.22
1247.09	184.527
1249.98	183.641
1252.88	185.737
1255.77	180.133
1258.66	178.805
1261.55	184.399
1264.45	180.243
1267.34	182.44
1270.23	182.347
1273.12	183.998
1276.02	178.759
1278.91	182.36
1281.8	181.377
1284.69	180.345
1287.59	185.967
1290.48	175.945
1293.37	180.819
1296.27	175.685
1299.16	180.98
1302.05	176.171
