Measurement: Raman, 532 nm, unoriented, Raman Data Processed
Mineral: Glass-(Sm)
Rruff sample: R110078
Locality: Synthetic
Source: Elizabeth Cairns, University of Edinburgh
Description: Pale yellow glass fragment
Measured chemistry: CaO 19.44%, Sm_2_O_3_ 20.20%, Al_2_O_3_ 11.81%, SiO_2_ 48.55%, Ca_14_Sm_5_Al_9_Si_33_O_100_
Raman shift (cm-1)	intensity
187.398	1751.38
190.29	1788.92
193.183	1752.27
196.076	1758.55
198.968	1778.17
201.861	1807.52
204.754	1795.3
207.647	1731.28
210.539	1797.97
213.432	1774.77
216.325	1787.56
219.217	1766.32
222.11	1772.04
225.003	1760.9
227.895	1787.31
230.788	1735.56
233.681	1747.14
236.573	1764.3
239.466	1754.96
242.359	1737.61
245.252	1740.79
248.144	1738.31
251.037	1752.55
253.93	1733.63
256.822	1725.34
259.715	1737.93
262.608	1698.9
265.5	1706.76
268.393	1711.09
271.286	1730.74
274.179	1715.68
277.071	1759.25
279.964	1729.51
282.857	1687.79
285.75	1683.46
288.642	1681.45
291.535	1669.58
294.428	1708.18
297.32	1695.33
300.213	1716.89
303.106	1724.29
305.998	1738.87
308.891	1724.4
311.784	1707.45
314.676	1725.44
317.569	1714.31
320.462	1710.5
323.355	1716.82
326.247	1704.07
329.14	1735.14
332.033	1725.03
334.925	1729.84
337.818	1758.77
340.711	1718.36
343.603	1744.68
346.496	1727.76
349.389	1714.7
352.281	1756.94
355.174	1758.11
358.067	1757.36
360.96	1719.35
363.852	1731.49
366.745	1741.59
369.638	1749.04
372.53	1739.95
375.423	1735.43
378.316	1748.57
381.209	1745.83
384.101	1709.97
386.994	1729.93
389.887	1727.23
392.779	1710.21
395.672	1729.62
398.565	1717.64
401.457	1739.31
404.35	1731.24
407.243	1741.08
410.135	1752.01
413.028	1764.74
415.921	1711.78
418.814	1742.85
421.706	1724.53
424.599	1726.67
427.492	1747.28
430.384	1749.93
433.277	1729.71
436.17	1775.04
439.062	1760.77
441.955	1777.24
444.848	1768.5
447.741	1792
450.633	1777.23
453.526	1777.07
456.419	1766.5
459.311	1768.27
462.204	1769.04
465.097	1790.82
467.99	1778.55
470.882	1794.79
473.775	1797.28
476.668	1778.95
479.56	1806.81
482.453	1806.84
485.346	1827.84
488.238	1806.35
491.131	1824.92
494.024	1804.83
496.916	1807.79
499.809	1813.59
502.702	1815.43
505.595	1791.36
508.487	1802.36
511.38	1801.29
514.273	1809.93
517.165	1759.72
520.058	1780.73
522.951	1788.21
525.844	1788.62
528.736	1791.31
531.629	1761.76
534.522	1754.86
537.414	1751.58
540.307	1742.83
543.2	1747.71
546.092	1767.57
548.985	1733.28
551.878	1716.96
554.771	1731.47
557.663	1737.92
560.556	1746.45
563.449	1724.35
566.341	1742.93
569.234	1733.27
572.127	1711.37
575.019	1722.75
577.912	1739.42
580.805	1720.3
583.697	1746.61
586.59	1712.99
589.483	1699.96
592.376	1740.12
595.268	1709.17
598.161	1715.92
601.054	1709.52
603.946	1695.55
606.839	1720.84
609.732	1723.56
612.625	1682.32
615.517	1721.63
618.41	1719.38
621.303	1738.27
624.195	1732.92
627.088	1738.23
629.981	1771.54
632.873	1777.39
635.766	1779.8
638.659	1798.52
641.552	1832.49
644.444	1845.2
647.337	1843.38
650.23	1879.13
653.122	1882.03
656.015	1913.85
658.908	1922.06
661.8	1971.81
664.693	1946.69
667.586	1986.9
670.479	1989.36
673.371	2021.67
676.264	2018.94
679.157	2072.91
682.049	2055.54
684.942	2098.5
687.835	2064.36
690.727	2109
693.62	2129.57
696.513	2167.49
699.405	2163.67
702.298	2176.72
705.191	2231.59
708.084	2215.69
710.976	2249.47
713.869	2280.92
716.762	2297.81
719.654	2322.55
722.547	2332.47
725.44	2346.46
728.332	2386.04
731.225	2448.73
734.118	2449.8
737.011	2477.09
739.903	2511.34
742.796	2535.58
745.689	2552.46
748.581	2563.7
751.474	2588.18
754.367	2631.89
757.26	2676.6
760.152	2686.55
763.045	2690.33
765.938	2725.1
768.83	2758.65
771.723	2791.29
774.616	2793.22
777.508	2847.43
780.401	2857.15
783.294	2892.66
786.187	2896.78
789.079	2925.22
791.972	2936.24
794.865	2946.81
797.757	2985.99
800.65	3001.3
803.543	2995.44
806.435	3025.55
809.328	3045.76
812.221	3085.43
815.114	3119.01
818.006	3154.23
820.899	3157.27
823.792	3216.91
826.684	3217.74
829.577	3269.65
832.47	3311.6
835.362	3368.86
838.255	3397.11
841.148	3480.03
844.04	3512.62
846.933	3578.98
849.826	3596.43
852.719	3699.67
855.611	3769.85
858.504	3807.71
861.397	3925.69
864.289	3972.16
867.182	4013.99
870.075	4141.86
872.967	4215.2
875.86	4307.6
878.753	4396.1
881.646	4472.75
884.538	4561.57
887.431	4674.02
890.324	4766.45
893.216	4854.6
896.109	4974.21
899.002	5047.81
901.894	5167.72
904.787	5290.44
907.68	5402.11
910.573	5537.96
913.465	5648.44
916.358	5788.4
919.251	5946.26
922.143	6045.72
925.036	6222.96
927.929	6336.02
930.822	6493.48
933.714	6636.86
936.607	6805.62
939.5	6987.51
942.392	7224.48
945.285	7449.32
948.178	7724.92
951.07	7928.31
953.963	8260.32
956.856	8524.02
959.749	8829.65
962.641	9196.76
965.534	9590
968.427	9962.54
971.319	10365.7
974.212	10785.3
977.105	11239.4
979.997	11725.2
982.89	12220.5
985.783	12725
988.676	13308.4
991.568	13823.7
994.461	14379.6
997.354	14924.3
1000.25	15393
1003.14	15945.5
1006.03	16432.8
1008.92	16964.4
1011.82	17462
1014.71	17872.1
1017.6	18285.2
1020.5	18779.2
1023.39	19079.8
1026.28	19373.2
1029.17	19646.1
1032.07	19838.5
1034.96	20067.1
1037.85	20165.1
1040.74	20151.6
1043.64	20176.2
1046.53	20159.9
1049.42	20158.5
1052.32	20049.1
1055.21	19941.4
1058.1	19817.1
1060.99	19573.2
1063.89	19306.7
1066.78	18981.2
1069.67	18704.6
1072.56	18376.2
1075.46	18057.6
1078.35	17656.8
1081.24	17359.1
1084.13	16990.7
1087.03	16561.3
1089.92	16189.8
1092.81	15828.8
1095.7	15427.3
1098.6	15038.9
1101.49	14662
1104.38	14264.7
1107.28	13927.5
1110.17	13610.1
1113.06	13265.1
1115.95	12897.5
1118.85	12574
1121.74	12288.7
1124.63	12015.1
1127.53	11740.3
1130.42	11427.1
1133.31	11174.5
1136.2	11043.6
1139.1	10852.2
1141.99	10635.8
1144.88	10466.5
1147.77	10321.9
1150.67	10170
1153.56	10041.6
1156.45	9953.53
1159.35	9851.65
1162.24	9799.37
1165.13	9717.78
1168.02	9662.24
1170.92	9629.2
1173.81	9575.57
1176.7	9588.56
1179.59	9540.65
1182.49	9581.73
1185.38	9543.98
1188.27	9522.53
1191.16	9547.93
1194.06	9594.3
1196.95	9590.99
1199.84	9642.65
1202.73	9623.55
1205.63	9702.92
1208.52	9684.26
1211.41	9779.84
1214.31	9820.95
1217.2	9765.83
1220.09	9780.52
1222.98	9860.6
1225.88	9887.48
1228.77	9886.77
1231.66	9914.86
1234.56	9924.35
1237.45	9883.65
1240.34	9929.34
1243.23	9923.41
1246.13	9887.22
1249.02	9880.05
1251.91	9873.04
1254.8	9846.56
1257.7	9805.95
1260.59	9773.09
1263.48	9763.64
1266.38	9649.48
1269.27	9594.59
1272.16	9515.73
1275.05	9485.16
1277.95	9371.4
1280.84	9328.05
1283.73	9233.36
1286.62	9147.07
1289.52	9067.61
1292.41	8957.78
1295.3	8912.81
1298.19	8758.15
1301.09	8645.82
