Measurement: Raman, 532 nm, unoriented, Raman Data Processed
Mineral: Glass-(Gd)
Rruff sample: R110080
Locality: Synthetic
Source: Elizabeth Cairns, University of Edinburgh
Description: Colorless glass fragment
Measured chemistry: CaO 19.29%, Gd_2_O_3_ 20.85%, Al_2_O_3_ 11.71%, SiO_2_ 48.16%, Ca_14_Gd_5_Al_9_Si_33_O_100_
Raman shift (cm-1)	intensity
186.433	516.89
189.326	519.547
192.219	516.614
195.112	519.788
198.004	520.788
200.897	531.919
203.79	525.033
206.682	528.433
209.575	523.102
212.468	519.543
215.36	521.885
218.253	521.908
221.146	519.716
224.038	520.407
226.931	515.816
229.824	511.295
232.717	515.936
235.609	518.741
238.502	515.13
241.395	511.573
244.287	512.351
247.18	511.096
250.073	512.168
252.965	510.842
255.858	511.109
258.751	509.734
261.644	512.169
264.536	509.991
267.429	510.915
270.322	513.661
273.214	510.623
276.107	512.261
279	513.816
281.892	512.475
284.785	509.315
287.678	510.671
290.571	511.373
293.463	513.934
296.356	514.101
299.249	521.345
302.141	522.313
305.034	520.5
307.927	520.057
310.82	523.17
313.712	523.924
316.605	528.588
319.498	527.782
322.39	529.052
325.283	530.742
328.176	530.734
331.068	536.27
333.961	534.871
336.854	543.584
339.747	541.072
342.639	541.691
345.532	539.666
348.425	544.284
351.317	541.004
354.21	543.256
357.103	549.556
359.995	547.617
362.888	547.126
365.781	548.898
368.673	546.88
371.566	551.513
374.459	548.681
377.352	546.954
380.244	545.534
383.137	546.841
386.03	547.66
388.922	546.388
391.815	545.506
394.708	545.067
397.601	549.761
400.493	548.974
403.386	545.287
406.279	550.446
409.171	547.283
412.064	551.152
414.957	552.768
417.849	546.355
420.742	546.721
423.635	546.591
426.527	549.428
429.42	550.833
432.313	552.655
435.206	548.017
438.098	553.49
440.991	555.279
443.884	552.994
446.776	556.373
449.669	557.157
452.562	556.965
455.454	556.455
458.347	561.115
461.24	563.668
464.133	561.237
467.025	563.756
469.918	559.818
472.811	557.432
475.703	563.702
478.596	566.619
481.489	566.189
484.382	561.169
487.274	559.668
490.167	563.784
493.06	563.323
495.952	562.573
498.845	566.237
501.738	566.346
504.63	561.895
507.523	562.802
510.416	563.813
513.308	564.11
516.201	556.648
519.094	551.749
521.987	550.497
524.879	550.647
527.772	547.819
530.665	540.942
533.557	541.782
536.45	535.757
539.343	528.889
542.236	526.694
545.128	523.133
548.021	523.67
550.914	521.192
553.806	518.334
556.699	516.027
559.592	516.167
562.484	509.834
565.377	509.74
568.27	509.453
571.163	506.965
574.055	506.723
576.948	498.687
579.841	500.44
582.733	500.48
585.626	495.328
588.519	488.35
591.411	489.728
594.304	482
597.197	482.375
600.09	476.478
602.982	471.571
605.875	471.03
608.768	469.205
611.66	467.993
614.553	465.025
617.446	465.286
620.338	465.188
623.231	463.396
626.124	461.63
629.016	464.272
631.909	464.069
634.802	468.487
637.695	470.481
640.587	470.668
643.48	472.592
646.373	473.993
649.265	475.149
652.158	479.324
655.051	480.767
657.943	484.27
660.836	482.424
663.729	487.21
666.622	483.691
669.514	486.266
672.407	488.069
675.3	499.704
678.192	490.552
681.085	494.106
683.978	492.341
686.87	491.408
689.763	494.451
692.656	495.426
695.549	501.696
698.441	503.207
701.334	500.385
704.227	500.72
707.119	504.179
710.012	505.378
712.905	505.985
715.798	508.074
718.69	508.076
721.583	513.381
724.476	515.296
727.368	517.48
730.261	519.946
733.154	521.005
736.046	524.385
738.939	528.13
741.832	529.303
744.725	532.705
747.617	531.796
750.51	541.657
753.403	542.425
756.295	548.919
759.188	551.168
762.081	551.271
764.973	552.489
767.866	558.348
770.759	559.999
773.652	560.449
776.544	563.344
779.437	567.267
782.33	567.825
785.222	571.841
788.115	570.451
791.008	574.23
793.9	575.115
796.793	577.898
799.686	578.367
802.578	580.519
805.471	585.441
808.364	587.064
811.257	587.713
814.149	591.529
817.042	592.495
819.935	597.396
822.827	604.185
825.72	605.739
828.613	612.434
831.505	618.902
834.398	624.683
837.291	633.218
840.184	638.828
843.076	647.629
845.969	662.441
848.862	669.843
851.754	685.667
854.647	699.38
857.54	708.76
860.433	723.69
863.325	738.965
866.218	749.976
869.111	764.594
872.003	782.166
874.896	800.23
877.789	817.733
880.681	835.659
883.574	847.929
886.467	876.232
889.36	895.446
892.252	908.48
895.145	930.732
898.038	947.997
900.93	971.97
903.823	990.529
906.716	1011.16
909.608	1039.89
912.501	1056.03
915.394	1087.94
918.287	1110.77
921.179	1134.84
924.072	1160.24
926.965	1190.32
929.857	1221.57
932.75	1245.4
935.643	1272.78
938.535	1309.98
941.428	1348.86
944.321	1387.46
947.213	1436.58
950.106	1477.78
952.999	1530.53
955.892	1582.75
958.784	1626.24
961.677	1689.05
964.57	1750.72
967.462	1826.99
970.355	1895.34
973.248	1963.91
976.14	2037.59
979.033	2115
981.926	2201.53
984.819	2287.66
987.711	2370.64
990.604	2471.69
993.497	2556.45
996.389	2641.62
999.282	2733.91
1002.17	2816.65
1005.07	2909.86
1007.96	2995.96
1010.85	3074.36
1013.75	3146.26
1016.64	3212.95
1019.53	3283.85
1022.42	3356.34
1025.32	3393.42
1028.21	3440.78
1031.1	3488.71
1033.99	3518.35
1036.89	3542.74
1039.78	3555.34
1042.67	3562.37
1045.57	3567.77
1048.46	3569.21
1051.35	3558.63
1054.24	3549.15
1057.14	3529.22
1060.03	3485.64
1062.92	3455.83
1065.81	3412.28
1068.71	3367.1
1071.6	3314.99
1074.49	3256.47
1077.38	3203.62
1080.28	3142.55
1083.17	3084.19
1086.06	3019.83
1088.96	2949.55
1091.85	2888.95
1094.74	2818.51
1097.63	2761.47
1100.53	2696.15
1103.42	2617.53
1106.31	2563.02
1109.2	2492.15
1112.1	2437.8
1114.99	2369.56
1117.88	2306.59
1120.78	2248.51
1123.67	2192.81
1126.56	2140.23
1129.45	2086.97
1132.35	2032.8
1135.24	1998.86
1138.13	1956.5
1141.02	1908.08
1143.92	1880.19
1146.81	1849.63
1149.7	1816.24
1152.6	1788.48
1155.49	1756.21
1158.38	1735.86
1161.27	1715.15
1164.17	1704.61
1167.06	1686.34
1169.95	1670.17
1172.84	1663.82
1175.74	1654.12
1178.63	1649.24
1181.52	1650.13
1184.41	1638.45
1187.31	1639.1
1190.2	1641.56
1193.09	1646.07
1195.99	1642.63
1198.88	1648.92
1201.77	1654.03
1204.66	1660.81
1207.56	1669.06
1210.45	1677.84
1213.34	1684.4
1216.23	1687.03
1219.13	1688.66
1222.02	1705.49
1224.91	1713.66
1227.81	1712.38
1230.7	1721.99
1233.59	1727.88
1236.48	1722.63
1239.38	1732.81
1242.27	1750.89
1245.16	1758.24
1248.05	1750.5
1250.95	1752.79
1253.84	1759.44
1256.73	1755.13
1259.62	1757.35
1262.52	1756.5
1265.41	1752.11
1268.3	1752.79
1271.2	1741.88
1274.09	1733.09
1276.98	1736.39
1279.87	1725.96
1282.77	1716.52
1285.66	1708.74
1288.55	1699.17
1291.44	1692.27
1294.34	1682.69
1297.23	1660.15
1300.12	1642.67
1303.02	1626.34
