Measurement: Raman, 532 nm, unoriented, Raman Data Processed
Mineral: Glass-(Tm)
Rruff sample: R110085
Locality: Synthetic
Source: Elizabeth Cairns, University of Edinburgh
Description: Colorless glass fragment
Measured chemistry: CaO 22.78%, Tm_2_O_3_ 26.12%, Al_2_O_3_ 13.80%, SiO_2_ 37.30%, Ca_18_Tm_6_Al_12_Si_28_O_100_
Raman shift (cm-1)	intensity
188.362	1155.63
191.255	1148.22
194.147	1160.01
197.04	1155.86
199.933	1164.08
202.825	1161.04
205.718	1157.87
208.611	1158.01
211.504	1149.31
214.396	1155.32
217.289	1139.51
220.182	1145.23
223.074	1137.84
225.967	1130.68
228.86	1131.36
231.752	1132.88
234.645	1131.57
237.538	1126.66
240.43	1121.07
243.323	1112.07
246.216	1113.42
249.109	1108.06
252.001	1107.02
254.894	1101.71
257.787	1102.08
260.679	1096.03
263.572	1095.31
266.465	1097.71
269.358	1092.46
272.25	1093.85
275.143	1092.57
278.036	1096.5
280.928	1088.18
283.821	1076.39
286.714	1073.46
289.606	1072.92
292.499	1074.13
295.392	1068.92
298.284	1081.5
301.177	1074.44
304.07	1076.05
306.963	1070.13
309.855	1071.42
312.748	1065.86
315.641	1073.98
318.533	1070.99
321.426	1064.91
324.319	1064.95
327.212	1065.56
330.104	1061.18
332.997	1059.95
335.89	1063.93
338.782	1057.95
341.675	1061.68
344.568	1056.45
347.46	1055.84
350.353	1054.7
353.246	1054.16
356.139	1060.9
359.031	1057.52
361.924	1054.44
364.817	1051.55
367.709	1046.6
370.602	1043.57
373.495	1051.22
376.387	1037.64
379.28	1030.45
382.173	1030.57
385.065	1025.97
387.958	1022.74
390.851	1024.36
393.744	1015.31
396.636	1017.65
399.529	1010.65
402.422	997.923
405.314	1005.8
408.207	998.979
411.1	993.741
413.993	992.018
416.885	985.412
419.778	977.444
422.671	974.481
425.563	968.68
428.456	969.565
431.349	969.102
434.241	958.544
437.134	952.68
440.027	952.749
442.92	956.137
445.812	944.681
448.705	947.486
451.598	939.035
454.49	938.537
457.383	934.093
460.276	935.159
463.168	932.815
466.061	932.886
468.954	920.687
471.846	920.059
474.739	919.395
477.632	915.756
480.525	913.205
483.417	922.111
486.31	913.159
489.203	912.584
492.095	907.975
494.988	911.809
497.881	908.269
500.774	908.041
503.666	903.793
506.559	904.784
509.452	905.921
512.344	902.91
515.237	905.999
518.13	896.928
521.022	894.094
523.915	893.481
526.808	894.41
529.701	890.147
532.593	890.282
535.486	878.409
538.379	879.121
541.271	876.187
544.164	873.324
547.057	875.302
549.949	872.965
552.842	873.183
555.735	866.555
558.628	865.982
561.52	862.581
564.413	861.276
567.306	856.612
570.198	850.16
573.091	843.99
575.984	834.343
578.876	834.131
581.769	832.26
584.662	812.894
587.554	794.352
590.447	793.953
593.34	783.702
596.232	773.514
599.125	760.92
602.018	747.431
604.911	734.202
607.803	715.472
610.696	720.336
613.589	708.919
616.481	701.65
619.374	702.102
622.267	691.844
625.159	686.074
628.052	681.902
630.945	679.276
633.838	684.476
636.73	683.735
639.623	683.829
642.516	678.276
645.408	677.963
648.301	679.253
651.194	683.477
654.087	688.713
656.979	680.427
659.872	687.526
662.765	686.698
665.657	684.509
668.55	678.412
671.443	683.199
674.335	678.402
677.228	678.495
680.121	672.582
683.014	676.478
685.906	670.117
688.799	666.199
691.692	667.704
694.584	661.296
697.477	656.645
700.37	653.374
703.263	647.736
706.155	642.361
709.048	636.634
711.941	631.213
714.833	633.052
717.726	622.573
720.619	613.265
723.511	615.204
726.404	607.533
729.297	602.14
732.189	596.744
735.082	592.486
737.975	585.124
740.868	576.766
743.76	567.403
746.653	559.694
749.546	560.152
752.438	547.291
755.331	545.62
758.224	537.792
761.116	526.561
764.009	515.244
766.902	514.61
769.795	505.059
772.687	500.964
775.58	486.95
778.473	483.418
781.365	475.325
784.258	474.281
787.151	468.126
790.043	459.183
792.936	453.686
795.829	452.845
798.722	448.171
801.614	452.492
804.507	452.286
807.4	454.383
810.292	460.204
813.185	462.623
816.078	468.381
818.971	479.298
821.863	487.664
824.756	493.778
827.649	503.528
830.541	516.678
833.434	529.786
836.327	555.147
839.219	561.346
842.112	586.364
845.005	608.924
847.898	623.325
850.79	641.626
853.683	664.526
856.576	688.615
859.468	708.279
862.361	733.038
865.254	749.893
868.146	766.991
871.039	795.858
873.932	814.772
876.824	830.233
879.717	848.373
882.61	860.59
885.503	868.862
888.395	891.228
891.288	900.238
894.181	914.929
897.073	926.157
899.966	929.98
902.859	937.962
905.751	952.138
908.644	961.834
911.537	962.17
914.43	965.254
917.322	976.145
920.215	983.848
923.108	994.13
926	991.893
928.893	997.481
931.786	996.692
934.678	995.439
937.571	987.001
940.464	985.704
943.357	993.012
946.249	993.617
949.142	996.731
952.035	990.385
954.927	990.385
957.82	986.305
960.713	983.231
963.606	979.471
966.498	977.952
969.391	968.072
972.284	959.586
975.176	955.28
978.069	947.433
980.962	943.684
983.854	927.563
986.747	921.195
989.64	912.866
992.533	901.833
995.425	887.183
998.318	873.69
1001.21	868.404
1004.1	853.036
1007	844.044
1009.89	827.085
1012.78	816.25
1015.67	797.456
1018.57	790.169
1021.46	778.274
1024.35	762.462
1027.24	740.522
1030.14	731.841
1033.03	716.103
1035.92	710.45
1038.82	694.947
1041.71	678.351
1044.6	659.557
1047.49	645.428
1050.39	636.412
1053.28	629.392
1056.17	612.505
1059.07	602.123
1061.96	587.161
1064.85	570.155
1067.74	554.717
1070.63	546.569
1073.53	530.554
1076.42	518.979
1079.31	510.626
1082.21	501.069
1085.1	491.397
1087.99	477.087
1090.88	466.947
1093.78	453.773
1096.67	446.436
1099.56	436.942
1102.45	426.536
1105.35	415.035
1108.24	407.606
1111.13	403.569
1114.03	392.373
1116.92	385.34
1119.81	383.986
1122.7	370.312
1125.6	363.543
1128.49	359.129
1131.38	352.057
1134.28	343.403
1137.17	344.355
1140.06	336.778
1142.95	340.153
1145.85	335.738
1148.74	329.642
1151.63	326.29
1154.52	323.374
1157.42	322.042
1160.31	308.895
1163.2	314.997
1166.09	312.518
1168.99	309.003
1171.88	308.591
1174.77	305.92
1177.66	301.555
1180.56	297.778
1183.45	300.743
1186.34	301.054
1189.24	292.899
1192.13	295.513
1195.02	294.556
1197.91	291.537
1200.81	288.461
1203.7	286.335
1206.59	287.286
1209.48	287.501
1212.38	285.658
1215.27	281.045
1218.16	284.404
1221.06	284.211
1223.95	286.026
1226.84	288.2
1229.73	285.041
1232.63	282.725
1235.52	282.326
1238.41	280.41
1241.31	279.678
1244.2	280.541
1247.09	281.5
1249.98	277.782
1252.88	281.962
1255.77	279.64
1258.66	278.973
1261.55	281.374
1264.45	279.153
1267.34	282.952
1270.23	278.181
1273.12	279.265
1276.02	280.32
1278.91	281.943
1281.8	277.837
1284.69	278.384
1287.59	281.481
1290.48	287.334
1293.37	283.093
1296.27	283.435
1299.16	283.293
1302.05	284.629
