Measurement: Raman, 780 nm, unoriented, Raman Data Processed
Mineral: Glass-(Ho)
Rruff sample: R110083
Locality: Synthetic
Source: Elizabeth Cairns, University of Edinburgh
Description: Pink glass fragment beneath fluorescent light, yellowish green beneath halogen
Measured chemistry: CaO 19.38% Ho_2_O_3_ 21.77%, Al_2_O_3_ 11.72%, SiO_2_ 47.13%, Ca_14_Ho_5_Al_9_Si_32_O_100_
Raman shift (cm-1)	intensity
95.4604	2355.13
98.8353	2334.85
102.21	2274.14
105.585	2296.03
108.96	2279.89
112.335	2293.56
115.709	2291.81
119.084	2286.23
122.459	2297.24
125.834	2285.86
129.209	2286.11
132.583	2274.6
135.958	2268.91
139.333	2275.7
142.708	2260.3
146.083	2262.64
149.458	2253.22
152.832	2245.86
156.207	2233.75
159.582	2230.65
162.957	2216.89
166.332	2213.19
169.706	2201.63
173.081	2188.56
176.456	2189.72
179.831	2170.23
183.206	2153.62
186.581	2138.33
189.955	2118.13
193.33	2105.17
196.705	2099.48
200.08	2078.98
203.455	2062.58
206.829	2050.6
210.204	2033.9
213.579	2011.84
216.954	2006.2
220.329	1983.51
223.703	1968.03
227.078	1950.95
230.453	1947.08
233.828	1934.95
237.203	1922.36
240.578	1913.15
243.952	1900.72
247.327	1882.51
250.702	1877.64
254.077	1865.94
257.452	1855.34
260.827	1856.41
264.201	1854.84
267.576	1845.48
270.951	1845.49
274.326	1841.49
277.701	1834.84
281.075	1836.3
284.45	1831.04
287.825	1843
291.2	1840.71
294.575	1845.6
297.95	1837.87
301.324	1842.65
304.699	1844.67
308.074	1848.04
311.449	1859.74
314.824	1863.5
318.198	1866.83
321.573	1874.95
324.948	1868.03
328.323	1880.46
331.698	1879.82
335.072	1875.8
338.447	1887.78
341.822	1881.13
345.197	1882.45
348.572	1892.31
351.947	1883.26
355.321	1876.04
358.696	1884.26
362.071	1862.34
365.446	1861.27
368.821	1853.84
372.195	1847.75
375.57	1836.48
378.945	1818.1
382.32	1809.92
385.695	1797.98
389.07	1790.22
392.444	1789.88
395.819	1780.67
399.194	1770.68
402.569	1746.49
405.944	1749.55
409.318	1742.07
412.693	1733.4
416.068	1724.62
419.443	1714.24
422.818	1715.07
426.192	1704.81
429.567	1700.62
432.942	1702.81
436.317	1691.63
439.692	1692.8
443.067	1686.76
446.441	1681.68
449.816	1670.83
453.191	1668.25
456.566	1667.99
459.941	1665.19
463.315	1660.21
466.69	1659.32
470.065	1645.14
473.44	1644.11
476.815	1636.8
480.19	1632.96
483.564	1627.54
486.939	1612.07
490.314	1605.73
493.689	1608.21
497.064	1595.26
500.438	1585.62
503.813	1574.25
507.188	1564.14
510.563	1551.06
513.938	1538.66
517.313	1524.07
520.687	1508.38
524.062	1488.85
527.437	1474.39
530.812	1448.33
534.187	1426.97
537.562	1414.98
540.936	1387.84
544.311	1378.27
547.686	1356.03
551.061	1342.64
554.436	1333.4
557.81	1312.87
561.185	1296.13
564.56	1289.61
567.935	1279.91
571.31	1258.33
574.684	1233.83
578.059	1221.06
581.434	1211.19
584.809	1190.1
588.184	1164.28
591.558	1142.65
594.933	1119.89
598.308	1105.02
601.683	1074.54
605.058	1050.82
608.433	1034.11
611.807	1012.66
615.182	993.433
618.557	980.217
621.932	960.196
625.307	953.765
628.682	928.769
632.056	927.241
635.431	915.633
638.806	903.963
642.181	893.259
645.556	874.184
648.93	869.716
652.305	862.788
655.68	844.482
659.055	830.56
662.43	817.131
665.804	802.507
669.179	789.517
672.554	778.572
675.929	756.139
679.304	749.575
682.679	725.573
686.053	714.568
689.428	694.951
692.803	683.931
696.178	665.089
699.553	650.38
702.928	638.983
706.302	627.344
709.677	613.506
713.052	600.853
716.427	590.269
719.802	578.82
723.176	571.435
726.551	561.573
729.926	545.881
733.301	546.6
736.676	537.345
740.051	523.303
743.425	515.555
746.8	513.245
750.175	495.044
753.55	493.327
756.925	490.632
760.299	476.391
763.674	473.223
767.049	467.783
770.424	458.405
773.799	451.346
777.173	440.641
780.548	439.864
783.923	433.6
787.298	423.676
790.673	412.866
794.048	404.981
797.422	399.469
800.797	394.796
804.172	386.405
807.547	377.794
810.922	374.703
814.296	367.26
817.671	363.602
821.046	357.99
824.421	356.657
827.796	358.687
831.17	364.346
834.545	360.074
837.92	364.178
841.295	372.423
844.67	383.252
848.045	389.309
851.419	407.924
854.794	415.32
858.169	432.975
861.544	440.788
864.919	454.149
868.293	471.836
871.668	483.733
875.043	498.89
878.418	504.856
881.793	523.621
885.168	534.347
888.542	548.193
891.917	563.068
895.292	572.639
898.667	587.507
902.042	598.89
905.417	610.765
908.791	627.295
912.166	632.558
915.541	651.579
918.916	657.294
922.291	670.604
925.665	677.251
929.04	688.47
932.415	696.317
935.79	709.056
939.165	708.635
942.539	721.238
945.914	728.652
949.289	739.178
952.664	734.29
956.039	746.311
959.414	750.252
962.788	752.943
966.163	746.651
969.538	762.216
972.913	761.148
976.288	766.841
979.663	770.169
983.037	778.758
986.412	774.401
989.787	774.623
993.162	778.727
996.537	777.791
999.911	777.664
1003.29	781.627
1006.66	775.635
1010.04	772.245
1013.41	767.381
1016.78	766.944
1020.16	759.216
1023.53	745.128
1026.91	747.961
1030.29	737.596
1033.66	719.05
1037.03	711.642
1040.41	699.499
1043.78	693.371
1047.16	675.166
1050.53	658.275
1053.91	640.046
1057.28	623.081
1060.66	607.874
1064.03	590.05
1067.41	573.278
1070.78	554.087
1074.16	535.538
1077.53	514.017
1080.91	498.284
1084.28	481.704
1087.66	467.911
1091.03	442.678
1094.41	427.986
1097.78	415.499
1101.16	395.304
1104.53	387.881
1107.91	377.132
1111.28	360.351
1114.65	349.496
1118.03	337.398
1121.4	323.485
1124.78	319.403
1128.15	307.472
1131.53	307.646
1134.9	293.35
1138.28	287.184
1141.65	283.863
1145.03	272.516
1148.4	265.177
1151.78	259.03
1155.15	257.347
1158.53	254.177
1161.9	251.962
1165.28	241.521
1168.65	243.749
1172.03	238.68
1175.4	231.612
1178.78	230.945
1182.15	221.417
1185.53	221.448
1188.9	219.376
1192.28	216.867
1195.65	212.945
1199.03	212.569
1202.4	209.177
1205.78	205.652
1209.15	208.203
1212.53	206.357
1215.9	197.474
1219.27	200.052
1222.65	197.172
1226.02	197.391
1229.4	202.917
1232.77	190.067
1236.15	196.954
1239.52	195.767
1242.9	190.003
1246.27	194.55
1249.65	191.475
1253.02	194.723
1256.4	191.503
1259.77	197.288
1263.15	198.892
1266.52	193.749
1269.9	196.369
1273.27	200.192
1276.65	197.38
1280.02	198.726
1283.4	192.594
