Measurement: Raman, 532 nm, unoriented, Raman Data Processed
Mineral: Glass-(La)
Rruff sample: R110074
Locality: Synthetic
Source: Elizabeth Cairns, University of Edinburgh
Description: Colorless glass fragment
Measured chemistry: CaO 17.07%, La_2_O_3_ 16.60%, Al_2_O_3_ 10.52%, SiO_2_ 55.80%, Ca_12_La_4_Al_8_Si_35_O_100_
Raman shift (cm-1)	intensity
199.933	2000.05
202.825	2017.82
205.718	2017.15
208.611	2022.92
211.504	2013.79
214.396	2014.72
217.289	2024.43
220.182	2023.36
223.074	2023.72
225.967	2020
228.86	2013.43
231.752	2012.37
234.645	1997.41
237.538	2001.1
240.43	1992.52
243.323	1986.51
246.216	1983.1
249.109	1989.16
252.001	1985.02
254.894	1973.95
257.787	1984.97
260.679	1970.34
263.572	1967.72
266.465	1961.41
269.358	1972.1
272.25	1970.03
275.143	1979.01
278.036	1964.16
280.928	1962.28
283.821	1946.92
286.714	1942.96
289.606	1955.39
292.499	1952.69
295.392	1962.19
298.284	1961.97
301.177	1974.14
304.07	1975.79
306.963	1964.75
309.855	1974.11
312.748	1984.32
315.641	1977.12
318.533	1988.52
321.426	1980.56
324.319	1989.17
327.212	1980.71
330.104	1991.98
332.997	1993.12
335.89	2006.34
338.782	2007.22
341.675	2007.76
344.568	2001.54
347.46	2004.91
350.353	2012.73
353.246	2007.29
356.139	2022.74
359.031	2014.27
361.924	2003.38
364.817	2014.83
367.709	1997.74
370.602	2003.18
373.495	2001.16
376.387	1999.94
379.28	1993.15
382.173	2000.32
385.065	1998.54
387.958	1987.54
390.851	1991.25
393.744	1988.55
396.636	1987.78
399.529	1987.79
402.422	1983.7
405.314	1993.85
408.207	1987.42
411.1	1993.39
413.993	1997.39
416.885	1991.31
419.778	1983.78
422.671	1988.7
425.563	1993.98
428.456	2001.66
431.349	2006.11
434.241	2005.48
437.134	1999.15
440.027	2009.33
442.92	2011.33
445.812	2010.1
448.705	2011.87
451.598	2008.69
454.49	2012.12
457.383	2012.74
460.276	2011.08
463.168	2003.47
466.061	1998.95
468.954	1999.52
471.846	1996.38
474.739	1980.48
477.632	1976.64
480.525	1982.27
483.417	1978.32
486.31	1966.2
489.203	1955.84
492.095	1952.15
494.988	1954.95
497.881	1938.66
500.774	1937.16
503.666	1917.33
506.559	1902.27
509.452	1877.87
512.344	1866.37
515.237	1848.71
518.13	1824.71
521.022	1784.07
523.915	1770.33
526.808	1756.53
529.701	1728.52
532.593	1694.69
535.486	1666.72
538.379	1640.3
541.271	1618.3
544.164	1603.36
547.057	1573.96
549.949	1552.66
552.842	1544.32
555.735	1525.97
558.628	1504.7
561.52	1503.97
564.413	1486.64
567.306	1476.59
570.198	1461.7
573.091	1450.52
575.984	1439.36
578.876	1432.67
581.769	1415.11
584.662	1400.24
587.554	1379.89
590.447	1366.82
593.34	1356.73
596.232	1336.07
599.125	1317.4
602.018	1301.88
604.911	1274.02
607.803	1264.3
610.696	1246.29
613.589	1228.42
616.481	1206.72
619.374	1197.26
622.267	1177.65
625.159	1167.42
628.052	1150.35
630.945	1136.46
633.838	1129.48
636.73	1119.32
639.623	1109.87
642.516	1096.75
645.408	1078.57
648.301	1068.49
651.194	1055.6
654.087	1045.49
656.979	1032.87
659.872	1021.82
662.765	1012.22
665.657	991.864
668.55	980.171
671.443	959.329
674.335	952.791
677.228	936.289
680.121	922.802
683.014	906.726
685.906	892.605
688.799	875.787
691.692	859.862
694.584	853.88
697.477	845.966
700.37	825.965
703.263	812.956
706.155	800.548
709.048	794.229
711.941	775.4
714.833	769.553
717.726	762.708
720.619	750.606
723.511	743.401
726.404	737.302
729.297	730.313
732.189	729.117
735.082	717.466
737.975	713.536
740.868	707.908
743.76	702.648
746.653	691.474
749.546	694.647
752.438	688.6
755.331	688.015
758.224	686.237
761.116	679.79
764.009	675.152
766.902	671.264
769.795	666.578
772.687	664.46
775.58	663.111
778.473	660.698
781.365	648.049
784.258	642.151
787.151	644.332
790.043	635.47
792.936	627.505
795.829	618.334
798.722	603.309
801.614	600.569
804.507	592.581
807.4	580.907
810.292	569.755
813.185	562.996
816.078	561.584
818.971	548.511
821.863	539.963
824.756	530.267
827.649	525.518
830.541	516.35
833.434	517.772
836.327	523.695
839.219	518.684
842.112	528.057
845.005	532.19
847.898	535.791
850.79	548.806
853.683	570.912
856.576	578.559
859.468	591.39
862.361	612.239
865.254	633.548
868.146	648.032
871.039	666.835
873.932	689.57
876.824	707.137
879.717	730.354
882.61	746.478
885.503	776.229
888.395	801.71
891.288	823.6
894.181	845.99
897.073	878.784
899.966	894.691
902.859	919.378
905.751	950.089
908.644	973.633
911.537	989.059
914.43	1018.62
917.322	1040.59
920.215	1060.07
923.108	1076.95
926	1102.04
928.893	1122.75
931.786	1137.9
934.678	1147.91
937.571	1167.66
940.464	1179.52
943.357	1192.81
946.249	1212.36
949.142	1222.7
952.035	1238.75
954.927	1254.78
957.82	1260.9
960.713	1277.61
963.606	1282.62
966.498	1306.25
969.391	1309.99
972.284	1318.36
975.176	1329.93
978.069	1339.74
980.962	1358.76
983.854	1356.01
986.747	1362.94
989.64	1374.67
992.533	1385.47
995.425	1390.17
998.318	1394.06
1001.21	1402.91
1004.1	1408.6
1007	1411.73
1009.89	1415.5
1012.78	1408.16
1015.67	1409.88
1018.57	1409.13
1021.46	1413.18
1024.35	1407.85
1027.24	1398.09
1030.14	1392.62
1033.03	1388.37
1035.92	1376.22
1038.82	1358.46
1041.71	1330.78
1044.6	1308.56
1047.49	1283.1
1050.39	1269.07
1053.28	1238.81
1056.17	1215.98
1059.07	1180.73
1061.96	1154.28
1064.85	1117.61
1067.74	1079.8
1070.63	1050.32
1073.53	1012.12
1076.42	977.686
1079.31	945.736
1082.21	914.036
1085.1	886.909
1087.99	854.64
1090.88	828.477
1093.78	802.478
1096.67	779.721
1099.56	760.578
1102.45	729.982
1105.35	711.631
1108.24	693.438
1111.13	676.799
1114.03	656.631
1116.92	642.016
1119.81	628.902
1122.7	611.789
1125.6	599.226
1128.49	584.871
1131.38	569.364
1134.28	552.942
1137.17	554.205
1140.06	536.245
1142.95	530.091
1145.85	519.274
1148.74	515.372
1151.63	498.445
1154.52	491.379
1157.42	481.291
1160.31	473.553
1163.2	469.238
1166.09	457.624
1168.99	444.734
1171.88	441.421
1174.77	436.494
1177.66	427.165
1180.56	423.127
1183.45	414.249
1186.34	416.062
1189.24	407.227
1192.13	398.177
1195.02	389.533
1197.91	391.423
1200.81	374.695
1203.7	376.026
1206.59	368.156
1209.48	365.245
1212.38	358.337
1215.27	360.109
1218.16	348.888
1221.06	341.601
1223.95	344.427
1226.84	333.952
1229.73	330.636
1232.63	324.959
1235.52	325.613
1238.41	319.486
1241.31	321.851
1244.2	319.875
1247.09	319.204
1249.98	318.312
1252.88	317.074
1255.77	314.588
1258.66	312.69
1261.55	314.939
1264.45	309.428
1267.34	315.426
1270.23	312.132
1273.12	312.913
1276.02	308.509
1278.91	312.675
1281.8	308.844
1284.69	311.695
1287.59	316.323
1290.48	306.193
1293.37	309.852
1296.27	303.681
1299.16	310.026
1302.05	305.335
