Measurement: Raman, 780 nm, unoriented, Raman Data Processed
Mineral: Glass-(La)
Rruff sample: R110074
Locality: Synthetic
Source: Elizabeth Cairns, University of Edinburgh
Description: Colorless glass fragment
Measured chemistry: CaO 17.07%, La_2_O_3_ 16.60%, Al_2_O_3_ 10.52%, SiO_2_ 55.80%, Ca_12_La_4_Al_8_Si_35_O_100_
Raman shift (cm-1)	intensity
96.4247	1531.15
99.7995	1504.15
103.174	1482.06
106.549	1491.45
109.924	1493.61
113.299	1501.22
116.674	1504.22
120.048	1507.4
123.423	1515.41
126.798	1521.88
130.173	1523.95
133.548	1523.62
136.923	1535.01
140.297	1537.52
143.672	1544.96
147.047	1544.58
150.422	1552.82
153.797	1558.52
157.171	1566.62
160.546	1573.24
163.921	1579.77
167.296	1589.18
170.671	1596.41
174.046	1597.04
177.42	1603.08
180.795	1614.67
184.17	1622.65
187.545	1621.12
190.92	1633
194.294	1641.79
197.669	1643.2
201.044	1655.35
204.419	1661.8
207.794	1668.77
211.168	1680.44
214.543	1687.32
217.918	1694.61
221.293	1703.13
224.668	1712.34
228.043	1712.98
231.417	1724.46
234.792	1731.36
238.167	1740.18
241.542	1738.86
244.917	1747.34
248.292	1758.91
251.666	1765.43
255.041	1768.09
258.416	1780.98
261.791	1792.5
265.166	1792.97
268.54	1797.68
271.915	1806.88
275.29	1821.16
278.665	1827.08
282.04	1835.43
285.414	1838.68
288.789	1854.83
292.164	1854.44
295.539	1860.29
298.914	1869.34
302.288	1869.04
305.663	1879.16
309.038	1887.89
312.413	1895.83
315.788	1911.17
319.163	1912.92
322.537	1925.96
325.912	1939.83
329.287	1946.51
332.662	1960.96
336.037	1977.94
339.411	1992.87
342.786	2010.74
346.161	2034.76
349.536	2046.59
352.911	2071.6
356.286	2092.3
359.66	2115.48
363.035	2138.51
366.41	2165.74
369.785	2198.12
373.16	2219.98
376.534	2243.88
379.909	2265.94
383.284	2306.79
386.659	2327.56
390.034	2357.42
393.409	2385.46
396.783	2405.59
400.158	2422.57
403.533	2449.71
406.908	2466.99
410.283	2482.16
413.658	2503.53
417.032	2509.7
420.407	2522.01
423.782	2529.31
427.157	2533.64
430.532	2536.18
433.906	2531.05
437.281	2528.27
440.656	2524.46
444.031	2518.79
447.406	2506.53
450.781	2489.58
454.155	2489.99
457.53	2471.65
460.905	2467.8
464.28	2453
467.655	2443.31
471.029	2426.84
474.404	2417.45
477.779	2404.03
481.154	2391.99
484.529	2392.41
487.904	2373.97
491.278	2364.44
494.653	2360.1
498.028	2341.48
501.403	2342.8
504.778	2332.12
508.152	2325.25
511.527	2318.24
514.902	2306.91
518.277	2298.68
521.652	2284.85
525.026	2276.03
528.401	2259.77
531.776	2252.84
535.151	2253.39
538.526	2237.1
541.9	2230.94
545.275	2219.45
548.65	2207.2
552.025	2205.57
555.4	2200.69
558.775	2191.54
562.149	2188.33
565.524	2181.64
568.899	2176.61
572.274	2162.47
575.649	2163.78
579.024	2146.83
582.398	2143.46
585.773	2143.96
589.148	2135.92
592.523	2134.45
595.898	2126.53
599.273	2112.54
602.647	2113.27
606.022	2103.24
609.397	2100.55
612.772	2094.94
616.146	2085.56
619.521	2078.14
622.896	2074.96
626.271	2071.63
629.646	2069.96
633.021	2066.75
636.395	2052.25
639.77	2053.54
643.145	2051.23
646.52	2047.93
649.895	2035.07
653.269	2032.67
656.644	2024.7
660.019	2024.38
663.394	2006.79
666.769	2008.44
670.144	2003.41
673.518	1999.53
676.893	1998.45
680.268	1993.25
683.643	1983.33
687.018	1982.11
690.393	1972.78
693.767	1970.65
697.142	1963.22
700.517	1956.7
703.892	1957.34
707.267	1961.45
710.641	1957.13
714.016	1949.63
717.391	1940.44
720.766	1937.41
724.141	1942.78
727.515	1938.2
730.89	1936.9
734.265	1932.25
737.64	1926.18
741.015	1918
744.39	1914.14
747.764	1917.96
751.139	1923.64
754.514	1912.39
757.889	1910.41
761.264	1906.84
764.639	1905.06
768.013	1896.87
771.388	1900.41
774.763	1898.38
778.138	1893.73
781.513	1895.06
784.887	1891.65
788.262	1894.6
791.637	1892.73
795.012	1888.4
798.387	1881.84
801.761	1881.92
805.136	1876.12
808.511	1879.02
811.886	1873.41
815.261	1866.74
818.636	1871.85
822.01	1869.54
825.385	1867.39
828.76	1861.2
832.135	1860.2
835.51	1859.07
838.885	1861.29
842.259	1853.84
845.634	1852.29
849.009	1860.66
852.384	1863.83
855.759	1858.51
859.133	1863.89
862.508	1860.2
865.883	1869.24
869.258	1865.47
872.633	1866.81
876.007	1870.72
879.382	1873.36
882.757	1877.22
886.132	1877.45
889.507	1882.61
892.881	1887.88
896.256	1887.41
899.631	1890.16
903.006	1893.22
906.381	1903.55
909.756	1914.2
913.13	1915.34
916.505	1919.71
919.88	1922.8
923.255	1933.33
926.63	1936.66
930.005	1941.79
933.379	1953.63
936.754	1953.48
940.129	1961.44
943.504	1962.03
946.879	1967.23
950.253	1979.99
953.628	1984.82
957.003	1991.25
960.378	2002.83
963.753	2002.74
967.128	2005.34
970.502	2010.86
973.877	2016.81
977.252	2026.55
980.627	2036.83
984.002	2054.89
987.376	2055.49
990.751	2067.1
994.126	2074.66
997.501	2086.33
1000.88	2093.54
1004.25	2107.04
1007.62	2117.32
1011	2132.24
1014.38	2145.78
1017.75	2155.08
1021.12	2163.96
1024.5	2174.62
1027.87	2185.97
1031.25	2207.88
1034.62	2220.53
1038	2236.14
1041.37	2254.88
1044.75	2267.02
1048.12	2276.83
1051.5	2302.3
1054.87	2316.72
1058.25	2329.46
1061.62	2348.69
1065	2381.93
1068.37	2403.95
1071.75	2428.11
1075.12	2451.65
1078.5	2476.54
1081.87	2511.95
1085.25	2540.41
1088.62	2581.36
1092	2613.6
1095.37	2649.6
1098.74	2680.04
1102.12	2719.96
1105.49	2762.71
1108.87	2819.49
1112.24	2844.53
1115.62	2893.18
1118.99	2940.11
1122.37	2997.94
1125.74	3049.8
1129.12	3113.81
1132.49	3171.07
1135.87	3246.05
1139.24	3293.44
1142.62	3361.75
1145.99	3432.64
1149.37	3508.78
1152.74	3589.14
1156.12	3655.14
1159.49	3735.3
1162.87	3795.92
1166.24	3890.24
1169.62	3966.79
1172.99	4054.61
1176.37	4130.11
1179.74	4212.06
1183.12	4288.74
1186.49	4363.42
1189.87	4441.26
1193.24	4537.81
1196.62	4604.99
1199.99	4672.48
1203.37	4753.03
1206.74	4824.19
1210.11	4902.35
1213.49	4976.34
1216.86	5043.72
1220.24	5098.85
1223.61	5164.8
1226.99	5226.36
1230.36	5282.75
1233.74	5347.58
1237.11	5400.93
1240.49	5436.42
1243.86	5493.86
1247.24	5555.38
1250.61	5584.03
1253.99	5616.27
1257.36	5674.12
1260.74	5732.18
1264.11	5775.42
1267.49	5822.5
1270.86	5866.54
1274.24	5916.19
1277.61	5972.65
1280.98	6036.98
1284.36	6114.59
