Measurement: Raman, 532 nm, unoriented, Raman Data Processed
Mineral: Glass-(Tb)
Rruff sample: R110081
Locality: Synthetic
Source: Elizabeth Cairns, University of Edinburgh
Description: Colorless glass fragment
Measured chemistry: CaO 19.38%, Tb_2_O_3_ 22.28%, Al_2_O_3_ 11.74%, SiO_2_ 46.60%, Ca_14_Tb_5_Al_9_Si_32_O_100_
Raman shift (cm-1)	intensity
91.4564	90.0506
94.8312	88.2697
98.2061	87.8476
101.581	82.5875
104.956	76.7716
108.331	72.1825
111.705	73.5816
115.08	67.2535
118.455	64.7274
121.83	64.493
125.205	64.0532
128.579	63.6897
131.954	54.428
135.329	55.8954
138.704	55.4413
142.079	57.5812
145.453	57.4301
148.828	68.8478
152.203	99.3196
155.578	157.109
158.953	235.349
162.328	303.571
165.702	383.59
169.077	462.546
172.452	544.239
175.827	637.623
179.202	702.805
182.577	737.006
185.951	762.51
189.326	773.64
192.701	788.983
196.076	801.446
199.451	828.707
202.825	834.347
206.2	848.817
209.575	851.615
212.95	862.232
216.325	877.265
219.699	886.076
223.074	898.034
226.449	900.787
229.824	913.784
233.199	927.39
236.573	941.707
239.948	948.506
243.323	958.441
246.698	972.173
250.073	986.163
253.448	996.944
256.822	1016.59
260.197	1032.79
263.572	1048.71
266.947	1069.15
270.322	1083.14
273.697	1114.64
277.071	1137.37
280.446	1157.96
283.821	1184.82
287.196	1206.11
290.571	1244.85
293.945	1287.12
297.32	1324.61
300.695	1369.23
304.07	1422.34
307.445	1467.76
310.82	1527.18
314.194	1587.68
317.569	1640.42
320.944	1696.03
324.319	1751.58
327.694	1798.31
331.068	1857.59
334.443	1899.22
337.818	1942.89
341.193	1961.09
344.568	1975.03
347.942	1985.68
351.317	1985.71
354.692	1979.26
358.067	1966.11
361.442	1928.39
364.817	1900.53
368.191	1868.41
371.566	1830.17
374.941	1784.71
378.316	1741.94
381.691	1710.35
385.065	1670.88
388.44	1640.51
391.815	1609.7
395.19	1587.8
398.565	1568.02
401.94	1545.57
405.314	1532.05
408.689	1514.52
412.064	1515.3
415.439	1502.74
418.814	1480.9
422.188	1476.65
425.563	1470.5
428.938	1473.01
432.313	1463.42
435.688	1451.48
439.062	1454.54
442.437	1449.43
445.812	1443.07
449.187	1446.13
452.562	1439.75
455.937	1438.12
459.311	1438.42
462.686	1441.04
466.061	1438.58
469.436	1426.29
472.811	1425.74
476.185	1430.81
479.56	1422.03
482.935	1430.98
486.31	1431.48
489.685	1429.85
493.06	1428.48
496.434	1435.02
499.809	1434.03
503.184	1433.02
506.559	1432.3
509.934	1435.8
513.308	1430.1
516.683	1424.76
520.058	1426.54
523.433	1423
526.808	1430.1
530.183	1423.41
533.557	1414.36
536.932	1412.75
540.307	1411.66
543.682	1413.26
547.057	1413.25
550.432	1409.71
553.806	1407.63
557.181	1405.32
560.556	1400.63
563.931	1407.57
567.306	1401.71
570.68	1398.23
574.055	1399.34
577.43	1398.98
580.805	1404.27
584.18	1393.19
587.554	1383.69
590.929	1386.12
594.304	1372.34
597.679	1361.92
601.054	1348.6
604.428	1333.23
607.803	1329.02
611.178	1317.11
614.553	1307.47
617.928	1288.71
621.303	1268.38
624.677	1251.22
628.052	1233.82
631.427	1215.86
634.802	1203.81
638.177	1187.28
641.552	1164.54
644.926	1141.34
648.301	1123.07
651.676	1102.94
655.051	1083.1
658.426	1063.11
661.8	1044.4
665.175	1018.15
668.55	994.164
671.925	976.024
675.3	955.722
678.674	935.994
682.049	922.742
685.424	895.243
688.799	880.165
692.174	861.069
695.549	846.024
698.923	826.311
702.298	806.97
705.673	794.171
709.048	778.933
712.423	762.321
715.798	748.761
719.172	734.287
722.547	722.07
725.922	711.659
729.297	705.897
732.672	688.891
736.046	682.459
739.421	665.657
742.796	660.837
746.171	649.294
749.546	645.22
752.92	633.866
756.295	628.176
759.67	617.925
763.045	609.987
766.42	606.077
769.795	596.441
773.169	585.383
776.544	579.791
779.919	568.307
783.294	564.494
786.669	559.75
790.043	543.771
793.418	541.738
796.793	535.55
800.168	527.616
803.543	519.659
806.918	515.776
810.292	511.717
813.667	506.234
817.042	500.68
820.417	499.121
823.792	495.408
827.166	491.568
830.541	488.336
833.916	491.151
837.291	496.459
840.666	496.83
844.04	497.009
847.415	501.628
850.79	510.516
854.165	512.56
857.54	522.199
860.915	527.797
864.289	534.155
867.664	536.38
871.039	547.086
874.414	553.993
877.789	556.908
881.163	567.895
884.538	573.624
887.913	576.1
891.288	587.244
894.663	595.801
898.038	600.964
901.412	608.123
904.787	617.528
908.162	622.984
911.537	623.212
914.912	632.109
918.287	638.559
921.661	644.304
925.036	646.81
928.411	656.181
931.786	656.965
935.161	659.341
938.535	665.132
941.91	669.002
945.285	669.688
948.66	676.959
952.035	674.85
955.409	680.699
958.784	676.426
962.159	680.99
965.534	690.675
968.909	689.291
972.284	688.909
975.658	687.481
979.033	688.976
982.408	688.163
985.783	690.659
989.158	692.203
992.533	687.982
995.907	687.594
999.282	682.54
1002.66	685.412
1006.03	683.365
1009.41	680.236
1012.78	678.526
1016.16	671.878
1019.53	672.938
1022.91	664.923
1026.28	659.367
1029.66	655.367
1033.03	645.701
1036.4	644.175
1039.78	631.131
1043.15	623.45
1046.53	614.874
1049.9	605.046
1053.28	599.902
1056.65	591.466
1060.03	575.606
1063.4	565.979
1066.78	554.404
1070.15	543.441
1073.53	534.434
1076.9	520.672
1080.28	515.003
1083.65	506.933
1087.03	494.326
1090.4	483.928
1093.78	474.293
1097.15	468.916
1100.53	461.131
1103.9	451.706
1107.28	445.291
1110.65	439.028
1114.03	430.956
1117.4	423.908
1120.78	420.423
1124.15	410.875
1127.53	406.669
1130.9	401.48
1134.28	396.759
1137.65	396.197
1141.02	387.907
1144.4	388.162
1147.77	383.334
1151.15	382.523
1154.52	377.943
1157.9	372.231
1161.27	369.336
1164.65	369.189
1168.02	367.929
1171.4	365.033
1174.77	363.834
1178.15	357.789
1181.52	355.151
1184.9	355.258
1188.27	350.392
1191.65	351.907
1195.02	350.664
1198.4	349.552
1201.77	346.608
1205.15	342.842
1208.52	342.99
1211.9	344.268
1215.27	339.66
1218.64	342.521
1222.02	342.106
1225.39	339.428
1228.77	334.351
1232.14	334.542
1235.52	335.631
1238.89	334.895
1242.27	334.137
1245.64	334.752
1249.02	330.075
1252.39	332.777
1255.77	333.933
1259.14	328.646
1262.52	332.024
1265.89	329.853
1269.27	329.94
1272.64	327.778
1276.02	331.294
1279.39	330.322
1282.77	330.682
1286.14	330.663
1289.52	331.042
1292.89	328.66
1296.27	326.911
1299.64	326.7
1303.02	326.009
