Measurement: Raman, 780 nm, unoriented, Raman Data Processed
Mineral: Glass-(Yb)
Rruff sample: R110086
Locality: Synthetic
Source: Elizabeth Cairns, University of Edinburgh
Description: Colorless glass fragment
Measured chemistry: CaO 19.08%, Yb_2_O_3_ 22.34%, Al_2_O_3_ 11.56%, SiO_2_ 47.02%, Ca_14_Yb_5_Al_9_Si_32_O_100_
Raman shift (cm-1)	intensity
113.299	1600.77
116.674	1611.23
120.048	1603.09
123.423	1601.05
126.798	1604.77
130.173	1603.32
133.548	1587.04
136.923	1585.39
140.297	1579.97
143.672	1570.05
147.047	1555.96
150.422	1553.52
153.797	1549.69
157.171	1542.53
160.546	1532.6
163.921	1525.87
167.296	1524.3
170.671	1517.91
174.046	1508.24
177.42	1497
180.795	1488.32
184.17	1474.46
187.545	1462.94
190.92	1454.82
194.294	1444.3
197.669	1428.51
201.044	1414.95
204.419	1404.19
207.794	1390.46
211.168	1379.58
214.543	1367.79
217.918	1353.92
221.293	1342.69
224.668	1335.58
228.042	1318.24
231.417	1302.98
234.792	1299.65
238.167	1285.88
241.542	1274.56
244.917	1270.02
248.291	1258
251.666	1250.55
255.041	1242.12
258.416	1236.75
261.791	1232.59
265.166	1229.63
268.54	1226.83
271.915	1225.87
275.29	1218.72
278.665	1226.84
282.04	1220.86
285.414	1216.42
288.789	1219.52
292.164	1225.25
295.539	1230.96
298.914	1228.74
302.288	1233.29
305.663	1234.79
309.038	1235.02
312.413	1236.84
315.788	1246.28
319.163	1244.64
322.537	1248.98
325.912	1250.37
329.287	1250.57
332.662	1259.54
336.037	1262.5
339.411	1260.04
342.786	1262.35
346.161	1262.43
349.536	1259.86
352.911	1257.03
356.286	1251.91
359.66	1246.87
363.035	1245.25
366.41	1237.19
369.785	1234.56
373.16	1225.26
376.534	1214.19
379.909	1205.18
383.284	1204.95
386.659	1197.02
390.034	1182.52
393.409	1175.65
396.783	1169.66
400.158	1164.65
403.533	1151.61
406.908	1150.95
410.283	1139.02
413.658	1136.83
417.032	1132.63
420.407	1131.13
423.782	1121.39
427.157	1117.64
430.532	1120.43
433.906	1111.58
437.281	1108.4
440.656	1109.07
444.031	1097.38
447.406	1097.75
450.781	1089.33
454.155	1090.26
457.53	1085.14
460.905	1086.83
464.28	1080.39
467.654	1080.79
471.029	1076.27
474.404	1064.46
477.779	1064.33
481.154	1059.48
484.529	1049.09
487.903	1048.19
491.278	1041.25
494.653	1039.19
498.028	1031.73
501.403	1026.01
504.777	1019.42
508.152	1010.39
511.527	1003.77
514.902	992.878
518.277	984.84
521.652	967.128
525.026	960.176
528.401	944.112
531.776	931.842
535.151	919.447
538.526	909.438
541.9	897.39
545.275	880.343
548.65	873.633
552.025	864.439
555.4	855.286
558.775	847.296
562.149	829.56
565.524	823.3
568.899	816.706
572.274	801.434
575.649	786.071
579.024	776.955
582.398	762.695
585.773	752.399
589.148	741.83
592.523	727.401
595.898	708.802
599.272	696.215
602.647	676.921
606.022	666.025
609.397	652.434
612.772	643.43
616.146	629.347
619.521	623.274
622.896	609.669
626.271	601.398
629.646	590.924
633.021	584.029
636.395	575.303
639.77	570.995
643.145	559.629
646.52	553.892
649.895	547.127
653.269	538.31
656.644	532.079
660.019	524.316
663.394	507.232
666.769	502.065
670.144	495.83
673.518	487.743
676.893	473.564
680.268	469.641
683.643	459.049
687.018	444.648
690.393	436.599
693.767	430.294
697.142	416.848
700.517	411.578
703.892	402.677
707.266	395.92
710.641	386.102
714.016	381.377
717.391	371.274
720.766	368.665
724.141	359.684
727.515	352.426
730.89	348.721
734.265	342.82
737.64	337.341
741.015	328.28
744.389	323.928
747.764	319.494
751.139	319.003
754.514	313.91
757.889	306.59
761.264	302.736
764.638	298.293
768.013	298.44
771.388	291.581
774.763	283.388
778.138	281.381
781.513	278.542
784.887	271.516
788.262	266.97
791.637	262.103
795.012	256.273
798.387	252.155
801.761	246.546
805.136	245.668
808.511	237.814
811.886	237.555
815.261	231.212
818.635	228.723
822.01	225.845
825.385	225.151
828.76	226.545
832.135	228.585
835.51	227.745
838.884	230.105
842.259	232.645
845.634	236.083
849.009	243.297
852.384	250.57
855.759	255.369
859.133	265.613
862.508	267.396
865.883	273.653
869.258	285.277
872.633	290.9
876.007	299.57
879.382	305.342
882.757	317.943
886.132	321.301
889.507	326.559
892.881	336.109
896.256	343.115
899.631	351.33
903.006	359.544
906.381	363.668
909.756	374.642
913.13	382.147
916.505	389.018
919.88	392.334
923.255	400.285
926.63	405.332
930.005	411.711
933.379	416.294
936.754	423.235
940.129	429.342
943.504	428.068
946.879	435.159
950.253	435.879
953.628	440.631
957.003	446.453
960.378	448.04
963.753	451.656
967.127	455.663
970.502	453.08
973.877	457.826
977.252	457.495
980.627	463.698
984.001	469.099
987.376	464.524
990.751	468.916
994.126	465.514
997.501	468.088
1000.88	470.879
1004.25	473.622
1007.62	469.14
1011	469.529
1014.38	468.986
1017.75	464.077
1021.12	461.896
1024.5	455.102
1027.87	456.354
1031.25	446.326
1034.62	438.221
1038	434.773
1041.37	426.185
1044.75	419.919
1048.12	416.39
1051.5	401.894
1054.87	396.72
1058.25	387.654
1061.62	372.804
1065	362.657
1068.37	351.925
1071.75	344.658
1075.12	331.916
1078.5	320.623
1081.87	313.942
1085.25	298.553
1088.62	293.302
1092	279.133
1095.37	271.688
1098.74	267.356
1102.12	255.021
1105.49	247.139
1108.87	242.589
1112.24	234.243
1115.62	226.864
1118.99	218.319
1122.37	216.554
1125.74	210.45
1129.12	206.388
1132.49	207.096
1135.87	198.264
1139.24	196.133
1142.62	189.864
1145.99	185.495
1149.37	183.768
1152.74	184.563
1156.12	180.703
1159.49	180.902
1162.87	177.431
1166.24	174.799
1169.62	175.034
1172.99	174.336
1176.37	170.552
1179.74	173.393
1183.12	167.949
1186.49	167.551
1189.87	161.976
1193.24	168.56
1196.62	166.801
1199.99	168.662
1203.37	167.87
1206.74	170.721
1210.11	169.261
1213.49	166.384
1216.86	165.022
1220.24	168.319
1223.61	169.933
1226.99	167.63
1230.36	173.211
1233.74	168.133
1237.11	174.707
1240.49	172.687
1243.86	171.704
1247.24	176.452
1250.61	179.908
1253.99	177.462
1257.36	182.466
1260.74	182.373
1264.11	188.549
1267.49	186.137
1270.86	192.663
1274.24	200.522
1277.61	197.179
1280.98	200.484
1284.36	204.093
