Measurement: Raman, 532 nm, unoriented, Raman Data Processed
Mineral: Glass-(Nd)
Rruff sample: R110077
Locality: Synthetic
Source: Elizabeth Cairns, University of Edinburgh
Description: Blueish purple glass fragment beneath fluorescent light, reddish purple beneath halogen
Measured chemistry: CaO 17.02%, Nd_2_O_3_ 16.89%, Al_2_O_3_ 10.49%, SiO_2_ 55.59%, Ca_12_Nd_4_Al_8_Si_35_O_100_
Raman shift (cm-1)	intensity
186.433	2305.18
189.326	2304.88
192.219	2304.87
195.112	2319.94
198.004	2322.71
200.897	2332.68
203.79	2323.45
206.682	2302.36
209.575	2303.54
212.468	2280.69
215.36	2275.6
218.253	2269.5
221.146	2265.55
224.038	2258.39
226.931	2230.58
229.824	2214.64
232.717	2213.66
235.609	2202.37
238.502	2189.96
241.395	2166.83
244.287	2158.73
247.18	2140.53
250.073	2124
252.965	2114.86
255.858	2102.6
258.751	2087.97
261.644	2075.9
264.536	2054.75
267.429	2038.83
270.322	2027.62
273.214	2023.99
276.107	2020.04
279	1998.44
281.892	1977.73
284.785	1955.23
287.678	1939.61
290.571	1932.46
293.463	1921.66
296.356	1913.33
299.249	1899.06
302.141	1885.31
305.034	1883.3
307.927	1861.24
310.82	1846.35
313.712	1837.84
316.605	1827.76
319.498	1810.85
322.39	1800.78
325.283	1780.4
328.176	1767.19
331.068	1760.72
333.961	1746.27
336.854	1736.67
339.747	1718.61
342.639	1700.26
345.532	1689.13
348.425	1670.9
351.317	1672.32
354.21	1650.92
357.103	1643.92
359.995	1629.2
362.888	1609.61
365.781	1599.77
368.673	1580.3
371.566	1570.44
374.459	1553.24
377.352	1538.97
380.244	1526.07
383.137	1519.83
386.03	1501.4
388.922	1483.74
391.815	1469.94
394.708	1457.91
397.601	1442.88
400.493	1430.23
403.386	1416.62
406.279	1408.84
409.171	1394.95
412.064	1386.86
414.957	1371.67
417.849	1353.74
420.742	1342.3
423.635	1329.92
426.527	1318.85
429.42	1310.4
432.313	1295.57
435.206	1284.68
438.098	1273.55
440.991	1261.08
443.884	1263.56
446.776	1247.19
449.669	1235.42
452.562	1224.09
455.454	1209.86
458.347	1197.72
461.24	1185.01
464.133	1174.27
467.025	1165
469.918	1154.98
472.811	1139.58
475.703	1127.86
478.596	1116.61
481.489	1107.13
484.382	1096.28
487.274	1084.2
490.167	1072.48
493.06	1062.47
495.952	1051.92
498.845	1040.51
501.738	1021.88
504.63	1022.51
507.523	1001.46
510.416	986.701
513.308	975.118
516.201	964.022
519.094	944.859
521.987	922.31
524.879	914.017
527.772	907.86
530.665	881.915
533.557	865.307
536.45	851.131
539.343	840.874
542.236	825.85
545.128	812.619
548.021	799.516
550.914	793.399
553.806	778.42
556.699	765.921
559.592	759.518
562.484	754.638
565.377	743.708
568.27	731.378
571.163	722.764
574.055	715.917
576.948	709.77
579.841	701.291
582.733	690.665
585.626	682.327
588.519	675.965
591.411	661.618
594.304	657.379
597.197	645.93
600.09	637.338
602.982	623.17
605.875	611.092
608.768	606.972
611.66	595.041
614.553	588.878
617.446	580.538
620.338	574.066
623.231	559.685
626.124	554.843
629.016	548.888
631.909	540.097
634.802	538.586
637.695	535.613
640.587	530.304
643.48	520.036
646.373	515.827
649.265	508.368
652.158	500.13
655.051	497.882
657.943	491.007
660.836	490.529
663.729	480.423
666.622	475.052
669.514	463.163
672.407	461.756
675.3	458.329
678.192	451.345
681.085	445.802
683.978	439.234
686.87	436.442
689.763	429.668
692.656	418.534
695.549	416.736
698.441	413.496
701.334	407.898
704.227	401.709
707.119	393.568
710.012	394.279
712.905	388.428
715.798	389.574
718.69	379.714
721.583	380.103
724.476	373.803
727.368	371.936
730.261	370.193
733.154	366.204
736.046	360.606
738.939	363.25
741.832	357.808
744.725	356.281
747.617	353.357
750.51	350.607
753.403	346.353
756.295	349.7
759.188	353.416
762.081	346.45
764.973	342.452
767.866	341.549
770.759	341.669
773.652	341.068
776.544	339.81
779.437	334.778
782.33	329.827
785.222	326.761
788.115	326.733
791.008	324.357
793.9	325.047
796.793	320.98
799.686	316.208
802.578	314.638
805.471	313.922
808.364	305.415
811.257	310.091
814.149	302.323
817.042	297.948
819.935	295.8
822.827	297.635
825.72	283.881
828.613	288.365
831.505	286.15
834.398	288.187
837.291	281.977
840.184	285.315
843.076	287.327
845.969	291.478
848.862	286.274
851.754	293.031
854.647	303.239
857.54	304.663
860.433	309.839
863.325	318.016
866.218	323.034
869.111	328.292
872.003	334.587
874.896	341.966
877.789	345.551
880.681	351.644
883.574	357.866
886.467	370.793
889.36	376.358
892.252	379.048
895.145	390.185
898.038	394.697
900.93	407.125
903.823	415.951
906.716	422.714
909.608	430.34
912.501	436.036
915.394	441.951
918.287	452.733
921.179	458.867
924.072	464.829
926.965	469.032
929.857	480.815
932.75	480.092
935.643	486.182
938.535	491.05
941.428	496.608
944.321	501.404
947.213	506.723
950.106	511.854
952.999	519.077
955.892	521.608
958.784	525.926
961.677	527.825
964.57	526.848
967.462	537.487
970.355	534.555
973.248	540.847
976.14	543.416
979.033	542.322
981.926	551.976
984.819	551.651
987.711	555.199
990.604	557.919
993.497	562.702
996.389	563.691
999.282	562.553
1002.17	564.003
1005.07	566.049
1007.96	567.316
1010.85	567.696
1013.75	565.68
1016.64	559.471
1019.53	567.523
1022.42	563.581
1025.32	558.691
1028.21	559.248
1031.1	560.133
1033.99	553.915
1036.89	545.596
1039.78	538.602
1042.67	534.175
1045.57	521.82
1048.46	516.329
1051.35	514.27
1054.24	505.87
1057.14	493.857
1060.03	485.14
1062.92	477.458
1065.81	462.789
1068.71	453.411
1071.6	444.816
1074.49	431.873
1077.38	422.733
1080.28	410.836
1083.17	402.741
1086.06	391.724
1088.96	380.89
1091.85	375.994
1094.74	367.754
1097.63	362.139
1100.53	356.495
1103.42	346.366
1106.31	340.99
1109.2	333.243
1112.1	324.927
1114.99	325.595
1117.88	318.648
1120.78	315.201
1123.67	308.96
1126.56	303.118
1129.45	302.935
1132.35	299.134
1135.24	294.015
1138.13	292.017
1141.02	293.3
1143.92	286.88
1146.81	284.399
1149.7	285.677
1152.6	281.385
1155.49	282.53
1158.38	273.379
1161.27	276.057
1164.17	273.539
1167.06	275.774
1169.95	274.044
1172.84	273.658
1175.74	273.014
1178.63	272.123
1181.52	272.947
1184.41	272.116
1187.31	274.604
1190.2	271.155
1193.09	270.214
1195.99	273.282
1198.88	274.53
1201.77	269.001
1204.66	277.216
1207.56	280.024
1210.45	275.976
1213.34	276.268
1216.23	277.643
1219.13	282.56
1222.02	283.002
1224.91	287.072
1227.81	289.658
1230.7	291.092
1233.59	291.422
1236.48	295.32
1239.38	296.041
1242.27	298.817
1245.16	308.702
1248.05	308.824
1250.95	308.614
1253.84	314.349
1256.73	316.25
1259.62	327.126
1262.52	326.235
1265.41	329.913
1268.3	336.321
1271.2	337.99
1274.09	344.248
1276.98	345.664
1279.87	349.473
1282.77	353.993
1285.66	358.211
1288.55	362.45
1291.44	366.615
1294.34	368.74
1297.23	369.387
1300.12	378.764
1303.02	380.095
