Measurement: Raman, 532 nm, unoriented, Raman Data Processed
Mineral: Glass-(Yb)
Rruff sample: R110086
Locality: Synthetic
Source: Elizabeth Cairns, University of Edinburgh
Description: Colorless glass fragment
Measured chemistry: CaO 19.08%, Yb_2_O_3_ 22.34%, Al_2_O_3_ 11.56%, SiO_2_ 47.02%, Ca_14_Yb_5_Al_9_Si_32_O_100_
Raman shift (cm-1)	intensity
197.522	597.846
200.415	603.443
203.308	598.204
206.2	599.462
209.093	591.827
211.986	590.037
214.878	595.713
217.771	589.424
220.664	588.147
223.556	586.67
226.449	579.811
229.342	582.301
232.234	579.522
235.127	580.874
238.02	579.064
240.913	575.477
243.805	571.615
246.698	566.906
249.591	572.418
252.483	563.452
255.376	566.495
258.269	564.182
261.161	566.236
264.054	559.532
266.947	557.117
269.84	560.953
272.732	555.681
275.625	555.697
278.518	560.432
281.41	563.929
284.303	548.149
287.196	552.534
290.089	549.897
292.981	553.596
295.874	550.595
298.767	559.112
301.659	558.115
304.552	558.669
307.445	556.691
310.337	555.657
313.23	553.531
316.123	562.167
319.015	559.394
321.908	555.87
324.801	555.567
327.694	557.784
330.586	560.719
333.479	559.6
336.372	564.029
339.264	562.408
342.157	563.758
345.05	557.88
347.942	559.453
350.835	559.828
353.728	563.633
356.621	567.019
359.513	566.352
362.406	562.355
365.299	565.205
368.191	560.986
371.084	561.43
373.977	566.745
376.87	563.256
379.762	560.981
382.655	563.758
385.548	561.787
388.44	558.347
391.333	560.176
394.226	557.947
397.118	562.847
400.011	563.135
402.904	555.705
405.796	566.235
408.689	562.653
411.582	567.734
414.475	564.87
417.367	561.02
420.26	562.929
423.153	563.953
426.045	565.421
428.938	565.732
431.831	567.899
434.724	568.207
437.616	568.299
440.509	574.933
443.402	569.954
446.294	569.592
449.187	569.595
452.08	573.26
454.972	572.577
457.865	575.921
460.758	577.869
463.651	575.485
466.543	578.822
469.436	573.366
472.329	571.62
475.221	577.032
478.114	574.271
481.007	577.08
483.899	579.086
486.792	575.134
489.685	572.703
492.577	574.037
495.47	576.356
498.363	577.782
501.256	573.891
504.148	566.628
507.041	566.624
509.934	566.799
512.826	564.117
515.719	560.082
518.612	556.008
521.505	550.736
524.397	547.658
527.29	548.442
530.183	535.346
533.075	532.371
535.968	528.233
538.861	520.28
541.753	517.328
544.646	513.517
547.539	512.021
550.432	504.422
553.324	499.955
556.217	499.629
559.11	492.061
562.002	486.934
564.895	485.816
567.788	479.364
570.68	478.677
573.573	474.052
576.466	465.905
579.359	465.615
582.251	464.747
585.144	454.615
588.037	444.254
590.929	445.035
593.822	436.836
596.715	431.677
599.607	427.3
602.5	416.939
605.393	413.038
608.285	405.138
611.178	402.524
614.071	396.294
616.964	392.238
619.856	391.107
622.749	382.824
625.642	382.018
628.534	377.071
631.427	373.899
634.32	374.335
637.212	371.655
640.105	369.601
642.998	364.102
645.891	364.7
648.783	360.923
651.676	358.931
654.569	358.635
657.461	352.205
660.354	350.531
663.247	347.038
666.139	339.432
669.032	337.491
671.925	334.416
674.818	332.179
677.71	325.324
680.603	322.555
683.496	319.637
686.388	315.323
689.281	306.551
692.174	305.574
695.067	300.296
697.959	293.289
700.852	289.606
703.745	284.769
706.637	280.931
709.53	277.656
712.423	272.854
715.315	269.761
718.208	264.41
721.101	261.327
723.994	258.925
726.886	253.077
729.779	252.211
732.672	244.906
735.564	241.964
738.457	239.29
741.35	238.385
744.242	230.443
747.135	227.672
750.028	231.24
752.92	221.644
755.813	222.796
758.706	220.088
761.599	215.337
764.491	208.855
767.384	208.987
770.277	208.354
773.169	201.303
776.062	198.99
778.955	194.998
781.847	191.668
784.74	189.425
787.633	186.653
790.526	179.188
793.418	175.989
796.311	173.661
799.204	167.32
802.096	165.387
804.989	163.168
807.882	159.654
810.774	157.478
813.667	153.07
816.56	151.07
819.453	145.38
822.345	145.224
825.238	140.904
828.131	144.872
831.023	141.841
833.916	141.878
836.809	146.405
839.702	143.341
842.594	146.559
845.487	152.828
848.38	153.597
851.272	157.951
854.165	164.739
857.058	169.821
859.95	172.774
862.843	182.98
865.736	184.889
868.629	190.429
871.521	198.332
874.414	207.253
877.307	210.567
880.199	219.889
883.092	224.848
885.985	232.158
888.877	240.571
891.77	243.899
894.663	250.899
897.556	257.183
900.448	263.68
903.341	266.92
906.234	275.201
909.126	284.538
912.019	287.306
914.912	294.604
917.804	301.116
920.697	308.947
923.59	318.375
926.482	320.799
929.375	325.577
932.268	329.458
935.161	332.59
938.053	336.622
940.946	339.144
943.839	342.418
946.731	343.834
949.624	346.2
952.517	350.149
955.409	357.305
958.302	354.518
961.195	358.834
964.088	363.019
966.98	367.473
969.873	367.153
972.766	373.502
975.658	373.81
978.551	373.444
981.444	375.988
984.337	376.412
987.229	379.642
990.122	382.567
993.015	383.16
995.907	380.115
998.8	378.83
1001.69	381.525
1004.59	384.692
1007.48	388.249
1010.37	383.53
1013.26	381.851
1016.16	378.965
1019.05	379.077
1021.94	375.734
1024.83	372.388
1027.73	366.525
1030.62	363.171
1033.51	357.286
1036.4	359.617
1039.3	349.631
1042.19	342.817
1045.08	336.36
1047.98	326.45
1050.87	322.742
1053.76	318.273
1056.65	310.726
1059.55	301.982
1062.44	293.011
1065.33	282.498
1068.22	273.955
1071.12	263.831
1074.01	256.536
1076.9	244.544
1079.8	236.287
1082.69	230.788
1085.58	220.612
1088.47	211.974
1091.37	203.402
1094.26	197.422
1097.15	189.697
1100.04	181.518
1102.94	171.788
1105.83	166.751
1108.72	159.915
1111.62	153.811
1114.51	148.601
1117.4	142.68
1120.29	138.714
1123.19	132.046
1126.08	127.207
1128.97	123.419
1131.86	120.001
1134.76	111.938
1137.65	108.741
1140.54	104.202
1143.43	104.779
1146.33	97.1516
1149.22	96.4509
1152.11	93.4513
1155.01	89.428
1157.9	86.5551
1160.79	80.1688
1163.68	82.3506
1166.58	81.2507
1169.47	74.873
1172.36	74.568
1175.26	75.009
1178.15	69.1857
1181.04	66.9878
1183.93	66.9721
1186.83	65.792
1189.72	62.8226
1192.61	59.6369
1195.5	58.1065
1198.4	56.8478
1201.29	54.8876
1204.18	50.9346
1207.07	52.9239
1209.97	51.3448
1212.86	49.4988
1215.75	48.3387
1218.64	51.876
1221.54	51.4855
1224.43	48.541
1227.32	50.3593
1230.22	47.6072
1233.11	44.8409
1236	45.1775
1238.89	43.4645
1241.79	43.6872
1244.68	42.7983
1247.57	41.1344
1250.46	43.6379
1253.36	42.9958
1256.25	40.2254
1259.14	39.7725
1262.04	43.4765
1264.93	38.0973
1267.82	43.8034
1270.71	40.2751
1273.61	40.6251
1276.5	41.5503
1279.39	41.432
1282.29	40.7582
1285.18	41.4528
1288.07	40.9509
1290.96	45.1902
1293.86	40.9987
1296.75	38.527
1299.64	38.4814
1302.53	40.7942
