Measurement: Raman, 780 nm, unoriented, Raman Data Processed
Mineral: Glass-(Er)
Rruff sample: R110084
Locality: Synthetic
Source: Elizabeth Cairns, University of Edinburgh
Description: Orangeish pink glass fragment
Measured chemistry: CaO 19.95%, Er_2_O_3_ 22.75%, Al_2_O_3_ 12.10%, SiO_2_ 45.24%, Ca_15_Er_5_Al_10_Si_31_O_100_
Raman shift (cm-1)	intensity
95.4604	1632.01
98.8353	1617.68
102.21	1578.81
105.585	1579.77
108.96	1568.61
112.335	1557.62
115.709	1564.01
119.084	1557.23
122.459	1560.1
125.834	1551.62
129.209	1549.6
132.583	1535.72
135.958	1539.2
139.333	1539.75
142.708	1538.48
146.083	1532.28
149.458	1534.31
152.832	1534.48
156.207	1539.91
159.582	1533.91
162.957	1533.74
166.332	1537.51
169.706	1545.69
173.081	1535.07
176.456	1536.41
179.831	1535.16
183.206	1540.47
186.581	1543.24
189.955	1539.12
193.33	1539.16
196.705	1548.04
200.08	1541.22
203.455	1545.33
206.829	1552.02
210.204	1554.71
213.579	1548.91
216.954	1559.1
220.329	1561.17
223.703	1563.06
227.078	1561.94
230.453	1567.97
233.828	1577.12
237.203	1569.29
240.578	1581.91
243.952	1590.62
247.327	1588.08
250.702	1593.24
254.077	1599.23
257.452	1594.42
260.827	1607.82
264.201	1615.6
267.576	1622.41
270.951	1623.7
274.326	1628.01
277.701	1635.4
281.075	1643.07
284.45	1645.7
287.825	1650.84
291.2	1661.9
294.575	1669.67
297.95	1673.07
301.324	1683.53
304.699	1695.88
308.074	1706.04
311.449	1722.41
314.824	1730.44
318.198	1731.73
321.573	1744.55
324.948	1747.44
328.323	1753.79
331.698	1759.31
335.072	1754.16
338.447	1760.83
341.822	1762.26
345.197	1764.21
348.572	1761.63
351.947	1755.13
355.321	1758.17
358.696	1759.88
362.071	1746.57
365.446	1759.24
368.821	1747.91
372.195	1760.14
375.57	1747.07
378.945	1745.22
382.32	1743.38
385.695	1739.75
389.07	1731.75
392.444	1735.47
395.819	1720.85
399.194	1719.62
402.569	1705.11
405.944	1705.2
409.318	1701.81
412.693	1692.38
416.068	1690.91
419.443	1683.03
422.818	1687.84
426.192	1681.02
429.567	1678
432.942	1672.7
436.317	1671.45
439.692	1669.12
443.067	1668.08
446.441	1659.85
449.816	1645.19
453.191	1644.2
456.566	1638.58
459.941	1631.9
463.315	1623.3
466.69	1613.75
470.065	1610.4
473.44	1594.47
476.815	1587.65
480.19	1577.81
483.564	1574.69
486.939	1557.8
490.314	1555.29
493.689	1550.24
497.064	1539.06
500.438	1531.43
503.813	1521.09
507.188	1515.34
510.563	1508.91
513.938	1492.92
517.313	1482.45
520.687	1470.59
524.062	1453.35
527.437	1446.31
530.812	1428.5
534.187	1408.13
537.562	1401.67
540.936	1389.8
544.311	1371.04
547.686	1360.16
551.061	1351.7
554.436	1349.43
557.81	1335.77
561.185	1332.97
564.56	1323.48
567.935	1307.77
571.31	1299.49
574.684	1278.54
578.059	1272.54
581.434	1255.55
584.809	1240.54
588.184	1215.17
591.558	1200.01
594.933	1184.53
598.308	1168.23
601.683	1145.36
605.058	1132.95
608.433	1113.42
611.807	1103.66
615.182	1091.07
618.557	1081.07
621.932	1066.35
625.307	1061.9
628.682	1055.06
632.056	1050.83
635.431	1043.68
638.806	1038.29
642.181	1028.75
645.556	1022.27
648.93	1018.81
652.305	1003.99
655.68	993.207
659.055	988.117
662.43	979.481
665.804	967.664
669.179	958.739
672.554	949.679
675.929	934.164
679.304	925.337
682.679	904.685
686.053	893.558
689.428	879.155
692.803	871.052
696.178	850.287
699.553	839.638
702.928	832.018
706.302	819.499
709.677	804.001
713.052	795.424
716.427	782.687
719.802	774.171
723.176	757.553
726.551	753.84
729.926	737.222
733.301	730.157
736.676	721.029
740.051	710.19
743.425	698.84
746.8	694.69
750.175	677.663
753.55	672.74
756.925	664.459
760.299	653.551
763.674	644.249
767.049	633.727
770.424	627.372
773.799	618.046
777.173	602.025
780.548	600.877
783.923	589.236
787.298	578.095
790.673	569.853
794.048	558.044
797.422	554.502
800.797	546.76
804.172	537.204
807.547	532
810.922	523.947
814.296	515.965
817.671	514.404
821.046	510.763
824.421	509.578
827.796	510.582
831.17	508.966
834.545	513.034
837.92	514.444
841.295	523.941
844.67	531.826
848.045	541.927
851.419	554.852
854.794	562.168
858.169	577.606
861.544	583.534
864.919	599.413
868.293	614.883
871.668	624.714
875.043	636.768
878.418	647.047
881.793	659.713
885.168	671.866
888.542	682.634
891.917	698.434
895.292	705.021
898.667	717.855
902.042	728.127
905.417	735.631
908.791	745.405
912.166	752.139
915.541	770.694
918.916	780.796
922.291	787.47
925.665	799.004
929.04	806.913
932.415	819.375
935.79	831.724
939.165	833.169
942.539	846.159
945.914	865.354
949.289	875.936
952.664	893.572
956.039	903.42
959.414	928.765
962.788	939.562
966.163	951.115
969.538	969.069
972.913	985.175
976.288	1003.08
979.663	1014.84
983.037	1027.35
986.412	1031.03
989.787	1038.15
993.162	1041.26
996.537	1040.28
999.911	1040.72
1003.29	1038.28
1006.66	1032.25
1010.04	1032.55
1013.41	1023
1016.78	1015.1
1020.16	999.812
1023.53	989.506
1026.91	982.28
1030.29	976.893
1033.66	957.774
1037.03	951.403
1040.41	934.913
1043.78	924.348
1047.16	904.524
1050.53	886.655
1053.91	868.706
1057.28	852.148
1060.66	832.212
1064.03	815.408
1067.41	796.731
1070.78	769.409
1074.16	748.536
1077.53	726.241
1080.91	707.133
1084.28	685.968
1087.66	670.706
1091.03	648.212
1094.41	630.968
1097.78	614.961
1101.16	592.771
1104.53	580.534
1107.91	574.045
1111.28	549.83
1114.65	533.133
1118.03	523.094
1121.4	508.983
1124.78	500.554
1128.15	488.113
1131.53	479.229
1134.9	471.753
1138.28	467.015
1141.65	455.58
1145.03	445.456
1148.4	441.8
1151.78	435.063
1155.15	433.35
1158.53	428.599
1161.9	423.677
1165.28	414.731
1168.65	413.458
1172.03	409.69
1175.4	407.747
1178.78	403.717
1182.15	395.513
1185.53	395.588
1188.9	392.321
1192.28	394.721
1195.65	390.02
1199.03	386.334
1202.4	383.217
1205.78	379.397
1209.15	380.532
1212.53	378.691
1215.9	374.31
1219.27	371.015
1222.65	370.251
1226.02	368.61
1229.4	368.582
1232.77	359.742
1236.15	363.189
1239.52	357.305
1242.9	351.596
1246.27	354.048
1249.65	350.827
1253.02	346.768
1256.4	343.232
1259.77	341.731
1263.15	344.539
1266.52	340.245
1269.9	338.859
1273.27	338.841
1276.65	334.372
1280.02	326.109
1283.4	322.811
