Measurement: Raman, 532 nm, unoriented, Raman Data Processed
Mineral: Glass-(Ho)
Rruff sample: R110083
Locality: Synthetic
Source: Elizabeth Cairns, University of Edinburgh
Description: Pink glass fragment beneath fluorescent light, yellowish green beneath halogen
Measured chemistry: CaO 19.38% Ho_2_O_3_ 21.77%, Al_2_O_3_ 11.72%, SiO_2_ 47.13%, Ca_14_Ho_5_Al_9_Si_32_O_100_
Raman shift (cm-1)	intensity
185.951	27281.5
188.844	27568.2
191.737	28118.7
194.629	28649.4
197.522	29153.3
200.415	29500.7
203.308	29534.8
206.2	29690.2
209.093	29825.5
211.986	29931.1
214.878	30188
217.771	30407.9
220.664	30603.1
223.556	30846.1
226.449	30859.6
229.342	31047.3
232.234	31223
235.127	31446.1
238.02	31472.5
240.913	31596.7
243.805	31696.4
246.698	31889.9
249.591	32025.2
252.483	32245.1
255.376	32432.9
258.269	32622.1
261.161	32718.9
264.054	32784.4
266.947	33065.4
269.84	33252.3
272.732	33481.1
275.625	33767.2
278.518	33967
281.41	34062.4
284.303	33999.3
287.196	34132.6
290.089	34349.8
292.981	34627.5
295.874	34870.1
298.767	35208.8
301.659	35415.3
304.552	35617.5
307.445	35805.7
310.337	36084.1
313.23	36273.2
316.123	36579.4
319.015	36865.9
321.908	37028
324.801	37287.8
327.694	37494
330.586	37779.1
333.479	38090.6
336.372	38515.2
339.264	38777.8
342.157	39055.3
345.05	39168.8
347.942	39490.8
350.835	39774.2
353.728	40253.1
356.621	40650.5
359.513	40977.4
362.406	41236.1
365.299	41584.3
368.191	41924.1
371.084	42285.2
373.977	42629.8
376.87	42985.2
379.762	43299.2
382.655	43648.6
385.548	44070.9
388.44	44516.3
391.333	44815.7
394.226	45195.3
397.118	45594.8
400.011	46046.9
402.904	46523.2
405.796	46937.9
408.689	47343.6
411.582	47746.4
414.475	48166.6
417.367	48544.2
420.26	48878.8
423.153	49172.3
426.045	49667.5
428.938	50076.4
431.831	50483.3
434.724	50757.7
437.616	51149.9
440.509	51590.1
443.402	52040.2
446.294	52456.5
449.187	52857.2
452.08	53077.2
454.972	53449.9
457.865	53879.5
460.758	54308.3
463.651	54655.1
466.543	54857.1
469.436	55150.2
472.329	55599.1
475.221	55845.4
478.114	56178.1
481.007	56508.3
483.899	56858.8
486.792	57106.7
489.685	57417
492.577	57677.6
495.47	58035.5
498.363	58309
501.256	58425.1
504.148	58629.3
507.041	58768.8
509.934	59112.6
512.826	59260.6
515.719	59386.8
518.612	59398.3
521.505	59610.2
524.397	59921.5
527.29	60193.7
530.183	60247.6
533.075	60323.5
535.968	60311.4
538.861	60457.4
541.753	60548.9
544.646	60731.6
547.539	60912
550.432	61064.8
553.324	61094.4
556.217	60960.9
559.11	61070.6
562.002	61004.9
564.895	61032.5
567.788	61023.7
570.68	61118.9
573.573	61084.1
576.466	61238.2
579.359	61396.4
582.251	61591.3
585.144	61282.7
588.037	61586.9
590.929	61545.1
593.822	61663.2
596.715	61613.5
599.607	61556.6
602.5	61434.6
605.393	61396.4
608.285	61541.8
611.178	61561.2
614.071	61537.6
616.964	61454.8
619.856	61473.3
622.749	61349.5
625.642	61176.9
628.534	60981.2
631.427	61050.6
634.32	61068
637.212	61078.3
640.105	60958.1
642.998	60704.1
645.891	60674.8
648.783	60602.9
651.676	60341.9
654.569	60398.8
657.461	60140
660.354	60137.4
663.247	59778.9
666.139	59462.4
669.032	59352.4
671.925	58982.3
674.818	58842.7
677.71	58555.4
680.603	58345.2
683.496	58128.9
686.388	57768.3
689.281	57474.6
692.174	57124
695.067	56629.3
697.959	56304.2
700.852	55751.8
703.745	55127.8
706.637	54751.1
709.53	54337.7
712.423	53784.2
715.315	53023.6
718.208	52436
721.101	51808.9
723.994	51357.2
726.886	50710.8
729.779	50197.9
732.672	49462.5
735.564	48662.5
738.457	47842.8
741.35	46991.3
744.242	46225.4
747.135	45443
750.028	44651.7
752.92	44070.2
755.813	43232
758.706	42384.1
761.599	41396.4
764.491	40514
767.384	39715.4
770.277	38728.9
773.169	37895.9
776.062	37014.2
778.955	36094.3
781.847	35215.2
784.74	34301.3
787.633	33344.8
790.526	32505.4
793.418	31710
796.311	30816.5
799.204	29930.9
802.096	29109.8
804.989	28254.3
807.882	27456.1
810.774	26689.7
813.667	25836.9
816.56	25120.6
819.453	24405.7
822.345	23642
825.238	22879.6
828.131	22097.3
831.023	21500.5
833.916	20780
836.809	20133.3
839.702	19543.3
842.594	18886.6
845.487	18302.7
848.38	17731.9
851.272	17144.8
854.165	16623.7
857.058	16083.8
859.95	15614.9
862.843	15091.8
865.736	14521.6
868.629	14099.8
871.521	13729.8
874.414	13253.7
877.307	12841.5
880.199	12383.7
883.092	11996.4
885.985	11634.8
888.877	11291.8
891.77	10934.6
894.663	10595.4
897.556	10237
900.448	9900.9
903.341	9605.72
906.234	9329.01
909.126	9034.14
912.019	8742.48
914.912	8467.39
917.804	8240.49
920.697	7952.64
923.59	7712.64
926.482	7469.94
929.375	7256.46
932.268	6996.27
935.161	6778.95
938.053	6601.2
940.946	6374.32
943.839	6186.71
946.731	6018.69
949.624	5825.76
952.517	5660.32
955.409	5510.13
958.302	5327.31
961.195	5173.73
964.088	5043.21
966.98	4894.3
969.873	4755.9
972.766	4633.65
975.658	4487.36
978.551	4358.99
981.444	4244.84
984.337	4110.15
987.229	3993.93
990.122	3915.82
993.015	3780.1
995.907	3691.29
998.8	3583.96
1001.69	3499.63
1004.59	3404.96
1007.48	3329.27
1010.37	3237.96
1013.26	3141.26
1016.16	3071.71
1019.05	2987.14
1021.94	2919.8
1024.83	2842.39
1027.73	2796.18
1030.62	2699.5
1033.51	2645.74
1036.4	2591.16
1039.3	2529.67
1042.19	2457.14
1045.08	2405.2
1047.98	2334.53
1050.87	2296.5
1053.76	2243.57
1056.65	2210.07
1059.55	2153.89
1062.44	2083.15
1065.33	2055.82
1068.22	2010.16
1071.12	1959.23
1074.01	1910.34
1076.9	1857.74
1079.8	1832.54
1082.69	1793.86
1085.58	1766.85
1088.47	1714.9
1091.37	1680.84
1094.26	1657.29
1097.15	1625
1100.04	1600.03
1102.94	1550.81
1105.83	1537.01
1108.72	1494.35
1111.62	1465.25
1114.51	1452.95
1117.4	1415.96
1120.29	1390.73
1123.19	1360.88
1126.08	1335.87
1128.97	1301.54
1131.86	1277.39
1134.76	1259.11
1137.65	1240.41
1140.54	1207.15
1143.43	1189.94
1146.33	1168.54
1149.22	1158.08
1152.11	1134.44
1155.01	1104.24
1157.9	1094.05
1160.79	1063.15
1163.68	1056.79
1166.58	1035.57
1169.47	1019.15
1172.36	1005.63
1175.26	980.208
1178.15	961.985
1181.04	963.731
1183.93	940.126
1186.83	924.333
1189.72	906.228
1192.61	893.509
1195.5	876.095
1198.4	869.007
1201.29	852.275
1204.18	836.285
1207.07	821.918
1209.97	818.172
1212.86	800.616
1215.75	791.261
1218.64	771.197
1221.54	754.893
1224.43	753.622
1227.32	738.384
1230.22	729.843
1233.11	713.363
1236	706.542
1238.89	687.586
1241.79	678.201
1244.68	673.297
1247.57	669.63
1250.46	654.141
1253.36	651.029
1256.25	634.672
1259.14	634.254
1262.04	619.492
1264.93	611.393
1267.82	604.742
1270.71	600.888
1273.61	600.033
1276.5	582.697
1279.39	571.853
1282.29	573.88
1285.18	559.747
1288.07	545.89
1290.96	537.478
1293.86	542.952
1296.75	529.652
1299.64	527.601
1302.53	510.57
