Measurement: Raman, 780 nm, unoriented, Raman Data Processed
Mineral: Glass-(Nd)
Rruff sample: R110077
Locality: Synthetic
Source: Elizabeth Cairns, University of Edinburgh
Description: Blueish purple glass fragment beneath fluorescent light, reddish purple beneath halogen
Measured chemistry: CaO 17.02%, Nd_2_O_3_ 16.89%, Al_2_O_3_ 10.49%, SiO_2_ 55.59%, Ca_12_Nd_4_Al_8_Si_35_O_100_
Raman shift (cm-1)	intensity
94.4962	3421.21
97.871	3345.84
101.246	3287.28
104.621	3303.81
107.996	3389.55
111.37	3458.75
114.745	3601.49
118.12	3723.77
121.495	3816.81
124.87	3931.51
128.244	4082.62
131.619	4227.45
134.994	4347.61
138.369	4473.15
141.744	4639.98
145.119	4740.78
148.493	4924.01
151.868	5082.03
155.243	5233.65
158.618	5400.52
161.993	5566.14
165.367	5738.98
168.742	5875.07
172.117	6073.98
175.492	6241.82
178.867	6409.51
182.242	6575.43
185.616	6777.8
188.991	6932.62
192.366	7097.63
195.741	7269.15
199.115	7426.94
202.49	7637.12
205.865	7767.05
209.24	7958.29
212.615	8150.71
215.99	8350.87
219.364	8504.34
222.739	8653.31
226.114	8859.55
229.489	9044.53
232.864	9224.96
236.238	9355.42
239.613	9545.64
242.988	9691.48
246.363	9892.15
249.738	10052.5
253.113	10199.1
256.487	10399.6
259.862	10594.3
263.237	10711.4
266.612	10908.8
269.987	11075.5
273.361	11225
276.736	11398.7
280.111	11552.4
283.486	11710.4
286.861	11866
290.236	12027.2
293.61	12195.4
296.985	12398.2
300.36	12554.9
303.735	12765.1
307.11	12927.2
310.485	13136.9
313.859	13320.6
317.234	13507.9
320.609	13751.5
323.984	13965.4
327.359	14200.2
330.733	14538.1
334.108	14832.1
337.483	15176.1
340.858	15542
344.233	15894.1
347.608	16277.7
350.982	16695.3
354.357	17182.9
357.732	17764.5
361.107	18198.7
364.482	18739.3
367.856	19269.1
371.231	19891.2
374.606	20415.8
377.981	21037.3
381.356	21585
384.731	22229.5
388.105	22745.5
391.48	23314.6
394.855	23886.8
398.23	24383.8
401.605	24858.7
404.979	25297.5
408.354	25699.3
411.729	26075.5
415.104	26488.9
418.479	26771.2
421.853	27039.5
425.228	27279.1
428.603	27479.5
431.978	27648.4
435.353	27690
438.728	27812.1
442.102	27811.1
445.477	27848.5
448.852	27825.5
452.227	27709.8
455.602	27629
458.976	27536.7
462.351	27440.8
465.726	27261.1
469.101	27194.7
472.476	27005.9
475.851	26824.7
479.225	26684.2
482.6	26537.5
485.975	26336.7
489.35	26244.7
492.725	26072.2
496.099	25894.7
499.474	25858.1
502.849	25661
506.224	25549.8
509.599	25467
512.973	25345.3
516.348	25219.4
519.723	25135.5
523.098	25022.8
526.473	24881
529.848	24778.8
533.222	24616.4
536.597	24540
539.972	24435.2
543.347	24310.1
546.722	24130
550.096	24083.2
553.471	24010.2
556.846	23912.4
560.221	23847.4
563.596	23682.3
566.971	23529.5
570.345	23439.8
573.72	23321.5
577.095	23212.9
580.47	23077.2
583.845	22945.8
587.22	22791.6
590.594	22742.2
593.969	22635.4
597.344	22506.6
600.719	22353.2
604.094	22232.4
607.468	22115.9
610.843	21960.8
614.218	21859.4
617.593	21723.5
620.968	21629.9
624.342	21491.2
627.717	21348.7
631.092	21212.4
634.467	21073.7
637.842	20974.7
641.217	20831.1
644.591	20748.3
647.966	20568.6
651.341	20376.6
654.716	20250.5
658.091	20092.8
661.466	19967.6
664.84	19783.4
668.215	19668.3
671.59	19504.5
674.965	19308.7
678.34	19179.3
681.714	19052.3
685.089	18839.4
688.464	18744.8
691.839	18576.3
695.214	18419.9
698.588	18212.1
701.963	18137.7
705.338	17935.6
708.713	17827.8
712.088	17674.5
715.462	17503.4
718.837	17345.5
722.212	17202.1
725.587	17047.7
728.962	16917.6
732.337	16720.1
735.711	16564.3
739.086	16422
742.461	16212.2
745.836	16091.7
749.211	15924.2
752.586	15733.2
755.96	15597
759.335	15430.7
762.71	15229.6
766.085	15025
769.46	14851
772.834	14688.9
776.209	14577.7
779.584	14394.5
782.959	14239.2
786.334	14031
789.708	13835.1
793.083	13705.3
796.458	13524.9
799.833	13326
803.208	13091.6
806.583	12959.6
809.957	12764.9
813.332	12583.6
816.707	12388.5
820.082	12241.6
823.457	12028
826.832	11866.6
830.206	11723.7
833.581	11505.6
836.956	11372.4
840.331	11190.8
843.706	11041.8
847.08	10930.4
850.455	10756.5
853.83	10601.1
857.205	10468.3
860.58	10321.9
863.955	10230.6
867.329	10100.4
870.704	9980.44
874.079	9917.07
877.454	9811.3
880.829	9721.93
884.203	9647.52
887.578	9533.39
890.953	9496.95
894.328	9454.66
897.703	9396.34
901.077	9355.6
904.452	9328.08
907.827	9352.15
911.202	9296.88
914.577	9324.82
917.952	9369.36
921.326	9319.17
924.701	9350.09
928.076	9347.1
931.451	9372.78
934.826	9424.49
938.2	9485.8
941.575	9531.14
944.95	9578.41
948.325	9662.17
951.7	9727.18
955.074	9817.97
958.449	9932.49
961.824	9993.54
965.199	10101.7
968.574	10238.7
971.949	10350.2
975.323	10500.5
978.698	10591.1
982.073	10749.3
985.448	10947.1
988.823	11154.7
992.197	11315.9
995.572	11534.8
998.947	11769.6
1002.32	12046.3
1005.7	12351.4
1009.07	12682.5
1012.45	13026
1015.82	13425.8
1019.2	13799.2
1022.57	14192
1025.95	14663.8
1029.32	15145.9
1032.69	15635.5
1036.07	16111.6
1039.44	16742.2
1042.82	17291.7
1046.19	17953.6
1049.57	18620.1
1052.94	19334.8
1056.32	20147.2
1059.69	20884.9
1063.07	21756.2
1066.44	22701.3
1069.82	23661.6
1073.19	24711.8
1076.57	25748.8
1079.94	26910
1083.32	28117.7
1086.69	29352.4
1090.07	30752.4
1093.44	32152.6
1096.82	33546.7
1100.19	34997.9
1103.57	36518.9
1106.94	38045.8
1110.32	39669.1
1113.69	41270.9
1117.07	43011.6
1120.44	44761.2
1123.82	46661.6
1127.19	48535.1
1130.57	50518.6
1133.94	52642.1
1137.32	54714.9
1140.69	56845.1
1144.06	59017.6
1147.44	61271.6
1150.81	63638.8
1154.19	65981.6
1157.56	68292.3
1160.94	70803.3
1164.31	73369.4
1167.69	75911.8
1171.06	78420.7
1174.44	81010.1
1177.81	83291.6
1181.19	85920.1
1184.56	88369.8
1187.94	90956.5
1191.31	93638.7
1194.69	95958.6
1198.06	98402.8
1201.44	100793
1204.81	103055
1208.19	105219
1211.56	107704
1214.93	110119
1218.31	112192
1221.68	114188
1225.06	116278
1228.43	118613
1231.81	120691
1235.18	122686
1238.56	124393
1241.93	125978
1245.31	127874
1248.68	129736
1252.06	131674
1255.43	133340
1258.81	135028
1262.18	137208
1265.56	139138
1268.93	140894
1272.31	142924
1275.68	144676
1279.06	147268
1282.43	149827
