Measurement: Raman, 780 nm, unoriented, Raman Data Processed
Mineral: Glass-(Ce)
Rruff sample: R110075
Locality: Synthetic
Source: Elizabeth Cairns, University of Edinburgh
Description: Pale yellow glass fragment
Measured chemistry: CaO 16.44%, Ce_2_O_3_ 19.71%, Al_2_O_3_ 10.13%, SiO_2_ 53.72%, Ca_11_Ce_5_Al_8_Si_35_O_100_
Raman shift (cm-1)	intensity
147.529	683.621
150.422	686.681
153.315	689.559
156.207	691.408
159.1	695.34
161.993	695.102
164.885	691.807
167.778	694.219
170.671	695.179
173.563	695.59
176.456	698.754
179.349	702.851
182.242	699.452
185.134	706.188
188.027	707.474
190.92	707.85
193.812	715.841
196.705	716.165
199.598	717.231
202.49	719.882
205.383	719.447
208.276	725.4
211.168	729.677
214.061	731.162
216.954	739.358
219.847	740.374
222.739	746.865
225.632	746.977
228.525	748.064
231.417	748.787
234.31	756.681
237.203	759.288
240.095	757.149
242.988	765.948
245.881	766.512
248.774	771.405
251.666	772.937
254.559	775.233
257.452	779.977
260.344	782.456
263.237	786.18
266.13	790.135
269.022	795.505
271.915	797.582
274.808	795.846
277.701	804.76
280.593	808.615
283.486	806.768
286.379	813.487
289.271	815.193
292.164	817.491
295.057	823.58
297.95	829.263
300.842	830.132
303.735	833.449
306.628	837.546
309.52	845.017
312.413	846.686
315.306	854.427
318.198	850.892
321.091	858.608
323.984	868.364
326.877	866.1
329.769	875.293
332.662	884.814
335.555	892.214
338.447	897.048
341.34	906.275
344.233	915.132
347.125	926.015
350.018	936.752
352.911	949.216
355.803	962.191
358.696	970.274
361.589	982.435
364.482	999.115
367.374	1013.49
370.267	1029.6
373.16	1041.99
376.052	1055.16
378.945	1070.96
381.838	1084.63
384.731	1097.58
387.623	1114.02
390.516	1131.89
393.409	1144.02
396.301	1155.19
399.194	1168.69
402.087	1179.59
404.979	1189.61
407.872	1200.32
410.765	1206.15
413.658	1216.8
416.55	1218.2
419.443	1224.4
422.336	1227.29
425.228	1230.25
428.121	1231.68
431.014	1233.63
433.906	1226.83
436.799	1224.67
439.692	1223.56
442.584	1219.04
445.477	1208.68
448.37	1212.01
451.263	1202.37
454.155	1192.97
457.048	1189.41
459.941	1180.95
462.833	1174.03
465.726	1162.19
468.619	1157.64
471.512	1153.91
474.404	1143.57
477.297	1131.32
480.19	1124.61
483.082	1118.94
485.975	1110.94
488.868	1107.28
491.76	1097.51
494.653	1094.48
497.546	1086.8
500.438	1085.44
503.331	1077.13
506.224	1069.66
509.117	1070.96
512.009	1061.52
514.902	1055.72
517.795	1052.81
520.687	1036.24
523.58	1032.55
526.473	1026.87
529.365	1017.29
532.258	1008.9
535.151	1003.69
538.044	994.247
540.936	992.354
543.829	983.053
546.722	972.938
549.614	967.589
552.507	962.776
555.4	958.338
558.293	951.375
561.185	948.764
564.078	941.159
566.971	939.643
569.863	937.514
572.756	933.461
575.649	920.288
578.541	915.567
581.434	909.193
584.327	904.052
587.22	897.356
590.112	891.521
593.005	892.836
595.898	889.625
598.79	877.478
601.683	869.414
604.576	868.769
607.468	859.533
610.361	858.258
613.254	852.872
616.146	845.456
619.039	837.403
621.932	830.946
624.825	829.471
627.717	828.11
630.61	823.621
633.503	821.687
636.395	817.425
639.288	812.625
642.181	801.422
645.073	805.169
647.966	802.612
650.859	789.736
653.752	790.524
656.644	779.801
659.537	780.729
662.43	771.314
665.322	767.848
668.215	762.565
671.108	754.45
674	751.235
676.893	749.419
679.786	740.941
682.679	736.049
685.571	733.219
688.464	729.796
691.357	722.617
694.25	716.86
697.142	714.943
700.035	708.576
702.928	701.982
705.82	703.273
708.713	697.676
711.606	695.377
714.498	691.58
717.391	691.232
720.284	687.28
723.177	677.249
726.069	675.316
728.962	671.506
731.855	670.336
734.747	666.838
737.64	664.469
740.533	658.244
743.425	655.838
746.318	652.447
749.211	648.072
752.104	647.861
754.996	642.192
757.889	641.224
760.782	637.625
763.674	634.495
766.567	630.506
769.46	623.408
772.352	627.442
775.245	621.841
778.138	619.896
781.03	617.48
783.923	612.578
786.816	610.308
789.709	614.31
792.601	604.274
795.494	602.005
798.387	600.493
801.279	593.372
804.172	587.747
807.065	588.764
809.957	584.377
812.85	580.512
815.743	577.29
818.636	575.946
821.528	568.824
824.421	568.625
827.314	568.174
830.206	561.216
833.099	560.305
835.992	562.625
838.885	557.288
841.777	556.89
844.67	555.051
847.563	555.637
850.455	554.979
853.348	554.902
856.241	556.461
859.133	558.469
862.026	559.925
864.919	557.538
867.812	559.993
870.704	560.51
873.597	562.465
876.49	562.529
879.382	564.646
882.275	565.729
885.168	568.78
888.06	572.873
890.953	574.192
893.846	577.744
896.739	577.698
899.631	581.866
902.524	579.091
905.417	584.546
908.309	586.804
911.202	592.282
914.095	593.41
916.987	597.126
919.88	598.733
922.773	604.2
925.665	604.427
928.558	606.238
931.451	610.383
934.344	610.175
937.236	613.735
940.129	618.616
943.022	619.484
945.914	618.239
948.807	620.467
951.7	628.572
954.592	629.143
957.485	634.124
960.378	633.105
963.271	634.356
966.163	636.535
969.056	641.008
971.949	642.356
974.841	646.934
977.734	646.763
980.627	652.418
983.519	658.505
986.412	657.091
989.305	665.496
992.198	668.38
995.09	671.089
997.983	674.358
1000.88	680.519
1003.77	679.646
1006.66	686.574
1009.55	695.226
1012.45	694.268
1015.34	697.663
1018.23	702.683
1021.12	710.912
1024.02	715.954
1026.91	719.245
1029.8	727.748
1032.69	728.406
1035.59	733.244
1038.48	739.343
1041.37	745.187
1044.27	751.249
1047.16	755.392
1050.05	763.39
1052.94	766.033
1055.84	776.715
1058.73	781.661
1061.62	791.946
1064.52	797.969
1067.41	812.384
1070.3	816.981
1073.19	827.228
1076.09	841.068
1078.98	850.998
1081.87	863.564
1084.76	877.041
1087.66	896.004
1090.55	914.024
1093.44	929.987
1096.34	948.196
1099.23	963.731
1102.12	983.689
1105.01	1006.83
1107.91	1036.88
1110.8	1056.06
1113.69	1074.29
1116.58	1100.49
1119.48	1127.66
1122.37	1157.94
1125.26	1188.84
1128.15	1219.67
1131.05	1253.17
1133.94	1285.32
1136.83	1324.32
1139.72	1360.97
1142.62	1396.86
1145.51	1432.56
1148.4	1474.73
1151.3	1512.58
1154.19	1556.49
1157.08	1604.93
1159.97	1647.81
1162.87	1685.91
1165.76	1733.31
1168.65	1782.1
1171.55	1830.22
1174.44	1887.33
1177.33	1926.36
1180.22	1976.45
1183.12	2024.16
1186.01	2066.62
1188.9	2130.5
1191.79	2169.76
1194.69	2216.55
1197.58	2265.16
1200.47	2307.27
1203.37	2353.45
1206.26	2403.48
1209.15	2442.75
1212.04	2492.11
1214.94	2543.88
1217.83	2583
1220.72	2619.04
1223.61	2653.26
1226.51	2687.99
1229.4	2735.89
1232.29	2766.98
1235.18	2800.43
1238.08	2834.08
1240.97	2866.28
1243.86	2892.34
1246.76	2921.17
1249.65	2953.44
1252.54	2979.68
1255.43	3009.97
1258.33	3037.87
1261.22	3073.53
1264.11	3098.78
1267	3123.89
1269.9	3168.33
1272.79	3187.85
1275.68	3216.75
1278.58	3253.69
1281.47	3291.84
1284.36	3334.01
