Measurement: Raman, 532 nm, unoriented, Raman Data Processed
Mineral: Glass-(Er)
Rruff sample: R110084
Locality: Synthetic
Source: Elizabeth Cairns, University of Edinburgh
Description: Orangeish pink glass fragment
Measured chemistry: CaO 19.95%, Er_2_O_3_ 22.75%, Al_2_O_3_ 12.10%, SiO_2_ 45.24%, Ca_15_Er_5_Al_10_Si_31_O_100_
Raman shift (cm-1)	intensity
179.202	75567.9
182.094	77359.9
184.987	78584.5
187.88	79448.5
190.773	79644.8
193.665	80368.8
196.558	81408.2
199.451	82294.6
202.343	82321.4
205.236	82630.4
208.129	83026.3
211.021	83552.3
213.914	84211.5
216.807	85134
219.699	85949.2
222.592	87142.5
225.485	87871.4
228.377	89274.9
231.27	90554.2
234.163	92601.4
237.056	94059.1
239.948	95698.6
242.841	97773.7
245.734	99727.6
248.626	102124
251.519	104947
254.412	107644
257.305	110926
260.197	113944
263.09	117178
265.983	120799
268.875	125096
271.768	128893
274.661	133320
277.553	137906
280.446	142116
283.339	145860
286.232	150397
289.124	155046
292.017	160632
294.91	165921
297.802	171484
300.695	176955
303.588	182484
306.481	187850
309.373	193442
312.266	199183
315.159	204624
318.051	210642
320.944	214748
323.837	220521
326.729	225637
329.622	230787
332.515	235766
335.408	241706
338.3	247352
341.193	251854
344.086	256250
346.978	260003
349.871	264544
352.764	269580
355.656	274220
358.549	278279
361.442	281454
364.334	285181
367.227	288907
370.12	292027
373.012	295026
375.905	298082
378.798	300944
381.691	303472
384.583	306858
387.476	309642
390.369	312369
393.261	314664
396.154	317307
399.047	320642
401.94	323182
404.832	326761
407.725	329336
410.618	332296
413.51	335931
416.403	338601
419.296	340413
422.188	343338
425.081	346931
427.974	350311
430.866	353439
433.759	355906
436.652	358041
439.545	360910
442.437	364695
445.33	366794
448.223	370048
451.115	372480
454.008	374421
456.901	377118
459.793	380722
462.686	382734
465.579	385169
468.472	386838
471.364	389723
474.257	392913
477.15	395570
480.042	398311
482.935	401644
485.828	404169
488.721	406611
491.613	409087
494.506	411925
497.399	414274
500.291	416391
503.184	417621
506.077	418080
508.969	420024
511.862	421294
514.755	421452
517.648	421537
520.54	421488
523.433	423010
526.326	424255
529.218	423729
532.111	423632
535.004	422741
537.896	421500
540.789	421525
543.682	420693
546.575	419761
549.467	419431
552.36	418640
555.253	416562
558.145	414169
561.038	412326
563.931	409700
566.823	407630
569.716	404584
572.609	401633
575.502	398612
578.394	396570
581.287	393604
584.18	389981
587.072	386503
589.965	382350
592.858	378983
595.75	374749
598.643	370388
601.536	365351
604.428	361310
607.321	357002
610.214	353988
613.107	350019
615.999	345945
618.892	342426
621.785	338292
624.677	334821
627.57	330661
630.463	328230
633.356	326037
636.248	323567
639.141	321149
642.034	317921
644.926	316167
647.819	313985
650.712	311842
653.604	310545
656.497	308850
659.39	307082
662.283	305260
665.175	303335
668.068	301545
670.961	299809
673.853	298244
676.746	296342
679.639	295225
682.531	294712
685.424	292797
688.317	290968
691.21	289640
694.102	287355
696.995	286125
699.888	284320
702.78	282140
705.673	280881
708.566	279842
711.458	278934
714.351	276751
717.244	275805
720.136	274072
723.029	273606
725.922	273682
728.815	273835
731.707	272982
734.6	271992
737.493	271188
740.385	270868
743.278	270515
746.171	269876
749.063	270334
751.956	270950
754.849	271800
757.742	271991
760.634	271393
763.527	271446
766.42	271390
769.312	272216
772.205	272210
775.098	272253
777.99	272565
780.883	272915
783.776	273297
786.669	272874
789.561	272096
792.454	273122
795.347	273115
798.239	272158
801.132	272268
804.025	271465
806.918	272103
809.81	272053
812.703	271385
815.596	271171
818.488	270791
821.381	270724
824.274	269354
827.166	267984
830.059	267272
832.952	266439
835.845	265308
838.737	263748
841.63	262564
844.523	261138
847.415	260104
850.308	258226
853.201	257015
856.093	255568
858.986	254692
861.879	253097
864.771	251096
867.664	248589
870.557	247016
873.45	245323
876.342	243685
879.235	241080
882.128	238977
885.02	237531
887.913	235452
890.806	233114
893.698	230641
896.591	228464
899.484	225874
902.377	223752
905.269	221979
908.162	219814
911.055	217390
913.947	214781
916.84	212571
919.733	209814
922.625	207066
925.518	204995
928.411	202064
931.304	199519
934.196	196278
937.089	193167
939.982	190592
942.875	188343
945.767	186498
948.66	183490
951.553	180919
954.445	178535
957.338	175840
960.231	172858
963.123	170365
966.016	168056
968.909	165752
971.802	162417
974.694	159585
977.587	156743
980.48	154316
983.372	151245
986.265	148344
989.158	145994
992.05	143581
994.943	140747
997.836	137716
1000.73	135101
1003.62	132280
1006.51	130161
1009.41	127342
1012.3	124724
1015.19	121964
1018.09	119587
1020.98	117430
1023.87	114905
1026.76	112329
1029.66	109719
1032.55	107352
1035.44	105543
1038.33	102647
1041.23	100004
1044.12	97669.3
1047.01	95617.3
1049.9	93357.6
1052.8	91455.3
1055.69	89352.6
1058.58	87133.8
1061.47	84833.4
1064.37	82701.4
1067.26	80494.1
1070.15	78866.9
1073.05	76717.6
1075.94	74611.7
1078.83	72894
1081.72	70999.3
1084.62	69147.5
1087.51	67268.7
1090.4	65580.5
1093.3	64029.5
1096.19	62288.1
1099.08	60616.2
1101.97	59073.7
1104.87	57498.5
1107.76	55952.5
1110.65	54456.1
1113.54	53040.1
1116.44	51516.3
1119.33	50204.4
1122.22	48891.8
1125.12	47332.4
1128.01	46306
1130.9	44746.8
1133.79	43446.1
1136.68	42340.1
1139.58	41346.7
1142.47	40117.3
1145.36	39151.8
1148.26	37991.3
1151.15	36905.6
1154.04	35939.2
1156.93	34668.2
1159.83	33971.4
1162.72	32969.1
1165.61	32072.6
1168.51	31105.2
1171.4	30246.7
1174.29	29430.7
1177.18	28698.2
1180.08	27872.9
1182.97	27064.6
1185.86	26493
1188.75	25588.4
1191.65	24824.7
1194.54	24225.7
1197.43	23633.7
1200.33	22885.1
1203.22	22290.1
1206.11	21795.2
1209	21183.8
1211.9	20769.7
1214.79	20140
1217.68	19482.2
1220.57	18887
1223.47	18481.8
1226.36	18069
1229.25	17549.1
1232.14	17244.2
1235.04	16602.6
1237.93	16187.6
1240.82	15775
1243.71	15358.5
1246.61	14966.3
1249.5	14665.8
1252.39	14459.1
1255.29	14121.1
1258.18	13765.5
1261.07	13376.5
1263.96	13147.4
1266.86	12908.6
1269.75	12519.2
1272.64	12228
1275.54	12007.1
1278.43	11702.9
1281.32	11477.4
1284.21	11107.8
1287.11	11010.1
1290	10787.4
1292.89	10678.9
1295.78	10279.1
1298.68	10186.9
1301.57	9991.5
