Measurement: Raman, 780 nm, unoriented, Raman Data Processed
Mineral: Glass-(Sm)
Rruff sample: R110078
Locality: Synthetic
Source: Elizabeth Cairns, University of Edinburgh
Description: Pale yellow glass fragment
Measured chemistry: CaO 19.44%, Sm_2_O_3_ 20.20%, Al_2_O_3_ 11.81%, SiO_2_ 48.55%, Ca_14_Sm_5_Al_9_Si_33_O_100_
Raman shift (cm-1)	intensity
95.4604	2207.85
98.8353	2147.85
102.21	2100.54
105.585	2080.8
108.96	2064.92
112.335	2034.53
115.709	2031.34
119.084	2007.02
122.459	2008.76
125.834	1988.9
129.209	1963.22
132.583	1934.94
135.958	1926.8
139.333	1921.18
142.708	1899.47
146.083	1886.89
149.458	1863.24
152.832	1862
156.207	1853.35
159.582	1836.17
162.957	1825.87
166.332	1813.96
169.706	1801.61
173.081	1792.09
176.456	1782.28
179.831	1772.4
183.206	1761.61
186.581	1749.82
189.955	1747.49
193.33	1736.52
196.705	1724.02
200.08	1726.96
203.455	1702.43
206.829	1701.53
210.204	1693.04
213.579	1688.48
216.954	1679.44
220.329	1677.22
223.703	1672.1
227.078	1662.17
230.453	1652.53
233.828	1648.58
237.203	1636.85
240.578	1635.8
243.952	1628.4
247.327	1629.51
250.702	1617.59
254.077	1605.76
257.452	1611.45
260.827	1602.89
264.201	1597.61
267.576	1591.55
270.951	1591.97
274.326	1582.1
277.701	1587.16
281.075	1574.18
284.45	1572.33
287.825	1561.12
291.2	1557.31
294.575	1554.56
297.95	1545.12
301.324	1551.62
304.699	1543.56
308.074	1545.94
311.449	1546.18
314.824	1537.56
318.198	1544.84
321.573	1533.84
324.948	1528.2
328.323	1537.83
331.698	1520
335.072	1532.46
338.447	1517.54
341.822	1520.77
345.197	1524.31
348.572	1523.71
351.947	1516.31
355.321	1517.05
358.696	1524.03
362.071	1506.68
365.446	1502.23
368.821	1499.87
372.195	1494.74
375.57	1495.29
378.945	1486.16
382.32	1492.02
385.695	1485.51
389.07	1480.43
392.444	1474.63
395.819	1472.68
399.194	1461.17
402.569	1472.16
405.944	1457.66
409.318	1462.65
412.693	1461.33
416.068	1463.53
419.443	1458.3
422.818	1461.58
426.192	1461.5
429.567	1465.79
432.942	1461.3
436.317	1461
439.692	1459.06
443.067	1462.15
446.441	1460.57
449.816	1461.47
453.191	1455.78
456.566	1457.6
459.941	1454.07
463.315	1451.45
466.69	1454.56
470.065	1446.98
473.44	1448.3
476.815	1442.18
480.19	1434.08
483.564	1438.56
486.939	1432.49
490.314	1429.03
493.689	1425.26
497.064	1423.17
500.438	1416.66
503.813	1409.99
507.188	1406.65
510.563	1394.31
513.938	1379.84
517.313	1369.36
520.687	1354.24
524.062	1346.84
527.437	1324.82
530.812	1306.96
534.187	1286.63
537.562	1270.12
540.936	1248.95
544.311	1242.11
547.686	1220.32
551.061	1220.28
554.436	1201.53
557.81	1192.35
561.185	1180.65
564.56	1168.67
567.935	1163.64
571.31	1147.52
574.684	1126.09
578.059	1115.85
581.434	1095.27
584.809	1084.15
588.184	1060.87
591.558	1048.69
594.933	1029.79
598.308	1002.18
601.683	993.29
605.058	970.308
608.433	957.296
611.807	946.96
615.182	927.607
618.557	923.312
621.932	907.323
625.307	901.342
628.682	890.627
632.056	883.802
635.431	872.366
638.806	865.339
642.181	860.387
645.556	860.883
648.93	848.313
652.305	836.006
655.68	826.694
659.055	809.226
662.43	790.97
665.804	785.601
669.179	772.327
672.554	760.554
675.929	746.582
679.304	732.295
682.679	711.751
686.053	697.653
689.428	689.065
692.803	664.706
696.178	649.989
699.553	628.923
702.928	623.506
706.302	615.695
709.677	597.896
713.052	590.8
716.427	575.234
719.802	572.483
723.176	554.934
726.551	548.227
729.926	541.1
733.301	524.116
736.676	515.171
740.051	508.816
743.425	504.333
746.8	488.316
750.175	480.939
753.55	474.908
756.925	464.727
760.299	456.962
763.674	446.909
767.049	442.901
770.424	430.825
773.799	426.627
777.173	418.439
780.548	402.488
783.923	399.218
787.298	390.696
790.673	381.12
794.048	369.259
797.422	364.857
800.797	346.732
804.172	342.559
807.547	335.783
810.922	330.892
814.296	318.858
817.671	311.641
821.046	318.017
824.421	318.027
827.796	319.062
831.17	320.845
834.545	326.283
837.92	339.36
841.295	349.745
844.67	357.427
848.045	372.591
851.419	385.122
854.794	404.812
858.169	417.288
861.544	438.954
864.919	453.877
868.293	473.228
871.668	494.13
875.043	510.199
878.418	526.895
881.793	543.411
885.168	562.797
888.542	580.2
891.917	594.98
895.292	611.964
898.667	629.686
902.042	647.732
905.417	665.325
908.791	681.053
912.166	699.009
915.541	707.473
918.916	731.871
922.291	738.474
925.665	755.101
929.04	762.841
932.415	777.346
935.79	782.455
939.165	796.59
942.539	807.453
945.914	809.152
949.289	817.823
952.664	824.058
956.039	832.002
959.414	834.296
962.788	845.289
966.163	846.423
969.538	847.654
972.913	858.615
976.288	859.638
979.663	861.263
983.037	864.987
986.412	868.68
989.787	873.532
993.162	870.1
996.537	875.96
999.911	874.974
1003.29	867.016
1006.66	864.727
1010.04	860.111
1013.41	859.135
1016.78	857.671
1020.16	841.237
1023.53	838.302
1026.91	828.553
1030.29	813.86
1033.66	802.471
1037.03	793.444
1040.41	773.755
1043.78	752.92
1047.16	741.199
1050.53	718.099
1053.91	706.154
1057.28	673.905
1060.66	665.518
1064.03	644.304
1067.41	616.663
1070.78	596.575
1074.16	568.962
1077.53	555.644
1080.91	526.855
1084.28	520.49
1087.66	489.277
1091.03	474.568
1094.41	453.022
1097.78	434.812
1101.16	420.801
1104.53	399.373
1107.91	401.88
1111.28	379.108
1114.65	365.731
1118.03	361.546
1121.4	349.58
1124.78	335.864
1128.15	328.654
1131.53	329.555
1134.9	317.519
1138.28	304.542
1141.65	301.233
1145.03	299.264
1148.4	297.931
1151.78	290.755
1155.15	279.327
1158.53	278.132
1161.9	279.159
1165.28	275.085
1168.65	271.06
1172.03	264.924
1175.4	271.726
1178.78	265.485
1182.15	262.051
1185.53	261.469
1188.9	254.232
1192.28	250.652
1195.65	256.136
1199.03	253.39
1202.4	253.555
1205.78	253.059
1209.15	245.006
1212.53	251.561
1215.9	242.663
1219.27	245.969
1222.65	240.853
1226.02	246.261
1229.4	247.285
1232.77	248.353
1236.15	236.7
1239.52	251.891
1242.9	247.358
1246.27	250.987
1249.65	247.755
1253.02	254.469
1256.4	246.411
1259.77	253.44
1263.15	249.208
1266.52	252.434
1269.9	249.931
1273.27	252.147
1276.65	243.071
1280.02	251.529
1283.4	248.991
