Measurement: Raman, 780 nm, unoriented, Raman Data Processed
Mineral: Glass-(Pr)
Rruff sample: R110076
Locality: Synthetic
Source: Elizabeth Cairns, University of Edinburgh
Description: Greenish-yellow glass fragment
Measured chemistry: CaO 17.14%, Pr_2_O_3_ 16.27%, Al_2_O_3_ 10.56%, SiO_2_ 56.02%, Ca_12_Pr_4_Al_8_Si_36_O_100_
Raman shift (cm-1)	intensity
95.4604	1065.56
98.8353	1032.78
102.21	980.75
105.585	960.427
108.96	944.759
112.335	926.915
115.709	910.822
119.084	899.837
122.459	893.819
125.834	881.448
129.209	868.632
132.583	854.797
135.958	844.508
139.333	837.019
142.708	818.855
146.083	810.211
149.458	802.419
152.832	790.418
156.207	789.618
159.582	780.787
162.957	773.814
166.332	760.537
169.706	760.075
173.081	751.384
176.456	740.869
179.831	736.716
183.206	724.261
186.581	719.638
189.955	714.36
193.33	711.558
196.705	707.802
200.08	702.944
203.455	697.714
206.829	693.35
210.204	693.294
213.579	689.052
216.954	684.286
220.329	682.885
223.703	681.877
227.078	672.85
230.453	675.803
233.828	670.846
237.203	661.595
240.578	659.019
243.952	658.528
247.327	657.51
250.702	654.582
254.077	649.857
257.452	649.726
260.827	643.323
264.201	646.406
267.576	641.383
270.951	647.939
274.326	638.012
277.701	641.941
281.075	637.047
284.45	631.465
287.825	636.029
291.2	634.648
294.575	639.759
297.95	639.811
301.324	635.128
304.699	638.567
308.074	636.29
311.449	636.704
314.824	640.016
318.198	642.004
321.573	630.406
324.948	638.66
328.323	637.632
331.698	637.923
335.072	639.352
338.447	634.831
341.822	637.554
345.197	637.964
348.572	640.136
351.947	644.505
355.321	634.691
358.696	638.849
362.071	637.736
365.446	642.523
368.821	633.777
372.195	639.793
375.57	630.984
378.945	632.482
382.32	635.085
385.695	630.826
389.07	630.832
392.444	622.382
395.819	630.123
399.194	623.673
402.569	627.157
405.944	622.625
409.318	625.34
412.693	624.145
416.068	620.615
419.443	622.875
422.818	621.205
426.192	620.929
429.567	625.342
432.942	620.802
436.317	625.147
439.692	627.787
443.067	626.267
446.441	619.127
449.816	624.741
453.191	621.681
456.566	624.736
459.941	622.949
463.315	612.659
466.69	613.76
470.065	610.739
473.44	604.596
476.815	600.5
480.19	599.772
483.564	601.284
486.939	587.237
490.314	589.003
493.689	588.297
497.064	582.265
500.438	574.361
503.813	575.595
507.188	566.009
510.563	556.363
513.938	544.746
517.313	541.33
520.687	524.277
524.062	514.589
527.437	510.054
530.812	493.961
534.187	485.942
537.562	473.898
540.936	465.359
544.311	458.613
547.686	445.937
551.061	441.332
554.436	433.504
557.81	426.568
561.185	427.144
564.56	421.664
567.935	414.801
571.31	407.441
574.684	405.195
578.059	400.193
581.434	392.908
584.809	389.491
588.184	381.097
591.559	378.639
594.933	372.521
598.308	361.748
601.683	355.772
605.058	350.805
608.433	343.953
611.808	338.214
615.182	327.37
618.557	324.868
621.932	311.551
625.307	311.203
628.682	304.027
632.056	299.325
635.431	297.116
638.806	294.015
642.181	286.293
645.556	283.379
648.931	275.113
652.305	269.087
655.68	263.35
659.055	264.98
662.43	254.311
665.805	252.001
669.179	246.283
672.554	238.391
675.929	235.532
679.304	227.826
682.679	218.57
686.053	212.73
689.428	204.167
692.803	208.58
696.178	201.867
699.553	196.268
702.928	188.528
706.302	188.825
709.677	180.656
713.052	181.842
716.427	176.161
719.802	170.085
723.177	167.204
726.551	165.426
729.926	163.484
733.301	160.842
736.676	158.578
740.051	154.966
743.425	148.933
746.8	148.502
750.175	145.624
753.55	143.802
756.925	141.362
760.299	140.543
763.674	138.337
767.049	140.723
770.424	135.588
773.799	134.738
777.173	130.058
780.548	127.649
783.923	130.028
787.298	126.326
790.673	123.004
794.048	119.821
797.422	119.749
800.797	120.072
804.172	111.548
807.547	110.069
810.922	111.129
814.297	103.182
817.671	105.961
821.046	93.9224
824.421	93.6368
827.796	92.2015
831.171	93.9338
834.545	91.1026
837.92	90.2352
841.295	91.7671
844.67	90.4309
848.045	97.3701
851.419	101.495
854.794	99.4723
858.169	106.252
861.544	110.589
864.919	114.839
868.294	118.538
871.668	122.137
875.043	129.501
878.418	136.426
881.793	141.306
885.168	143.842
888.543	151.316
891.917	159.332
895.292	162.826
898.667	173.144
902.042	175.555
905.417	185.198
908.791	192.732
912.166	198.626
915.541	203.167
918.916	209.176
922.291	216.981
925.665	221.419
929.04	228.272
932.415	229.483
935.79	232.778
939.165	237.598
942.54	240.882
945.914	244.183
949.289	245.074
952.664	256.13
956.039	254.351
959.414	259.704
962.788	258.95
966.163	260.234
969.538	265.237
972.913	269.448
976.288	267.8
979.663	274.595
983.037	277.717
986.412	275.525
989.787	280.588
993.162	280.687
996.537	283.663
999.911	283.863
1003.29	284.869
1006.66	281.015
1010.04	288.312
1013.41	287.376
1016.79	283.085
1020.16	283.711
1023.53	284.563
1026.91	282.907
1030.29	278.168
1033.66	271.979
1037.03	273.498
1040.41	267.006
1043.78	260.491
1047.16	253.814
1050.53	250.058
1053.91	242.535
1057.28	230.306
1060.66	227.142
1064.03	216.564
1067.41	208.373
1070.78	201.864
1074.16	191.997
1077.53	184.52
1080.91	176.29
1084.28	171.027
1087.66	158.173
1091.03	154.457
1094.41	150.472
1097.78	142.887
1101.16	130.394
1104.53	131.23
1107.91	128.008
1111.28	124.34
1114.65	116.11
1118.03	114.5
1121.4	110.45
1124.78	109.647
1128.15	108.686
1131.53	104.455
1134.9	103.394
1138.28	99.4116
1141.65	97.8793
1145.03	93.7349
1148.4	98.728
1151.78	91.6095
1155.15	89.089
1158.53	89.4476
1161.9	90.8324
1165.28	88.2599
1168.65	87.6606
1172.03	91.4729
1175.4	87.0655
1178.78	84.3113
1182.15	84.849
1185.53	85.707
1188.9	82.5804
1192.28	82.9012
1195.65	79.2513
1199.03	79.2298
1202.4	81.0927
1205.78	76.4861
1209.15	81.701
1212.53	77.5288
1215.9	75.3479
1219.28	76.245
1222.65	73.6281
1226.02	72.9652
1229.4	77.6105
1232.77	75.9112
1236.15	77.8809
1239.52	72.9685
1242.9	74.8903
1246.27	75.1417
1249.65	76.5594
1253.02	75.0832
1256.4	77.0517
1259.77	73.2197
1263.15	75.8115
1266.52	76.7526
1269.9	76.1613
1273.27	74.7909
1276.65	75.102
1280.02	73.7295
1283.4	76.4549
