Measurement: Raman, 532 nm, unoriented, Raman Data Processed
Mineral: Glass-(Dy)
Rruff sample: R110082
Locality: Synthetic
Source: Elizabeth Cairns, University of Edinburgh
Description: Colorless glass fragment
Measured chemistry: CaO 19.21%, Dy_2_O_3_ 21.30%, Al_2_O_3_ 11.63%, SiO_2_ 47.87%, Ca_14_Dy_5_Al_9_Si_33_O_100_
Raman shift (cm-1)	intensity
196.076	1452.76
198.968	1466.46
201.861	1476.56
204.754	1477.3
207.647	1478.38
210.539	1460.97
213.432	1452.23
216.325	1455.27
219.217	1453.48
222.11	1451.64
225.003	1444.22
227.895	1447.85
230.788	1432.57
233.681	1438.86
236.573	1436.87
239.466	1424.93
242.359	1421.37
245.252	1417.95
248.144	1420.85
251.037	1410.35
253.93	1404.48
256.822	1410.63
259.715	1407.24
262.608	1404.6
265.5	1406.43
268.393	1404.77
271.286	1405.12
274.179	1409.9
277.071	1409.8
279.964	1402.87
282.857	1394.5
285.75	1399.76
288.642	1394.9
291.535	1392.17
294.428	1402.86
297.32	1403.34
300.213	1403.76
303.106	1417.7
305.998	1413.09
308.891	1414.15
311.784	1417.57
314.676	1419.34
317.569	1418.87
320.462	1421.33
323.355	1423.34
326.247	1423.69
329.14	1428.5
332.033	1434.41
334.925	1438.22
337.818	1441.59
340.711	1445.69
343.603	1447.02
346.496	1451.23
349.389	1446.43
352.281	1445.17
355.174	1448.4
358.067	1461.31
360.96	1452.93
363.852	1453.32
366.745	1458.28
369.638	1459.17
372.53	1462.29
375.423	1453.57
378.316	1452.92
381.209	1446.73
384.101	1454.01
386.994	1457.21
389.887	1447.96
392.779	1455.85
395.672	1451.01
398.565	1450.24
401.457	1443.89
404.35	1454.17
407.243	1455.01
410.135	1445.51
413.028	1456.99
415.921	1455.02
418.814	1448.05
421.706	1453.42
424.599	1449.03
427.492	1460.35
430.384	1465.9
433.277	1454.55
436.17	1456.64
439.062	1464.83
441.955	1468.75
444.848	1460.35
447.741	1471.74
450.633	1464.33
453.526	1459.9
456.419	1463.78
459.311	1472.81
462.204	1479.06
465.097	1472.89
467.99	1471.55
470.882	1466.8
473.775	1456.37
476.668	1464.63
479.56	1462.15
482.453	1462.08
485.346	1462.21
488.238	1462.34
491.131	1448.98
494.024	1458.2
496.916	1451.59
499.809	1447.67
502.702	1440.08
505.595	1434.93
508.487	1435.7
511.38	1425.53
514.273	1414.89
517.165	1405.94
520.058	1395.94
522.951	1386.22
525.844	1378.52
528.736	1369.17
531.629	1346.5
534.522	1334.18
537.414	1321.02
540.307	1305.85
543.2	1290.33
546.092	1279.12
548.985	1268.95
551.878	1255.84
554.771	1247.36
557.663	1234.98
560.556	1226.61
563.449	1216.37
566.341	1211.66
569.234	1200.09
572.127	1192.42
575.019	1179.05
577.912	1174.91
580.805	1159.62
583.697	1143.47
586.59	1130.61
589.483	1113.3
592.376	1104.64
595.268	1091.43
598.161	1068.49
601.054	1051.21
603.946	1033.75
606.839	1022.71
609.732	1017.89
612.625	1005.29
615.517	994.237
618.41	986.112
621.303	980.351
624.195	961.911
627.088	962.964
629.981	943.1
632.873	950.54
635.766	943.523
638.659	935.439
641.552	927.95
644.444	923.328
647.337	914.96
650.23	905.846
653.122	911.608
656.015	901.91
658.908	897.04
661.8	885.36
664.693	873.295
667.586	861.684
670.479	853.602
673.371	843.001
676.264	840.743
679.157	815.22
682.049	818.775
684.942	791.999
687.835	789.227
690.727	777.478
693.62	761.797
696.513	758.89
699.405	739.724
702.298	723.391
705.191	712.775
708.084	704.861
710.976	699.989
713.869	683.88
716.762	672.103
719.654	660.99
722.547	647.918
725.44	637.365
728.332	639.754
731.225	619.29
734.118	610.685
737.011	604.72
739.903	594.995
742.796	592.795
745.689	578.212
748.581	572.973
751.474	559.609
754.367	550.365
757.26	543.717
760.152	539.426
763.045	529.439
765.938	517.306
768.83	510.916
771.723	505.284
774.616	495.172
777.508	484.858
780.401	464.693
783.294	471.012
786.187	455.125
789.079	440.886
791.972	433.603
794.865	421.087
797.757	409.533
800.65	402.293
803.543	390.101
806.435	379.016
809.328	374.552
812.221	362.25
815.114	357.876
818.006	349.778
820.899	343.956
823.792	337.967
826.684	331.423
829.577	325.763
832.47	331.034
835.362	332.686
838.255	335.462
841.148	341.611
844.04	344.692
846.933	357.078
849.826	365.623
852.719	375.844
855.611	390.669
858.504	407.662
861.397	422.262
864.289	442.348
867.182	442.201
870.075	460.766
872.967	475.959
875.86	498.361
878.753	504.779
881.646	525.686
884.538	535.294
887.431	550.313
890.324	575.855
893.216	585.503
896.109	604.906
899.002	621.416
901.894	637.267
904.787	656.516
907.68	671.406
910.573	685.16
913.465	688.991
916.358	712.321
919.251	720.008
922.143	737.222
925.036	753.345
927.929	768.389
930.822	768.66
933.714	781.465
936.607	789.564
939.5	797.017
942.392	812.086
945.285	813.999
948.178	837.054
951.07	836.348
953.963	847.437
956.856	849.304
959.749	857.182
962.641	860.345
965.534	879.041
968.427	876.215
971.319	880.774
974.212	881.225
977.105	888.305
979.997	901.085
982.89	896.98
985.783	897.327
988.676	904.227
991.568	909.766
994.461	908.454
997.354	905.678
1000.25	906.809
1003.14	899.514
1006.03	899.365
1008.92	900.864
1011.82	894.117
1014.71	886.349
1017.6	887.337
1020.5	887.61
1023.39	874.157
1026.28	868.764
1029.17	851.394
1032.07	848.461
1034.96	835.843
1037.85	820.861
1040.74	805.018
1043.64	776.991
1046.53	769.304
1049.42	751.678
1052.32	732.547
1055.21	709.52
1058.1	696.134
1060.99	668.494
1063.89	642.343
1066.78	616.503
1069.67	602.74
1072.56	576.099
1075.46	555.927
1078.35	535.453
1081.24	513.863
1084.13	500.276
1087.03	468.321
1089.92	450.351
1092.81	431.357
1095.7	406.399
1098.6	391.913
1101.49	373.001
1104.38	358.811
1107.28	336.877
1110.17	328.51
1113.06	306.077
1115.95	297.22
1118.85	283.17
1121.74	267.477
1124.63	251.133
1127.53	244.577
1130.42	238.151
1133.31	222.816
1136.2	221.672
1139.1	207.838
1141.99	200.549
1144.88	196.892
1147.77	185.036
1150.67	180.282
1153.56	175.752
1156.45	159.243
1159.35	151.867
1162.24	148.865
1165.13	143.01
1168.02	142.058
1170.92	138.601
1173.81	129.534
1176.7	127.463
1179.59	117.53
1182.49	117.516
1185.38	114.024
1188.27	101.459
1191.16	107.597
1194.06	106.134
1196.95	89.8362
1199.84	93.7154
1202.73	86.5274
1205.63	82.3347
1208.52	83.9432
1211.41	81.4545
1214.31	82.8879
1217.2	72.7785
1220.09	72.1533
1222.98	75.0175
1225.88	72.1946
1228.77	65.352
1231.66	61.9517
1234.56	66.7352
1237.45	62.9882
1240.34	59.0286
1243.23	56.8525
1246.13	67.5625
1249.02	53.8452
1251.91	62.0423
1254.8	61.8604
1257.7	57.909
1260.59	58.4616
1263.48	57.7146
1266.38	59.5646
1269.27	54.3737
1272.16	53.714
1275.05	58.0645
1277.95	51.8307
1280.84	50.9154
1283.73	53.0173
1286.62	58.2009
1289.52	56.4601
1292.41	62.7507
1295.3	51.4749
1298.19	56.3459
1301.09	53.3004
