Measurement: Raman, 514 nm, unoriented, Raman Data Processed
Mineral: Glauberite
Rruff sample: R050350
Ideal chemistry: Na_2_Ca(SO_4_)_2_
Locality: Soda Lake, San Luis Obispo County, California, USA
Source: California Institute of Technology
Description: Colorless tabular crystal
Measured chemistry: Na_1.90_Ca_1.15_(S_.99_O_4_)_2_
Raman shift (cm-1)	intensity
103.124	0
107.3	12.078
111.473	14.841
115.644	13.272
119.813	97.037
123.981	168.774
128.146	216.085
132.309	146.976
136.47	116.087
140.63	146.196
144.787	221.93
148.942	291.786
153.096	364.66
157.247	260.686
161.396	125
165.544	64.432
169.689	97.042
173.833	119.567
177.974	175.513
182.114	244.946
186.251	247.055
190.387	171.997
194.52	151.521
198.652	93.092
202.782	131.025
206.909	106.186
211.035	99.156
215.159	24.048
219.281	23.081
223.4	11.836
227.518	35.244
231.634	70.207
235.748	47.705
239.86	25.98
243.97	39.747
248.079	15.722
252.185	6.184
256.289	30.56
260.391	29.985
264.492	16.595
268.59	9.389
272.687	54.236
276.781	69.65
280.874	67.37
284.964	132.28
289.053	6.315
293.14	23.433
297.225	13.602
301.308	37.8
305.389	4.99
309.468	63.211
313.545	34.596
317.62	53.559
321.693	30.703
325.765	23.169
329.834	38.914
333.902	33.945
337.967	29.823
342.031	8.674
346.093	3.819
350.153	2.65
354.21	1.904
358.267	42.192
362.321	78.603
366.373	79.262
370.423	8.785
374.471	9.4
378.518	63.633
382.563	9.846
386.605	77.456
390.646	67.869
394.685	24.239
398.722	51.566
402.757	72.806
406.79	80.955
410.821	74.419
414.851	108.251
418.878	114.001
422.904	62.567
426.927	120.227
430.949	94.465
434.969	137.456
438.987	262.171
443.003	390.371
447.018	660.592
451.03	1017.81
455.041	995.989
459.049	688.347
463.056	1059.48
467.061	2171.25
471.064	2645.33
475.065	1346.19
479.064	798.198
483.062	498.17
487.057	379.548
491.051	201.416
495.043	141.292
499.032	121.534
503.02	61.761
507.007	95.064
510.991	117.288
514.973	118.608
518.954	170.675
522.933	61.502
526.91	6.6
530.885	77.749
534.858	41.707
538.829	102.231
542.799	125.095
546.766	37.233
550.732	44.58
554.696	38.709
558.658	56.289
562.618	115.581
566.576	65.877
570.533	63.692
574.488	63.894
578.44	3.966
582.391	11.503
586.341	63.475
590.288	117.576
594.233	0.706
598.177	66.161
602.119	80.167
606.059	136.941
609.997	285.999
613.933	614.817
617.868	991.235
621.801	935.238
625.731	937.897
629.66	862.314
633.588	1346.93
637.513	1376.28
641.437	1909.01
645.358	2196.08
649.278	852.053
653.196	377.863
657.113	132.863
661.027	109.379
664.94	88.493
668.851	73.343
672.76	89.94
676.667	35.407
680.572	71.63
684.476	100.079
688.378	63.829
692.278	88.862
696.176	54.452
700.072	47.362
703.967	123.841
707.86	57.083
711.751	23.837
715.64	68.643
719.527	106.054
723.413	29.406
727.297	63.989
731.179	110.901
735.059	22.188
738.937	113.834
742.814	43.64
746.689	78.274
750.562	56.265
754.433	108.81
758.303	102.049
762.17	16.114
766.036	42.759
769.901	141.614
773.763	31.377
777.624	76.017
781.482	105.547
785.339	22.992
789.195	68.476
793.048	94.742
796.9	0.101
800.75	107.937
804.598	100.891
808.445	65.771
812.289	54.575
816.132	53.289
819.973	70.873
823.813	86.17
827.65	149.541
831.486	87.538
835.32	110.653
839.152	99.492
842.983	16.216
846.812	63.728
850.639	70.402
854.464	18.75
858.288	57.41
862.11	84.884
865.93	3.543
869.748	97.659
873.564	85.072
877.379	71.063
881.192	56.805
885.004	47.998
888.813	84.777
892.621	97.657
896.427	85.495
900.232	38.457
904.034	38.077
907.835	43.32
911.634	128.206
915.432	145.719
919.227	164.355
923.021	54.431
926.813	95.178
930.604	67.673
934.393	61.258
938.18	203.768
941.965	136.433
945.749	128.15
949.53	100.596
953.311	154.179
957.089	150.056
960.866	215.056
964.641	229.819
968.414	220.068
972.185	173.055
975.955	430.106
979.723	716.114
983.49	1116.05
987.254	1275.56
991.017	2210.59
994.779	5652.98
998.538	24458.2
1002.3	46768.4
1006.05	13645.6
1009.81	3824.07
1013.56	1669.57
1017.31	996.708
1021.06	619.184
1024.81	448.873
1028.55	401.614
1032.3	280.41
1036.04	225.444
1039.78	220.597
1043.52	180.679
1047.26	73.559
1050.99	73.125
1054.73	129.941
1058.46	96.852
1062.19	56.527
1065.92	46.328
1069.65	20.113
1073.37	112.697
1077.1	19.463
1080.82	117.062
1084.54	134.973
1088.26	92.535
1091.97	46.364
1095.69	264.103
1099.4	622.006
1103.12	1405.87
1106.83	1796.52
1110.54	974.67
1114.24	431.925
1117.95	229.173
1121.65	129.263
1125.35	228.429
1129.06	200.554
1132.75	725.085
1136.45	2660.47
1140.15	5433.52
1143.84	2152.97
1147.53	878.299
1151.22	631.782
1154.91	913.366
1158.6	805.017
1162.28	505.445
1165.97	911.017
1169.65	1326.63
1173.33	665.743
1177.01	242.908
1180.69	131.148
1184.36	73.661
1188.04	105.633
1191.71	56.387
1195.38	22.37
1199.05	7.287
1202.71	42.005
1206.38	60.028
1210.04	36.603
1213.71	150.815
1217.37	45.089
1221.03	24.873
1224.68	77.551
1228.34	61.421
1231.99	64.11
1235.65	78.153
1239.3	46.21
1242.95	70.002
1246.59	69.537
1250.24	45.818
1253.88	53.153
1257.53	24.92
1261.17	20.688
1264.81	46.055
1268.45	28.551
1272.08	11.501
1275.72	83.012
1279.35	93.716
1282.98	75.115
1286.61	104.569
1290.24	72.181
1293.87	15.44
1297.49	4.006
1301.11	24.151
1304.73	40.055
1308.36	154.682
1311.97	68.006
1315.59	125.014
1319.2	24.718
1322.82	21.856
1326.43	145.255
1330.04	37.955
1333.65	6.787
1337.26	12.893
1340.86	195.023
1344.47	26.128
1348.07	157.015
1351.67	117.437
1355.27	167.879
1358.87	228.938
1362.46	90.369
1366.06	138.236
1369.65	198.259
1373.24	92.974
1376.83	140.079
1380.42	222.04
1384	273.324
1387.59	158.993
1391.17	231.385
1394.75	221.008
1398.33	115.952
1401.91	179.871
1405.49	177.614
1409.06	198
1412.64	129.482
1416.21	142.801
1419.78	172.466
1423.35	80.941
1426.91	179.615
1430.48	45.369
1434.05	155.81
1437.61	194.397
1441.17	159.374
1444.73	218.683
1448.29	168.283
1451.84	246.265
1455.4	230.389
1458.95	215.602
1462.5	145.308
1466.05	80.179
1469.6	196.334
1473.15	88.898
1476.69	50.327
1480.24	184.023
1483.78	121.701
1487.32	73.445
1490.86	48.403
1494.39	113.73
1497.93	9.033
1501.46	156.122
1505	94.199
1508.53	61.635
1512.06	96.6
1515.59	54.587
1519.11	76.481
