Measurement: Raman, 514 nm, unoriented, Raman Data Processed
Mineral: Glaucophane
Rruff sample: R050333
Ideal chemistry: [box]Na_2_(Mg_3_Al_2_)Si_8_O_22_(OH)_2_
Locality: Cazadero, Sonoma County, California, USA
Source: California Institute of Technology
Description: Blackish-blue fibrous aggregate
Measured chemistry: [box](Na_1.96_Ca_0.02_[box]_0.02_)_Σ=2_(Mg_1.89_Fe^2+^_1.08_Mn_0.03_)_Σ=3_(Al_1.52_Fe^3+^_0.48_)_Σ=2_Si_8.00_O_22_(OH)_2_
Raman shift (cm-1)	intensity
96.161	0
100.34	74.768
104.516	634.907
108.691	1186.83
112.864	2171.88
117.034	3754.48
121.203	2877.32
125.369	699.036
129.534	280.222
133.696	119.177
137.857	371.009
142.016	166.149
146.172	222.856
150.327	236.826
154.48	708.94
158.63	703.838
162.779	1116.21
166.926	1974.83
171.07	4770.5
175.213	6845.06
179.354	5074.37
183.493	2342.25
187.63	1521.81
191.765	1338.75
195.898	1646.98
200.029	2707.81
204.158	4458.25
208.285	5422.22
212.41	3926.23
216.533	2651.29
220.654	1831.39
224.773	1348.55
228.891	972.758
233.006	710.007
237.119	419.29
241.231	295.592
245.34	514.904
249.448	959.216
253.553	1145.52
257.657	1000.79
261.758	676.413
265.858	352.508
269.956	160.344
274.052	162.548
278.146	176.885
282.237	233.755
286.327	300.044
290.416	396.404
294.502	743.204
298.586	1141.9
302.668	1545.23
306.749	1508.31
310.827	879.629
314.903	658.564
318.978	545.806
323.051	758.16
327.121	1308.6
331.19	2193.1
335.257	2536.65
339.322	2165.23
343.385	1630.84
347.446	1218.44
351.505	819.046
355.563	631.626
359.618	575.181
363.672	751.17
367.723	1074.14
371.773	1671.5
375.821	3089.78
379.866	5320.96
383.91	6668.05
387.952	5508.03
391.992	3569.92
396.031	2501.7
400.067	2120.37
404.101	2043.92
408.134	2074.36
412.165	1693.69
416.193	998.884
420.22	365.509
424.245	120.907
428.268	35.23
432.289	115.807
436.309	36.017
440.326	221.42
444.342	323.715
448.355	108.91
452.367	35.974
456.377	76.26
460.385	77.013
464.391	60.666
468.395	58.054
472.398	15.613
476.398	312.674
480.397	626.729
484.394	1144.17
488.389	1385.43
492.382	989.525
496.373	558.56
500.362	370.55
504.349	384.445
508.335	462.281
512.319	648.13
516.3	760.94
520.28	1115.65
524.259	1154.23
528.235	1396.66
532.209	1986.18
536.182	1852.89
540.152	1842.7
544.121	2107.16
548.088	2396.71
552.053	2661.89
556.017	2639.86
559.978	2271.63
563.938	1776.68
567.895	1275.01
571.851	1040.13
575.805	1022.04
579.758	898.732
583.708	943.21
587.657	771.053
591.603	724.801
595.548	772.305
599.491	863.461
603.432	977.934
607.372	935.051
611.309	613.841
615.245	300.942
619.179	20.245
623.111	2.636
627.041	84.169
630.97	14.967
634.896	112.843
638.821	137.902
642.744	368.827
646.665	557.628
650.584	1161.99
654.502	1857.81
658.418	3239.37
662.331	6105.5
666.244	9298.4
670.154	9985.38
674.062	8221.19
677.969	7243.06
681.874	6390.65
685.777	5298.05
689.678	3486.3
693.577	2017.41
697.475	1360.41
701.371	932.239
705.265	582.935
709.157	354.499
713.047	296.935
716.936	129.246
720.823	265.108
724.708	234.959
728.591	335.313
732.472	466.259
736.352	705.986
740.23	1078.61
744.106	991.207
747.98	645.974
751.853	613.866
755.723	749.784
759.592	391.624
763.459	526.388
767.325	837.103
771.188	1154.91
775.05	1487.3
778.91	1202.38
782.768	829.834
786.625	760.414
790.479	528.126
794.332	195.366
798.183	84.976
802.033	275.569
805.88	106.952
809.726	16.815
813.57	84.901
817.413	20.236
821.253	65.877
825.092	105.714
828.929	11.755
832.764	113.69
836.598	13.656
840.429	44.011
844.259	48.393
848.088	57.807
851.914	145.235
855.739	244.69
859.562	145.19
863.383	222.736
867.203	341.334
871.02	450.946
874.836	619.191
878.65	813.966
882.463	880.811
886.274	1113.73
890.083	1061.72
893.89	1095.79
897.695	1010.95
901.499	915.249
905.301	762.647
909.102	690.187
912.9	768.85
916.697	628.488
920.492	531.687
924.285	631.924
928.077	912.346
931.867	641.966
935.655	645.928
939.442	568.121
943.226	630.448
947.009	641.903
950.791	750.46
954.57	718.116
958.348	880.217
962.124	1023.62
965.899	1256.43
969.671	1544.91
973.442	1956.78
977.211	2419.89
980.979	2899.05
984.745	2636.95
988.509	2544.6
992.271	2352.71
996.032	2110.97
999.791	1846.42
1003.55	1646
1007.3	1490.74
1011.06	1305.62
1014.81	1033.65
1018.56	1028.8
1022.31	1080.07
1026.06	1065.58
1029.8	1167.15
1033.55	1156.3
1037.29	1368.04
1041.03	2040.07
1044.77	2375.82
1048.5	2288.41
1052.24	1983.66
1055.97	1680.53
1059.7	1466.06
1063.43	1258.18
1067.16	991.27
1070.89	850.057
1074.61	890.647
1078.34	971.524
1082.06	1049.39
1085.78	934.3
1089.5	979.514
1093.21	919.231
1096.93	945.707
1100.64	1461.52
1104.35	1545.02
1108.06	1333.67
1111.77	903.047
1115.48	732.611
1119.18	681.47
1122.89	640.255
1126.59	526.375
1130.29	493.855
1133.99	363.773
1137.68	329.576
1141.38	352.518
1145.07	312.621
1148.76	344.023
1152.45	398.893
1156.14	198.893
1159.83	144.999
1163.51	112.054
1167.19	69.479
1170.88	60.67
1174.56	49.454
1178.23	8.958
1181.91	90.277
1185.59	28.419
1189.26	3.718
1192.93	62.951
1196.6	81.653
1200.27	59.211
1203.94	113.877
1207.6	29.692
1211.27	22.084
1214.93	32.947
1218.59	76.547
1222.25	83.775
1225.9	25.528
1229.56	6.327
1233.21	76.729
1236.86	37.411
1240.51	95.593
1244.16	66.277
1247.81	28.636
1251.45	12.271
1255.1	11.619
1258.74	135.002
1262.38	131.056
1266.02	3.863
1269.66	69.892
1273.29	44.084
1276.93	85.001
1280.56	28.639
1284.19	13.997
1287.82	24.063
1291.45	3.007
1295.07	58.286
1298.7	52.468
1302.32	47.391
1305.94	75.042
1309.56	196.725
1313.18	117.542
1316.8	116.399
1320.41	112.867
1324.02	146.792
1327.63	81.691
1331.24	70.429
1334.85	147.7
1338.46	124.461
1342.06	123.207
1345.67	184.821
1349.27	168.294
1352.87	151.025
1356.47	106.205
1360.07	158.324
1363.66	97.994
1367.25	138.083
1370.85	437.459
1374.44	123.071
1378.03	144.462
1381.61	52.267
1385.2	91.895
1388.78	186.548
1392.37	91.742
1395.95	0.764
1399.53	138.622
1403.1	181.312
1406.68	142.455
1410.26	193.39
1413.83	122.151
1417.4	250.651
1420.97	136.086
1424.54	191.759
1428.1	157.287
1431.67	162.096
1435.23	193.92
1438.8	154.458
1442.36	145.508
1445.91	185.912
1449.47	125.345
1453.03	173.129
1456.58	193.825
1460.13	175.005
1463.68	94.416
1467.23	207.235
1470.78	142.393
1474.33	174.565
1477.87	76.895
1481.42	172.333
1484.96	279.808
1488.5	208.579
1492.04	140.854
1495.57	115.817
1499.11	83.536
1502.64	6.961
1506.17	127.597
1509.71	32.839
1513.23	61.612
1516.76	74.809
