Measurement: Raman, 785 nm, unoriented, Raman Data Processed
Mineral: Glauberite
Rruff sample: R070322
Ideal chemistry: Na_2_Ca(SO_4_)_2_
Locality: Salton Sea, Imperial County, California, USA
Source: James Shigley
Description: Colorless tabular crystal
Raman shift (cm-1)	intensity
180.32	0
183.212	8.73755
186.105	10.9341
188.998	13.4585
191.891	86.7339
194.783	90.25
197.676	64.0259
200.569	89.0327
203.461	130.085
206.354	60.5005
209.247	38.1162
212.139	51.8101
215.032	43.7222
217.925	34.8125
220.818	41.0503
223.71	109.859
226.603	84.396
229.496	70.0698
232.388	69.9746
235.281	10.1987
238.174	62.5049
241.066	98.6836
243.959	97.5688
246.852	67.2104
249.745	77.6807
252.637	74.894
255.53	65.9736
258.423	69.9434
261.315	90.8613
264.208	95.7642
267.101	110.386
269.993	119.826
272.886	74.9512
275.779	79.7656
278.672	37.4614
281.564	38.3184
284.457	65.3667
287.35	51.8613
290.242	61.6895
293.135	38.3374
296.028	72.8418
298.921	19.3574
301.813	11.6235
304.706	10.7998
307.599	37.9663
310.491	95.5054
313.384	43.4341
316.277	28.0552
319.169	10.8774
322.062	27.2305
324.955	0.282715
327.847	45.0684
330.74	19.5815
333.633	53.6548
336.526	19.1631
339.418	18.2417
342.311	35.9468
345.204	50.7705
348.096	31.4106
350.989	65.9458
353.882	47.9395
356.774	26.3496
359.667	47.4746
362.56	76.3306
365.452	9.6543
368.345	31.1362
371.238	54.3071
374.131	36.188
377.023	91.2007
379.916	4.09326
382.809	40.1133
385.701	6.68115
388.594	39.1704
391.487	3.99463
394.38	62.5034
397.272	51.3706
400.165	52.2456
403.058	51.4824
405.95	9.05078
408.843	10.3604
411.736	8.99316
414.628	7.30908
417.521	24.3418
420.414	45.6001
423.307	68.4121
426.199	36.8057
429.092	21.9346
431.985	95.917
434.877	81.8603
437.77	170.178
440.663	262.214
443.555	391.324
446.448	460.428
449.341	616.531
452.234	842.375
455.126	705.624
458.019	467.5
460.912	469.858
463.804	633.27
466.697	981.073
469.59	1432.54
472.483	1202.68
475.375	608.645
478.268	351.431
481.161	212.409
484.053	229.729
486.946	154.925
489.839	100.371
492.731	89.1851
495.624	95.7061
498.517	46.2212
501.409	45.0283
504.302	37.8247
507.195	60.5601
510.088	13.7012
512.98	15.6284
515.873	28.3638
518.766	29.9946
521.658	5.86279
524.551	43.4214
527.444	11.1558
530.337	37.3047
533.229	72.1846
536.122	22.0161
539.015	18.7783
541.907	42.6016
544.8	34.2441
547.693	32.3589
550.585	28.7432
553.478	34.2402
556.371	13.1543
559.263	51.314
562.156	69.6885
565.049	70.1421
567.942	52.5952
570.834	32.2651
573.727	21.8364
576.62	53.1352
579.512	41.3682
582.405	37.9258
585.298	51.7725
588.19	3.19873
591.083	32.5879
593.976	5.81738
596.869	1.14648
599.761	57.459
602.654	50.1934
605.547	53.085
608.439	63.6548
611.332	90.6863
614.225	212.823
617.117	281.349
620.01	391.402
622.903	508.793
625.795	452.619
628.688	349.695
631.581	364.115
634.474	581.497
637.366	505.921
640.259	592.402
643.152	902.338
646.044	762.267
648.937	655.786
651.83	547.798
654.722	179.944
657.615	55.761
660.508	100.566
663.401	70.4783
666.293	20.3386
669.186	12.3503
672.079	40.437
674.971	35.1987
677.864	30.0032
680.757	49.3218
683.649	36.3618
686.542	22.0591
689.435	20.4912
692.328	3.76929
695.22	5.56421
698.113	44.2664
701.006	13.0176
703.898	52.0481
706.791	29.2752
709.684	14.7297
712.577	52.363
715.469	18.051
718.362	56.7097
721.255	29.2168
724.147	3.45093
727.04	18.313
729.933	62.0332
732.825	20.8098
735.718	30.8555
738.611	28.9641
741.504	43.8543
744.396	48.6355
747.289	43.5037
750.182	39.4734
753.074	59.0286
755.967	62.3652
758.86	50.1699
761.752	49.3169
764.645	25.967
767.538	13.2515
770.431	10.8728
773.323	40.2573
776.216	24.9573
779.109	26.6111
782.001	25.0435
784.894	35.3272
787.787	40.6809
790.679	31.9668
793.572	30.9944
796.465	54.0413
799.357	5.44409
802.25	0.173584
805.143	11.1797
808.036	31.4097
810.928	33.0403
813.821	24.6531
816.714	11.6946
819.606	51.196
822.499	25.2224
825.392	13.8767
828.284	40.009
831.177	82.7527
834.07	61.3857
836.963	38.8203
839.855	60.2627
842.748	49.1121
845.641	24.2893
848.533	53.958
851.426	11.2698
854.319	35.5078
857.212	36.9949
860.104	43.196
862.997	59.6296
865.89	58.2651
868.782	25.3347
871.675	64.3596
874.568	38.394
877.46	24.4299
880.353	4.02417
883.246	15.8933
886.139	85.8201
889.031	47.7874
891.924	43.9145
894.817	13.5195
897.709	31.2222
900.602	35.2808
903.495	46.3315
906.388	57.0537
909.28	14.7234
912.173	47.7036
915.066	47.1475
917.958	30.9695
920.851	53.7993
923.744	43.8948
926.636	3.69873
929.529	28.751
932.422	16.1335
935.314	9.80102
938.207	8.67554
941.1	10.6704
943.993	24.905
946.885	12.3223
949.778	46.4158
952.671	8.6416
955.563	20.9253
958.456	28.7463
961.349	16.5354
964.241	75.5801
967.134	39.4656
970.027	105.919
972.92	112.338
975.812	50.7393
978.705	148.461
981.598	181.638
984.49	320.255
987.383	445.511
990.276	957.121
993.168	2118.02
996.061	4035.18
998.954	8816.85
1001.85	11555.8
1004.74	4216.94
1007.63	1245.2
1010.52	578.032
1013.42	315.64
1016.31	231.923
1019.2	203.945
1022.1	141.858
1024.99	140.267
1027.88	117.372
1030.77	54.2893
1033.67	89.0481
1036.56	48.8176
1039.45	38.959
1042.34	29.9714
1045.24	63.3428
1048.13	45.5915
1051.02	39.1982
1053.91	15.404
1056.81	46.0442
1059.7	35.6816
1062.59	12.2617
1065.49	44.1301
1068.38	35.2214
1071.27	5.70337
1074.16	5.47144
1077.06	7.68701
1079.95	8.87402
1082.84	0.022705
1085.73	45.968
1088.63	13.5847
1091.52	23.7654
1094.41	10.2707
1097.31	39.4582
1100.2	73.8919
1103.09	140.695
1105.98	101.269
1108.88	56.2871
1111.77	34.9316
1114.66	6.26489
1117.56	55.469
1120.45	32.1172
1123.34	20.814
1126.23	105.952
1129.12	136.433
1132.02	241.843
1134.91	513.72
1137.8	897.998
1140.7	787.54
1143.59	400.47
1146.48	255.421
1149.37	379.973
1152.27	473.573
1155.16	1079.83
1158.05	471.592
1160.94	323.01
1163.84	360.238
1166.73	466.73
1169.62	501.136
1172.52	326.728
1175.41	222.875
1178.3	173.406
1181.19	161.62
1184.09	235.542
1186.98	233.039
1189.87	231.347
1192.77	250.782
1195.66	213.68
1198.55	180.171
1201.44	146.55
1204.34	134.3
1207.23	97.2602
1210.12	37.4512
1213.01	63.8743
1215.91	21.3865
1218.8	7.52441
