Measurement: Raman, 532 nm, unoriented, Raman Data Processed
Mineral: Glaucocerinite
Rruff sample: R060831
Ideal chemistry: Zn_1-x_Al_x_(SO_4_)_x/2_(OH)_2_nH_2_O
Locality: Laurion, Greece
Source: Michael Scott
Description: Light blue botryoidal crusts
Raman shift (cm-1)	intensity
147.075	0
149.968	106.4
152.861	26.1689
155.753	14.9258
158.646	231.658
161.539	494.029
164.431	619.744
167.324	654.013
170.217	549.876
173.109	536.238
176.002	668.036
178.895	752.572
181.788	883.138
184.68	951.676
187.573	964.312
190.466	1145.76
193.358	1210.4
196.251	1130.01
199.144	936.898
202.036	839.649
204.929	732.219
207.822	659.903
210.714	492.495
213.607	353.16
216.5	245.046
219.393	263.068
222.285	237.869
225.178	220.936
228.071	183.511
230.963	230.524
233.856	238.178
236.749	253.444
239.642	233.658
242.534	256.772
245.427	347.011
248.32	358.417
251.212	469.227
254.105	369.391
256.998	390.955
259.89	448.334
262.783	485.661
265.676	408.319
268.568	504.253
271.461	350.842
274.354	183.906
277.247	202.942
280.139	164.115
283.032	119.295
285.925	206.251
288.817	121.836
291.71	217.545
294.603	318.726
297.495	350.612
300.388	569.343
303.281	765.654
306.174	741.875
309.066	484.442
311.959	270.448
314.852	151.779
317.744	0.357422
320.637	90.2481
323.53	31.7725
326.422	45.2217
329.315	46.9121
332.208	1.71777
335.101	100.836
337.993	31.0527
340.886	60.9805
343.779	52.2324
346.671	138.996
349.564	244.524
352.457	235.984
355.349	302.797
358.242	255.525
361.135	265.445
364.027	198.338
366.92	189.123
369.813	256.406
372.706	187.062
375.598	240.373
378.491	108.24
381.384	109.002
384.276	20.168
387.169	171.232
390.062	105.709
392.954	9.61328
395.847	63.6191
398.74	46.9785
401.633	12.625
404.525	4.28711
407.418	79.1191
410.311	89.3418
413.203	100.072
416.096	186.461
418.989	315.764
421.881	464.975
424.774	628.225
427.667	771.559
430.56	1005.21
433.452	1236.26
436.345	1507.58
439.238	1566.01
442.13	1727.67
445.023	1834.26
447.916	2003.88
450.808	2076.79
453.701	2268.97
456.594	2359.86
459.486	2276.04
462.379	2219.53
465.272	2091.81
468.165	1870.7
471.057	1805.22
473.95	1565.71
476.843	1364.49
479.735	1199.37
482.628	1223.87
485.521	1265.78
488.413	1235.86
491.306	1170.15
494.199	1117.5
497.092	1042.57
499.984	969.086
502.877	954.106
505.77	771.391
508.662	554.129
511.555	350.744
514.448	152.963
517.341	35.0957
520.233	8.97266
523.126	101.008
526.019	62.6738
528.911	3.63672
531.804	301.996
534.697	173.961
537.589	312.027
540.482	604.654
543.375	978.912
546.268	1159.81
549.16	1285.44
552.053	1366.36
554.946	1344.18
557.838	1377.57
560.731	1363.79
563.624	1416.77
566.516	1569.48
569.409	1425.76
572.302	1252.62
575.194	1051.59
578.087	843.231
580.98	629.572
583.872	368
586.765	278.734
589.658	245.6
592.551	144.685
595.443	207.656
598.336	255.279
601.229	411.65
604.121	693.297
607.014	904.906
609.907	1039.67
612.799	1142.56
615.692	1138.69
618.585	1069.37
621.477	988.045
624.37	943.918
627.263	719.269
630.156	602.344
633.048	267.6
635.941	209.867
638.834	140.6
641.726	38.1934
644.619	22.1621
647.512	65.2051
650.404	11.2207
653.297	89.1367
656.19	19.793
659.083	18.0234
661.975	34.3242
664.868	47.9297
667.761	101.918
670.653	11.3438
673.546	151.416
676.439	38.7871
679.332	115.244
682.224	142.272
685.117	283.648
688.01	248.947
690.902	166.65
693.795	319.525
696.688	322.609
699.58	304.578
702.473	259.451
705.366	292.92
708.259	265.312
711.151	368.139
714.044	264.981
716.937	369.033
719.829	322.801
722.722	322.484
725.615	353.627
728.507	389.207
731.4	314.31
734.293	228.197
737.185	228.217
740.078	153.006
742.971	248.074
745.864	180.449
748.756	423.244
751.649	139.041
754.542	102.154
757.434	125.826
760.327	76.084
763.22	0.349609
766.112	115.9
769.005	141.758
771.898	246.375
774.79	226.26
777.683	116.32
780.576	90.7422
783.469	53.4941
786.361	195.144
789.254	181.725
792.147	136.719
795.039	194.609
797.932	230.393
800.825	256.664
803.717	217.81
806.61	129.883
809.503	112.363
812.396	18.7871
815.288	139.529
818.181	38.3867
821.074	37.6836
823.966	55.2305
826.859	109.309
829.752	155.238
832.644	119.824
835.537	79.541
838.43	2.19727
841.323	159.799
844.215	57.9473
847.108	87.0508
850.001	62.6191
852.893	12.7285
855.786	65.6406
858.679	74.2148
861.571	158.109
864.464	82.9492
867.357	345.496
870.25	36.2715
873.142	3.04297
876.035	46.4434
878.928	24.7285
881.82	78.375
884.713	85.7695
887.606	63.3223
890.498	46.3398
893.391	237.598
896.284	262.891
899.177	151.603
902.069	57.0078
904.962	10.4082
907.855	19.8926
910.747	3.17383
913.64	16.3301
916.533	21.3125
919.425	99.0234
922.318	65.2715
925.211	183.44
928.104	162.644
930.996	166.424
933.889	249.053
936.782	204.514
939.674	391.225
942.567	353.289
945.46	275.348
948.352	479.031
951.245	729.789
954.138	1212.41
957.03	1554.44
959.923	2233.7
962.816	3496.39
965.709	5708.38
968.601	8804.74
971.494	13427.8
974.387	19372.8
977.279	25025.3
980.172	27438.8
983.065	24291.5
985.957	17379.3
988.85	10788.8
991.743	6468.09
994.635	3584.97
997.528	2190.97
1000.42	1454.98
1003.31	969.266
1006.21	612.045
1009.1	405.027
1011.99	239.246
1014.88	218.848
1017.78	97.6504
1020.67	83.125
1023.56	20.0234
1026.45	45.4316
1029.35	52.9805
1032.24	35.0742
1035.13	27.9414
1038.03	37.3027
1040.92	2.20703
1043.81	40.8027
1046.7	54.6758
1049.6	32.5215
1052.49	4.97852
1055.38	61.0195
1058.28	121.012
1061.17	183.723
1064.06	82.1797
1066.95	171.029
1069.85	59.9609
1072.74	242.545
1075.63	394.106
1078.52	436.658
1081.42	638.434
1084.31	988.309
1087.2	1481.32
1090.09	1865.53
1092.99	1972.86
1095.88	1677.99
1098.77	1127.93
1101.66	956.477
1104.56	787.594
1107.45	832.133
1110.34	852.033
1113.24	640.746
1116.13	663.676
1119.02	744.606
1121.91	623.646
1124.81	630.566
1127.7	972.35
1130.59	932.848
1133.48	910.375
1136.38	835.262
1139.27	785.828
1142.16	768.231
1145.06	703.305
1147.95	549.857
1150.84	723.656
1153.73	668.191
1156.63	603.5
1159.52	616.654
1162.41	473.19
1165.31	328.611
1168.2	278.338
1171.09	215.281
1173.98	229.731
1176.88	253.9
1179.77	298.074
1182.66	290.791
1185.55	166.205
1188.45	46.8809
1191.34	36.1113
1194.23	67.5449
1197.12	2.47852
1200.02	1.74609
1202.91	9.75
1205.8	51.1191
1208.69	98.1426
1211.59	133.15
1214.48	190.381
1217.37	153.447
1220.27	171.016
1223.16	150.705
1226.05	108.09
1228.94	180.406
1231.84	172.285
1234.73	237.262
1237.62	185.492
1240.52	268.762
1243.41	192.889
1246.3	246.887
1249.19	338.365
1252.09	251.928
1254.98	202.279
1257.87	168.273
1260.76	221.867
1263.66	32.373
1266.55	9.04688
1269.44	292.596
1272.33	344.742
1275.23	350.668
1278.12	118.406
1281.01	138.496
1283.9	205.266
1286.8	135.117
1289.69	65.1113
