Measurement: Raman, 780 nm, unoriented, Raman Data Processed
Mineral: Glauberite
Rruff sample: R050350
Ideal chemistry: Na_2_Ca(SO_4_)_2_
Locality: Soda Lake, San Luis Obispo County, California, USA
Source: California Institute of Technology
Description: Colorless tabular crystal
Measured chemistry: Na_1.90_Ca_1.15_(S_.99_O_4_)_2_
Raman shift (cm-1)	intensity
130.129	0
133.021	5.0399
135.914	0.2146
138.807	4.56264
141.699	23.303
144.592	48.0519
147.485	76.8631
150.377	115.5
153.27	166.235
156.163	161.399
159.055	86.2283
161.948	30.6949
164.841	14.5147
167.734	12.7104
170.626	18.5577
173.519	30.3658
176.412	48.3282
179.304	66.8111
182.197	82.2371
185.09	83.0239
187.982	73.9642
190.875	49.7599
193.768	39.3709
196.661	22.159
199.553	20.0486
202.446	16.4848
205.339	14.3173
208.231	12.2423
211.124	5.97029
214.017	2.42787
216.91	0.360306
219.802	1.50166
222.695	0.60817
225.588	0.573563
228.48	1.15825
231.373	0.75325
234.266	1.85442
237.158	2.29544
240.051	0.024216
242.944	2.59775
245.837	1.85384
248.729	1.53157
251.622	4.07902
254.515	8.1111
257.407	7.86986
260.3	10.5913
263.193	13.9255
266.085	13.5831
268.978	18.2754
271.871	20.2854
274.764	23.2288
277.656	28.7064
280.549	40.2852
283.442	32.7726
286.334	25.6732
289.227	17.9497
292.12	11.2853
295.012	9.28436
297.905	5.92929
300.798	4.04906
303.69	7.96753
306.583	2.79187
309.476	2.72765
312.369	2.97554
315.261	4.31142
318.154	6.17481
321.047	3.37427
323.939	5.92805
326.832	7.15459
329.725	7.41177
332.618	9.50719
335.51	9.23416
338.403	6.9789
341.296	8.22729
344.188	5.10423
347.081	4.9001
349.974	2.61002
352.866	8.08324
355.759	1.13956
358.652	1.1111
361.545	2.20236
364.437	0.277435
367.33	0.909882
370.223	0.959015
373.115	0.470734
376.008	0.384186
378.901	1.58647
381.793	1.49606
384.686	2.84529
387.579	0.279968
390.471	0.126297
393.364	1.42105
396.257	3.13016
399.15	4.65843
402.042	1.62077
404.935	4.83324
407.828	7.11902
410.72	6.73521
413.613	6.67818
416.506	6.80218
419.399	12.3575
422.291	13.8126
425.184	19.6223
428.077	26.4807
430.969	36.2662
433.862	54.5247
436.755	80.0397
439.647	115.582
442.54	166.948
445.433	216.708
448.325	269.16
451.218	404.078
454.111	492.967
457.004	342.423
459.896	300.132
462.789	378.788
465.682	562.914
468.574	901.794
471.467	1096.98
474.36	697.573
477.252	359.622
480.145	244.286
483.038	246.923
485.931	251.065
488.823	149.237
491.716	73.9014
494.609	42.3956
497.501	26.8679
500.394	18.2717
503.287	11.907
506.18	9.40685
509.072	4.63247
511.965	3.31604
514.857	2.26377
517.75	4.63399
520.643	0.835327
523.536	1.97063
526.428	0.085251
529.321	0.411446
532.214	1.94335
535.106	1.3325
537.999	5.176
540.892	1.16521
543.784	0.890083
546.677	1.50776
549.57	0.73291
552.463	1.62058
555.355	0.842911
558.248	1.87961
561.141	1.11676
564.033	2.18123
566.926	3.88216
569.819	4.32011
572.712	3.00588
575.604	6.75626
578.497	4.60275
581.39	6.49305
584.282	6.99419
587.175	9.82698
590.068	12.4693
592.96	12.6719
595.853	20.4227
598.746	31.0968
601.639	53.9243
604.531	77.254
607.424	104.526
610.317	154.583
613.209	237.612
616.102	412.284
618.995	569.651
621.888	421.694
624.78	411.875
627.673	318.49
630.566	311.906
633.458	450.294
636.351	576.676
639.244	453.974
642.136	669.684
645.029	905.609
647.922	381.407
650.814	156.95
653.707	65.2905
656.6	28.9947
659.493	14.6908
662.385	10.881
665.278	9.79498
668.171	5.28804
671.063	2.96568
673.956	1.3326
676.849	1.81977
679.741	1.88116
682.634	0.469269
685.527	1.18008
688.42	0.569893
691.312	0.56842
694.205	0.484077
697.098	0.930626
699.99	0.625664
702.883	1.00812
705.776	1.0855
708.668	0.505371
711.561	0.271416
714.454	2.98779
717.346	0.289543
720.239	1.54407
723.132	2.0061
726.025	0.181618
728.917	1.17693
731.81	2.14326
734.703	2.57629
737.595	1.95424
740.488	0.068581
743.381	2.54302
746.274	5.09335
749.166	0.889778
752.059	1.28465
754.952	0.906509
757.844	2.4071
760.737	0.5149
763.63	0.912598
766.522	1.24371
769.415	0.553177
772.308	1.93113
775.201	1.38454
778.093	2.28951
780.986	2.65198
783.879	1.82342
786.771	0.522011
789.664	1.59804
792.557	0.770721
795.449	0.723206
798.342	2.00519
801.235	3.4198
804.128	0.780922
807.02	3.45939
809.913	2.56691
812.806	2.71151
815.698	2.87837
818.591	4.34625
821.484	2.39923
824.376	2.28658
827.269	4.86564
830.162	5.06608
833.054	3.98908
835.947	2.60873
838.84	5.37978
841.733	5.77336
844.625	3.89994
847.518	3.12094
850.411	3.39146
853.303	2.50926
856.196	0.158821
859.089	0.396431
861.981	0.974625
864.874	2.02055
867.767	0.053024
870.66	15.0385
873.552	4.79753
876.445	1.43021
879.338	1.17268
882.23	1.86111
885.123	0.356827
888.016	2.75568
890.909	2.23045
893.801	3.16257
896.694	12.489
899.587	0.205315
902.479	4.02886
905.372	5.77006
908.265	1.23344
911.157	2.69538
914.05	0.512573
916.943	2.20144
919.836	0.194061
922.728	1.41093
925.621	0.876968
928.514	2.0499
931.406	0.627769
934.299	1.36434
937.192	1.15851
940.084	2.84386
942.977	4.24989
945.87	5.25656
948.763	7.80949
951.655	10.0171
954.548	9.80605
957.441	12.9521
960.333	14.0482
963.226	22.3608
966.119	29.3373
969.011	42.5146
971.904	56.2714
974.797	78.6149
977.689	111.724
980.582	183.083
983.475	293.758
986.368	542.852
989.26	1178.71
992.153	1713.95
995.046	2745.57
997.938	4945.73
1000.83	10246.5
1003.72	7863.22
1006.62	1989.56
1009.51	750.357
1012.4	379.334
1015.29	234.248
1018.19	158.412
1021.08	110.608
1023.97	80.8528
1026.87	61.3428
1029.76	46.5845
1032.65	36.5363
1035.54	26.4515
1038.44	17.6077
1041.33	13.8491
1044.22	12.3712
1047.11	8.72514
1050.01	4.72305
1052.9	2.97224
1055.79	0.503456
1058.68	0.990524
1061.58	1.31856
1064.47	1.20651
1067.36	2.20458
1070.26	1.46439
1073.15	0.249329
1076.04	1.81637
1078.93	4.29246
1081.83	8.55506
1084.72	9.0913
1087.61	27.0502
1090.51	47.9927
1093.4	86.5145
1096.29	138.352
1099.18	215.258
1102.08	339.863
1104.97	494.82
1107.86	436.259
1110.75	220.939
1113.65	105.053
1116.54	66.3585
1119.43	50.5831
1122.32	54.8842
1125.22	86.4852
1128.11	149.684
1131	229.027
1133.89	374.478
1136.79	665.392
1139.68	1043.46
1142.57	618.947
1145.47	252.57
1148.36	159.636
1151.25	170.695
1154.14	221.078
1157.04	223.615
1159.93	160.161
1162.82	146.239
1165.71	198.795
1168.61	295.95
1171.5	230.919
1174.39	94.1151
1177.29	40.5684
1180.18	19.7394
1183.07	11.4378
1185.96	4.51619
1188.86	1.924
1191.75	1.02174
1194.64	1.94879
1197.54	1.71814
1200.43	0.576706
1203.32	0.443466
1206.21	1.69572
1209.11	1.16701
1212	2.85532
1214.89	5.7617
1217.78	6.15994
1220.68	2.97775
1223.57	7.06372
1226.46	8.51631
1229.35	9.60677
1232.25	12.9263
1235.14	16.768
1238.03	15.5123
1240.92	17.5881
1243.82	13.3816
1246.71	9.92342
1249.6	13.1387
1252.5	12.8648
1255.39	12.2724
1258.28	17.1372
1261.17	15.6247
1264.07	16.548
1266.96	12.2617
1269.85	10.3771
1272.74	4.86587
1275.64	1.43228
1278.53	0.999512
