Measurement: Raman, 780 nm, unoriented, Raman Data Processed
Mineral: Glaucophane
Rruff sample: R050333
Ideal chemistry: [box]Na_2_(Mg_3_Al_2_)Si_8_O_22_(OH)_2_
Locality: Cazadero, Sonoma County, California, USA
Source: California Institute of Technology
Description: Blackish-blue fibrous aggregate
Measured chemistry: [box](Na_1.96_Ca_0.02_[box]_0.02_)_Σ=2_(Mg_1.89_Fe^2+^_1.08_Mn_0.03_)_Σ=3_(Al_1.52_Fe^3+^_0.48_)_Σ=2_Si_8.00_O_22_(OH)_2_
Raman shift (cm-1)	intensity
108.915	0
112.29	11.0215
115.665	21.5066
119.04	32.5064
122.415	37.7598
125.79	7.7323
129.164	1.20599
132.539	2.75751
135.914	2.06372
139.289	4.66785
142.664	7.82898
146.038	10.1293
149.413	17.2029
152.788	23.6776
156.163	28.9847
159.538	49.9012
162.912	59.7016
166.287	67.1323
169.662	91.0434
173.037	118.599
176.412	145.429
179.786	132.63
183.161	51.3403
186.536	30.3869
189.911	33.8133
193.286	46.9889
196.661	58.2053
200.035	73.7811
203.41	84.9381
206.785	109.754
210.16	123.766
213.535	94.5854
216.91	49.9294
220.284	28.1111
223.659	20.9401
227.034	15.5705
230.409	7.85608
233.784	6.18204
237.158	9.9028
240.533	8.33844
243.908	7.76791
247.283	13.5444
250.658	15.3093
254.032	11.9506
257.407	11.3668
260.782	4.246
264.157	0.622559
267.532	0.777313
270.907	0.251587
274.281	1.51852
277.656	0.548248
281.031	2.1301
284.406	3.78711
287.781	7.2084
291.156	9.33108
294.53	11.9808
297.905	13.5759
301.28	15.8176
304.655	18.5988
308.029	17.5537
311.404	13.5975
314.779	12.2944
318.154	13.682
321.529	10.1667
324.904	15.3939
328.278	16.7406
331.653	18.7054
335.028	19.2635
338.403	15.5592
341.778	10.0184
345.152	9.20264
348.527	5.90421
351.902	1.02274
355.277	2.47281
358.652	0.500244
362.027	6.49402
365.401	13.4485
368.776	30.8671
372.151	42.8401
375.526	57.5868
378.901	74.7711
382.276	91.8503
385.65	99.0269
389.025	68.3415
392.4	48.3969
395.775	37.8749
399.15	31.4759
402.524	31.3765
405.899	29.6801
409.274	31.1837
412.649	29.897
416.024	20.6156
419.399	11.8451
422.773	8.44409
426.148	2.47757
429.523	2.95422
432.898	3.16818
436.273	3.93439
439.647	5.3089
443.022	8.13229
446.397	4.58121
449.772	3.40497
453.147	0.800812
456.522	2.22427
459.896	0.286621
463.271	1.0116
466.646	1.28381
470.021	1.3876
473.396	1.41724
476.77	5.16788
480.145	3.79236
483.52	8.28824
486.895	8.94534
490.27	12.1029
493.644	6.54706
497.019	3.54114
500.394	7.02597
503.769	5.40768
507.144	6.83847
510.519	9.12726
513.893	11.9145
517.268	14.5566
520.643	14.5779
524.018	15.9721
527.393	19.1926
530.767	20.1382
534.142	22.8604
537.517	27.1351
540.892	26.6358
544.267	31.3472
547.641	34.6954
551.016	37.9156
554.391	37.4998
557.766	34.7249
561.141	28.8233
564.516	21.3493
567.89	14.8258
571.265	13.3608
574.64	7.9249
578.015	9.24335
581.39	7.54983
584.764	8.93372
588.139	7.06021
591.514	5.64728
594.889	3.01889
598.264	3.27536
601.639	2.03445
605.013	2.45462
608.388	3.1424
611.763	0.341522
615.138	0.505524
618.513	0.549316
621.888	1.99454
625.262	1.16052
628.637	3.52304
632.012	4.55939
635.387	4.62839
638.761	3.02484
642.136	7.66599
645.511	9.94705
648.886	15.0953
652.261	25.9077
655.636	40.9156
659.01	57.631
662.385	77.2853
665.76	101.93
669.135	110.117
672.51	93.5995
675.885	69.417
679.259	59.6865
682.634	52.5526
686.009	41.909
689.384	28.7067
692.759	17.8405
696.133	9.36612
699.508	6.41296
702.883	3.86655
706.258	1.65399
709.633	0.980988
713.007	0.078217
716.382	0.103149
719.757	1.16754
723.132	0.544189
726.507	0.955475
729.881	3.983
733.256	2.16086
736.631	7.26639
740.006	8.26773
743.381	9.28214
746.756	5.5592
750.13	4.98349
753.505	3.45724
756.88	5.32797
760.255	5.97147
763.63	6.70856
767.005	7.15134
770.379	11.9491
773.754	13.0996
777.129	13.6872
780.504	8.97424
783.879	10.7507
787.253	2.36475
790.628	3.43472
794.003	1.67279
797.378	1.20767
800.753	0.653046
804.128	0.290131
807.502	0.728638
810.877	3.00601
814.252	0.765381
817.627	1.03818
821.002	2.56442
824.376	0.766022
827.751	3.33197
831.126	1.59378
834.501	4.18912
837.876	2.90808
841.25	3.60153
844.625	3.08368
848	6.42227
851.375	4.85886
854.75	7.66797
858.125	7.86255
861.499	6.16812
864.874	6.543
868.249	9.3031
871.624	8.28482
874.999	6.28445
878.374	7.14023
881.748	7.39185
885.123	7.801
888.498	9.9465
891.873	10.6808
895.248	8.32773
898.622	7.17996
901.997	7.20877
905.372	3.51502
908.747	4.02292
912.122	2.61612
915.496	2.31366
918.871	1.52054
922.246	1.10861
925.621	1.78015
928.996	0.346832
932.37	0.193756
935.745	0.995209
939.12	1.25745
942.495	0.339386
945.87	2.1351
949.245	1.87216
952.619	0.752838
955.994	1.94852
959.369	4.07736
962.744	3.66214
966.119	5.12793
969.494	6.72473
972.868	8.14969
976.243	11.528
979.618	11.4098
982.993	11.6464
986.368	10.0107
989.742	11.5342
993.117	8.81528
996.492	10.9805
999.867	6.80206
1003.24	7.54489
1006.62	6.00446
1009.99	3.82324
1013.37	2.58972
1016.74	3.02927
1020.12	1.37454
1023.49	2.67096
1026.87	5.21124
1030.24	3.60751
1033.62	4.98474
1036.99	16.9399
1040.37	14.1745
1043.74	20.1461
1047.11	19.5959
1050.49	12.9199
1053.86	7.45023
1057.24	5.74069
1060.61	3.11963
1063.99	2.23871
1067.36	2.08783
1070.74	1.34051
1074.11	3.07837
1077.49	0.715302
1080.86	2.12912
1084.24	3.20795
1087.61	3.45584
1090.99	4.67108
1094.36	6.01773
1097.74	6.67728
1101.11	9.82257
1104.49	9.88644
1107.86	16.3501
1111.24	12.8121
1114.61	11.8555
1117.98	7.77185
1121.36	11.1128
1124.73	7.8949
1128.11	9.73282
1131.48	8.48547
1134.86	6.27057
1138.23	5.94348
1141.61	8.37927
1144.98	2.9921
1148.36	1.66081
1151.73	3.23018
1155.11	0.476852
1158.48	0.597122
1161.86	1.52698
1165.23	0.789124
1168.61	0.562943
1171.98	1.3261
1175.36	0.886246
1178.73	0.820358
1182.11	0.658203
1185.48	2.56839
1188.86	1.39705
1192.23	1.89409
1195.61	1.78531
1198.98	2.92744
1202.36	2.02116
1205.73	3.68572
1209.11	1.11487
1212.48	2.87958
1215.86	1.96074
1219.23	1.90489
1222.61	1.60176
1225.98	1.77524
1229.35	1.92447
1232.73	1.15117
1236.1	0.817474
1239.48	2.60153
1242.85	2.10683
1246.23	1.66138
1249.6	2.78998
1252.98	0.862228
1256.35	0.448975
1259.73	1.85675
1263.1	2.21962
1266.48	2.26149
1269.85	0.453796
1273.23	1.05974
1276.6	1.05425
1279.98	1.27801
1283.35	1.82509
