Measurement: Raman, 532 nm, unoriented, Raman Data Processed
Mineral: Glaucophane
Rruff sample: R050333
Ideal chemistry: [box]Na_2_(Mg_3_Al_2_)Si_8_O_22_(OH)_2_
Locality: Cazadero, Sonoma County, California, USA
Source: California Institute of Technology
Description: Blackish-blue fibrous aggregate
Measured chemistry: [box](Na_1.96_Ca_0.02_[box]_0.02_)_Σ=2_(Mg_1.89_Fe^2+^_1.08_Mn_0.03_)_Σ=3_(Al_1.52_Fe^3+^_0.48_)_Σ=2_Si_8.00_O_22_(OH)_2_
Raman shift (cm-1)	intensity
160.332	0
163.225	4.17413
166.117	8.38858
169.01	20.2574
171.903	38.6509
174.796	71.7512
177.688	115.11
180.581	78.9534
183.474	12.9231
186.366	0.880157
189.259	0.07605
192.152	9.4324
195.044	20.8609
197.937	30.2682
200.83	37.7879
203.722	55.3604
206.615	79.2279
209.508	109.345
212.401	97.291
215.293	54.0779
218.186	33.1326
221.079	12.6242
223.971	7.64932
226.864	2.10788
229.757	1.63193
232.649	1.48004
235.542	0.287384
238.435	1.13757
241.328	3.65015
244.22	7.20303
247.113	11.8255
250.006	15.4129
252.898	20.8648
255.791	26.1834
258.684	19.2838
261.577	9.58521
264.469	2.07245
267.362	2.68124
270.255	1.41339
273.147	0.383057
276.04	1.21106
278.933	3.49994
281.825	3.49744
284.718	6.16531
287.611	4.90039
290.503	6.28409
293.396	6.26584
296.289	8.33933
299.182	8.4856
302.074	13.8013
304.967	10.0874
307.86	14.1979
310.752	5.14609
313.645	0.701782
316.538	0.687286
319.43	4.09332
322.323	5.41983
325.216	8.08316
328.109	15.3202
331.001	21.0596
333.894	27.5508
336.787	24.2009
339.679	18.7547
342.572	13.8235
345.465	6.74567
348.358	4.23856
351.25	0.773804
354.143	1.63193
357.036	2.05804
359.928	0.724854
362.821	2.40857
365.714	9.73871
368.606	17.1137
371.499	26.6419
374.392	38.6175
377.284	54.3444
380.177	83.2974
383.07	109.637
385.963	116.658
388.855	86.706
391.748	65.8085
394.641	49.2756
397.533	35.6169
400.426	36.4364
403.319	33.0467
406.212	39.5943
409.104	44.664
411.997	43.0987
414.89	31.2158
417.782	20.1081
420.675	11.9324
423.568	4.71643
426.46	1.87143
429.353	3.108
432.246	5.26483
435.139	2.32605
438.031	2.79721
440.924	4.53388
443.817	8.96185
446.709	5.78864
449.602	3.62988
452.495	3.23587
455.387	0.635864
458.28	1.45279
461.173	2.54651
464.065	3.6904
466.958	0.854065
469.851	1.0481
472.744	1.03964
475.636	2.04062
478.529	6.84909
481.422	7.3284
484.314	13.7379
487.207	16.4613
490.1	15.9078
492.993	11.1316
495.885	10.8817
498.778	9.069
501.671	8.87634
504.563	10.6639
507.456	9.6333
510.349	12.8073
513.241	14.4385
516.134	18.1145
519.027	21.2617
521.919	23.9585
524.812	20.5698
527.705	22.2611
530.598	22.0352
533.49	23.0538
536.383	23.7737
539.276	23.132
542.168	26.0117
545.061	26.6157
547.954	26.4602
550.846	27.5325
553.739	28.0247
556.632	26.489
559.525	23.831
562.417	21.2242
565.31	11.8256
568.203	9.54724
571.095	8.12848
573.988	9.34116
576.881	5.55966
579.774	6.37939
582.666	9.47247
585.559	11.1569
588.452	8.0202
591.344	8.60431
594.237	12.6047
597.13	12.6493
600.022	12.9958
602.915	18.0966
605.808	17.8853
608.7	17.5625
611.593	14.5158
614.486	9.62396
617.379	1.4548
620.271	0.390259
623.164	2.75708
626.057	2.28369
628.949	1.72394
631.842	1.79715
634.735	1.70355
637.627	2.29181
640.52	3.78979
643.413	3.24011
646.306	8.46518
649.198	10.5122
652.091	20.8139
654.984	41.4815
657.876	60.4879
660.769	87.8885
663.662	123.598
666.554	151.887
669.447	159.725
672.34	134.518
675.232	108.622
678.125	98.2554
681.018	91.5789
683.911	81.418
686.803	62.4718
689.696	45.0537
692.589	27.795
695.481	16.2785
698.374	12.7342
701.267	7.86673
704.159	5.88785
707.052	1.94934
709.945	3.75424
712.838	3.18643
715.73	1.57117
718.623	0.841797
721.516	0.690826
724.408	1.48575
727.301	3.18152
730.194	4.48675
733.087	8.05917
735.979	8.01782
738.872	10.6953
741.765	12.0193
744.657	10.7385
747.55	10.3029
750.443	8.8074
753.335	6.13559
756.228	3.72028
759.121	5.60379
762.014	9.90936
764.906	12.4994
767.799	13.8126
770.692	20.1127
773.584	27.9442
776.477	24.4438
779.37	20.111
782.263	12.7718
785.155	11.4442
788.048	12.2535
790.941	7.36459
793.833	6.12128
796.726	0.552429
799.619	1.55505
802.511	0.483551
805.404	2.55987
808.297	0.04837
811.189	0.754608
814.082	1.78821
816.975	0.554291
819.868	0.07486
822.76	3.68378
825.653	1.20923
828.546	0.881042
831.438	3.39841
834.331	5.38022
837.224	4.17352
840.116	3.09811
843.009	6.80875
845.902	6.29257
848.795	4.44104
851.687	6.15201
854.58	7.64072
857.473	8.3598
860.365	6.47995
863.258	10.0008
866.151	7.57419
869.043	11.9142
871.936	12.1354
874.829	9.76376
877.722	10.5166
880.614	11.7285
883.507	15.9395
886.4	16.1701
889.292	17.4137
892.185	14.6411
895.078	15.1532
897.971	12.7872
900.863	10.0932
903.756	8.59876
906.649	7.80414
909.541	4.6203
912.434	3.17029
915.327	1.82886
918.219	3.00842
921.112	4.24243
924.005	2.41846
926.898	2.43646
929.79	3.7497
932.683	3.88727
935.576	0.725891
938.468	0.27594
941.361	1.72675
944.254	0.291077
947.146	1.46051
950.039	1.42078
952.932	1.99353
955.824	5.62903
958.717	7.71173
961.61	8.3233
964.503	8.9184
967.395	14.6021
970.288	19.3979
973.181	24.7168
976.073	29.5692
978.966	34.2272
981.859	37.1046
984.751	40.4878
987.644	37.523
990.537	30.5571
993.43	26.5358
996.322	25.9197
999.215	23.702
1002.11	18.0657
1005	12.4521
1007.89	10.6016
1010.79	7.22858
1013.68	5.44141
1016.57	2.125
1019.46	0.603027
1022.36	0.602478
1025.25	0.978882
1028.14	1.52588
1031.04	6.65338
1033.93	8.34088
1036.82	15.9375
1039.71	26.7202
1042.61	39.6927
1045.5	52.5004
1048.39	41.5688
1051.28	25.2606
1054.18	16.7045
1057.07	13.6338
1059.96	10.0018
1062.85	10.509
1065.75	4.61456
1068.64	5.16589
1071.53	6.25116
1074.42	4.91486
1077.32	2.50751
1080.21	7.93494
1083.1	5.41876
1086	8.6593
1088.89	3.99329
1091.78	6.82178
1094.67	6.07581
1097.57	7.45673
1100.46	10.369
1103.35	12.9216
1106.24	15.358
1109.14	7.75263
1112.03	5.61206
1114.92	5.26941
1117.82	2.8418
1120.71	3.32947
1123.6	0.28479
1126.49	0.841492
1129.39	1.39868
1132.28	0.708618
1135.17	1.20447
1138.07	1.09125
1140.96	1.63715
1143.85	0.807312
1146.74	1.0788
1149.63	3.55572
1152.53	2.99011
1155.42	1.08057
1158.31	0.503479
1161.21	0.635559
1164.1	1.90741
1166.99	4.84796
1169.88	4.12036
1172.78	7.83386
1175.67	6.58661
1178.56	4.34296
1181.45	3.95135
1184.35	7.02148
1187.24	7.79645
1190.13	9.14416
1193.03	7.48547
1195.92	9.16272
1198.81	7.65106
1201.7	7.03009
1204.6	7.73102
1207.49	9.15747
1210.38	8.25324
1213.28	8.95758
1216.17	8.1236
1219.06	9.06525
1221.95	7.48077
1224.85	8.62067
1227.74	4.06958
1230.63	5.71606
1233.52	5.61523
1236.42	3.55579
1239.31	1.42145
1242.2	0.761475
1245.09	2.1134
1247.99	0.348694
1250.88	4.09241
1253.77	2.79382
1256.66	0.42981
1259.56	2.2475
1262.45	0.449036
1265.34	1.24243
1268.24	2.75238
1271.13	5.61951
1274.02	2.38446
1276.91	3.30371
1279.81	6.55658
1282.7	6.45508
1285.59	3.3017
1288.48	4.14502
1291.38	3.6087
1294.27	6.18543
1297.16	3.10455
1300.06	3.38586
1302.95	0.111206
