Measurement: Raman, 780 nm, unoriented, Raman Data Processed
Mineral: Glaucophane
Rruff sample: R120002
Ideal chemistry: [box]Na_2_(Mg_3_Al_2_)Si_8_O_22_(OH)_2_
Locality: Cape Marmari, Grammata Bay, Syros Island, Aegean Sea, Greece
Source: Gunnar Farber
Description: Pale green acicular
Raman shift (cm-1)	intensity
93.532	0
96.9068	231.082
100.282	80.8774
103.656	4.21729
107.031	4.85156
110.406	60.5967
113.781	146.559
117.156	353.378
120.531	519.097
123.905	383.652
127.28	115.143
130.655	29.9077
134.03	22.9526
137.405	31.2871
140.779	6.99512
144.154	3.93652
147.529	15.459
150.904	35.3003
154.279	57.7495
157.654	115.806
161.028	198.828
164.403	257.39
167.778	349.354
171.153	526.709
174.528	956.081
177.902	1542.49
181.277	1205.37
184.652	531.737
188.027	284.771
191.402	243.35
194.776	240.078
198.151	277.584
201.526	349.737
204.901	488.479
208.276	589.409
211.651	503.568
215.025	351.128
218.4	290
221.775	271.035
225.15	297.538
228.525	330.745
231.899	261.835
235.274	166.383
238.649	125.681
242.024	74.2017
245.399	75.3989
248.774	108.693
252.148	109.432
255.523	96.0347
258.898	57.9136
262.273	37.7744
265.648	9.5498
269.022	10.5405
272.397	10.375
275.772	4.76904
279.147	9.2876
282.522	8.41406
285.897	7.12012
289.271	10.1611
292.646	13.792
296.021	45.269
299.396	51.169
302.771	44.5308
306.145	48.144
309.52	52.4263
312.895	54.459
316.27	63.3462
319.645	52.3965
323.019	74.4546
326.394	77.9189
329.769	125.363
333.144	118.798
336.519	147.337
339.894	148.251
343.268	124.357
346.643	60.458
350.018	53.6152
353.393	20.9165
356.768	25.1968
360.142	27.0894
363.517	39.8057
366.892	61.751
370.267	122.605
373.642	179.903
377.017	287.854
380.391	429.691
383.766	571.063
387.141	551.257
390.516	433.779
393.891	311.953
397.265	208.854
400.64	189.439
404.015	151.672
407.39	137.504
410.765	91.1909
414.14	67.5391
417.514	48.7158
420.889	52.6211
424.264	23.603
427.639	12.9839
431.014	24.2451
434.389	28.7124
437.763	27.7085
441.138	27.4902
444.513	39.5161
447.888	27.7505
451.263	15.5386
454.637	5.78564
458.012	13.0713
461.387	5.50488
464.762	0.131836
468.137	11.7178
471.512	1.69336
474.886	19.2041
478.261	14.8828
481.636	30.5684
485.011	40.1802
488.386	61.957
491.76	51.3203
495.135	26.5947
498.51	25.0884
501.885	5.92773
505.26	23.5435
508.635	26.5625
512.009	24.3686
515.384	27.2024
518.759	17.6387
522.134	29.6987
525.509	16.4399
528.883	21.9243
532.258	18.7053
535.633	19.4993
539.008	22.8711
542.383	21.8752
545.757	17.0627
549.132	39.7522
552.507	45.1489
555.882	71.3625
559.257	49.9629
562.631	55.2534
566.006	18.1291
569.381	19.8784
572.756	10.5623
576.131	2.47974
579.506	6.82446
582.88	3.86963
586.255	1.33228
589.63	1.47339
593.005	8.45776
596.38	10.2637
599.755	9.06714
603.129	33.2502
606.504	38.905
609.879	22.7812
613.254	30.4224
616.629	22.9524
620.003	0.883057
623.378	10.1794
626.753	16.125
630.128	27.2632
633.503	48.0889
636.878	56.0376
640.252	50.105
643.627	68.2344
647.002	103.393
650.377	154.087
653.752	201.402
657.126	292.421
660.501	415.144
663.876	574.31
667.251	677.452
670.626	666.111
674	607.768
677.375	531.106
680.75	454.84
684.125	373.393
687.5	270.652
690.875	184.103
694.249	117.71
697.624	68.7676
700.999	41.2285
704.374	34.1953
707.749	18.8269
711.124	13.0806
714.498	9.09351
717.873	7.23999
721.248	1.17725
724.623	6.40064
727.998	2.08106
731.372	39.009
734.747	36.0466
738.122	54.8501
741.497	41.6387
744.872	25.1741
748.246	36.98
751.621	3.17261
754.996	2.03931
758.371	11.8682
761.746	26.6953
765.12	29.5745
768.495	65.3975
771.87	54.6694
775.245	45.5774
778.62	60.7988
781.995	56.6265
785.369	33.0952
788.744	28.8711
792.119	59.9053
795.494	28.0513
798.869	13.5283
802.244	0.666992
805.618	2.89526
808.993	5.30396
812.368	19.6863
815.743	11.8386
819.118	22.562
822.492	27.415
825.867	0.230469
829.242	8.4436
832.617	22.5207
835.992	15.4805
839.366	20.0623
842.741	11.5574
846.116	17.5391
849.491	7.88525
852.866	20.1724
856.241	37.8796
859.615	29.0903
862.99	23.0837
866.365	23.7532
869.74	27.1499
873.115	24.8027
876.49	25.5151
879.864	22.1763
883.239	36.4285
886.614	60.1585
889.989	30.2141
893.364	34.55
896.738	20.4468
900.113	26.9106
903.488	5.49243
906.863	33.6335
910.238	15.1482
913.612	9.48706
916.987	8.37012
920.362	13.6079
923.737	7.34131
927.112	3.61279
930.487	18.2454
933.861	13.8543
937.236	11.9085
940.611	1.33252
943.986	7.83911
947.361	6.72266
950.736	10.4641
954.11	8.35449
957.485	4.92798
960.86	21.6453
964.235	7.21167
967.61	15.9521
970.984	10.6321
974.359	23.4893
977.734	13.9517
981.109	30.0461
984.484	30.9741
987.859	25.7473
991.233	43.7964
994.608	37.6797
997.983	30.74
1001.36	37.6943
1004.73	43.7261
1008.11	28.1223
1011.48	37.2605
1014.86	31.718
1018.23	51.9026
1021.61	22.5344
1024.98	31.9619
1028.36	24.771
1031.73	67.2727
1035.11	61.3745
1038.48	87.7876
1041.86	98.1965
1045.23	98.3762
1048.61	80.7769
1051.98	33.0772
1055.36	45.3157
1058.73	46.9085
1062.1	18.3977
1065.48	19.0181
1068.85	7.1814
1072.23	19.4871
1075.6	1.69531
1078.98	0.46875
1082.35	12.6121
1085.73	12.4932
1089.1	38.0972
1092.48	26.4348
1095.85	39.1919
1099.23	22.5933
1102.6	36.5478
1105.98	2.42285
1109.35	29.1633
1112.73	4.26343
1116.1	12.5203
1119.48	2.91772
1122.85	5.42896
1126.23	1.37964
1129.6	12.2854
1132.98	8.81836
1136.35	5.00659
1139.72	21.3657
1143.1	18.988
1146.47	20.5808
1149.85	11.2417
1153.22	6.80664
1156.6	8.76904
1159.97	7.48853
1163.35	27.3332
1166.72	19.8171
1170.1	26.7178
1173.47	25.2266
1176.85	13.5359
1180.22	23.1526
1183.6	24.9773
1186.97	19.9627
1190.35	26.1357
1193.72	21.002
1197.1	15.4141
1200.47	28.6438
1203.85	22.2993
1207.22	13.9492
1210.6	15.6692
1213.97	15.583
1217.35	17.3332
1220.72	14.3799
1224.1	11.9543
1227.47	46.0662
1230.85	5.82666
1234.22	14.79
1237.6	22.2861
1240.97	5.78955
1244.34	12.1538
1247.72	24.1956
1251.09	5.99976
1254.47	23.0659
1257.84	23.7627
1261.22	20.2373
1264.59	41.7798
1267.97	28.4097
1271.34	3.98486
1274.72	11.0046
1278.09	17.8591
1281.47	4.12061
1284.84	5.6333
