Measurement: Raman, 785 nm, unoriented, Raman Data Processed
Mineral: Glaucophane
Rruff sample: R070515
Ideal chemistry: [box]Na_2_(Mg_3_Al_2_)Si_8_O_22_(OH)_2_
Locality: La Beaume, near Turin, Piedmont, Italy
Source: James Shigley
Description: Black, prismatic crystals in a calcite matrix
Measured chemistry: ([box]_0.96_Na_0.04_)_Σ=1_(Na_1.93_Ca_0.07_)_Σ=2_((Mg_1.63_Fe^2+^_1.41_)_Σ=3.04_(Al_1.00_Fe^3+^_0.96_)_Σ=1.96_)(Si_7.93_Al_0.07_)_Σ=8_O_22_((OH)_1.90_F_0.10_)_Σ=2_; OH estimated by difference and charge balance
Raman shift (cm-1)	intensity
154.184	0
157.077	121.034
159.969	226.813
162.862	357.612
165.755	501.399
168.647	697.299
171.54	1206.4
174.433	1414.95
177.326	880.87
180.218	214.845
183.111	12.1992
186.004	9.04871
188.896	33.3352
191.789	98.8025
194.682	252.645
197.574	385.255
200.467	553.207
203.36	763.952
206.252	1038.84
209.145	1077.68
212.038	783.022
214.931	488.572
217.823	282.745
220.716	165.826
223.609	97.2158
226.501	71.3144
229.394	8.57202
232.287	0.558716
235.179	3.92139
238.072	4.94177
240.965	36.9314
243.858	44.0177
246.75	13.7489
249.643	74.4888
252.536	55.1588
255.428	46.9388
258.321	11.4341
261.214	10.0195
264.106	22.5714
266.999	8.41992
269.892	10.8533
272.784	8.66003
275.677	21.3378
278.57	33.443
281.463	18.6234
284.355	44.151
287.248	97.9297
290.141	98.3307
293.033	112.082
295.926	158.167
298.819	166.793
301.712	193.71
304.604	223.497
307.497	187.227
310.39	162.876
313.282	136.988
316.175	123.395
319.068	122.238
321.96	83.9807
324.853	83.4768
327.746	101.318
330.639	131.061
333.531	122.226
336.424	105.598
339.317	84.0953
342.209	72.8679
345.102	51.0734
347.995	28.0382
350.887	14.044
353.78	10.8231
356.673	29.8422
359.565	32.5859
362.458	104.077
365.351	170.158
368.244	203.512
371.136	304.464
374.029	372.23
376.922	455.91
379.814	607.68
382.707	640.179
385.6	545.35
388.493	451.041
391.385	352.696
394.278	265.235
397.171	273.561
400.063	254.596
402.956	264.368
405.849	243.94
408.741	197.541
411.634	155.61
414.527	118.626
417.42	88.1995
420.312	67.3084
423.205	12.0513
426.098	14.6295
428.99	19.3967
431.883	16.3007
434.776	14.3837
437.668	43.8465
440.561	93.5214
443.454	62.6574
446.346	58.9414
449.239	20.0754
452.132	5.76453
455.025	0.677917
457.917	15.9894
460.81	10.5902
463.703	18.1934
466.595	5.40832
469.488	24.8239
472.381	14.8137
475.273	14.0972
478.166	33.1005
481.059	38.6459
483.952	86.7481
486.844	57.785
489.737	75.8585
492.63	61.9545
495.522	48.3902
498.415	73.6986
501.308	88.0386
504.2	96.723
507.093	126.91
509.986	146.345
512.879	208.843
515.771	210.735
518.664	279.419
521.557	259.972
524.449	313.186
527.342	342.734
530.235	366.34
533.127	416.961
536.02	466.049
538.913	512.034
541.806	611.322
544.698	687.209
547.591	733.538
550.484	783.752
553.376	754.098
556.269	665.574
559.162	555.442
562.054	479.723
564.947	425.932
567.84	364.011
570.732	347.726
573.625	338.35
576.518	305.743
579.411	278.216
582.303	246.914
585.196	243.792
588.089	206.856
590.981	165.643
593.874	163.651
596.767	126.265
599.659	131.315
602.552	94.5759
605.445	65.2728
608.338	44.2421
611.23	18.39
614.123	15.178
617.016	5.71045
619.908	2.08612
622.801	12.9106
625.694	2.80365
628.587	16.5821
631.479	7.15314
634.372	15.7738
637.264	33.1966
640.157	29.0243
643.05	70.9805
645.943	96.0366
648.835	147.024
651.728	176.821
654.621	284.985
657.513	419.337
660.406	564.3
663.299	729.048
666.192	910.695
669.084	975.15
671.977	878.397
674.87	769.896
677.762	647.195
680.655	495.581
683.548	357.091
686.44	265.087
689.333	182.867
692.226	134.622
695.119	93.7767
698.011	76.5814
700.904	57.9448
703.797	35.6372
706.689	30.623
709.582	1.10785
712.475	44.7737
715.367	24.8613
718.26	10.1574
721.153	19.7733
724.045	7.3175
726.938	15.8262
729.831	18.6951
732.724	4.78027
735.616	10.3375
738.509	24.6379
741.402	56.2517
744.294	47.1952
747.187	4.68543
750.08	11.1728
752.972	14.1304
755.865	18.5032
758.758	48.4938
761.651	48.9241
764.543	79.7896
767.436	78.7906
770.329	123.199
773.221	153.913
776.114	146.182
779.007	110.15
781.899	46.4877
784.792	89.217
787.685	46.9843
790.578	27.1199
793.47	17.4303
796.363	18.4615
799.256	8.2168
802.148	3.4292
805.041	6.55383
807.934	10.8847
810.827	2.10565
813.719	17.5465
816.612	6.07538
819.505	4.69641
822.397	25.042
825.29	8.1366
828.183	11.233
831.075	9.11829
833.968	4.13825
836.861	13.2933
839.753	18.0492
842.646	31.0472
845.539	14.7788
848.432	20.9467
851.324	26.7113
854.217	40.0712
857.11	27.4299
860.002	26.8502
862.895	41.9413
865.788	41.3784
868.68	12.2372
871.573	14.8292
874.466	34.1277
877.359	34.4616
880.251	50.6034
883.144	70.059
886.037	74.1641
888.929	67.4465
891.822	89.146
894.715	96.0283
897.607	73.2834
900.5	46.1205
903.393	69.9025
906.285	31.2503
909.178	27.7968
912.071	34.6736
914.964	31.58
917.856	11.5909
920.749	19.7648
923.642	6.13757
926.534	0.321228
929.427	3.97028
932.32	3.59155
935.212	10.3813
938.105	15.038
940.998	18.9456
943.891	9.68225
946.783	2.02429
949.676	7.47412
952.569	34.7628
955.461	24.6636
958.354	47.3376
961.247	59.5432
964.139	74.7348
967.032	131.695
969.925	135.39
972.818	191.573
975.71	210.78
978.603	247.106
981.496	225.97
984.388	204.864
987.281	198.299
990.174	143.108
993.067	98.0003
995.959	93.2702
998.852	94.0216
1001.75	42.012
1004.64	61.7766
1007.53	47.1014
1010.42	46.1111
1013.32	51.1848
1016.21	19.1857
1019.1	51.1304
1021.99	44.6281
1024.89	53.2258
1027.78	38.2351
1030.67	68.5597
1033.56	99.5049
1036.46	111.734
1039.35	123.174
1042.24	172.288
1045.13	177.847
1048.03	132.228
1050.92	103.544
1053.81	98.3384
1056.71	58.1534
1059.6	67.4808
1062.49	26.7804
1065.38	44.0125
1068.28	28.4988
1071.17	29.8183
1074.06	18.3911
1076.95	25.4486
1079.85	38.9628
1082.74	32.0679
1085.63	25.9359
1088.53	1.94946
1091.42	18.485
1094.31	0.605896
1097.2	3.10461
1100.1	32.7906
1102.99	7.42627
1105.88	34.5054
1108.77	11.9975
1111.67	14.2711
1114.56	10.2567
1117.45	22.0512
1120.35	9.51941
1123.24	1.9303
1126.13	16.1296
1129.02	40.7348
1131.92	10.2386
1134.81	17.691
1137.7	15.2076
1140.59	20.1586
1143.49	25.8966
1146.38	23.111
1149.27	16.7138
1152.16	0.613586
1155.06	16.1101
1157.95	7.17944
1160.84	3.70557
1163.74	6.41815
1166.63	7.51721
1169.52	7.09772
1172.41	5.48077
1175.31	0.509338
1178.2	22.0331
1181.09	7.23712
1183.98	10.7148
1186.88	2.95252
1189.77	26.679
1192.66	4.2038
1195.56	14.1512
1198.45	7.85596
1201.34	45.0119
1204.23	12.0036
1207.13	16.6764
1210.02	30.7246
1212.91	20.2426
1215.8	9.54199
1218.7	24.3374
1221.59	23.0533
1224.48	8.93195
1227.38	45.4515
1230.27	15.783
1233.16	41.3378
1236.05	33.9301
1238.95	21.4328
1241.84	14.5236
1244.73	42.0436
1247.62	10.0487
1250.52	1.39618
1253.41	7.08295
1256.3	2.43378
