Measurement: Raman, 532 nm, unoriented, Raman Data Processed
Mineral: Glauberite
Rruff sample: R070322
Ideal chemistry: Na_2_Ca(SO_4_)_2_
Locality: Salton Sea, Imperial County, California, USA
Source: James Shigley
Description: Colorless tabular crystal
Raman shift (cm-1)	intensity
172.321	0
175.214	40.9166
178.107	86.9965
180.999	135.962
183.892	74.653
186.785	121.834
189.678	204.857
192.57	403.175
195.463	250.914
198.356	422.787
201.248	403.158
204.141	410.391
207.034	202.923
209.926	413.486
212.819	345.787
215.712	406.832
218.605	313.437
221.497	269.092
224.39	238.593
227.283	213.961
230.175	98.254
233.068	44.4936
235.961	113.646
238.853	138.986
241.746	42.1025
244.639	182.719
247.532	51.2124
250.424	78.2271
253.317	170.578
256.21	1.9014
259.102	162.717
261.995	59.0007
264.888	105.862
267.781	202.865
270.673	10.7779
273.566	37.5157
276.459	6.79221
279.351	90.0954
282.244	217.404
285.137	21.5332
288.029	0.635956
290.922	51.2391
293.815	50.3366
296.707	8.92857
299.6	65.0695
302.493	38.2034
305.386	15.9807
308.278	26.1248
311.171	103.261
314.064	8.53403
316.956	3.38137
319.849	82.4788
322.742	255.986
325.635	91.0988
328.527	43.6797
331.42	78.5757
334.313	66.768
337.205	80.6094
340.098	208.732
342.991	109.229
345.883	59.3856
348.776	195.024
351.669	239.804
354.562	70.4013
357.454	40.0752
360.347	48.7214
363.24	318.137
366.132	78.9615
369.025	165.367
371.918	193.267
374.81	126.846
377.703	81.2567
380.596	5.47015
383.488	67.4386
386.381	108.457
389.274	113.517
392.167	2.70993
395.059	78.3611
397.952	4.65035
400.845	37.4155
403.737	30.9235
406.63	63.0151
409.523	24.4758
412.416	111.812
415.308	113.044
418.201	241.542
421.094	2.57553
423.986	5.21461
426.879	10.6315
429.772	128.557
432.664	168.49
435.557	505.558
438.45	648.782
441.343	1300.3
444.235	2077.99
447.128	2586.37
450.021	3939.89
452.913	4977.65
455.806	2859.04
458.699	1399.6
461.591	1344.4
464.484	1438.73
467.377	1869.32
470.27	2252.22
473.162	1652.31
476.055	999.457
478.948	718.346
481.84	1006.67
484.733	1133.48
487.626	790.486
490.519	525.138
493.411	366.015
496.304	111.522
499.197	40.2462
502.089	85.2013
504.982	52.288
507.875	11.7092
510.767	282.305
513.66	111.414
516.553	10.169
519.446	37.8544
522.338	73.7732
525.231	121.008
528.124	12.4398
531.016	6.47059
533.909	33.4976
536.802	26.4628
539.694	13.5753
542.587	8.52058
545.48	45.7431
548.372	10.0784
551.265	86.7369
554.158	39.8216
557.051	0.617098
559.943	134.092
562.836	47.6791
565.729	47.3313
568.621	24.4316
571.514	50.3488
574.407	27.7427
577.299	51.5089
580.192	154.003
583.085	118.385
585.978	163.793
588.87	360.201
591.763	5.61414
594.656	78.9971
597.548	35.4015
600.441	86.7872
603.334	110.476
606.227	400.117
609.119	601.839
612.012	735.336
614.905	1217.24
617.797	1591.98
620.69	1470.12
623.583	1761.88
626.476	1477.2
629.368	1443.85
632.261	2012.59
635.154	3131.19
638.046	2599.53
640.939	3363.47
643.832	4728.39
646.724	4207.89
649.617	4882.85
652.51	2997.69
655.403	922.033
658.295	787.174
661.188	451.93
664.081	360.214
666.973	273.095
669.866	286.419
672.759	306.951
675.651	97.7508
678.544	61.4062
681.437	102.659
684.33	383.322
687.222	79.4831
690.115	31.5875
693.008	331.507
695.9	73.1656
698.793	203.113
701.686	131.692
704.578	52.7123
707.471	46.5928
710.364	111.735
713.256	91.621
716.149	40.7868
719.042	75.7589
721.935	8.66523
724.827	39.4523
727.72	10.8823
730.613	129.183
733.505	53.9054
736.398	116.546
739.291	2.81861
742.183	10.0101
745.076	19.7035
747.969	7.52852
750.862	75.5295
753.754	243.264
756.647	68.6806
759.54	1.72864
762.432	125.448
765.325	135.312
768.218	7.85439
771.111	118.748
774.003	18.2285
776.896	86.2385
779.789	20.2049
782.681	114.149
785.574	66.7612
788.467	248.37
791.359	78.6012
794.252	3.00577
797.145	25.1254
800.038	110.421
802.93	257.775
805.823	28.3881
808.716	162.026
811.608	0.676754
814.501	197.095
817.394	353.538
820.286	255.573
823.179	8.07624
826.072	120.126
828.965	177.091
831.857	51.5137
834.75	257.066
837.643	174.906
840.535	12.9379
843.428	328.841
846.321	37.7594
849.213	101.109
852.106	6.28236
854.999	220.149
857.891	88.6246
860.784	58.3243
863.677	189.865
866.57	305.307
869.462	222.131
872.355	231.053
875.248	130.315
878.14	95.7522
881.033	271.747
883.926	226.404
886.819	164.144
889.711	167.481
892.604	51.8098
895.497	111.04
898.389	223.12
901.282	324.438
904.175	191.603
907.067	35.6913
909.96	14.2301
912.853	294.009
915.746	267.12
918.638	153.451
921.531	203.482
924.424	185.059
927.316	23.3459
930.209	90.3019
933.102	76.1911
935.995	6.83124
938.887	35.6652
941.78	18.3151
944.673	303.729
947.565	228.37
950.458	178.999
953.351	470.271
956.243	197.055
959.136	160.029
962.029	243.236
964.922	302.055
967.814	374.987
970.707	216.676
973.6	504.823
976.492	705.866
979.385	1101.59
982.278	1392.6
985.17	1960.56
988.063	2889.51
990.956	6754.13
993.848	15777.1
996.741	30084.3
999.634	52124.3
1002.53	49531.3
1005.42	15401.1
1008.31	6075.37
1011.21	2709.01
1014.1	1461.92
1016.99	1013.94
1019.88	777.719
1022.78	651.589
1025.67	608.731
1028.56	241.17
1031.45	263.905
1034.35	221.036
1037.24	284.309
1040.13	108.924
1043.02	193.845
1045.92	11.8995
1048.81	19.2726
1051.7	20.9236
1054.6	14.9939
1057.49	39.4832
1060.38	15.5564
1063.27	4.08258
1066.17	129.278
1069.06	8.04236
1071.95	39.3289
1074.84	28.7542
1077.74	12.0617
1080.63	21.02
1083.52	126.371
1086.41	91.3125
1089.31	154.05
1092.2	401.126
1095.09	413.75
1097.99	395.886
1100.88	624.282
1103.77	1135.83
1106.66	1123.55
1109.56	694.703
1112.45	219.926
1115.34	367.14
1118.23	281.966
1121.13	190.447
1124.02	430.374
1126.91	566.862
1129.81	1019.13
1132.7	2027.21
1135.59	3452.01
1138.48	4967.85
1141.38	3418.51
1144.27	1841.84
1147.16	2144.54
1150.05	2987.14
1152.95	4492.61
1155.84	4604.14
1158.73	2701.98
1161.62	1520.56
1164.52	1532.65
1167.41	1468.07
1170.3	919.007
1173.2	567.545
1176.09	183.353
1178.98	119.198
1181.87	80.6448
1184.77	277.572
1187.66	178.563
1190.55	177.862
1193.44	50.247
1196.34	85.0108
1199.23	28.335
1202.12	34.6591
1205.02	6.1138
1207.91	56.9088
1210.8	161.182
1213.69	16.195
1216.59	10.2099
1219.48	162.316
1222.37	49.0334
1225.27	5.80286
1228.16	204.076
1231.05	145.198
1233.94	68.6533
1236.84	13.6425
1239.73	8.76919
1242.62	161.382
1245.51	68.3491
1248.41	110.044
1251.3	251.588
1254.19	37.1061
1257.08	255.696
1259.98	128.59
1262.87	179.048
1265.76	186.437
1268.65	32.8332
1271.55	285.868
1274.44	265.323
1277.33	362.362
1280.23	298.536
1283.12	150.544
1286.01	178.937
1288.9	160.019
1291.8	96.1981
1294.69	62.5453
1297.58	307.534
1300.47	206.458
1303.37	257.472
1306.26	154.4
