Measurement: Raman, 532 nm, unoriented, Raman Data Processed
Mineral: Glauberite
Rruff sample: R050350
Ideal chemistry: Na_2_Ca(SO_4_)_2_
Locality: Soda Lake, San Luis Obispo County, California, USA
Source: California Institute of Technology
Description: Colorless tabular crystal
Measured chemistry: Na_1.90_Ca_1.15_(S_.99_O_4_)_2_
Raman shift (cm-1)	intensity
130.923	0
133.816	9.61755
136.708	1.94885
139.601	8.92975
142.494	17.2641
145.386	19.7748
148.279	15.7508
151.172	12.4767
154.065	28.9633
156.957	27.4823
159.85	17.2788
162.743	7.35443
165.635	6.76978
168.528	15.9876
171.421	28.8703
174.313	43.4222
177.206	54.0284
180.099	69.7835
182.992	79.1119
185.884	69.3956
188.777	56.2583
191.67	34.6173
194.562	24.0994
197.455	16.743
200.348	12.2354
203.24	9.01062
206.133	4.63895
209.026	0.686127
211.918	0.851898
214.811	0.924438
217.704	0.557495
220.596	0.17514
223.489	1.29297
226.382	1.75525
229.275	2.09076
232.167	2.29349
235.06	4.81192
237.953	7.11292
240.845	0.889191
243.738	2.79208
246.631	6.45871
249.524	7.38184
252.416	8.82794
255.309	7.62704
258.202	8.13092
261.094	14.2808
263.987	10.0928
266.88	14.4879
269.772	11.2457
272.665	13.279
275.558	6.68109
278.451	12.8167
281.343	12.957
284.236	17.3198
287.129	10.2601
290.021	9.1261
292.914	6.40433
295.807	6.22089
298.7	2.65472
301.592	4.57993
304.485	4.53848
307.378	5.9946
310.27	2.21466
313.163	6.25195
316.056	3.69601
318.948	5.66046
321.841	6.52856
324.734	2.03702
327.627	6.99017
330.519	1.68689
333.412	2.47519
336.305	2.74609
339.197	6.47562
342.09	5.00101
344.983	3.2804
347.875	4.15121
350.768	6.74252
353.661	4.12338
356.553	5.90048
359.446	4.87988
362.339	3.00943
365.231	1.5527
368.124	4.41794
371.017	3.06998
373.91	5.38043
376.802	1.41397
379.695	0.804688
382.588	0.565826
385.48	4.30307
388.373	1.69721
391.266	0.463562
394.159	4.21411
397.051	2.0668
399.944	6.32867
402.837	0.875549
405.729	6.03986
408.622	4.16718
411.515	6.24371
414.407	6.6853
417.3	15.5611
420.193	14.5848
423.086	19.6517
425.978	28.5892
428.871	36.355
431.764	49.8029
434.656	76.1507
437.549	127.721
440.442	192.304
443.334	273.504
446.227	343.472
449.12	448.497
452.012	652.655
454.905	696.153
457.798	512.41
460.691	525.98
463.583	692.374
466.476	1061.8
469.369	1579.8
472.261	1650.73
475.154	971.156
478.047	564.891
480.94	502.828
483.832	582.164
486.725	540.735
489.618	283.805
492.51	138.11
495.403	77.8319
498.296	54.434
501.188	34.8374
504.081	25.1681
506.974	16.372
509.866	9.01502
512.759	12.555
515.652	11.305
518.545	11.5854
521.437	0.79541
524.33	2.87067
527.223	1.00201
530.115	4.16217
533.008	1.43054
535.901	0.092163
538.794	0.064453
541.686	0.7229
544.579	0.799866
547.472	3.17999
550.364	4.36414
553.257	4.64172
556.15	1.55377
559.043	2.8775
561.935	6.30121
564.828	1.21008
567.721	1.04163
570.613	7.99249
573.506	1.07294
576.399	3.9668
579.291	8.03003
582.184	13.6686
585.077	13.3391
587.969	18.4764
590.862	24.1517
593.755	29.9857
596.648	38.0887
599.54	56.75
602.433	101.603
605.326	168.9
608.218	240.001
611.111	377.802
614.004	652.477
616.896	1083.88
619.789	1189.76
622.682	704.172
625.574	556.364
628.467	335.627
631.36	287.661
634.253	365.764
637.145	352.538
640.038	246.77
642.931	302.97
645.823	322.671
648.716	151.58
651.609	99.3506
654.501	30.4888
657.394	12.4127
660.287	4.38287
663.18	7.38977
666.072	2.07587
668.965	0.164124
671.858	0.802673
674.75	0.946716
677.643	0.53302
680.536	5.47931
683.428	4.88886
686.321	0.450867
689.214	0.24054
692.107	3.00476
694.999	8.31897
697.892	7.29065
700.785	3.66266
703.677	8.68085
706.57	2.81897
709.463	7.18146
712.356	4.20227
715.248	0.197876
718.141	5.44513
721.034	3.03046
723.926	8.54584
726.819	7.43732
729.712	11.1101
732.604	6.44818
735.497	5.54755
738.39	4.2912
741.283	8.13892
744.175	7.85547
747.068	3.0509
749.961	5.92407
752.853	3.43323
755.746	10.1357
758.639	7.63904
761.531	13.0124
764.424	12.7357
767.317	6.10681
770.21	9.10181
773.102	6.31824
775.995	3.20252
778.888	9.40344
781.78	6.32764
784.673	4.09485
787.566	10.9983
790.458	5.23425
793.351	3.40491
796.244	6.00806
799.136	2.95288
802.029	6.02173
804.922	7.10504
807.815	10.3991
810.707	5.71661
813.6	7.52777
816.493	0.444275
819.385	6.90613
822.278	6.72907
825.171	6.2807
828.063	2.67975
830.956	3.81781
833.849	7.16956
836.742	6.39325
839.634	3.47577
842.527	4.46362
845.42	7.37933
848.312	1.18884
851.205	1.44879
854.098	6.14905
856.99	3.01269
859.883	1.99567
862.776	3.82745
865.669	0.269348
868.561	4.46222
871.454	3.03479
874.347	3.88141
877.239	5.5061
880.132	6.1134
883.025	6.9798
885.918	8.59058
888.81	5.93103
891.703	7.54114
894.596	6.7804
897.488	7.79706
900.381	7.1319
903.274	7.16675
906.166	8.40356
909.059	6.26825
911.952	1.03833
914.845	2.5387
917.737	7.99164
920.63	0.083069
923.523	2.97174
926.415	3.41364
929.308	10.0987
932.201	1.80042
935.093	1.74823
937.986	4.25317
940.879	7.52417
943.771	5.78925
946.664	18.9766
949.557	17.0358
952.45	21.2905
955.342	29.5364
958.235	20.4065
961.128	33.9709
964.02	36.8609
966.913	51.1693
969.806	71.2585
972.698	92.065
975.591	123.941
978.484	168.668
981.377	266.848
984.269	408.51
987.162	693.286
990.055	1562.81
992.947	2731.85
995.84	4518.46
998.733	8718.77
1001.63	16099.4
1004.52	8743.2
1007.41	2244.5
1010.3	933.939
1013.2	500.798
1016.09	314.68
1018.98	215.87
1021.87	155.554
1024.77	114.093
1027.66	84.4058
1030.55	71.2504
1033.44	53.5779
1036.34	44.3382
1039.23	29.4886
1042.12	21.9337
1045.02	21.5931
1047.91	14.1512
1050.8	2.6546
1053.69	6.83545
1056.59	4.00561
1059.48	1.2182
1062.37	5.42011
1065.27	2.00293
1068.16	3.87628
1071.05	2.42481
1073.94	0.843872
1076.84	9.39154
1079.73	6.11359
1082.62	8.90326
1085.51	8.86523
1088.41	18.4654
1091.3	38.1992
1094.19	78.4233
1097.09	127.616
1099.98	225.143
1102.87	364.434
1105.76	522.431
1108.65	419.421
1111.55	212.141
1114.44	110.056
1117.33	70.8022
1120.23	50.8612
1123.12	39.2178
1126.01	51.2396
1128.9	66.5486
1131.8	104.398
1134.69	170.67
1137.58	310.442
1140.47	408.856
1143.37	255.824
1146.26	188.593
1149.15	232.542
1152.05	368.241
1154.94	534.875
1157.83	422.582
1160.72	264.889
1163.62	241.935
1166.51	329.442
1169.4	465.436
1172.3	318.128
1175.19	122.677
1178.08	59.2688
1180.97	32.331
1183.87	19.7836
1186.76	8.52918
1189.65	4.89325
1192.54	3.95776
1195.44	3.10956
1198.33	1.06714
1201.22	1.62647
1204.12	2.19354
1207.01	1.62415
1209.9	1.28754
1212.79	2.48944
1215.68	4.45599
1218.58	10.2092
1221.47	5.75433
1224.36	6.20154
1227.26	1.94824
1230.15	4.11084
1233.04	13.1703
1235.93	10.4657
1238.83	9.42175
1241.72	7.1709
1244.61	7.11011
1247.51	11.7196
1250.4	9.31604
1253.29	11.7369
1256.18	10.6416
1259.08	9.0188
1261.97	8.86792
1264.86	16.4821
1267.75	7.57019
1270.65	10.5348
1273.54	7.62891
1276.43	5.26562
1279.33	2.67029
