Measurement: Raman, 532 nm, unoriented, Raman Data Processed
Mineral: Glaucophane
Rruff sample: R120002
Ideal chemistry: [box]Na_2_(Mg_3_Al_2_)Si_8_O_22_(OH)_2_
Locality: Cape Marmari, Grammata Bay, Syros Island, Aegean Sea, Greece
Source: Gunnar Farber
Description: Pale green acicular
Raman shift (cm-1)	intensity
198.004	0
200.897	14.2954
203.79	65.4364
206.682	139.768
209.575	196.432
212.468	178.059
215.36	109.404
218.253	76.7317
221.146	75.028
224.038	109.053
226.931	147.114
229.824	174.905
232.717	125.236
235.609	69.0664
238.502	31.0311
241.395	16.7036
244.287	11.5244
247.18	15.8675
250.073	33.7407
252.965	38.1969
255.858	42.5008
258.751	34.3514
261.644	16.4775
264.536	3.34668
267.429	3.7865
270.322	8.06751
273.214	6.0553
276.107	1.42261
279	1.39722
281.892	4.73059
284.785	3.99707
287.678	0.937744
290.571	4.93164
293.463	11.1948
296.356	18.946
299.249	34.5332
302.141	30.2926
305.034	44.1586
307.927	39.6148
310.82	36.5968
313.712	32.4733
316.605	35.1578
319.498	37.5729
322.39	47.9591
325.283	47.5978
328.176	54.5796
331.068	69.4003
333.961	83.0559
336.854	93.1661
339.747	95.9136
342.639	83.855
345.532	68.799
348.425	58.3906
351.317	61.2738
354.21	63.4292
357.103	66.718
359.995	63.2451
362.888	60.189
365.781	64.1956
368.673	68.5004
371.566	87.7933
374.459	106.999
377.352	136.296
380.244	178.316
383.137	238.931
386.03	260.918
388.922	230.94
391.815	159.801
394.708	110.464
397.601	76.7241
400.493	71.9404
403.386	62.6252
406.279	60.4741
409.171	56.5995
412.064	59.9175
414.957	42.8424
417.849	29.7007
420.742	14.292
423.635	3.13672
426.527	1.08289
429.42	3.52881
432.313	1.02637
435.206	0.477661
438.098	0.919922
440.991	6.58398
443.884	14.7958
446.776	17.5552
449.669	9.75732
452.562	7.12256
455.454	1.26196
458.347	0.256104
461.24	4.7467
464.133	1.40344
467.025	2.59692
469.918	5.2782
472.811	5.93079
475.703	4.20947
478.596	7.52734
481.489	17.2334
484.382	29.3388
487.274	40.8951
490.167	48.4634
493.06	47.1392
495.952	48.1899
498.845	41.198
501.738	35.4142
504.63	35.1289
507.523	24.5081
510.416	19.0974
513.308	21.2869
516.201	14.2168
519.094	13.1703
521.987	12.378
524.879	12.0269
527.772	14.1547
530.665	9.46313
533.557	14.1892
536.45	5.28711
539.343	13.4309
542.236	16.5309
545.128	13.4731
548.021	19.6431
550.914	23.5696
553.806	38.9385
556.699	39.1014
559.592	42.6777
562.484	41.0712
565.377	30.1023
568.27	18.6648
571.163	13.5397
574.055	11.0002
576.948	4.41663
579.841	6.5376
582.733	7.23694
585.626	3.89624
588.519	7.13611
591.411	8.82349
594.304	14.963
597.197	18.7147
600.09	20.5245
602.982	25.8937
605.875	25.881
608.768	30.0272
611.66	42.6982
614.553	18.6362
617.446	7.18823
620.338	4.79773
623.231	0.766357
626.124	4.46387
629.016	6.94556
631.909	1.74805
634.802	5.3501
637.695	9.11548
640.587	12.8641
643.48	18.3667
646.373	32.8179
649.265	55.1686
652.158	80.7062
655.051	123.471
657.943	181.572
660.836	259.426
663.729	353
666.622	436.282
669.514	470.093
672.407	417.544
675.3	359.805
678.192	307.392
681.085	287.303
683.978	259.014
686.87	217.268
689.763	169.284
692.656	123.317
695.549	92.6843
698.441	69.7496
701.334	49.4619
704.227	34.095
707.119	24.3374
710.012	10.5584
712.905	9.17151
715.798	2.69873
718.69	4.30957
721.583	0.215576
724.476	2.22461
727.368	7.04907
730.261	18.1361
733.154	20.3862
736.046	21.3433
738.939	26.423
741.832	20.722
744.725	19.1661
747.617	10.8568
750.51	4.6239
753.403	11.8795
756.295	9.23657
759.188	11.6027
762.081	11.827
764.973	18.0949
767.866	26.3533
770.759	33.662
773.652	43.2207
776.544	44.9
779.437	43.0514
782.33	30.3895
785.222	27.9733
788.115	22.1036
791.008	21.833
793.9	15.1934
796.793	8.93396
799.686	4.15186
802.578	4.80383
805.471	15.2622
808.364	19.9082
811.257	17.9268
814.149	13.5657
817.042	6.93018
819.935	10.0963
822.827	6.30725
825.72	3.9635
828.613	4.93799
831.505	0.068848
834.398	1.47351
837.291	0.687134
840.184	6.10327
843.076	10.2992
845.969	14.5271
848.862	21.2334
851.754	32.7151
854.647	46.0094
857.54	57.3057
860.433	48.4321
863.325	37.9473
866.218	27.0671
869.111	16.2127
872.003	14.533
874.896	18.2517
877.789	16.075
880.681	13.9987
883.574	21.3906
886.467	28.0794
889.36	34.8336
892.252	34.0858
895.145	30.241
898.038	23.7467
900.93	23.1564
903.823	20.7902
906.716	15.14
909.608	19.7321
912.501	14.7743
915.394	13.3782
918.287	13.9768
921.179	9.27124
924.072	5.25708
926.965	3.4939
929.857	5.42749
932.75	1.84485
935.643	4.00818
938.535	1.42725
941.428	0.57019
944.321	0.078735
947.213	0.098022
950.106	0.182983
952.999	4.74841
955.892	2.80322
958.784	6.92859
961.677	9.20349
964.57	15.4592
967.462	21.8899
970.355	25.3966
973.248	21.8541
976.14	31.6405
979.033	33.8571
981.926	40.5233
984.819	40.7615
987.711	51.9684
990.604	65.2343
993.497	70.7632
996.389	77.6599
999.282	73.0872
1002.17	70.0922
1005.07	66.0323
1007.96	70.1051
1010.85	65.4153
1013.75	57.225
1016.64	55.4866
1019.53	53.0652
1022.42	52.332
1025.32	42.5521
1028.21	47.4685
1031.1	49.9563
1033.99	59.5076
1036.89	82.3905
1039.78	103.84
1042.67	121.398
1045.57	135.674
1048.46	117.212
1051.35	89.4482
1054.24	64.1503
1057.14	47.707
1060.03	29.3704
1062.92	22.9311
1065.81	12.8398
1068.71	4.67248
1071.6	1.46118
1074.49	6.68848
1077.38	1.99927
1080.28	1.46594
1083.17	3.02039
1086.06	1.18897
1088.96	1.82642
1091.85	6.85608
1094.74	12.1672
1097.63	21.3956
1100.53	34.067
1103.42	37.9218
1106.31	33.6321
1109.2	33.337
1112.1	35.0748
1114.99	25.9788
1117.88	17.5131
1120.78	16.5352
1123.67	11.7898
1126.56	6.83032
1129.45	1.35791
1132.35	3.39099
1135.24	0.078979
1138.13	8.30554
1141.02	7.62744
1143.92	6.78406
1146.81	8.69861
1149.7	10.3627
1152.6	13.0601
1155.49	10.8848
1158.38	3.73987
1161.27	3.96887
1164.17	12.7806
1167.06	4.55322
1169.95	1.11255
1172.84	6.5
1175.74	2.91479
1178.63	3.66199
1181.52	6.23682
1184.41	5.50183
1187.31	4.83569
1190.2	2.1582
1193.09	1.28491
1195.99	4.27734
1198.88	6.95874
1201.77	1.65894
1204.66	1.60632
1207.56	4.55945
1210.45	5.76599
1213.34	4.25378
1216.23	3.14807
1219.13	0.582764
1222.02	9.20398
1224.91	9.24316
1227.81	2.48425
1230.7	5.36694
1233.59	1.94421
1236.48	0.205078
1239.38	3.33521
1242.27	6.41956
1245.16	12.741
1248.05	10.6674
1250.95	9.97742
1253.84	7.11804
1256.73	13.2279
1259.62	9.80078
1262.52	13.6068
1265.41	9.78479
1268.3	12.5568
1271.2	9.2384
1274.09	9.86438
1276.98	10.5353
1279.87	5.78503
1282.77	5.22156
1285.66	3.09436
1288.55	7.24158
1291.44	5.90991
1294.34	6.61609
1297.23	6.53284
1300.12	8.64905
1303.02	0
