Measurement: Raman, 532 nm, unoriented, Raman Data Processed
Mineral: Gmelinite-Ca
Rruff sample: R061130
Ideal chemistry: Ca_2_(Si_8_Al_4_)O_24_11H_2_O
Locality: Fara Vicentino, Vicenza, Veneto, Italy
Source: Michael Scott
Description: Pale orange tabular crystals lining vesicles in basalt
Measured chemistry: (Ca_1.70_Na_0.21_K_0.09_)_Σ=2_(Si_8.30_Al_3.70_)O_24_·11H_2_O; H_2_O estimated by difference
Raman shift (cm-1)	intensity
150.181	0
153.556	72.6377
156.931	80.0029
160.305	51.8496
163.68	134.913
167.055	105.541
170.43	134.148
173.805	56.8369
177.179	23.0366
180.554	14.8062
183.929	2.25928
187.304	10.2271
190.679	33.2129
194.054	92.8262
197.428	106.322
200.803	139.458
204.178	161.691
207.553	127.144
210.928	119.103
214.302	96.4414
217.677	67.6294
221.052	111.34
224.427	96.1958
227.802	109.153
231.177	47.9585
234.551	23.9321
237.926	15.0547
241.301	14.4771
244.676	18.2993
248.051	22.7148
251.425	41.3272
254.8	22.8921
258.175	59.1802
261.55	69.0063
264.925	89.2402
268.3	51.0864
271.674	133.169
275.049	100.794
278.424	190.012
281.799	240.323
285.174	203.589
288.548	291.195
291.923	342.758
295.298	382.879
298.673	498.334
302.048	591.475
305.423	652.565
308.797	804.102
312.172	945.331
315.547	1028.15
318.922	1118.57
322.297	1036.46
325.671	1022.4
329.046	802.328
332.421	627.718
335.796	571.712
339.171	413.618
342.546	350.665
345.92	281.559
349.295	106.501
352.67	69.6064
356.045	30.2822
359.42	15.415
362.794	16.0508
366.169	123.192
369.544	34.0322
372.919	77.9492
376.294	49.7353
379.668	38.6934
383.043	9.7959
386.418	63.4336
389.793	109.753
393.168	290.432
396.543	389.872
399.917	598.527
403.292	840.83
406.667	1233.7
410.042	1543.53
413.417	1841.08
416.791	1812.14
420.166	1616.03
423.541	1281.63
426.916	1047.23
430.291	912.945
433.666	886.949
437.04	999.924
440.415	1184
443.79	1449.28
447.165	1867.59
450.54	2191.71
453.914	2677.82
457.289	3246.15
460.664	3690.09
464.039	4135.62
467.414	4483.72
470.789	4784.52
474.163	5053.25
477.538	5332.24
480.913	5617.14
484.288	5856.28
487.663	5787.21
491.038	5540.77
494.412	5144.87
497.787	4483.38
501.162	3686.25
504.537	2929.03
507.912	2188.67
511.286	1622.14
514.661	1073.72
518.036	656.764
521.411	416.95
524.786	287.803
528.16	140.059
531.535	44.1768
534.91	3.3916
538.285	20.3125
541.66	37.2891
545.034	11.4932
548.409	55.6377
551.784	50.9824
555.159	18.2158
558.534	28.6621
561.909	49.2803
565.283	38.7607
568.658	45.2871
572.033	2.45996
575.408	115.715
578.783	120.39
582.158	34.4473
585.532	115.495
588.907	115.148
592.282	141.576
595.657	101.769
599.032	191.617
602.407	142.408
605.781	220.152
609.156	163.763
612.531	198.112
615.906	130.769
619.281	218.036
622.655	117.278
626.03	157.367
629.405	208.932
632.78	103.911
636.155	144.624
639.529	201.414
642.904	252.215
646.279	296.766
649.654	272.896
653.029	242.611
656.404	197.096
659.778	220.668
663.153	226.037
666.528	173.331
669.903	123.779
673.278	110.781
676.653	76.0596
680.027	47.5508
683.402	63.1836
686.777	21.3301
690.152	49.2188
693.527	60.5361
696.901	62.1113
700.276	41.5918
703.651	54.1279
707.026	83.2783
710.401	14.4102
713.775	12.5938
717.15	15.4229
720.525	60.2803
723.9	7.23828
727.275	33.3184
730.649	67.2451
734.024	1.27734
737.399	4.00781
740.774	6.68066
744.149	37.5605
747.524	80.8359
750.898	17.6572
754.273	151.942
757.648	185.597
761.023	148.61
764.398	232.139
767.773	269.319
771.147	182.816
774.522	297.071
777.897	230.534
781.272	188.544
784.647	198.032
788.021	287.44
791.396	273.893
794.771	227.569
798.146	162.871
801.521	138.066
804.895	127.074
808.27	57.8076
811.645	90.4668
815.02	61.4053
818.395	33.0312
821.77	38.3906
825.144	116.757
828.519	8.89648
831.894	121.466
835.269	16.9922
838.644	78.5908
842.019	59.0137
845.393	103.815
848.768	80.3125
852.143	51.2227
855.518	78.3398
858.893	117.109
862.267	84.4883
865.642	88.3691
869.017	125.775
872.392	32.0488
875.767	86.3975
879.141	83.3555
882.516	137.236
885.891	121.856
889.266	152.308
892.641	133.56
896.016	72.7519
899.39	146.985
902.765	96.7197
906.14	135.973
909.515	84.1269
912.89	3.39453
916.264	61.706
919.639	53.2041
923.014	70.0596
926.389	9.94824
929.764	37.9941
933.139	67.417
936.513	40.2998
939.888	50.7666
943.263	75.2803
946.638	75.7598
950.013	110.306
953.388	0.806641
956.762	91.1074
960.137	78.1494
963.512	14.6602
966.887	41.3945
970.262	99.0723
973.636	69.6856
977.011	5.21777
980.386	57.9932
983.761	11.1729
987.136	83.8057
990.51	83.0186
993.885	37.9307
997.26	63.8955
1000.63	98.3525
1004.01	31.6699
1007.38	77.1221
1010.76	151.685
1014.13	50.8027
1017.51	80.7334
1020.88	39.7393
1024.26	47.3916
1027.63	117.483
1031.01	41.7861
1034.38	108.014
1037.76	60.2803
1041.13	67.0596
1044.51	30.3457
1047.88	61.4355
1051.26	34.5772
1054.63	30.9326
1058.01	116.887
1061.38	81.9746
1064.76	209.346
1068.13	243.666
1071.51	350.37
1074.88	333.127
1078.26	344.827
1081.63	466.352
1085.01	382.115
1088.38	544.133
1091.76	523.694
1095.13	488.957
1098.51	449.006
1101.88	508.421
1105.25	485.853
1108.63	511.82
1112	427.613
1115.38	411.877
1118.75	393.617
1122.13	338.856
1125.5	288.664
1128.88	300.173
1132.25	234.026
1135.63	274.027
1139	237.165
1142.38	224.584
1145.75	107.718
1149.13	214.96
1152.5	244.833
1155.88	150.115
1159.25	102.143
1162.63	149.056
1166	50.6484
1169.38	56.4971
1172.75	52.3906
1176.12	39.9902
1179.5	7.74023
1182.88	37.9912
1186.25	0.925781
1189.62	22.0293
1193	48.6182
1196.37	73.5723
1199.75	43.919
1203.12	14.2432
1206.5	61.2041
1209.87	66.8721
1213.25	66.7051
1216.62	37.6523
1220	104.169
1223.37	68.2305
1226.75	59.123
1230.12	6.36621
1233.5	87.6768
1236.87	64.5654
1240.25	37.8398
1243.62	26.4463
1247	146.287
1250.37	0.779297
1253.75	10.2178
1257.12	105.263
1260.5	73.042
1263.87	105.239
1267.24	70.292
1270.62	107.526
1273.99	66.5449
1277.37	141.131
1280.74	117.072
1284.12	59.2695
1287.49	106.912
1290.87	59.7685
1294.24	18.9834
1297.62	125.492
1300.99	65.4463
1304.37	107.071
1307.74	27.1787
1311.12	133.795
1314.49	92.46
1317.87	0
