Measurement: Raman, 532 nm, unoriented, Raman Data Processed
Mineral: Gmelinite-Na
Rruff sample: R060168
Ideal chemistry: Na_4_(Si_8_Al_4_)O_24_11H_2_O
Locality: Five Islands, Nova Scotia, Canada
Source: Guy Ouellet
Description: Salmon-red interpenetrating prismatic rhombohedral crystals
Measured chemistry: (Na_3.90_Ca_0.10_)_Σ=4_(Si_7.90_Al_4.10_)_Σ=12_O_24_·8.98H_2_O
Raman shift (cm-1)	intensity
200.249	0
203.141	0.2038
206.034	0.388134
208.927	1.23458
211.819	1.02337
214.712	1.4503
217.605	1.91332
220.497	0.9254
223.39	2.11932
226.283	1.47533
229.175	0.647354
232.068	0.382484
234.961	0.172483
237.854	0.135094
240.746	0.427876
243.639	0.336746
246.532	0.006107
249.424	0.114307
252.317	0.099228
255.21	0.115612
258.103	0.411894
260.995	0.652939
263.888	0.269129
266.781	0.545828
269.673	0.03056
272.566	0.255812
275.459	0.796497
278.351	0.709778
281.244	0.711521
284.137	1.61696
287.029	2.66054
289.922	2.55668
292.815	4.22572
295.708	4.73832
298.6	5.4071
301.493	7.17867
304.386	9.52059
307.278	12.3934
310.171	15.5309
313.064	19.2478
315.957	22.3819
318.849	25.5625
321.742	26.1148
324.635	25.0077
327.527	21.7567
330.42	17.6288
333.313	13.4206
336.205	10.0782
339.098	6.72586
341.991	5.05269
344.884	3.20293
347.776	2.65516
350.669	1.64654
353.562	1.37224
356.454	0.875946
359.347	0.224312
362.24	0.106661
365.132	0.133163
368.025	0.522896
370.918	0.492378
373.81	0.443043
376.703	0.913984
379.596	1.37813
382.489	1.8092
385.381	2.99362
388.274	3.71156
391.167	5.31765
394.059	6.53686
396.952	8.51883
399.845	11.9672
402.738	16.5207
405.63	21.7413
408.523	26.9121
411.416	28.6597
414.308	26.9963
417.201	22.2501
420.094	16.5431
422.986	10.6155
425.879	7.60962
428.772	4.26434
431.664	2.1098
434.557	1.74412
437.45	0.539398
440.343	1.07428
443.235	1.60315
446.128	2.34795
449.021	3.3927
451.913	3.87871
454.806	5.63518
457.699	7.67849
460.591	9.81836
463.484	13.2554
466.377	16.2145
469.27	20.8641
472.162	26.7678
475.055	33.4318
477.948	42.8017
480.84	51.8971
483.733	62.7808
486.626	75.4453
489.519	84.7839
492.411	92.5632
495.304	95.7365
498.197	91.9364
501.089	83.5685
503.982	69.859
506.875	55.5158
509.767	42.159
512.66	30.0931
515.553	20.9344
518.446	14.5102
521.338	9.53185
524.231	7.31264
527.124	5.04371
530.016	3.30577
532.909	2.38358
535.802	0.71735
538.694	0.580402
541.587	0.235783
544.48	0.217075
547.372	0.57172
550.265	0.128851
553.158	0.113071
556.051	0.041758
558.943	0.226311
561.836	0.142162
564.729	0.095003
567.621	0.156017
570.514	0.281559
573.407	0.052004
576.299	0.80357
579.192	0.46393
582.085	0.516481
584.978	1.17789
587.87	0.902088
590.763	1.14418
593.656	1.44001
596.548	1.72348
599.441	1.61434
602.334	2.31352
605.226	1.86291
608.119	2.00081
611.012	1.99595
613.905	2.20421
616.797	1.95447
619.69	2.17388
622.583	2.35355
625.475	2.22986
628.368	1.85743
631.261	1.46261
634.154	1.1075
637.046	1.657
639.939	1.28937
642.832	1.52399
645.724	1.72649
648.617	1.74785
651.51	2.41829
654.402	2.18113
657.295	1.63585
660.188	1.58966
663.081	1.24352
665.973	0.945489
668.866	0.961416
671.759	0.719819
674.651	0.600128
677.544	0.577257
680.437	0.235188
683.329	0.163813
686.222	0.005728
689.115	0.326611
692.008	0.331855
694.9	0.405008
697.793	0.092652
700.686	0.137255
703.578	0.568119
706.471	0.041236
709.364	0.097816
712.256	0.066724
715.149	0.019632
718.042	0.361024
720.934	0.295734
723.827	0.780903
726.72	0.69211
729.613	0.773987
732.505	0.982738
735.398	0.553897
738.291	0.599011
741.183	0.918068
744.076	1.25599
746.969	1.21772
749.861	0.771136
752.754	1.40538
755.647	1.85424
758.54	1.7773
761.432	2.66093
764.325	2.73505
767.218	2.7061
770.11	2.89881
773.003	3.25013
775.896	2.58648
778.788	2.4895
781.681	2.15509
784.574	1.71455
787.467	1.02126
790.359	1.13673
793.252	1.54487
796.145	1.25297
799.037	0.631767
801.93	0.603833
804.823	0.42609
807.716	0.156971
810.608	0.584562
813.501	0.251733
816.394	0.1666
819.286	0.06036
822.179	0.513572
825.072	0.025694
827.964	0.282701
830.857	0.302418
833.75	0.180844
836.643	0.24888
839.535	0.142739
842.428	0.308869
845.321	0.114813
848.213	0.026361
851.106	0.051377
853.999	0.247357
856.891	0.027984
859.784	0.169322
862.677	0.15399
865.569	0.374312
868.462	0.022975
871.355	0.357089
874.248	0.267418
877.14	0.003605
880.033	0.898936
882.926	0.337647
885.818	0.092088
888.711	0.204182
891.604	0.126034
894.496	0.69003
897.389	0.563005
900.282	0.271742
903.175	0.145134
906.067	0.639083
908.96	0.691608
911.853	0.46143
914.745	0.696903
917.638	0.65554
920.531	0.478958
923.423	0.432076
926.316	0.557922
929.209	0.410104
932.102	1.05327
934.994	0.548057
937.887	0.436255
940.78	0.555489
943.672	0.17121
946.565	0.13091
949.458	0.191884
952.351	0.098415
955.243	0.003493
958.136	0.341869
961.029	0.628999
963.921	0.259511
966.814	0.310427
969.707	0.344328
972.599	0.402976
975.492	0.591881
978.385	1.03506
981.278	1.03136
984.17	1.42991
987.063	1.96219
989.956	1.70452
992.848	1.54888
995.741	1.82515
998.634	1.63394
1001.53	2.17829
1004.42	2.36488
1007.31	2.14729
1010.21	2.15614
1013.1	1.76207
1015.99	1.75662
1018.88	1.77644
1021.77	1.695
1024.67	1.32242
1027.56	1.69632
1030.45	1.52033
1033.35	1.07948
1036.24	0.728985
1039.13	0.666919
1042.02	0.427122
1044.92	0.264647
1047.81	0.32622
1050.7	0.415695
1053.6	0.075548
1056.49	0.100866
1059.38	0.273395
1062.27	0.241167
1065.17	0.440098
1068.06	1.29855
1070.95	1.24795
1073.84	1.86951
1076.74	2.10324
1079.63	3.08317
1082.52	3.4704
1085.41	4.04984
1088.31	4.38074
1091.2	5.02261
1094.09	5.83114
1096.99	6.1286
1099.88	6.85764
1102.77	6.93689
1105.66	7.15658
1108.56	7.23067
1111.45	7.7654
1114.34	7.70945
1117.23	7.54042
1120.13	7.44181
1123.02	6.95496
1125.91	6.91433
1128.81	6.54365
1131.7	6.40252
1134.59	5.77255
1137.48	5.73557
1140.38	4.92383
1143.27	4.70722
1146.16	4.25861
1149.05	3.41671
1151.95	3.23007
1154.84	2.90804
1157.73	2.74567
1160.62	2.25725
1163.52	2.11385
1166.41	1.36688
1169.3	0.895353
1172.2	1.00752
1175.09	0.940768
1177.98	1.0998
1180.87	0.487152
1183.77	0.694512
1186.66	0.095022
1189.55	0.214442
1192.44	0.104596
1195.34	0.026116
1198.23	0.010653
1201.12	0.397687
1204.02	0.017863
1206.91	0.126483
1209.8	0.043237
1212.69	0.005693
1215.59	0.099259
1218.48	0.054679
1221.37	0.494205
1224.26	0.164308
1227.16	0.131554
1230.05	0.152514
1232.94	0.207705
1235.84	0.274946
1238.73	0.249308
1241.62	0.233947
1244.51	0.234944
1247.41	0.508077
1250.3	0.372465
1253.19	0.437028
1256.08	0.312379
1258.98	0.207773
1261.87	0.852325
1264.76	0.663707
1267.65	0.492971
1270.55	0.32055
1273.44	0.405302
1276.33	0.738016
1279.23	0.457148
1282.12	0.493013
1285.01	0.383706
1287.9	0.517932
1290.8	0.545424
1293.69	0.170115
1296.58	0.361757
1299.47	0.109081
