Measurement: Raman, 780 nm, unoriented, Raman Data Processed
Mineral: Gmelinite-Na
Rruff sample: R110191
Ideal chemistry: Na_4_(Si_8_Al_4_)O_24_11H_2_O
Locality: Mont St-Hilaire, Quebec, Canada
Source: Donald Doell
Description: Spherical aggregate of pale brownish-yellow hexagonal plates
Raman shift (cm-1)	intensity
111.37	0
114.745	2.15245
118.12	3.78522
121.495	8.93465
124.87	10.5604
128.244	14.4412
131.619	18.1217
134.994	17.9791
138.369	18.3466
141.744	15.733
145.119	15.7409
148.493	17.8708
151.868	17.1648
155.243	14.8366
158.618	10.6853
161.993	7.65295
165.367	4.57469
168.742	2.8945
172.117	0.950409
175.492	0.404922
178.867	0.466766
182.242	1.18991
185.616	0.291046
188.991	0.356873
192.366	1.56319
195.741	0.666016
199.115	1.28421
202.49	2.58821
205.865	4.13162
209.24	3.65014
212.615	4.86768
215.99	5.69065
219.364	6.32639
222.739	6.41202
226.114	3.27263
229.489	2.06168
232.864	3.61773
236.238	4.4124
239.613	3.81647
242.988	2.05463
246.363	2.694
249.738	2.37584
253.113	0.800896
256.487	0.65741
259.862	0.833786
263.237	0.84491
266.612	2.03652
269.987	0.883934
273.361	0.065826
276.736	1.57927
280.111	2.644
283.486	1.39178
286.861	3.00345
290.236	2.12781
293.61	4.01427
296.985	4.26627
300.36	5.43895
303.735	5.99045
307.11	8.01394
310.485	8.97559
313.859	11.0938
317.234	14.129
320.609	14.0917
323.984	13.3519
327.359	12.1066
330.733	10.7099
334.108	7.82304
337.483	6.92986
340.858	4.89831
344.233	4.60978
347.608	2.64757
350.982	2.27023
354.357	0.873245
357.732	0.905769
361.107	0.619308
364.482	0.616287
367.856	0.947685
371.231	0.063759
374.606	0.804344
377.981	1.0508
381.356	0.049049
384.731	0.427513
388.105	0.982368
391.48	1.34748
394.855	3.20858
398.23	3.50558
401.605	7.13759
404.979	8.31255
408.354	10.4067
411.729	12.7621
415.104	11.2003
418.479	8.58231
421.853	6.22023
425.228	3.95615
428.603	2.7432
431.978	1.5952
435.353	2.4287
438.728	3.49131
442.102	5.19459
445.477	5.46058
448.852	8.50276
452.227	11.6145
455.602	14.5776
458.976	18.1486
462.351	22.3473
465.726	27.5787
469.101	33.8887
472.476	41.4283
475.851	47.0669
479.225	52.9146
482.6	59.6752
485.975	63.1817
489.35	66.24
492.725	65.4804
496.099	61.7216
499.474	54.5572
502.849	44.3238
506.224	34.3784
509.599	24.4533
512.973	16.5045
516.348	11.1502
519.723	7.40605
523.098	6.22055
526.473	3.36553
529.848	1.46469
533.222	1.16877
536.597	0.668175
539.972	0.637672
543.347	0.854973
546.722	0.7108
550.096	0.161552
553.471	0.126221
556.846	0.166023
560.221	0.402817
563.596	0.119568
566.971	0.242332
570.345	0.606468
573.72	0.758003
577.095	1.09922
580.47	0.914177
583.845	1.15158
587.22	1.97327
590.594	1.89883
593.969	1.93967
597.344	2.27801
600.719	2.9726
604.094	2.15566
607.468	2.13009
610.843	1.33575
614.218	1.57238
617.593	1.24709
620.968	1.22757
624.342	1.77479
627.717	0.807373
631.092	1.35443
634.467	1.03421
637.842	1.07559
641.217	2.22587
644.591	2.37903
647.966	2.31773
651.341	1.88586
654.716	2.17019
658.091	1.44975
661.466	0.934227
664.84	0.924477
668.215	0.81636
671.59	0.84787
674.965	0.366302
678.34	0.411316
681.714	0.378899
685.089	0.248856
688.464	0.535072
691.839	0.438988
695.214	0.162773
698.588	0.964958
701.963	0.134995
705.338	0.032791
708.713	0.524933
712.088	0.498718
715.462	0.348595
718.837	0.669975
722.212	0.030296
725.587	0.0765
728.962	0.414787
732.337	0.230484
735.711	0.354843
739.086	0.395668
742.461	0.257294
745.836	0.558434
749.211	0.642311
752.586	1.5384
755.96	0.745499
759.335	0.772842
762.71	0.727795
766.085	1.24254
769.46	0.815388
772.834	1.54737
776.209	1.57819
779.584	1.83818
782.959	1.97018
786.334	0.748089
789.708	0.637737
793.083	1.13059
796.458	0.633297
799.833	0.319782
803.208	0.773605
806.583	0.431656
809.957	0.255497
813.332	0.568417
816.707	0.359272
820.082	0.939342
823.457	0.853405
826.832	0.307156
830.206	0.170521
833.581	0.262352
836.956	0.173759
840.331	1.57254
843.706	0.809174
847.08	1.06734
850.455	1.10115
853.83	1.83426
857.205	1.87021
860.58	1.85866
863.955	1.42826
867.329	1.38943
870.704	1.82356
874.079	1.73578
877.454	1.47416
880.829	1.21835
884.203	0.840874
887.578	0.813126
890.953	0.873425
894.328	0.886288
897.703	0.780704
901.077	0.690933
904.452	0.378803
907.827	0.702522
911.202	0.427921
914.577	0.185905
917.952	0.835442
921.326	1.58429
924.701	0.027996
928.076	0.162426
931.451	0.425648
934.826	0.426811
938.2	0.656487
941.575	0.65443
944.95	0.047905
948.325	1.81965
951.7	0.357449
955.074	0.295502
958.449	0.15974
961.824	0.496235
965.199	0.532658
968.574	0.309078
971.949	0.353825
975.323	1.60084
978.698	1.02607
982.073	2.22506
985.448	1.3535
988.823	2.09258
992.197	1.99503
995.572	2.23145
998.947	2.12035
1002.32	2.22776
1005.7	1.29113
1009.07	1.87351
1012.45	2.24314
1015.82	1.0484
1019.2	1.71305
1022.57	1.64516
1025.95	0.429813
1029.32	0.956116
1032.69	0.777493
1036.07	0.703728
1039.44	0.35738
1042.82	0.324043
1046.19	0.542095
1049.57	0.49612
1052.94	1.26941
1056.32	0.139957
1059.69	0.563168
1063.07	0.471928
1066.44	0.369705
1069.82	0.896694
1073.19	1.28229
1076.57	1.3167
1079.94	2.70824
1083.32	1.93663
1086.69	2.87924
1090.07	3.72901
1093.44	3.67307
1096.82	3.41547
1100.19	4.62507
1103.57	3.38478
1106.94	3.67551
1110.32	3.43572
1113.69	3.10398
1117.07	3.40437
1120.44	4.40679
1123.82	3.4918
1127.19	2.98438
1130.57	3.12941
1133.94	3.25924
1137.32	3.18889
1140.69	2.22939
1144.06	2.22704
1147.44	2.08875
1150.81	1.46486
1154.19	0.723297
1157.56	0.698799
1160.94	0.305698
1164.31	0.926582
1167.69	0.984329
1171.06	0.669739
1174.44	0.931175
1177.81	0.099735
1181.19	0.164185
1184.56	0.05415
1187.94	0.682392
1191.31	0.403538
1194.69	0.264984
1198.06	0.780762
1201.44	0.89566
1204.81	1.29254
1208.19	1.59533
1211.56	1.88451
1214.93	2.95434
1218.31	3.38298
1221.68	3.48281
1225.06	3.67839
1228.43	3.47616
1231.81	3.00599
1235.18	2.25228
1238.56	1.7627
1241.93	1.68864
1245.31	0.829086
1248.68	1.94837
1252.06	1.35343
1255.43	1.32602
1258.81	1.79684
1262.18	1.07648
1265.56	0.831783
1268.93	0.655144
1272.31	1.03073
1275.68	0.005196
1279.06	0.311954
1282.43	0.894855
