Measurement: Raman, 532 nm, unoriented, Raman Data Processed
Mineral: Gmelinite-Na
Rruff sample: R050371
Ideal chemistry: Na_4_(Si_8_Al_4_)O_24_11H_2_O
Locality: Cairns Bay, Flinders Range, Australia
Source: Eugene Schlepp
Description: Colorless to pink crystals lining a basalt vug
Measured chemistry: Na_3.81_(Si_8.13_Al_3.88_)O_24_Â·4.27H_2_O
Raman shift (cm-1)	intensity
115.013	0
118.388	51.0628
121.763	161.136
125.138	248.972
128.512	324.401
131.887	431.309
135.262	501.947
138.637	506.853
142.012	459.526
145.386	411.48
148.761	380.581
152.136	348.558
155.511	316.491
158.886	263.525
162.26	211.244
165.635	152.82
169.01	111.584
172.385	81.9529
175.76	44.7946
179.135	26.785
182.509	12.7708
185.884	11.5872
189.259	2.75104
192.634	7.40888
196.009	12.0925
199.383	19.7988
202.758	23.0121
206.133	19.923
209.508	17.5122
212.883	18.9736
216.257	19.8101
219.632	20.5918
223.007	22.3258
226.382	2.82324
229.757	9.85416
233.132	14.9289
236.506	8.91937
239.881	7.30124
243.256	0.471222
246.631	3.05701
250.006	8.05383
253.381	9.32492
256.755	13.3709
260.13	14.7625
263.505	17.4446
266.88	21.5073
270.255	23.6289
273.629	30.5085
277.004	38.3112
280.379	47.0462
283.754	61.2777
287.129	70.2482
290.503	85.4038
293.878	101.103
297.253	120.061
300.628	141.034
304.003	182.059
307.378	229.968
310.752	285.382
314.127	340.868
317.502	387.058
320.877	412.818
324.252	392.104
327.627	338.356
331.001	258.277
334.376	181.357
337.751	127.995
341.126	82.8786
344.5	48.3301
347.875	28.5252
351.25	16.0224
354.625	6.54746
358	3.55792
361.375	8.38174
364.749	8.49811
368.124	8.13425
371.499	4.76386
374.874	6.62604
378.249	17.8895
381.623	38.3023
384.998	61.4644
388.373	104.158
391.748	158.12
395.123	230.711
398.498	325.968
401.872	431.376
405.247	538.493
408.622	615.227
411.997	600.801
415.372	495.969
418.747	344.613
422.121	210.658
425.496	106.873
428.871	52.4379
432.246	19.9139
435.621	6.06647
438.995	4.198
442.37	16.6565
445.745	40.0453
449.12	74.7261
452.495	125.718
455.87	196.009
459.244	286.931
462.619	397.995
465.994	532.632
469.369	691.258
472.744	887.793
476.118	1127.91
479.493	1396.92
482.868	1700.67
486.243	1984.83
489.618	2208.6
492.993	2315.81
496.367	2262.68
499.742	2051.38
503.117	1720.46
506.492	1324.44
509.866	963.204
513.241	668.737
516.616	454.951
519.991	301.839
523.366	197.839
526.741	130.576
530.115	82.8477
533.49	51.7483
536.865	30.7138
540.24	13.1808
543.615	4.71872
546.99	0.692078
550.364	4.02225
553.739	8.06146
557.114	7.49429
560.489	7.36146
563.864	5.39914
567.239	0.476013
570.613	3.56879
573.988	9.01944
577.363	10.166
580.738	18.141
584.112	24.2498
587.487	28.352
590.862	35.2111
594.237	40.3244
597.612	45.1479
600.987	50.0308
604.361	52.7334
607.736	53.1788
611.111	52.8201
614.486	51.5731
617.861	43.3323
621.236	37.5135
624.61	34.7368
627.985	34.7646
631.36	36.7321
634.735	41.1471
638.11	44.7266
641.484	54.2788
644.859	60.1415
648.234	65.0542
651.609	68.125
654.984	65.6976
658.359	58.4024
661.733	49.7873
665.108	40.0311
668.483	27.4315
671.858	19.2904
675.232	13.2942
678.607	8.32027
681.982	3.28921
685.357	0.246841
688.732	0.359741
692.107	0.625687
695.481	0.733215
698.856	0.073746
702.231	0.645615
705.606	1.2162
708.981	0.500153
712.356	2.70354
715.73	2.99133
719.105	4.8676
722.48	3.91545
725.855	7.32698
729.23	4.69815
732.604	7.19891
735.979	4.85324
739.354	8.76067
742.729	12.5471
746.104	16.8356
749.479	23.5191
752.853	31.893
756.228	41.7431
759.603	49.6277
762.978	54.0936
766.353	52.5786
769.727	47.0061
773.102	41.4823
776.477	37.2046
779.852	35.3183
783.227	34.7078
786.601	37.7822
789.976	34.4541
793.351	35.1898
796.726	34.564
800.101	27.4503
803.476	20.4017
806.85	15.7462
810.225	8.6434
813.6	6.29715
816.975	3.94002
820.35	2.2411
823.725	2.24388
827.099	0.904129
830.474	0.017944
833.849	1.69553
837.224	0.815887
840.599	0.336784
843.973	0.136108
847.348	0.021286
850.723	1.30265
854.098	0.69902
857.473	2.12541
860.847	0.998497
864.222	3.43586
867.597	2.36158
870.972	4.01266
874.347	3.25758
877.722	0.852379
881.096	3.86123
884.471	4.35784
887.846	4.61656
891.221	6.48184
894.596	7.08865
897.971	7.34527
901.345	8.05012
904.72	9.9994
908.095	6.01912
911.47	5.6127
914.845	5.96776
918.219	5.64785
921.594	4.54924
924.969	4.14877
928.344	5.44787
931.719	3.90691
935.093	4.17514
938.468	2.36828
941.843	1.77478
945.218	1.48869
948.593	0.10965
951.967	0.466911
955.342	1.16068
958.717	0.782745
962.092	0.811752
965.467	2.9289
968.842	9.45956
972.216	11.2152
975.591	16.2481
978.966	19.3509
982.341	20.9254
985.716	24.0743
989.091	24.7988
992.465	29.657
995.84	29.514
999.215	32.7659
1002.59	36.5501
1005.97	36.4856
1009.34	37.0564
1012.71	36.2238
1016.09	36.6031
1019.46	33.7184
1022.84	31.988
1026.21	26.3513
1029.59	21.9002
1032.96	16.7982
1036.34	12.6758
1039.71	5.61005
1043.09	0.890442
1046.46	1.99435
1049.84	2.12318
1053.21	4.99513
1056.59	1.15227
1059.96	8.77821
1063.34	17.5832
1066.71	31.9356
1070.09	48.0697
1073.46	66.102
1076.84	84.8041
1080.21	102.012
1083.59	117.85
1086.96	135.938
1090.34	151.584
1093.71	167.938
1097.09	178.224
1100.46	188.069
1103.83	191.892
1107.21	194.703
1110.58	187.821
1113.96	182.244
1117.33	177.263
1120.71	169.137
1124.08	158.623
1127.46	145.549
1130.83	135.391
1134.21	125.61
1137.58	113.611
1140.96	101.107
1144.33	90.6963
1147.71	79.8556
1151.08	70.238
1154.46	57.7198
1157.83	49.9823
1161.21	38.8273
1164.58	30.8891
1167.96	22.46
1171.33	16.3846
1174.7	11.3511
1178.08	9.17581
1181.45	4.54079
1184.83	1.56914
1188.2	1.79115
1191.58	0.955521
1194.95	1.01787
1198.33	3.09782
1201.7	0.91893
1205.08	1.86443
1208.45	0.25705
1211.83	1.42091
1215.2	0.852928
1218.58	2.76052
1221.95	2.36085
1225.33	3.1214
1228.7	4.87175
1232.08	9.82207
1235.45	10.7305
1238.83	9.59238
1242.2	9.6217
1245.58	7.72842
1248.95	7.93848
1252.33	6.81716
1255.7	7.13832
1259.08	5.20591
1262.45	4.49744
1265.83	4.3076
1269.2	1.37099
1272.58	1.94218
1275.95	5.44392
1279.33	0
