Measurement: Raman, 785 nm, unoriented, Raman Data Processed
Mineral: Gmelinite-Ca
Rruff sample: R070283
Ideal chemistry: Ca_2_(Si_8_Al_4_)O_24_11H_2_O
Locality: Montecchio Maggiore, Vicenza Province, Veneto, Italy
Source: Michael Scott
Description: Pale orange tabular hexagonal plates with low pyramidal terminations
Raman shift (cm-1)	intensity
179.356	0
182.248	11.5249
185.141	14.1719
188.034	61.7559
190.926	115.766
193.819	197.564
196.712	303.912
199.604	346.793
202.497	474.674
205.39	407.994
208.282	405.945
211.175	340.841
214.068	183.337
216.961	177.714
219.853	177.24
222.746	97.8945
225.639	192.324
228.531	154.646
231.424	94.1309
234.317	27.3809
237.209	21.6157
240.102	45.9473
242.995	42.727
245.888	44.8672
248.78	14.4883
251.673	21.709
254.566	0.942871
257.458	0.944336
260.351	34.6201
263.244	0.993164
266.137	41.6807
269.029	51.0898
271.922	4.396
274.815	53.977
277.707	72.4209
280.6	123.52
283.493	181.531
286.385	270.076
289.278	298.274
292.171	450.076
295.063	493.401
297.956	550.715
300.849	607.917
303.742	732.313
306.634	733.272
309.527	916.866
312.42	967.985
315.312	1045.99
318.205	1073.2
321.098	1133.12
323.99	979.897
326.883	889.672
329.776	860.745
332.669	677.391
335.561	645.704
338.454	467.418
341.347	345.984
344.239	245.415
347.132	208.015
350.025	112.836
352.918	115.394
355.81	79.0801
358.703	30.3916
361.596	17.0781
364.488	19.4341
367.381	52.8613
370.274	47.7974
373.166	35.2832
376.059	33.478
378.952	8.10889
381.844	9.4292
384.737	26.8965
387.63	113.93
390.523	84.8125
393.415	184.803
396.308	309.428
399.201	446.807
402.093	580.55
404.986	883.028
407.879	1161.67
410.772	1495.92
413.664	1711.14
416.557	1896.96
419.45	1898.02
422.342	1591.53
425.235	1360.15
428.128	1134.42
431.02	982.167
433.913	897.871
436.806	920.424
439.699	976.087
442.591	1097.5
445.484	1287.21
448.377	1447.33
451.269	1765.27
454.162	1996.47
457.055	2218.2
459.947	2528.02
462.84	2738.65
465.733	2970.68
468.625	3134.91
471.518	3304.05
474.411	3415.56
477.304	3635.1
480.196	3821.93
483.089	3973.56
485.982	3986.14
488.874	4018.42
491.767	3830.13
494.66	3509.11
497.553	3155.04
500.445	2630.87
503.338	2208.16
506.231	1722.47
509.123	1368.17
512.016	990.529
514.909	713.989
517.802	468.892
520.694	270.676
523.587	180.927
526.48	110.042
529.372	31.8154
532.265	16.9299
535.158	1.64331
538.05	35.0608
540.943	11.5234
543.836	20.4363
546.729	14.5632
549.621	5.40771
552.514	39.4646
555.407	21.5312
558.299	40.1116
561.192	46.6213
564.085	32.3879
566.977	50.8691
569.87	24.4231
572.763	60.3796
575.655	34.2102
578.548	52.7642
581.441	97.2146
584.333	155.022
587.226	128.676
590.119	196.649
593.012	164.123
595.904	182.236
598.797	148.912
601.69	135.755
604.582	121.931
607.475	197.687
610.368	174.049
613.26	137.591
616.153	198.693
619.046	132.746
621.939	135.075
624.831	141.73
627.724	137.67
630.617	108.884
633.509	102.355
636.402	141.388
639.295	145.588
642.188	155.615
645.08	161.644
647.973	171.881
650.866	172.667
653.758	146.224
656.651	137.269
659.544	118.931
662.436	92.1077
665.329	114.559
668.222	114.767
671.115	20.0886
674.007	34.2505
676.9	48.623
679.793	75.9431
682.685	23.7976
685.578	38.9553
688.471	37.2905
691.363	30.79
694.256	21.0791
697.149	69.761
700.042	8.05322
702.934	49.2861
705.827	103.727
708.72	99.2366
711.612	41.2676
714.505	99.1667
717.398	85.6834
720.29	119.37
723.183	97.5298
726.076	46.8897
728.968	113.81
731.861	68.0808
734.754	72.3279
737.647	61.1531
740.539	70.2647
743.432	124.215
746.325	132.083
749.217	139.695
752.11	160.385
755.003	152.496
757.895	175.49
760.788	165.673
763.681	178.274
766.574	222.348
769.466	239.784
772.359	263.904
775.252	232.998
778.144	190.362
781.037	233.663
783.93	224.753
786.822	170.878
789.715	165.334
792.608	169.022
795.501	219.927
798.393	198.876
801.286	126.987
804.179	116.8
807.071	94.6926
809.964	70.5232
812.857	61.2415
815.75	38.115
818.642	33.6265
821.535	3.16772
824.428	14.2729
827.32	19.0767
830.213	56.6602
833.106	21.5552
835.998	39.6008
838.891	10.7073
841.784	71.3325
844.677	72.5454
847.569	1.74439
850.462	61.7844
853.355	29.7939
856.247	67.2481
859.14	61.3108
862.033	81.3721
864.925	45.7825
867.818	73.7573
870.711	91.5298
873.604	59.9956
876.496	71.707
879.389	103.602
882.282	104.581
885.174	48.374
888.067	10.4485
890.96	62.5081
893.852	56.6621
896.745	98.2007
899.638	56.6885
902.53	40.9802
905.423	72.2756
908.316	23.5681
911.209	33.4509
914.101	40.689
916.994	14.3772
919.887	35.8257
922.779	35.0784
925.672	49.3833
928.565	66.5703
931.457	23.2834
934.35	36.1877
937.243	42.7407
940.136	32.2637
943.028	31.261
945.921	40.8415
948.814	4.19751
951.706	17.1895
954.599	46.0837
957.492	10.8169
960.385	34.387
963.277	50.6775
966.17	1.92334
969.063	6.86963
971.955	1.10986
974.848	1.28076
977.741	48.4846
980.633	14.7144
983.526	42.7756
986.419	38.8782
989.312	15.6199
992.204	66.7722
995.097	59.6025
997.99	54.3994
1000.88	46.3442
1003.77	60.4836
1006.67	17.1348
1009.56	11.303
1012.45	53.2476
1015.35	47.7656
1018.24	81.9578
1021.13	18.2881
1024.02	31.3237
1026.92	82.4172
1029.81	34.7549
1032.7	11.7366
1035.6	9.28809
1038.49	32.2754
1041.38	17.6743
1044.27	13.8118
1047.17	10.5518
1050.06	14.0574
1052.95	3.51587
1055.84	20.8628
1058.74	2.44678
1061.63	5.2334
1064.52	22.6314
1067.41	98.8144
1070.31	87.4604
1073.2	61.9199
1076.09	124.775
1078.98	142.807
1081.88	190.67
1084.77	136.681
1087.66	192.727
1090.56	273.187
1093.45	216.447
1096.34	299.202
1099.23	277.838
1102.13	276.499
1105.02	266.839
1107.91	292.133
1110.81	248.993
1113.7	298.222
1116.59	207.583
1119.48	246.043
1122.38	267.697
1125.27	255.612
1128.16	214.194
1131.05	222.834
1133.95	223.994
1136.84	209.438
1139.73	197.378
1142.62	201.31
1145.52	176.517
1148.41	176.194
1151.3	163.819
1154.19	94.0688
1157.09	97.5337
1159.98	57.3147
1162.87	58.2373
1165.77	59.8811
1168.66	43.8982
1171.55	55.5825
1174.44	43.8384
1177.34	49.9115
1180.23	41.3622
1183.12	21.549
1186.02	62.8894
1188.91	20.7504
1191.8	15.9769
1194.69	9.83264
1197.59	9.69214
1200.48	40.4661
1203.37	35.2233
1206.26	40.081
1209.16	88.6001
1212.05	61.6547
1214.94	52.0582
1217.84	65.6432
1220.73	58.626
1223.62	51.6743
1226.51	38.8892
1229.41	58.7024
1232.3	86.202
1235.19	77.3695
1238.08	30.9641
1240.98	19.653
