Measurement: Raman, 532 nm, unoriented, Raman Data Processed
Mineral: Gmelinite-Na
Rruff sample: R110191
Ideal chemistry: Na_4_(Si_8_Al_4_)O_24_11H_2_O
Locality: Mont St-Hilaire, Quebec, Canada
Source: Donald Doell
Description: Spherical aggregate of pale brownish-yellow hexagonal plates
Raman shift (cm-1)	intensity
211.504	0
214.396	1.34508
217.289	0.985687
220.182	2.62483
223.074	0.408211
225.967	0.528557
228.86	0.455223
231.752	2.05521
234.645	2.12484
237.538	0.681564
240.43	2.26613
243.323	2.34119
246.216	2.10465
249.109	3.28968
252.001	3.08852
254.894	1.94767
257.787	0.759995
260.679	0.691238
263.572	0.089508
266.465	0.296524
269.358	0.312225
272.25	0.218674
275.143	0.597046
278.036	0.291527
280.928	0.45343
283.821	1.95856
286.714	1.87664
289.606	0.350037
292.499	0.989876
295.392	1.92497
298.284	3.37076
301.177	3.24303
304.07	6.20843
306.963	7.6285
309.855	8.91
312.748	10.2322
315.641	12.4365
318.533	13.719
321.426	14.7852
324.319	14.0753
327.212	12.5498
330.104	12.4063
332.997	8.631
335.89	8.00807
338.782	6.33444
341.675	6.11991
344.568	3.29418
347.46	2.79913
350.353	2.03245
353.246	2.15486
356.139	1.21873
359.031	0.338188
361.924	0.108063
364.817	0.451706
367.709	0.161835
370.602	0.614746
373.495	0.051666
376.387	0.590347
379.28	0.263687
382.173	0.281219
385.065	0.034851
387.958	1.14406
390.851	1.96448
393.744	0.581543
396.636	3.22377
399.529	4.68481
402.422	6.49028
405.314	9.82755
408.207	11.2745
411.1	13.7205
413.993	15.0299
416.885	11.9941
419.778	7.48892
422.671	6.03748
425.563	3.23981
428.456	1.81213
431.349	1.94359
434.241	1.76477
437.134	1.91583
440.027	4.21432
442.92	4.5946
445.812	5.36998
448.705	7.72722
451.598	10.3397
454.49	13.4337
457.383	14.9004
460.276	18.6671
463.168	23.3677
466.061	27.4158
468.954	33.1821
471.846	39.2298
474.739	45.6117
477.632	51.4009
480.525	57.6239
483.417	63.6928
486.31	69.7298
489.203	72.6811
492.095	72.3723
494.988	72.3213
497.881	65.1022
500.774	57.2046
503.666	47.8992
506.559	38.1056
509.452	28.6366
512.344	21.641
515.237	15.7675
518.13	10.6484
521.022	8.71797
523.915	6.12289
526.808	5.28365
529.701	3.68927
532.593	1.82907
535.486	1.31987
538.379	0.916809
541.271	0.78923
544.164	1.77806
547.057	0.327744
549.949	0.345139
552.842	0.510605
555.735	0.193481
558.628	0.754105
561.52	0.870438
564.413	0.251007
567.306	0.06337
570.198	1.0282
573.091	0.88855
575.984	0.218765
578.876	0.452744
581.769	0.42778
584.662	0.638916
587.554	1.64047
590.447	1.40389
593.34	1.60384
596.232	1.36348
599.125	2.18782
602.018	2.01601
604.911	1.64456
607.803	2.65288
610.696	1.18607
613.589	4.76241
616.481	1.66231
619.374	1.72693
622.267	3.08009
625.159	0.922272
628.052	2.07536
630.945	1.03276
633.838	1.21423
636.73	1.85466
639.623	1.72095
642.516	1.67931
645.408	2.79134
648.301	2.8376
651.194	1.57579
654.087	2.96043
656.979	2.70992
659.872	1.37932
662.765	1.82184
665.657	0.712555
668.55	1.76527
671.443	0.748413
674.335	0.247665
677.228	0.586624
680.121	1.12509
683.014	0.759399
685.906	0.602737
688.799	1.74539
691.692	0.663513
694.584	0.454437
697.477	2.12941
700.37	1.26175
703.263	0.776215
706.155	0.165192
709.048	1.72435
711.941	1.31215
714.833	0.104111
717.726	0.499527
720.619	0.89476
723.511	0.764511
726.404	1.66829
729.297	1.27148
732.189	0.778152
735.082	1.43254
737.975	0.05191
740.868	0.451752
743.76	0.004944
746.653	1.16707
749.546	1.35016
752.438	1.6494
755.331	2.18933
758.224	2.86912
761.116	2.67007
764.009	3.70885
766.902	3.43713
769.795	3.85028
772.687	2.36433
775.58	2.55158
778.473	2.26257
781.365	1.79184
784.258	2.23814
787.151	1.76314
790.043	0.925583
792.936	1.38351
795.829	0.92572
798.722	1.43677
801.614	0.01152
804.507	0.329437
807.4	1.483
810.292	0.900635
813.185	0.27594
816.078	0.77951
818.971	0.207016
821.863	1.2168
824.756	0.117172
827.649	1.4948
830.541	0.612686
833.434	1.34943
836.327	0.605377
839.219	0.667435
842.112	1.66869
845.005	1.45302
847.898	1.16237
850.79	1.09112
853.683	1.25479
856.576	2.28854
859.468	1.33319
862.361	0.960342
865.254	1.83119
868.146	1.30136
871.039	1.33197
873.932	1.22932
876.824	1.51047
879.717	0.643753
882.61	0.755539
885.503	2.30083
888.395	1.59018
891.288	1.02794
894.181	1.55435
897.073	1.15901
899.966	0.874619
902.859	1.51756
905.751	0.565079
908.644	1.77496
911.537	2.49735
914.43	0.614029
917.322	0.50119
920.215	0.596268
923.108	0.806107
926	1.45671
928.893	1.71555
931.786	1.81105
934.678	0.236893
937.571	0.582214
940.464	0.080215
943.357	0.067764
946.249	1.36668
949.142	0.096115
952.035	0.925842
954.927	0.279205
957.82	0.723541
960.713	1.06673
963.606	0.824844
966.498	0.526245
969.391	1.96973
972.284	1.44432
975.176	2.31526
978.069	0.588959
980.962	2.07719
983.854	2.3409
986.747	2.8541
989.64	3.20741
992.533	1.70026
995.425	2.77353
998.318	1.92709
1001.21	1.98621
1004.1	2.0657
1007	1.12799
1009.89	2.70712
1012.78	1.32607
1015.67	1.25971
1018.57	1.29167
1021.46	2.10938
1024.35	1.20873
1027.24	1.89572
1030.14	1.85199
1033.03	1.47133
1035.92	1.2437
1038.82	1.03142
1041.71	0.758682
1044.6	0.448517
1047.49	0.282562
1050.39	0.327011
1053.28	0.800842
1056.17	0.624771
1059.07	0.43338
1061.96	0.162415
1064.85	0.782196
1067.74	1.6974
1070.63	0.691483
1073.53	1.09183
1076.42	0.165939
1079.31	2.18549
1082.21	2.80267
1085.1	3.21062
1087.99	3.02837
1090.88	4.74803
1093.78	5.29404
1096.67	5.21771
1099.56	5.29727
1102.45	5.29173
1105.35	5.39577
1108.24	4.99933
1111.13	6.62813
1114.03	6.06311
1116.92	5.67952
1119.81	5.99722
1122.7	6.09386
1125.6	5.84111
1128.49	5.47572
1131.38	4.29651
1134.28	5.04767
1137.17	4.24583
1140.06	3.8299
1142.95	3.47142
1145.85	3.96434
1148.74	2.9183
1151.63	2.82068
1154.52	3.08174
1157.42	2.35248
1160.31	1.89632
1163.2	1.29132
1166.09	2.3185
1168.99	1.91188
1171.88	1.22314
1174.77	1.39401
1177.66	1.20303
1180.56	0.097473
1183.45	0.585358
1186.34	0.670029
1189.24	0.40799
1192.13	0.557434
1195.02	0.372223
1197.91	1.03468
1200.81	1.16925
1203.7	0.346252
1206.59	1.19089
1209.48	3.48083
1212.38	0.398834
1215.27	0.486923
1218.16	0.235611
1221.06	0.65155
1223.95	1.40881
1226.84	1.07973
1229.73	1.46468
1232.63	1.3018
1235.52	0.203186
1238.41	0.282257
1241.31	0.691193
1244.2	1.29492
1247.09	1.0824
1249.98	0.740692
1252.88	2.0986
1255.77	0.237274
1258.66	1.49417
1261.55	0.778305
1264.45	1.44157
1267.34	0.269089
1270.23	1.41837
1273.12	0.967209
1276.02	1.8049
1278.91	1.19334
1281.8	1.31841
1284.69	1.92622
1287.59	0.632324
1290.48	0.32901
1293.37	1.05611
1296.27	0.961273
1299.16	1.10861
1302.05	0.61235
