Measurement: Raman, 532 nm, unoriented, Raman Data Processed
Mineral: Gmelinite-Na
Rruff sample: R070354
Ideal chemistry: Na_4_(Si_8_Al_4_)O_24_11H_2_O
Locality: Island of Finders, Australia
Source: Michael Scott
Description: Salmon-pink, striated vitreous crystals associated with colorless trapezohedral analcime and colorless tetragonal prisms of natrolite
Raman shift (cm-1)	intensity
136.645	0
140.019	307.881
143.394	202.903
146.769	68.0254
150.144	20.3394
153.519	174.472
156.894	333.204
160.268	313.232
163.643	252.78
167.018	130.6
170.393	171.312
173.768	155.731
177.143	124.668
180.517	88.8569
183.892	154.773
187.267	173.84
190.642	237.248
194.017	310.232
197.391	286.53
200.766	327.564
204.141	326.688
207.516	269.941
210.891	150.008
214.266	100.857
217.64	109.44
221.015	140.978
224.39	157.435
227.765	23.3372
231.14	21.8208
234.514	13.8945
237.889	12.8469
241.264	19.4446
244.639	1.69995
248.014	60.3047
251.388	24.477
254.763	50.9678
258.138	82.1433
261.513	81.1167
264.888	130.435
268.263	104.352
271.637	146.241
275.012	184.527
278.387	196.606
281.762	158.333
285.137	182.621
288.512	270.148
291.886	242.377
295.261	275.364
298.636	334.802
302.011	337.191
305.386	402.252
308.76	518.865
312.135	611.929
315.51	791.992
318.885	927.776
322.26	945.707
325.635	860.745
329.009	739.672
332.384	538.529
335.759	376.345
339.134	291.988
342.509	162.863
345.883	120.254
349.258	58.5339
352.633	42.1977
356.008	38.7124
359.383	12.0696
362.757	8.57837
366.132	29.9585
369.507	20.7239
372.882	23.6721
376.257	21.7261
379.632	22.0635
383.006	65.6885
386.381	142.709
389.756	227.493
393.131	381.136
396.506	671.006
399.88	1052.87
403.255	1438.28
406.63	1832.6
410.005	1967.78
413.38	1812.15
416.755	1344.35
420.129	815.405
423.504	453.839
426.879	213.298
430.254	92.8401
433.629	30.0818
437.003	9.4541
440.378	171.53
443.753	310.371
447.128	529.043
450.503	756.178
453.878	1054.35
457.252	1408.35
460.627	1793.55
464.002	2243.55
467.377	2619
470.752	3009.97
474.127	3591.52
477.501	4299.31
480.876	5206.04
484.251	6179.35
487.626	7039.44
491.001	7801.26
494.375	8095.51
497.75	7864.58
501.125	7134.1
504.5	5857.05
507.875	4433.06
511.25	3146.7
514.624	2136.61
517.999	1427.44
521.374	951.306
524.749	586.952
528.124	368.584
531.498	298.365
534.873	133.78
538.248	113.079
541.623	20.1101
544.998	51.033
548.372	24.6924
551.747	58.2351
555.122	81.5117
558.497	27.0933
561.872	10.252
565.247	1.41968
568.621	10.8479
571.996	5.29956
575.371	55.5627
578.746	35.3157
582.121	33.3027
585.495	73.5315
588.87	119.966
592.245	147.973
595.62	167.237
598.995	191.163
602.37	207.171
605.744	204.061
609.119	215.285
612.494	215.437
615.869	228.484
619.244	145.376
622.619	138.587
625.993	124.26
629.368	128.697
632.743	138.963
636.118	146.745
639.493	154.684
642.867	232.094
646.242	282.175
649.617	236.054
652.992	323.351
656.367	284.574
659.741	279.417
663.116	253.443
666.491	169.593
669.866	140.173
673.241	108.094
676.616	71.1655
679.99	43.6206
683.365	47.2131
686.74	30.8284
690.115	21.8738
693.49	5.95654
696.865	39.363
700.239	3.64941
703.614	0.442383
706.989	57.1484
710.364	18.4812
713.739	5.68481
717.113	7.78833
720.488	8.84375
723.863	1.35107
727.238	20.8477
730.613	44.3472
733.987	3.70898
737.362	8.75854
740.737	27.0066
744.112	36.7627
747.487	89.8992
750.862	122.311
754.236	124.07
757.611	163.992
760.986	160.134
764.361	142.185
767.736	117.436
771.111	140.904
774.485	116.03
777.86	155.488
781.235	183.642
784.61	193.646
787.985	245.599
791.359	278.816
794.734	287.889
798.109	311.391
801.484	286.134
804.859	197.353
808.234	164.451
811.608	107.448
814.983	94.2878
818.358	71.7864
821.733	24.4883
825.108	56.5935
828.482	61.227
831.857	18.1301
835.232	44.7817
838.607	14.1274
841.982	17.3616
845.356	17.5969
848.731	0.184326
852.106	4.62744
855.481	19.2676
858.856	58.5222
862.231	4.54004
865.605	46.4434
868.98	59.7293
872.355	41.7341
875.73	78.3027
879.105	78.8538
882.48	45.3538
885.854	71.4477
889.229	53.1851
892.604	64.0212
895.979	17.9709
899.354	48.2996
902.729	69.751
906.103	83.7109
909.478	43.803
912.853	29.2251
916.228	3.59277
919.602	64.4048
922.977	61.5017
926.352	3.30127
929.727	19.1081
933.102	22.8318
936.477	15.7861
939.851	46.5933
943.226	19.3804
946.601	25.8003
949.976	11.9539
953.351	10.7483
956.726	4.54053
960.1	11.0112
963.475	11.4067
966.85	1.82935
970.225	16.1321
973.6	54.8596
976.974	84.9644
980.349	114.454
983.724	59.8423
987.099	122.708
990.474	125.857
993.848	156.808
997.223	155.033
1000.6	181.205
1003.97	179.393
1007.35	176.341
1010.72	174.748
1014.1	205.008
1017.47	198.003
1020.85	226.618
1024.22	144.389
1027.6	203.702
1030.97	123.987
1034.35	118.016
1037.72	114.965
1041.1	72.9932
1044.47	71.4683
1047.85	10.7363
1051.22	22.3127
1054.6	43.4377
1057.97	1.91235
1061.35	41.554
1064.72	117.908
1068.09	82.3237
1071.47	196.884
1074.84	275.456
1078.22	302.155
1081.59	416.857
1084.97	443.889
1088.34	541.455
1091.72	570.088
1095.09	674.229
1098.47	677.234
1101.84	763.815
1105.22	724.658
1108.59	771.862
1111.97	730.221
1115.34	747.919
1118.72	665.943
1122.09	667.306
1125.47	720.738
1128.84	660.038
1132.22	638.303
1135.59	586.617
1138.97	603.68
1142.34	545.14
1145.71	482.775
1149.09	466.65
1152.46	395.331
1155.84	362.592
1159.21	322.364
1162.59	264.51
1165.96	171.714
1169.34	113.977
1172.71	129.764
1176.09	94.1313
1179.46	66.8689
1182.84	78.4209
1186.21	33.3132
1189.59	9.03174
1192.96	7.75513
1196.34	9.6543
1199.71	37.1716
1203.09	22.8145
1206.46	21.116
1209.84	0.975342
1213.21	13.8152
1216.59	27.0938
1219.96	78.5654
1223.34	52.0842
1226.71	50.4695
1230.09	34.541
1233.46	44.3355
1236.84	59.1824
1240.21	42.1462
1243.59	1.21631
1246.96	47.188
1250.34	50.4565
1253.71	40.1321
1257.08	43.4287
1260.46	71.1199
1263.83	76.1304
1267.21	73.6306
1270.58	38.1633
1273.96	24.4141
1277.33	86.5593
1280.71	2.90918
1284.08	10.2964
1287.46	2.43994
1290.83	56.1401
1294.21	24.6946
1297.58	95.0549
1300.96	19.5437
1304.33	1.65332
1307.71	16.3906
1311.08	40.2366
1314.46	0.623535
