Measurement: Raman, 532 nm, unoriented, Raman Data Processed
Mineral: Gmelinite-Ca
Rruff sample: R070283
Ideal chemistry: Ca_2_(Si_8_Al_4_)O_24_11H_2_O
Locality: Montecchio Maggiore, Vicenza Province, Veneto, Italy
Source: Michael Scott
Description: Pale orange tabular hexagonal plates with low pyramidal terminations
Raman shift (cm-1)	intensity
174.25	0
177.143	0.553711
180.035	8.20996
182.928	45.0127
185.821	127.673
188.713	204.338
191.606	264.924
194.499	378.041
197.391	453.695
200.284	525.518
203.177	569.51
206.07	578.769
208.962	521.454
211.855	457.657
214.748	358.22
217.64	344.321
220.533	288.61
223.426	311.411
226.318	237.189
229.211	144.174
232.104	88.5166
234.996	31.582
237.889	23.8203
240.782	94.9228
243.675	8.56348
246.567	50.9551
249.46	37.8105
252.353	25.4111
255.245	51.3691
258.138	16.0742
261.031	25.7471
263.923	4.07519
266.816	63.7129
269.709	74.585
272.602	111.111
275.494	90.1133
278.387	118.603
281.28	177.443
284.173	168.676
287.065	460.835
289.958	375.794
292.851	512.262
295.743	505.79
298.636	559.268
301.529	632.903
304.421	811.222
307.314	829.445
310.207	954.108
313.099	1047.71
315.992	1098.45
318.885	1084.9
321.778	1102.83
324.67	1018.77
327.563	895.352
330.456	820.383
333.348	651.812
336.241	459.047
339.134	443.771
342.026	384.157
344.919	271.571
347.812	246.062
350.705	137.233
353.597	42.2324
356.49	23.2432
359.383	10.1182
362.275	15.0059
365.168	11.8643
368.061	28.0918
370.954	64.1455
373.846	77.5742
376.739	21.7041
379.632	77.4414
382.524	2.56641
385.417	66.459
388.31	121.135
391.202	155.04
394.095	268.684
396.988	430.702
399.88	508.075
402.773	854.858
405.666	1108.37
408.559	1487.83
411.451	1798.83
414.344	2128.29
417.237	2020.92
420.129	2038.31
423.022	1820.72
425.915	1444.54
428.808	1271.24
431.7	1122.28
434.593	1187.44
437.486	1242.17
440.378	1406.97
443.271	1584.75
446.164	1944.53
449.056	2288.5
451.949	2733.39
454.842	3080.82
457.735	3497.53
460.627	3840.66
463.52	4077.06
466.413	4290.21
469.305	4426.27
472.198	4634.4
475.091	4825.29
477.983	4958.59
480.876	5272.48
483.769	5334.61
486.661	5323.1
489.554	5243.87
492.447	4840.69
495.34	4408.26
498.232	3839.45
501.125	3226.95
504.018	2652.91
506.911	2096.91
509.803	1508.74
512.696	1120.69
515.589	826.636
518.481	486.777
521.374	450.95
524.267	202.917
527.159	165.658
530.052	18.3389
532.945	12.9062
535.837	84.2647
538.73	18.5635
541.623	51.2285
544.516	4.27637
547.408	2.84375
550.301	29.7881
553.194	30.292
556.086	53.1787
558.979	15.2041
561.872	8.27148
564.764	20.7266
567.657	0.541016
570.55	35.0225
573.443	27.8721
576.335	54.8682
579.228	85.6562
582.121	102.764
585.013	199.792
587.906	138.992
590.799	146.443
593.692	143.157
596.584	171.441
599.477	172.017
602.37	206.858
605.262	256.443
608.155	221.505
611.048	260.231
613.94	205.149
616.833	188.23
619.726	203.343
622.619	171.054
625.511	169.571
628.404	211.31
631.297	195.965
634.189	131.772
637.082	277.732
639.975	251.748
642.867	256.325
645.76	319.415
648.653	329.812
651.545	309.166
654.438	260.416
657.331	287.709
660.224	271.804
663.116	270.264
666.009	160.623
668.902	169.898
671.794	143.932
674.687	152.774
677.58	60.0029
680.472	117.878
683.365	105.901
686.258	96.9463
689.151	28.6533
692.043	97.1709
694.936	119.73
697.829	139.624
700.721	60.4863
703.614	82.2734
706.507	11.8408
709.399	126.067
712.292	88.2773
715.185	52.3857
718.078	26.8154
720.97	66.1006
723.863	152.828
726.756	52.8652
729.648	76.6953
732.541	142.836
735.434	72.1719
738.327	111.629
741.219	113.544
744.112	23.3896
747.005	84.8457
749.897	73.1475
752.79	148.218
755.683	155.371
758.576	103.481
761.468	228.241
764.361	219.659
767.254	204.411
770.146	283.324
773.039	308.85
775.932	310.389
778.824	238.492
781.717	232.851
784.61	270.78
787.503	219.122
790.395	284.641
793.288	204.555
796.181	183.892
799.073	295.606
801.966	239.344
804.859	227.56
807.751	57.749
810.644	73.1152
813.537	70.4893
816.429	103.889
819.322	38.9815
822.215	39.2119
825.108	9.96387
828	37.2158
830.893	21.8711
833.786	48.0732
836.678	13.915
839.571	85.4707
842.464	21.8662
845.356	40.1953
848.249	16.1807
851.142	71.4893
854.035	77.4102
856.927	48.3525
859.82	156.876
862.713	22.7715
865.605	161.413
868.498	21.9805
871.391	41.9609
874.284	74.0752
877.176	63.9307
880.069	172.588
882.962	22.7568
885.854	105.189
888.747	190.911
891.64	2.67383
894.533	107.787
897.425	92.9971
900.318	140.989
903.211	146.136
906.103	101.825
908.996	193.413
911.889	119.84
914.781	239.497
917.674	77.7109
920.567	96.4033
923.46	121.706
926.352	56.7685
929.245	21.4062
932.138	36.9121
935.03	47.6738
937.923	126.513
940.816	69.6738
943.708	6.39453
946.601	60.0449
949.494	11.1289
952.386	24.4736
955.279	0.912109
958.172	52.6807
961.065	35.2588
963.957	96.1738
966.85	143.392
969.743	26.0732
972.635	3.12695
975.528	40.1641
978.421	116.779
981.313	58.3535
984.206	79.7519
987.099	90.9961
989.992	169.318
992.884	65.5547
995.777	84.8027
998.67	159.012
1001.56	84.1738
1004.46	131.287
1007.35	123.635
1010.24	62.3359
1013.13	133.119
1016.03	152.467
1018.92	118.295
1021.81	115.168
1024.7	0.388672
1027.6	44.3203
1030.49	52.0859
1033.38	119.678
1036.28	8.13477
1039.17	55.8789
1042.06	12.4531
1044.95	70.3828
1047.85	58.4473
1050.74	18.5254
1053.63	8.75195
1056.52	63.1309
1059.42	73.2949
1062.31	95.2852
1065.2	131.322
1068.09	37.9023
1070.99	139.644
1073.88	184.463
1076.77	196.26
1079.66	324.76
1082.56	390.203
1085.45	443.5
1088.34	393.127
1091.24	488.666
1094.13	538.17
1097.02	501.775
1099.91	514.279
1102.81	468.998
1105.7	555.547
1108.59	513.408
1111.48	506.174
1114.38	488.092
1117.27	521.725
1120.16	484.004
1123.06	581.92
1125.95	457.072
1128.84	407.074
1131.73	412.758
1134.63	386.477
1137.52	362.31
1140.41	379.174
1143.31	363.709
1146.2	299.566
1149.09	276.221
1151.98	322.5
1154.88	243.08
1157.77	202.59
1160.66	323.666
1163.55	249.629
1166.45	174.117
1169.34	181.246
1172.23	158.807
1175.12	153.42
1178.02	80.6992
1180.91	83.8496
1183.8	118.842
1186.69	119.275
1189.59	59.4668
1192.48	98.9727
1195.37	17.0723
1198.27	74.6465
1201.16	96.9394
1204.05	65.6914
1206.94	33.9492
1209.84	60.4492
1212.73	94.8769
1215.62	59.75
1218.52	66.8438
1221.41	24.4922
1224.3	73.2168
1227.19	31.2383
1230.09	25.2695
1232.98	45.1367
1235.87	44.9043
1238.76	161.197
1241.66	51.7363
1244.55	184.648
1247.44	216.918
1250.34	42.0781
1253.23	45.3965
1256.12	133.606
1259.01	260.615
1261.91	91.2812
1264.8	187.033
1267.69	63.9805
1270.58	59.8652
1273.48	243.656
1276.37	69.168
1279.26	22.5742
1282.15	145.459
1285.05	115.162
1287.94	64.5332
1290.83	140.209
1293.72	85.2012
1296.62	55.5723
1299.51	30.6895
1302.4	70.8086
1305.3	17.627
1308.19	13.8477
1311.08	93.4961
1313.97	31.8457
