Measurement: Raman, 780 nm, unoriented, Raman Data Processed
Mineral: Gmelinite-Na
Rruff sample: R050371
Ideal chemistry: Na_4_(Si_8_Al_4_)O_24_11H_2_O
Locality: Cairns Bay, Flinders Range, Australia
Source: Eugene Schlepp
Description: Colorless to pink crystals lining a basalt vug
Measured chemistry: Na_3.81_(Si_8.13_Al_3.88_)O_24_Â·4.27H_2_O
Raman shift (cm-1)	intensity
114.701	0
118.076	7.22235
121.45	18.0164
124.825	42.4569
128.2	61.7423
131.575	80.0385
134.95	87.3491
138.325	77.8183
141.699	64.2581
145.074	59.5551
148.449	58.6649
151.824	50.6816
155.199	45.3764
158.573	35.9725
161.948	24.0609
165.323	11.7811
168.698	4.07263
172.073	1.40628
175.447	4.06247
178.822	1.50958
182.197	0.239563
185.572	2.36682
188.947	6.1561
192.322	11.928
195.696	17.4801
199.071	22.061
202.446	27.1623
205.821	28.6542
209.196	28.0147
212.571	20.1671
215.945	16.5773
219.32	14.1823
222.695	10.8981
226.07	6.98116
229.445	5.6255
232.819	4.36263
236.194	4.11632
239.569	1.90459
242.944	4.28421
246.319	3.76401
249.694	3.7428
253.068	3.13153
256.443	1.94383
259.818	0.115021
263.193	1.80768
266.567	2.86705
269.942	4.70685
273.317	6.19379
276.692	10.0266
280.067	17.948
283.442	26.9617
286.816	34.387
290.191	44.0865
293.566	60.1748
296.941	75.1748
300.316	67.17
303.69	59.8833
307.065	59.934
310.44	66.0282
313.815	69.7884
317.19	77.1999
320.565	85.0984
323.939	78.3938
327.314	68.1592
330.689	51.3056
334.064	34.4573
337.439	19.6629
340.813	14.3699
344.188	7.42815
347.563	1.99271
350.938	0.347412
354.313	1.46146
357.688	2.5016
361.062	3.67949
364.437	1.86177
367.812	0.80159
371.187	1.31836
374.562	6.37013
377.937	10.4126
381.311	17.183
384.686	27.6503
388.061	44.1398
391.436	66.8432
394.81	99.345
398.185	139.473
401.56	182.94
404.935	229.648
408.31	261.932
411.685	245.96
415.059	190.457
418.434	127.317
421.809	72.6732
425.184	37.9066
428.559	15.996
431.933	6.31345
435.308	0.805222
438.683	1.35854
442.058	4.9361
445.433	12.8802
448.808	22.0827
452.182	38.4541
455.557	61.2979
458.932	85.2003
462.307	118.617
465.682	153.771
469.057	199.084
472.431	248.623
475.806	307.446
479.181	373.354
482.556	451.786
485.931	529.522
489.305	598.392
492.68	640.911
496.055	639.578
499.43	595.961
502.805	507.207
506.18	405.036
509.554	293.747
512.929	208.382
516.304	139.148
519.679	86.6234
523.054	56.5084
526.428	37.3304
529.803	22.5574
533.178	14.1512
536.553	7.15977
539.928	3.6467
543.303	0.830177
546.677	1.27205
550.052	2.06953
553.427	1.53086
556.802	1.88831
560.177	1.28478
563.551	2.63415
566.926	1.67556
570.301	4.04134
573.676	4.44576
577.051	7.1767
580.426	8.6276
583.8	11.9352
587.175	16.3949
590.55	22.4511
593.925	27.984
597.299	32.8282
600.674	37.668
604.049	44.5519
607.424	45.7535
610.799	42.9795
614.174	36.86
617.548	27.9206
620.923	20.6761
624.298	15.0639
627.673	12.6883
631.048	12.365
634.423	12.7105
637.797	15.5013
641.172	15.7737
644.547	15.4886
647.922	18.5946
651.297	18.0012
654.671	20.3175
658.046	16.6914
661.421	14.5028
664.796	10.8416
668.171	8.40075
671.545	6.06647
674.92	4.51166
678.295	2.96958
681.67	0.220718
685.045	0.144569
688.42	0.034897
691.794	0.952957
695.169	0.990158
698.544	1.36727
701.919	0.673805
705.294	1.18238
708.668	0.136864
712.043	0.901314
715.418	1.94579
718.793	0.207703
722.168	0.640583
725.543	0.51384
728.917	1.78626
732.292	0.020233
735.667	1.15627
739.042	0.557259
742.417	3.80548
745.791	3.30716
749.166	3.0079
752.541	5.15997
755.916	5.70858
759.291	8.92394
762.665	9.47995
766.04	8.13382
769.415	8.71984
772.79	7.59591
776.165	7.19716
779.54	5.50852
782.914	9.31395
786.289	8.58373
789.664	10.6229
793.039	13.0412
796.414	12.4771
799.788	10.0721
803.163	9.77713
806.538	6.89679
809.913	4.41468
813.288	1.48353
816.663	1.97372
820.037	1.52178
823.412	0.252083
826.787	2.12148
830.162	0.727867
833.537	0.971401
836.912	0.598415
840.286	1.4266
843.661	0.589344
847.036	1.41508
850.411	0.369888
853.786	2.88267
857.16	1.00717
860.535	1.13355
863.91	3.39875
867.285	1.91633
870.66	0.894325
874.034	2.30552
877.409	2.42957
880.784	1.68237
884.159	1.47816
887.534	1.57055
890.909	0.976063
894.283	3.07938
897.658	2.53193
901.033	1.82404
904.408	0.157104
907.783	0.901352
911.158	1.46709
914.532	1.71987
917.907	0.975517
921.282	1.74894
924.657	1.60229
928.032	2.5602
931.406	0.988701
934.781	1.84305
938.156	1.46234
941.531	1.30143
944.906	1.26582
948.28	0.222851
951.655	0.970551
955.03	0.426704
958.405	0.706112
961.78	0.053982
965.154	1.59307
968.529	2.6735
971.904	3.41514
975.279	2.86914
978.654	4.4204
982.029	5.99953
985.403	5.69949
988.778	5.968
992.153	8.97971
995.528	6.85314
998.903	7.81567
1002.28	8.26267
1005.65	7.91803
1009.03	9.24502
1012.4	9.1994
1015.78	9.08911
1019.15	8.70955
1022.53	8.99766
1025.9	8.74611
1029.28	7.43887
1032.65	4.94502
1036.03	5.77339
1039.4	3.73233
1042.78	0.981651
1046.15	0.783222
1049.53	0.554428
1052.9	0.593262
1056.28	0.280533
1059.65	0.12579
1063.02	2.14513
1066.4	6.84203
1069.77	6.78242
1073.15	12.5648
1076.52	17.0628
1079.9	20.6784
1083.27	23.3139
1086.65	27.1309
1090.02	31.3852
1093.4	33.5506
1096.77	36.5976
1100.15	38.7118
1103.52	38.1344
1106.9	38.7081
1110.27	38.8637
1113.65	36.5997
1117.02	36.7887
1120.4	34.3535
1123.77	33.3352
1127.15	30.0047
1130.52	28.4863
1133.89	28.1175
1137.27	26.0607
1140.64	21.9817
1144.02	20.6721
1147.39	19.2996
1150.77	15.708
1154.14	14.3207
1157.52	13.0076
1160.89	12.2479
1164.27	7.47666
1167.64	5.33155
1171.02	5.22105
1174.39	2.33847
1177.77	3.0376
1181.14	1.13772
1184.52	0.01955
1187.89	0.014641
1191.27	0.101082
1194.64	0.929138
1198.02	0.142899
1201.39	0.014168
1204.77	1.2459
1208.14	0.264149
1211.52	0.143534
1214.89	0.507736
1218.27	1.22669
1221.64	1.24205
1225.02	1.96734
1228.39	2.63084
1231.77	1.11565
1235.14	1.35254
1238.52	3.80298
1241.89	1.94439
1245.26	2.36295
1248.64	2.39593
1252.01	0.757528
1255.39	2.06906
1258.76	4.11745
1262.14	1.91329
1265.51	1.29973
1268.89	2.11927
1272.26	1.92676
1275.64	0.907406
1279.01	1.13858
