Measurement: Raman, 785 nm, unoriented, Raman Data Processed
Mineral: Gmelinite-Ca
Rruff sample: R061130
Ideal chemistry: Ca_2_(Si_8_Al_4_)O_24_11H_2_O
Locality: Fara Vicentino, Vicenza, Veneto, Italy
Source: Michael Scott
Description: Pale orange tabular crystals lining vesicles in basalt
Measured chemistry: (Ca_1.70_Na_0.21_K_0.09_)_Σ=2_(Si_8.30_Al_3.70_)O_24_·11H_2_O; H_2_O estimated by difference
Raman shift (cm-1)	intensity
149.755	0
152.648	74.0977
155.54	35.2094
158.433	14.8359
161.326	54.6051
164.218	130.112
167.111	203.01
170.004	203.056
172.897	219.198
175.789	200.544
178.682	182.01
181.575	173.021
184.467	180.47
187.36	171.949
190.253	197.88
193.145	216.69
196.038	248.531
198.931	246.932
201.823	211.46
204.716	213.968
207.609	185.365
210.501	166.716
213.394	107.66
216.287	112.052
219.18	62.8285
222.072	63.4685
224.965	27.3881
227.858	21.4536
230.75	12.803
233.643	6.48291
236.536	4.87451
239.429	2.29248
242.321	18.5032
245.214	21.7377
248.107	4.45789
250.999	26.0242
253.892	5.94421
256.785	13.5057
259.677	36.9194
262.57	24.4056
265.463	14.3438
268.356	41.314
271.248	16.4775
274.141	51.814
277.034	43.9354
279.926	62.917
282.819	45.358
285.712	83.7259
288.604	72.7554
291.497	49.6511
294.39	91.2666
297.283	87.0853
300.175	112.566
303.068	95.8258
305.961	126.113
308.853	188.698
311.746	166.438
314.639	195.593
317.531	211.744
320.424	228.252
323.317	189.696
326.209	199.074
329.102	165.586
331.995	140.025
334.888	146.219
337.78	126.788
340.673	65.5194
343.566	61.4739
346.458	48.3191
349.351	10.3068
352.244	32.9067
355.137	1.849
358.029	21.7969
360.922	2.17358
363.815	0.404907
366.707	9.14246
369.6	16.5076
372.493	13.4302
375.385	7.04382
378.278	7.63318
381.171	26.7202
384.063	27.722
386.956	15.6916
389.849	35.4121
392.742	34.7408
395.634	72.9481
398.527	86.3981
401.42	152.237
404.312	250.926
407.205	260.582
410.098	308.682
412.99	404.675
415.883	390.409
418.776	367.505
421.669	330.267
424.561	266.832
427.454	273.009
430.347	238.303
433.239	291.279
436.132	319.897
439.025	370.218
441.918	479.953
444.81	554.454
447.703	653.485
450.596	790.984
453.488	955.757
456.381	1054.88
459.274	1205.68
462.166	1333.62
465.059	1420.86
467.952	1474.04
470.844	1543.22
473.737	1542.43
476.63	1585.28
479.523	1576.55
482.415	1635.83
485.308	1630.51
488.201	1653.37
491.093	1599.67
493.986	1466.27
496.879	1334
499.772	1134.79
502.664	950.107
505.557	787.435
508.45	608.291
511.342	454.281
514.235	347.96
517.128	228.827
520.02	166.871
522.913	119.18
525.806	82.7681
528.698	47.1548
531.591	25.9204
534.484	11.876
537.377	16.955
540.269	9.14111
543.162	20.0687
546.055	22.2272
548.947	2.1897
551.84	6.13415
554.733	20.369
557.625	12.5013
560.518	0.648193
563.411	37.354
566.303	8.58984
569.196	7.81177
572.089	15.5723
574.982	1.72986
577.874	29.7138
580.767	16.9165
583.66	20.1676
586.552	50.7869
589.445	21.5994
592.338	57.1475
595.231	60.5266
598.123	29.2225
601.016	73.6161
603.909	70.1102
606.801	49.7418
609.694	72.5807
612.587	52.2875
615.479	37.4907
618.372	45.4879
621.265	48.059
624.158	62.0352
627.05	71.2953
629.943	63.7787
632.836	54.2794
635.728	29.9477
638.621	60.6588
641.514	56.6486
644.406	65.8157
647.299	50.4139
650.192	57.9296
653.085	56.5785
655.977	37.6473
658.87	48.3107
661.763	34.0272
664.655	18.251
667.548	32.447
670.441	19.5654
673.333	5.65527
676.226	24.4003
679.119	0.693726
682.011	16.2626
684.904	28.5139
687.797	4.67322
690.69	13.5193
693.582	0.920288
696.475	46.4266
699.368	11.802
702.26	24.0842
705.153	28.4285
708.046	19.8334
710.938	32.2996
713.831	48.0725
716.724	13.7786
719.617	20.7313
722.509	32.7852
725.402	34.1608
728.295	49.0359
731.187	11.1489
734.08	5.2738
736.973	0.603027
739.865	10.8743
742.758	21.4652
745.651	20.4753
748.544	20.6879
751.436	4.51636
754.329	8.91504
757.222	55.3899
760.114	32.8735
763.007	31.3757
765.9	15.5007
768.793	12.46
771.685	28.4691
774.578	17.5236
777.471	4.39722
780.363	28.5452
783.256	39.2604
786.149	58.2154
789.041	62.8601
791.934	83.8398
794.827	107.924
797.72	87.4677
800.612	39.5003
803.505	42.5433
806.398	21.574
809.29	23.7295
812.183	0.656433
815.076	20.758
817.968	15.8886
820.861	14.0124
823.754	13.6513
826.646	22.2864
829.539	20.6391
832.432	5.61096
835.325	20.3347
838.217	15.4236
841.11	21.4458
844.003	17.1047
846.895	15.7596
849.788	14.8117
852.681	9.94501
855.573	23.3967
858.466	26.9686
861.359	37.2476
864.252	0.531067
867.144	14.0648
870.037	10.5575
872.93	7.94037
875.822	47.4346
878.715	10.6663
881.608	26.4314
884.5	17.2631
887.393	23.3262
890.286	28.7213
893.179	29.6292
896.071	38.7565
898.964	40.0829
901.857	28.3491
904.749	35.6982
907.642	45.1057
910.535	5.35913
913.428	46.1614
916.32	18.89
919.213	12.1213
922.106	22.151
924.998	2.3952
927.891	13.1193
930.784	7.46735
933.676	19.1095
936.569	22.2118
939.462	2.578
942.355	4.09418
945.247	16.6834
948.14	18.6242
951.033	21.7665
953.925	7.04925
956.818	14.9443
959.711	4.12299
962.603	30.5241
965.496	2.06635
968.389	5.69836
971.281	0.099365
974.174	8.45123
977.067	1.20093
979.96	10.1373
982.852	29.9741
985.745	16.6793
988.638	23.6382
991.53	23.441
994.423	19.9428
997.316	15.0657
1000.21	23.5082
1003.1	20.634
1005.99	38.968
1008.89	14.0057
1011.78	30.6223
1014.67	22.922
1017.57	36.1459
1020.46	3.20276
1023.35	46.4218
1026.24	22.6369
1029.13	22.9511
1032.03	20.1547
1034.92	6.27838
1037.81	8.87396
1040.71	0.374939
1043.6	22.2502
1046.49	4.64954
1049.38	27.9612
1052.28	1.43091
1055.17	35.5389
1058.06	25.4954
1060.95	34.1951
1063.85	32.9477
1066.74	21.8045
1069.63	44.8453
1072.53	40.0663
1075.42	23.8781
1078.31	65.2388
1081.2	57.7792
1084.1	99.1038
1086.99	78.9692
1089.88	67.1977
1092.78	103.38
1095.67	85.6221
1098.56	90.4183
1101.45	82.955
1104.35	92.918
1107.24	67.0219
1110.13	57.1639
1113.02	69.7591
1115.92	67.8713
1118.81	53.7555
1121.7	61.0334
1124.59	55.6124
1127.49	62.3608
1130.38	56.7519
1133.27	47.9522
1136.16	55.069
1139.06	47.7537
1141.95	37.3585
1144.84	66.7546
1147.74	39.8716
1150.63	37.5272
1153.52	44.1484
1156.41	11.2285
1159.31	11.7509
1162.2	30.9403
1165.09	19.244
1167.98	40.1157
1170.88	62.1457
1173.77	6.38452
1176.66	30.5745
1179.56	11.6365
1182.45	0.365479
1185.34	5.78803
1188.23	8.26636
1191.13	4.78351
1194.02	3.76227
1196.91	3.2879
1199.81	46.6602
1202.7	39.3935
1205.59	27.154
1208.48	27.9443
1211.38	21.8194
1214.27	66.0549
1217.16	24.402
1220.05	15.3166
1222.95	40.4816
1225.84	11.5021
1228.73	21.1996
1231.62	13.1207
1234.52	15.5466
1237.41	3.3642
1240.3	5.90961
1243.19	10.3758
