Measurement: Raman, 785 nm, unoriented, Raman Data Processed
Mineral: Gmelinite-Na
Rruff sample: R070354
Ideal chemistry: Na_4_(Si_8_Al_4_)O_24_11H_2_O
Locality: Island of Finders, Australia
Source: Michael Scott
Description: Salmon-pink, striated vitreous crystals associated with colorless trapezohedral analcime and colorless tetragonal prisms of natrolite
Raman shift (cm-1)	intensity
140.786	0
143.679	71.6406
146.572	378.449
149.464	693.047
152.357	791.001
155.25	681.221
158.142	534.85
161.035	454.266
163.928	492.559
166.821	526.411
169.713	517.095
172.606	493.823
175.499	419.711
178.391	378.761
181.284	302.721
184.177	325.876
187.069	298.834
189.962	279.848
192.855	284.791
195.748	372.746
198.64	339.441
201.533	295.709
204.426	276.04
207.318	257.839
210.211	182.326
213.104	148.029
215.996	91.7179
218.889	64.0212
221.782	52.7808
224.674	16.0601
227.567	2.2439
230.46	3.30676
233.353	30.5029
236.245	27.5521
239.138	12.6107
242.031	5.29919
244.923	1.17444
247.816	6.57373
250.709	2.0404
253.601	17.2422
256.494	10.4431
259.387	34.2267
262.28	56.0837
265.172	64.9583
268.065	56.855
270.958	92.6946
273.85	90.6616
276.743	65.9806
279.636	104.964
282.529	114.329
285.421	164.214
288.314	166.58
291.207	226.507
294.099	257.775
296.992	274.554
299.885	298.617
302.777	310.945
305.67	355.011
308.563	468.392
311.455	530.516
314.348	644.539
317.241	704.589
320.134	789.559
323.026	820.175
325.919	768.412
328.812	681.597
331.704	550.731
334.597	404.366
337.49	338.542
340.382	215.459
343.275	170.796
346.168	105.706
349.061	72.7036
351.953	58.0513
354.846	27.3844
357.739	29.9456
360.631	19.0944
363.524	30.2659
366.417	20.6561
369.31	18.4186
372.202	19.2893
375.095	42.2351
377.988	4.67554
380.88	27.8159
383.773	77.0603
386.666	116.173
389.558	180.853
392.451	303.174
395.344	414.57
398.236	597.26
401.129	823.392
404.022	1038.14
406.915	1319.36
409.807	1427.27
412.7	1412.85
415.593	1170.15
418.485	870.003
421.378	531.793
424.271	334.269
427.163	205.309
430.056	89.014
432.949	54.426
435.842	39.0886
438.734	63.3436
441.627	120.436
444.52	215.691
447.412	310.346
450.305	397.547
453.198	545.771
456.091	731.693
458.983	928.181
461.876	1114.69
464.769	1338.54
467.661	1582.23
470.554	1849.05
473.447	2128.62
476.339	2457.32
479.232	2934.3
482.125	3432.3
485.017	3972.09
487.91	4569.68
490.803	5026.5
493.696	5381.28
496.588	5360.96
499.481	5206.52
502.374	4658.32
505.266	3929.15
508.159	3165.53
511.052	2359.25
513.944	1754.34
516.837	1213.3
519.73	827.656
522.623	568.888
525.515	408.863
528.408	290.521
531.301	173.494
534.193	108.516
537.086	77.6029
539.979	10.5709
542.871	17.4576
545.764	1.86658
548.657	26.7206
551.55	22.199
554.442	15.4126
557.335	31.1713
560.228	0.388428
563.12	12.4783
566.013	16.5678
568.906	23.4515
571.798	0.665283
574.691	19.7047
577.584	35.9819
580.477	33.109
583.369	58.4501
586.262	67.8019
589.155	92.1723
592.047	80.5909
594.94	130.507
597.833	140.471
600.726	134.383
603.618	165.794
606.511	167.266
609.404	206.608
612.296	143.179
615.189	113.888
618.082	114.265
620.974	97.8608
623.867	102.922
626.76	72.3141
629.653	85.613
632.545	68.4227
635.438	74.6242
638.331	84.7741
641.223	113.203
644.116	114.113
647.009	89.7779
649.901	127.966
652.794	120.849
655.687	124.273
658.58	112.242
661.472	90.8813
664.365	66.662
667.258	61.1944
670.15	38.5926
673.043	34.8783
675.936	35.1602
678.828	20.7833
681.721	3.56049
684.614	5.36468
687.506	13.2539
690.399	2.5152
693.292	7.39423
696.185	34.1904
699.077	14.2429
701.97	19.814
704.863	26.272
707.755	21.8213
710.648	7.14911
713.541	22.3173
716.433	4.77106
719.326	0.907471
722.219	15.1608
725.112	20.7853
728.004	37.2899
730.897	37.0753
733.79	4.89386
736.682	8.9104
739.575	12.9012
742.468	32.0033
745.361	15.6747
748.253	29.4943
751.146	38.0403
754.039	80.3996
756.931	63.6511
759.824	99.3687
762.717	95.228
765.609	108.065
768.502	83.7839
771.395	81.0608
774.288	61.8357
777.18	85.7533
780.073	83.9405
782.966	79.3075
785.858	96.6293
788.751	131.215
791.644	141.384
794.536	165.601
797.429	155.244
800.322	151.321
803.215	116.532
806.107	88.7133
809	72.7629
811.893	38.1324
814.785	47.1597
817.678	23.6095
820.571	14.5026
823.463	16.2818
826.356	22.9958
829.249	0.549377
832.141	0.969421
835.034	5.45606
837.927	20.2458
840.82	2.18283
843.712	1.86017
846.605	7.45386
849.498	17.0055
852.39	16.9893
855.283	3.23871
858.176	17.1325
861.068	13.584
863.961	23.742
866.854	17.5308
869.747	26.2673
872.639	26.4992
875.532	1.84909
878.425	10.5507
881.317	18.5989
884.21	27.7457
887.103	14.1526
889.995	21.6714
892.888	27.9744
895.781	14.9447
898.674	43.3818
901.566	39.6977
904.459	24.4289
907.352	27.7451
910.244	33.9108
913.137	26.6267
916.03	36.8968
918.923	10.4185
921.815	16.8318
924.708	27.838
927.601	30.3617
930.493	24.0809
933.386	32.2912
936.279	38.5549
939.171	20.3509
942.064	24.6814
944.957	0.772583
947.85	1.42831
950.742	13.873
953.635	6.56195
956.528	19.0915
959.42	0.371429
962.313	25.4113
965.206	3.96692
968.098	8.51086
970.991	10.167
973.884	16.8401
976.777	44.6295
979.669	39.4785
982.562	49.6493
985.455	62.8755
988.347	57.8665
991.24	55.8215
994.133	67.1084
997.025	68.4937
999.918	88.302
1002.81	76.3605
1005.7	80.4595
1008.6	71.106
1011.49	95.387
1014.38	66.4714
1017.27	76.1682
1020.17	112.025
1023.06	84.5043
1025.95	42.1317
1028.85	47.325
1031.74	52.2351
1034.63	30.9702
1037.52	25.9859
1040.42	20.9705
1043.31	21.8959
1046.2	1.68286
1049.09	0.222168
1051.99	11.6013
1054.88	17.1975
1057.77	3.44659
1060.66	0.335632
1063.56	34.6724
1066.45	19.2844
1069.34	57.4932
1072.24	67.0414
1075.13	149.286
1078.02	134.977
1080.91	192.769
1083.81	224.572
1086.7	230.965
1089.59	248.261
1092.48	261.399
1095.38	286.508
1098.27	308.06
1101.16	317.671
1104.06	325.947
1106.95	341.186
1109.84	348.497
1112.73	321.193
1115.63	342.74
1118.52	316.363
1121.41	326.355
1124.3	285.201
1127.2	285.485
1130.09	256.756
1132.98	254.067
1135.88	249.261
1138.77	237.994
1141.66	210.843
1144.55	190.745
1147.45	171.084
1150.34	184.186
1153.23	154.054
1156.12	103.7
1159.02	107.573
1161.91	96.0067
1164.8	66.2498
1167.69	53.0571
1170.59	24.8762
1173.48	22.8724
1176.37	25.9824
1179.27	9.35803
1182.16	3.32617
1185.05	9.37244
1187.94	1.5423
1190.84	8.55396
1193.73	9.9769
1196.62	20.8978
1199.51	27.0228
1202.41	6.27747
1205.3	6.31845
1208.19	3.94791
1211.09	18.3156
1213.98	11.5995
1216.87	34.1599
1219.76	31.1952
1222.66	43.1063
1225.55	38.3851
1228.44	17.1276
1231.33	20.5944
1234.23	11.3395
1237.12	23.2707
1240.01	20.9959
1242.9	0
