Measurement: Raman, 780 nm, unoriented, Raman Data Processed
Mineral: Gmelinite-Na
Rruff sample: R060168
Ideal chemistry: Na_4_(Si_8_Al_4_)O_24_11H_2_O
Locality: Five Islands, Nova Scotia, Canada
Source: Guy Ouellet
Description: Salmon-red interpenetrating prismatic rhombohedral crystals
Measured chemistry: (Na_3.90_Ca_0.10_)_Σ=4_(Si_7.90_Al_4.10_)_Σ=12_O_24_·8.98H_2_O
Raman shift (cm-1)	intensity
107.109	0
110.484	0.020859
113.859	3.9726
117.234	6.48187
120.609	13.4348
123.984	20.3724
127.358	30.1231
130.733	36.9044
134.108	37.7666
137.483	32.6268
140.858	24.0263
144.232	21.8312
147.607	18.3368
150.982	14.9277
154.357	12.9267
157.732	9.23008
161.107	5.90494
164.481	3.85243
167.856	1.24532
171.231	0.46183
174.606	0.735596
177.981	1.02797
181.355	0.221939
184.73	0.209465
188.105	1.092
191.48	2.99042
194.855	4.13641
198.229	6.32673
201.604	7.75971
204.979	8.27342
208.354	7.97524
211.729	5.61381
215.103	5.25706
218.478	4.17236
221.853	4.29554
225.228	3.7766
228.603	1.92068
231.978	1.41727
235.352	1.87143
238.727	2.10211
242.102	0.857834
245.477	2.97453
248.852	2.0245
252.226	1.14782
255.601	0.563644
258.976	0.57143
262.351	1.28454
265.726	0.700588
269.101	0.114674
272.475	0.075413
275.85	0.044006
279.225	0.889622
282.6	1.28273
285.975	3.25957
289.349	4.25846
292.724	6.9551
296.099	8.79136
299.474	7.46947
302.849	8.80782
306.224	9.57245
309.598	12.3179
312.973	17.4574
316.348	21.8933
319.723	25.4093
323.098	25.0312
326.472	21.0122
329.847	16.9973
333.222	12.1446
336.597	9.30061
339.972	5.30527
343.346	3.41953
346.721	2.68971
350.096	1.58508
353.471	1.43087
356.846	0.70763
360.221	0.422405
363.595	0.652863
366.97	0.684074
370.345	0.533134
373.72	0.488541
377.095	0.16161
380.469	1.72442
383.844	2.72741
387.219	4.64418
390.594	6.1791
393.969	7.87318
397.344	13.1471
400.718	20.4684
404.093	30.5399
407.468	41.1274
410.843	44.6152
414.217	39.3609
417.592	29.9414
420.967	18.0391
424.342	10.7654
427.717	5.72622
431.092	2.88351
434.466	1.08312
437.841	0.755474
441.216	1.1667
444.591	1.77145
447.966	4.23879
451.341	4.86149
454.715	8.6896
458.09	12.1283
461.465	16.3498
464.84	21.843
468.215	28.6196
471.589	35.1525
474.964	43.7379
478.339	57.7024
481.714	73.0426
485.089	91.7783
488.463	109.782
491.838	125.27
495.213	131.625
498.588	125.758
501.963	108.48
505.337	85.9756
508.712	63.6494
512.087	43.5332
515.462	29.2294
518.837	18.7191
522.212	12.0204
525.586	8.08353
528.961	5.3091
532.336	2.85816
535.711	1.43237
539.086	0.531982
542.46	0.065174
545.835	0.504704
549.21	0.334534
552.585	0.179733
555.96	0.048265
559.335	0.123127
562.709	0.281279
566.084	0.110912
569.459	0.257639
572.834	0.454372
576.209	0.07
579.583	0.265917
582.958	1.32638
586.333	1.26791
589.708	2.31563
593.083	2.33539
596.457	2.97609
599.832	3.81895
603.207	4.56001
606.582	5.04028
609.957	5.36026
613.332	5.21321
616.706	4.83111
620.081	5.20547
623.456	4.85676
626.831	4.11795
630.206	3.29688
633.58	2.88605
636.955	2.35086
640.33	2.97587
643.705	2.86856
647.08	2.96282
650.455	3.28114
653.829	3.01613
657.204	2.83331
660.579	2.19466
663.954	2.26359
667.329	1.48997
670.703	1.16742
674.078	0.541828
677.453	0.17719
680.828	0.48095
684.203	0.1036
687.577	0.808322
690.952	0.208323
694.327	0.045818
697.702	0.152245
701.077	0.066059
704.452	0.484513
707.826	0.203941
711.201	0.329832
714.576	0.699317
717.951	0.77987
721.326	0.431259
724.7	0.79506
728.075	0.761087
731.45	0.214524
734.825	0.418329
738.2	0.570472
741.574	0.778894
744.949	0.709395
748.324	0.869541
751.699	1.1515
755.074	1.23612
758.449	1.95221
761.823	2.97304
765.198	3.11131
768.573	3.56376
771.948	3.06971
775.323	2.29785
778.697	2.66171
782.072	1.83872
785.447	1.44342
788.822	1.51885
792.197	1.81695
795.572	1.23349
798.946	1.87748
802.321	1.20781
805.696	1.08564
809.071	0.804217
812.446	0.664236
815.82	0.540328
819.195	0.150527
822.57	0.385077
825.945	0.075935
829.32	0.008939
832.694	0.133837
836.069	0.005344
839.444	0.512531
842.819	0.221745
846.194	0.412058
849.569	0.613813
852.943	0.509599
856.318	0.067094
859.693	0.081542
863.068	0.171419
866.443	0.1358
869.817	0.399114
873.192	0.4195
876.567	0.363832
879.942	0.398582
883.317	0.300404
886.692	0.648676
890.066	0.516176
893.441	0.411592
896.816	0.889542
900.191	1.0042
903.566	0.146271
906.94	0.758034
910.315	0.845218
913.69	0.295146
917.065	0.615345
920.44	0.705406
923.814	0.705341
927.189	0.738298
930.564	0.415982
933.939	0.083365
937.314	0.394903
940.689	0.269692
944.063	0.166863
947.438	0.183801
950.813	0.439754
954.188	0.331746
957.563	0.15358
960.937	0.273252
964.312	0.045308
967.687	0.044819
971.062	0.517377
974.437	0.533264
977.812	0.76072
981.186	1.21097
984.561	0.957594
987.936	1.31055
991.311	1.73392
994.686	1.65809
998.06	1.93596
1001.43	2.25545
1004.81	2.08034
1008.18	2.3617
1011.56	2.0606
1014.93	1.65755
1018.31	2.20557
1021.68	2.07863
1025.06	1.37712
1028.43	1.57871
1031.81	1.11504
1035.18	1.12507
1038.56	0.846153
1041.93	0.259374
1045.31	0.17187
1048.68	0.01271
1052.06	0.076838
1055.43	0.027794
1058.81	0.451007
1062.18	0.238612
1065.56	0.292793
1068.93	0.674159
1072.31	1.59309
1075.68	2.02592
1079.06	2.83941
1082.43	3.71664
1085.81	4.2501
1089.18	4.88172
1092.56	6.16314
1095.93	6.88416
1099.31	6.45202
1102.68	7.3621
1106.05	8.17442
1109.43	8.27232
1112.8	8.33596
1116.18	8.43055
1119.55	7.99628
1122.93	7.9049
1126.3	7.43843
1129.68	7.14039
1133.05	7.13616
1136.43	6.323
1139.8	6.14569
1143.18	5.63683
1146.55	5.30244
1149.93	5.0889
1153.3	4.17543
1156.68	3.59182
1160.05	3.39013
1163.43	3.14735
1166.8	2.32352
1170.18	1.59388
1173.55	1.71137
1176.93	1.74469
1180.3	1.06608
1183.67	0.660972
1187.05	0.307841
1190.42	0.005835
1193.8	0.087109
1197.17	0.023637
1200.55	0.450715
1203.92	0.134569
1207.3	0.160945
1210.67	0.303245
1214.05	0.0601
1217.42	0.314881
1220.8	0.31115
1224.17	0.113436
1227.55	0.322192
1230.92	0.896647
1234.3	0.278411
1237.67	0.492519
1241.05	0.829644
1244.42	0.509939
1247.8	0.646645
1251.17	0.657167
1254.55	0.117249
1257.92	0.742765
1261.3	0.361806
1264.67	0.478286
1268.05	0.452617
1271.42	0.338186
1274.8	0.022361
1278.17	0.614686
1281.55	0.028599
