Measurement: Raman, 785 nm, unoriented, Raman Data Processed
Mineral: Godovikovite
Rruff sample: R070108
Ideal chemistry: (NH_4_)Al(SO_4_)_2_
Locality: Kladno, Bohmen, Czech Republic
Source: Michael Scott
Description: Compact porous aggregate of white fibrous crystals
Raman shift (cm-1)	intensity
192.181	0
195.074	15.7637
197.967	102.468
200.859	124.656
203.752	101.38
206.645	70.1016
209.537	11.0977
212.43	3.21973
215.323	41.1133
218.215	114.035
221.108	160.414
224.001	244.177
226.894	220.307
229.786	214.295
232.679	157.338
235.572	75.5869
238.464	116.846
241.357	198.031
244.25	166.936
247.143	73.3047
250.035	73.25
252.928	102.11
255.821	56.6348
258.713	13.7373
261.606	105.671
264.499	74.1494
267.391	43.6172
270.284	16.0381
273.177	65.4736
276.07	34.2852
278.962	38.875
281.855	103.835
284.748	128.247
287.64	144.681
290.533	118.392
293.426	162.335
296.318	103.674
299.211	92.4746
302.104	105.246
304.996	185.087
307.889	179.535
310.782	123.994
313.675	124.488
316.567	230.513
319.46	126.007
322.353	251.745
325.245	140.111
328.138	286.497
331.031	192.776
333.923	167.274
336.816	165.477
339.709	156.294
342.601	68.8272
345.494	1.27051
348.387	116.286
351.28	127.147
354.172	71.4961
357.065	83.958
359.958	74.2266
362.85	56.7373
365.743	41.9453
368.636	36.916
371.529	46.4746
374.421	69.3555
377.314	42.2578
380.207	1.16504
383.099	39.9316
385.992	8.87598
388.885	41.2227
391.777	7.74219
394.67	33.3867
397.563	28.8994
400.455	57.2676
403.348	77.8906
406.241	101.01
409.134	53.8018
412.026	114.256
414.919	99.8447
417.812	183.448
420.704	209.44
423.597	294.606
426.49	256.494
429.382	345.983
432.275	422.215
435.168	525.971
438.061	492.768
440.953	558.23
443.846	580.033
446.739	635.931
449.631	627.624
452.524	692.458
455.417	688.659
458.31	653.545
461.202	612.126
464.095	537.817
466.988	611.665
469.88	459.519
472.773	368.242
475.666	289.631
478.558	235.788
481.451	239.074
484.344	154.73
487.236	125.211
490.129	131.015
493.022	68.5283
495.915	61.457
498.807	61.0147
501.7	80.5342
504.593	53.8008
507.485	83.4941
510.378	22.9297
513.271	61.9873
516.163	71.3184
519.056	2.50781
521.949	35.7637
524.842	27.6191
527.734	40.2549
530.627	36.0742
533.52	98.8213
536.412	24.5039
539.305	30.8037
542.198	55.8086
545.091	26.6279
547.983	36.3916
550.876	11.7334
553.769	32.375
556.661	40.1934
559.554	15.0615
562.447	8.80176
565.339	12.9512
568.232	11.1201
571.125	38.794
574.018	97.7978
576.91	78.8936
579.803	69.4531
582.696	157.516
585.588	136.566
588.481	157.056
591.374	133.345
594.266	187.232
597.159	288.293
600.052	422.987
602.944	427.783
605.837	470.624
608.73	555.32
611.623	696.949
614.515	700.93
617.408	717.968
620.301	707.602
623.193	671.996
626.086	547.489
628.979	489.414
631.871	448.185
634.764	333.768
637.657	273.837
640.55	270.807
643.442	177.935
646.335	126.859
649.228	115.861
652.12	59.5303
655.013	56.6348
657.906	103.712
660.798	45.5967
663.691	84.0117
666.584	5.55957
669.477	8.81445
672.369	41.9375
675.262	97.7793
678.155	27.8213
681.047	77.5977
683.94	14.1973
686.833	34.6924
689.726	9.83789
692.618	61.127
695.511	18.4014
698.404	87.1982
701.296	63.1348
704.189	88.0596
707.082	65.8379
709.974	10.5557
712.867	57.6709
715.76	72.1484
718.653	56.4238
721.545	19.5234
724.438	45.7305
727.331	72.0312
730.223	7.40332
733.116	24.1416
736.009	25.4434
738.901	2.6875
741.794	73.4326
744.687	84.8809
747.579	73.4463
750.472	70.4609
753.365	58.207
756.258	78.4844
759.15	76.9092
762.043	80.4727
764.936	72.604
767.828	101.94
770.721	70.3164
773.614	48.6196
776.506	59.3711
779.399	20.7739
782.292	29.563
785.184	10.794
788.077	97.6167
790.97	87.7119
793.863	36.6567
796.755	28.8833
799.648	85.5757
802.541	97.3789
805.433	39.5498
808.326	15.1699
811.219	40.6792
814.111	59.7031
817.004	63.9761
819.897	50.3359
822.79	11.6475
825.682	100.52
828.575	19.6426
831.468	34.4258
834.36	25.5747
837.253	57.3721
840.146	17.5649
843.038	68.5718
845.931	30.9287
848.824	71.0293
851.717	69.459
854.609	67.1528
857.502	41.4937
860.395	106.826
863.287	108.144
866.18	114.366
869.073	60.4009
871.966	55.0102
874.858	52.5137
877.751	65.8325
880.644	75.2022
883.536	71.2349
886.429	80.0864
889.322	74.4556
892.214	57.5815
895.107	32.1382
898	28.3403
900.893	67.7144
903.785	34.9824
906.678	39.189
909.571	69.9604
912.463	66.854
915.356	50.2891
918.249	28.7012
921.141	40.8125
924.034	37.1728
926.927	7.48291
929.819	12.3555
932.712	0.225586
935.605	19.5151
938.498	57.9048
941.39	30.7261
944.283	28.1743
947.176	22.9961
950.068	31.1597
952.961	140.276
955.854	75.0396
958.746	152.364
961.639	232.095
964.532	265.417
967.425	360.783
970.317	512.988
973.21	831.862
976.103	1146.9
978.995	1738.12
981.888	2531.02
984.781	3622.89
987.673	5208.24
990.566	6394.82
993.459	4526.58
996.352	2231.56
999.244	1035.08
1002.14	585.73
1005.03	384.666
1007.92	308.511
1010.82	205.454
1013.71	161.192
1016.6	130.297
1019.49	54.3003
1022.39	71.2319
1025.28	50.0483
1028.17	41.5332
1031.06	22.145
1033.96	26.7407
1036.85	35.2915
1039.74	29.3242
1042.63	35.5596
1045.53	0.397461
1048.42	9.72217
1051.31	54.4507
1054.21	34.8462
1057.1	24.8506
1059.99	1.81885
1062.88	56.625
1065.78	37.5054
1068.67	49.6548
1071.56	102.396
1074.45	83.2812
1077.35	39.2275
1080.24	58.811
1083.13	116.149
1086.03	134.884
1088.92	184.261
1091.81	153.981
1094.7	236.394
1097.6	224.384
1100.49	218.148
1103.38	307.904
1106.27	345.02
1109.17	213.545
1112.06	314.17
1114.95	296.015
1117.85	283.228
1120.74	266.143
1123.63	405.441
1126.52	423.479
1129.42	474.359
1132.31	480.574
1135.2	469.148
1138.09	402.805
1140.99	329.068
1143.88	258.343
1146.77	160.211
1149.66	191.127
1152.56	172.587
1155.45	150.852
1158.34	81.3843
1161.23	96.5381
1164.13	76.022
1167.02	101.657
1169.91	28.5869
1172.81	41.5557
1175.7	31.3023
1178.59	2.521
1181.48	57.7368
1184.38	0.288574
1187.27	14.9556
1190.16	8.48242
1193.06	19.8247
1195.95	19.377
1198.84	0.938477
1201.73	16.4629
1204.63	21.3623
1207.52	27.0439
1210.41	59.7524
1213.3	5.70898
1216.2	89.9683
1219.09	113.936
1221.98	20.1357
1224.88	45.6416
1227.77	92.9248
1230.66	65.313
1233.55	3.56152
1236.45	42.8086
1239.34	13.9312
