Measurement: Raman, 780 nm, unoriented, Raman Data Processed
Mineral: Goedkenite
Rruff sample: R130091
Ideal chemistry: Sr_2_Al(PO_4_)_2_(OH)
Locality: Palermo #1 mine, near North Groton, Grafton Co., New Hampshire, USA
Source: Mark N. Feinglos
Description: Pale yellow tabular crystals associated with prismatic palermoite and quartz. The scale bars for this microphoto are wrong. But the photo is too zoomed in anyways. Please redo this photo 1 tick zoomed out.
Raman shift (cm-1)	intensity
91.1996	0
94.5744	7.7276
97.9492	6.42612
101.324	0.325531
104.699	2.59389
108.074	3.01137
111.448	7.71753
114.823	11.2538
118.198	11.0399
121.573	17.8228
124.948	16.234
128.322	11.3802
131.697	8.3779
135.072	14.7699
138.447	19.3586
141.822	9.76445
145.197	5.793
148.571	2.80669
151.946	0.88768
155.321	1.1932
158.696	1.7372
162.071	0.040916
165.446	2.34374
168.82	2.40675
172.195	5.90677
175.57	7.40086
178.945	12.0333
182.32	19.707
185.694	28.0047
189.069	38.6659
192.444	48.4454
195.819	53.5716
199.194	55.1216
202.569	49.0272
205.943	32.5862
209.318	20.499
212.693	18.1773
216.068	19.9676
219.442	23.0992
222.817	23.6213
226.192	13.5303
229.567	7.14633
232.942	5.964
236.317	7.19473
239.691	10.5109
243.066	13.6856
246.441	20.9599
249.816	27.4645
253.191	34.7673
256.565	43.6
259.94	54.7727
263.315	60.0436
266.69	51.3044
270.065	34.4367
273.44	23.6856
276.814	21.7967
280.189	27.2765
283.564	34.2329
286.939	41.0181
290.314	41.1603
293.688	42.5344
297.063	43.6907
300.438	32.677
303.813	15.702
307.188	6.7223
310.562	2.14005
313.937	0.107548
317.312	0.2313
320.687	0.556667
324.062	0.471233
327.437	0.065044
330.811	0.046913
334.186	0.549648
337.561	2.03439
340.936	0.626041
344.311	1.34492
347.685	3.35117
351.06	7.70784
354.435	13.1771
357.81	22.1193
361.185	34.1128
364.56	48.7395
367.934	56.3574
371.309	45.0575
374.684	23.8721
378.059	13.5946
381.434	10.392
384.808	9.33113
388.183	10.218
391.558	9.17815
394.933	9.73881
398.308	8.93187
401.683	10.5652
405.057	12.6512
408.432	20.7038
411.807	30.7309
415.182	47.4345
418.557	68.8708
421.931	93.2258
425.306	120.071
428.681	130.729
432.056	116.542
435.431	71.4614
438.805	37.312
442.18	26.9201
445.555	22.9944
448.93	17.202
452.305	8.83014
455.68	4.56953
459.054	2.75479
462.429	2.36266
465.804	0.04583
469.179	1.27836
472.554	0.775257
475.928	0.087208
479.303	1.84649
482.678	3.9781
486.053	8.81413
489.428	14.6422
492.803	17.8109
496.177	12.8463
499.552	4.77691
502.927	0.457043
506.302	0.762585
509.677	1.01626
513.051	4.76199
516.426	11.6502
519.801	21.5092
523.176	31.9812
526.551	35.871
529.926	34.4115
533.3	29.7102
536.675	17.3033
540.05	10.7916
543.425	15.0102
546.799	26.8539
550.174	45.4259
553.549	31.8601
556.924	9.54306
560.299	0.88739
563.674	0.580509
567.048	2.30129
570.423	8.446
573.798	14.2745
577.173	23.3068
580.548	39.0798
583.923	48.002
587.297	30.4046
590.672	21.1819
594.047	22.2497
597.422	30.6996
600.797	47.2965
604.171	51.7385
607.546	29.9857
610.921	21.9445
614.296	24.4367
617.671	32.3055
621.045	42.6497
624.42	48.8248
627.795	43.4257
631.17	18.6366
634.545	6.63711
637.919	2.29122
641.294	0.50906
644.669	0.448915
648.044	0.992426
651.419	0.14327
654.794	0.478924
658.168	0.608761
661.543	0.08285
664.918	0.206272
668.293	0.110764
671.668	0.05551
675.043	1.12244
678.417	0.40564
681.792	1.33964
685.167	1.35449
688.542	1.38503
691.917	1.43175
695.291	1.67413
698.666	2.12587
702.041	1.91167
705.416	1.76352
708.791	1.51152
712.165	1.44509
715.54	1.86273
718.915	1.7291
722.29	0.86754
725.665	1.79568
729.039	1.0544
732.414	0.885271
735.789	0.86459
739.164	1.2825
742.539	1.20722
745.914	1.16814
749.288	1.46194
752.663	1.1339
756.038	1.04201
759.413	1.34747
762.788	0.246511
766.163	0.734062
769.537	0.711908
772.912	0.522314
776.287	0.405626
779.662	0.481798
783.037	0.009743
786.411	0.607002
789.786	0.740278
793.161	0.086737
796.536	0.776318
799.911	0.028326
803.285	0.422771
806.66	0.385757
810.035	0.827839
813.41	0.635614
816.785	0.311214
820.159	0.547722
823.534	0.980835
826.909	1.54684
830.284	1.84347
833.659	2.89109
837.034	4.34274
840.408	3.44597
843.783	4.8343
847.158	4.884
850.533	5.82058
853.908	5.51507
857.283	6.86855
860.657	6.58817
864.032	6.08531
867.407	4.50837
870.782	3.58974
874.157	1.86174
877.531	1.13288
880.906	0.065952
884.281	0.372007
887.656	0.756187
891.031	0.597683
894.405	0.49626
897.78	0.510269
901.155	0.320919
904.53	1.32776
907.905	1.72876
911.279	2.66267
914.654	3.61136
918.029	5.08279
921.404	6.63139
924.779	9.17549
928.154	12.1889
931.528	17.3269
934.903	25.1383
938.278	36.4219
941.653	57.8468
945.028	93.2312
948.403	143.404
951.777	206.372
955.152	284.738
958.527	341.606
961.902	307.21
965.277	199.651
968.651	113.479
972.026	69.8565
975.401	51.4334
978.776	46.1307
982.151	58.0509
985.525	82.6073
988.9	114.258
992.275	173.475
995.65	231.273
999.025	159.323
1002.4	69.4221
1005.77	28.6571
1009.15	10.7133
1012.52	3.12895
1015.9	0.258064
1019.27	0.805412
1022.65	0.941204
1026.02	0.167542
1029.4	0.416569
1032.77	0.255989
1036.15	0.400146
1039.52	2.06457
1042.9	4.63844
1046.27	10.8447
1049.65	19.8048
1053.02	33.6052
1056.4	54.2305
1059.77	85.1256
1063.15	120.06
1066.52	163.984
1069.9	202.013
1073.27	164.145
1076.64	87.9567
1080.02	43.3798
1083.39	21.8441
1086.77	12.0117
1090.14	7.03524
1093.52	5.3179
1096.89	3.23527
1100.27	2.57763
1103.64	4.30164
1107.02	7.62958
1110.39	13.0714
1113.77	20.5717
1117.14	30.3745
1120.52	44.2623
1123.89	61.8138
1127.27	83.7883
1130.64	99.894
1134.02	97.8471
1137.39	68.0303
1140.77	39.3642
1144.14	24.4675
1147.52	19.5464
1150.89	14.0678
1154.27	5.23479
1157.64	1.75966
1161.02	0.838259
1164.39	0.107496
1167.77	0.950373
1171.14	0.492304
1174.52	0.480665
1177.89	0.23247
1181.27	0.182564
1184.64	0.013432
1188.01	0.350557
1191.39	0.461113
1194.76	0.347153
1198.14	0.776659
1201.51	2.44454
1204.89	0.8937
1208.26	1.31271
1211.64	2.61696
1215.01	1.56948
1218.39	2.17094
1221.76	2.58257
1225.14	1.7281
1228.51	0.44762
1231.89	0.532335
1235.26	0.730322
1238.64	1.36302
1242.01	0.889408
1245.39	0.411074
1248.76	0.654339
1252.14	0.47035
1255.51	1.01045
1258.88	0.557219
1262.26	0.569155
1265.63	1.09053
1269.01	0.381697
1272.38	0.050985
1275.76	0.601429
1279.13	0.132771
1282.51	0.013626
