Measurement: Raman, 532 nm, unoriented, Raman Data Processed
Mineral: Goedkenite
Rruff sample: R130091
Ideal chemistry: Sr_2_Al(PO_4_)_2_(OH)
Locality: Palermo #1 mine, near North Groton, Grafton Co., New Hampshire, USA
Source: Mark N. Feinglos
Description: Pale yellow tabular crystals associated with prismatic palermoite and quartz. The scale bars for this microphoto are wrong. But the photo is too zoomed in anyways. Please redo this photo 1 tick zoomed out.
Raman shift (cm-1)	intensity
90.3259	0
93.7007	1.82942
97.0755	2.02502
100.45	3.5219
103.825	5.03449
107.2	4.95758
110.575	5.3885
113.95	7.66919
117.324	8.31161
120.699	7.04252
124.074	9.65399
127.449	11.2815
130.824	11.7787
134.198	11.956
137.573	9.22199
140.948	6.95782
144.323	2.51292
147.698	0.334259
151.073	0.72493
154.447	1.0365
157.822	0.718121
161.197	0.005924
164.572	0.883297
167.947	2.42022
171.321	1.24729
174.696	1.32714
178.071	4.25349
181.446	15.5911
184.821	26.8241
188.196	38.851
191.57	53.7086
194.945	68.432
198.32	85.2653
201.695	99.7708
205.07	89.2627
208.445	68.1424
211.819	56.833
215.194	53.1294
218.569	57.0671
221.944	58.081
225.319	50.783
228.693	40.5019
232.068	33.1263
235.443	30.6922
238.818	32.2572
242.193	36.3587
245.567	42.6359
248.942	49.5472
252.317	61.3764
255.692	74.7413
259.067	92.0003
262.442	113.923
265.816	113.228
269.191	86.3874
272.566	58.2009
275.941	42.7168
279.316	38.1646
282.69	42.1264
286.065	50.1829
289.44	56.5799
292.815	66.4207
296.19	85.0533
299.565	88.1639
302.939	59.5441
306.314	30.4205
309.689	16.2044
313.064	7.81959
316.439	3.70586
319.813	1.96407
323.188	0.355324
326.563	0.7575
329.938	1.79991
333.313	2.52954
336.688	1.43675
340.062	0.939247
343.437	1.25512
346.812	0.303604
350.187	2.9809
353.562	8.5356
356.936	16.6849
360.311	25.969
363.686	42.591
367.061	60.4879
370.436	60.142
373.81	41.5611
377.185	28.5354
380.56	27.7042
383.935	26.5658
387.31	28.8869
390.685	29.6671
394.059	29.8575
397.434	30.8527
400.809	27.7068
404.184	26.8208
407.559	28.6817
410.933	33.7386
414.308	45.2022
417.683	63.7787
421.058	92.9147
424.433	128.189
427.808	172.899
431.182	207.434
434.557	176.363
437.932	88.7994
441.307	50.6327
444.682	42.1572
448.057	35.7852
451.431	22.5091
454.806	12.3242
458.181	5.37415
461.556	2.66747
464.93	0.67247
468.305	0.586586
471.68	1.3297
475.055	0.293594
478.43	1.2349
481.805	3.11534
485.179	4.845
488.554	7.67594
491.929	11.5081
495.304	10.6349
498.679	5.75079
502.053	0.90876
505.428	1.84674
508.803	1.78264
512.178	0.749138
515.553	5.05534
518.928	13.318
522.302	26.2108
525.677	42.3509
529.052	61.8134
532.427	79.9342
535.802	70.4558
539.177	36.0939
542.551	22.8215
545.926	30.5657
549.301	45.5525
552.676	51.1275
556.051	26.9337
559.425	10.9314
562.8	5.51819
566.175	3.69011
569.55	8.43727
572.925	17.3925
576.299	32.1096
579.674	63.8425
583.049	99.7181
586.424	99.0143
589.799	51.7797
593.174	38.6823
596.548	42.2815
599.923	63.329
603.298	89.1352
606.673	76.0291
610.048	41.8085
613.423	35.4582
616.797	47.1673
620.172	66.4528
623.547	80.562
626.922	67.5681
630.297	42.5648
633.671	14.7998
637.046	4.41833
640.421	1.82031
643.796	0.600754
647.171	0.737183
650.545	1.27297
653.92	0.536491
657.295	0.250854
660.67	0.701546
664.045	1.2667
667.42	0.882423
670.794	2.22029
674.169	4.22239
677.544	4.95506
680.919	6.62566
684.294	5.96233
687.668	7.52807
691.043	8.26556
694.418	8.74136
697.793	9.12141
701.168	7.44643
704.543	6.46615
707.917	5.86574
711.292	5.0015
714.667	4.67854
718.042	3.62662
721.417	4.11187
724.791	2.47817
728.166	1.67348
731.541	2.13647
734.916	0.748764
738.291	0.199966
741.665	0.884659
745.04	0.119286
748.415	1.13464
751.79	1.64566
755.165	0.887726
758.54	0.46376
761.914	0.283104
765.289	1.56278
768.664	1.22219
772.039	0.879814
775.414	0.596603
778.788	0.64045
782.163	0.886765
785.538	1.24313
788.913	0.879318
792.288	0.476234
795.663	1.34006
799.037	0.285568
802.412	0.454475
805.787	0.030052
809.162	1.43308
812.537	0.654411
815.912	1.74531
819.286	1.15797
822.661	2.42137
826.036	2.2123
829.411	2.61575
832.786	4.3033
836.16	4.54547
839.535	4.91957
842.91	8.12434
846.285	6.40962
849.66	7.86969
853.034	7.34561
856.409	10.694
859.784	10.1352
863.159	9.33005
866.534	9.12851
869.909	6.3903
873.283	5.20906
876.658	2.06903
880.033	0.725967
883.408	0.748444
886.783	0.813553
890.158	0.451736
893.532	0.787857
896.907	0.294571
900.282	0.009903
903.657	0.348236
907.032	1.45955
910.406	3.19951
913.781	4.13394
917.156	5.62593
920.531	8.38112
923.906	12.2412
927.28	16.1364
930.655	22.6761
934.03	32.6272
937.405	46.772
940.78	68.7237
944.154	104.167
947.529	165.416
950.904	262.085
954.279	402.276
957.654	573.319
961.029	664.168
964.403	532.318
967.778	320.539
971.153	185.744
974.528	122.221
977.903	94.9961
981.278	87.2328
984.652	103.541
988.027	146.273
991.402	235.519
994.777	420.807
998.152	508.204
1001.53	285.546
1004.9	122.334
1008.28	51.3823
1011.65	20.3541
1015.03	9.04723
1018.4	1.57245
1021.77	0.658707
1025.15	1.75314
1028.53	2.24014
1031.9	2.28267
1035.28	0.135727
1038.65	3.10567
1042.02	8.18736
1045.4	16.356
1048.77	27.6915
1052.15	48.0095
1055.52	78.1255
1058.9	117.767
1062.27	171.218
1065.65	249.518
1069.02	368.811
1072.4	436.791
1075.77	294.911
1079.15	145.996
1082.52	77.0381
1085.9	42.4661
1089.27	24.609
1092.65	15.7623
1096.02	10.435
1099.4	11.5977
1102.77	12.0514
1106.15	16.8808
1109.52	23.7539
1112.89	34.7673
1116.27	48.9259
1119.64	66.755
1123.02	92.4988
1126.39	131.177
1129.77	177.797
1133.14	207.534
1136.52	181.03
1139.89	107.636
1143.27	60.0846
1146.64	37.8283
1150.02	28.003
1153.39	15.8561
1156.77	5.41974
1160.14	1.92378
1163.52	0.159973
1166.89	0.085052
1170.27	1.03796
1173.64	0.418823
1177.02	0.256348
1180.39	0.438507
1183.77	1.01115
1187.14	0.375214
1190.52	0.187103
1193.89	1.91716
1197.27	2.43141
1200.64	1.44208
1204.02	2.98055
1207.39	3.19508
1210.77	3.53508
1214.14	5.01451
1217.52	3.51775
1220.89	4.58597
1224.26	3.29219
1227.64	4.62651
1231.01	4.28812
1234.39	2.90639
1237.76	3.79302
1241.14	1.50694
1244.51	2.42287
1247.89	2.71347
1251.26	1.36566
1254.64	1.66437
1258.01	2.85558
1261.39	2.31134
1264.76	1.72388
1268.14	3.07718
1271.51	2.60445
1274.89	0.585968
1278.26	1.46081
1281.64	1.55058
1285.01	1.27431
1288.39	2.49593
1291.76	1.20001
1295.13	1.46011
1298.51	1.42053
1301.88	0
