Measurement: Raman, 780 nm, unoriented, Raman Data Processed
Mineral: Goethite
Rruff sample: R050142
Ideal chemistry: FeO(OH)
Locality: Park County, Colorado, USA
Source: Dave Bunk Minerals
Description: Radiating spray of black to brown platy crystals
Measured chemistry: FeO(OH)
Raman shift (cm-1)	intensity
140.333	0
143.225	0.900759
146.118	2.4651
149.011	3.89543
151.904	3.52721
154.796	4.10328
157.689	6.26066
160.582	6.37372
163.474	5.71599
166.367	4.71063
169.26	2.10882
172.152	0.559956
175.045	0.00778
177.938	0.570786
180.831	2.83241
183.723	13.7607
186.616	29.1869
189.509	30.7941
192.401	32.7274
195.294	38.4483
198.187	42.713
201.079	41.9793
203.972	39.1881
206.865	27.2248
209.757	9.89914
212.65	4.98321
215.543	2.85626
218.436	2.74489
221.328	3.91473
224.221	8.93486
227.114	15.1268
230.006	17.086
232.899	18.2442
235.792	21.6721
238.685	26.1434
241.577	26.6119
244.47	24.0343
247.363	19.3998
250.255	11.0757
253.148	6.4556
256.041	3.53205
258.933	1.94894
261.826	0.910345
264.719	1.75956
267.611	0.489042
270.504	1.15343
273.397	4.52649
276.29	11.4987
279.182	30.6032
282.075	50.8177
284.968	58.5186
287.86	66.4904
290.753	74.2808
293.646	81.0624
296.538	77.4539
299.431	67.1565
302.324	43.7753
305.217	20.0266
308.109	9.25121
311.002	4.34887
313.895	0.437523
316.787	0.476315
319.68	0.538895
322.573	1.0819
325.466	0.525967
328.358	0.82328
331.251	1.73589
334.144	3.86961
337.036	7.43872
339.929	11.1455
342.822	14.3538
345.714	19.5077
348.607	26.8144
351.5	34.81
354.392	48.5002
357.285	65.3364
360.178	91.478
363.071	130.045
365.963	185.3
368.856	257.157
371.749	317.793
374.641	360.936
377.534	393.063
380.427	409.294
383.32	410.884
386.212	378.047
389.105	311.875
391.998	241.66
394.89	184.033
397.783	147.652
400.676	125.973
403.568	103.262
406.461	87.6329
409.354	80.8252
412.246	77.5953
415.139	73.0935
418.032	60.3431
420.925	42.3401
423.817	26.7177
426.71	16.7444
429.603	10.8931
432.495	5.84305
435.388	2.74219
438.281	1.58808
441.173	0.41333
444.066	0.902473
446.959	0.939753
449.851	1.89166
452.744	1.12822
455.637	0.108871
458.53	1.09534
461.422	2.2677
464.315	5.20776
467.208	6.89911
470.1	8.13015
472.993	10.2206
475.886	10.5259
478.779	8.73494
481.671	7.56999
484.564	6.85137
487.457	4.03474
490.349	1.77362
493.242	2.52739
496.135	1.99666
499.027	2.89381
501.92	3.15679
504.813	4.31697
507.705	6.0052
510.598	7.34118
513.491	10.1246
516.384	13.5308
519.276	18.1201
522.169	22.7039
525.062	33.0288
527.954	45.6432
530.847	59.9754
533.74	78.7251
536.633	93.4245
539.525	103.864
542.418	107.855
545.311	106.201
548.203	95.2501
551.096	75.978
553.989	56.1282
556.881	39.0108
559.774	26.3089
562.667	17.8345
565.559	12.2316
568.452	7.61013
571.345	4.78937
574.238	2.96087
577.13	1.87181
580.023	1.01613
582.916	0.389074
585.808	0.007092
588.701	0.465576
591.594	0.451571
594.486	0.137167
597.379	0.229212
600.272	0.65159
603.165	0.047977
606.057	0.101225
608.95	0.094173
611.843	0.312078
614.735	0.266541
617.628	0.061163
620.521	0.111853
623.413	0.030558
626.306	0.327974
629.199	0.390558
632.092	0.138601
634.984	0.158049
637.877	0.243432
640.77	0.851412
643.662	1.24729
646.555	1.58116
649.448	2.13464
652.341	2.72558
655.233	4.00793
658.126	4.75012
661.019	5.91484
663.911	6.82594
666.804	9.32711
669.697	9.12748
672.589	10.8058
675.482	11.171
678.375	10.7805
681.268	10.4438
684.16	9.70608
687.053	8.40759
689.946	7.27143
692.838	6.21321
695.731	4.38055
698.624	3.66492
701.516	3.06993
704.409	2.29216
707.302	1.5637
710.194	1.27168
713.087	1.79964
715.98	0.934036
718.873	0.514165
721.765	0.995415
724.658	0.340846
727.551	0.563653
730.443	0.107038
733.336	0.138503
736.229	0.232527
739.121	0.14895
742.014	0.158974
744.907	0.62945
747.8	0.017031
750.692	0.128889
753.585	0.172595
756.478	0.042644
759.37	0.731435
762.263	0.697929
765.156	0.627124
768.048	0.428804
770.941	0.393777
773.834	0.798912
776.727	0.837261
779.619	1.11946
782.512	0.863595
785.405	1.13805
788.297	0.676785
791.19	0.890326
794.083	0.784975
796.976	1.11137
799.868	0.964461
802.761	0.900244
805.654	1.1605
808.546	0.931562
811.439	0.51609
814.332	0.454541
817.224	0.1142
820.117	0.894466
823.01	0.753174
825.903	0.681822
828.795	0.782724
831.688	0.483469
834.581	0.857683
837.473	0.825328
840.366	0.892866
843.259	0.778126
846.151	0.988501
849.044	1.13665
851.937	0.479128
854.83	0.929341
857.722	1.09969
860.615	0.739307
863.508	0.589376
866.4	1.1405
869.293	0.924909
872.186	0.767737
875.078	0.67662
877.971	0.616348
880.864	0.706517
883.756	0.328779
886.649	0.080024
889.542	0.442805
892.435	0.055338
895.327	0.64361
898.22	0.378596
901.113	0.342671
904.005	0.417428
906.898	0.382899
909.791	0.258321
912.683	0.086455
915.576	0.406153
918.469	0.126642
921.362	0.28826
924.254	0.101964
927.147	0.30106
930.04	0.093414
932.932	0.327074
935.825	0.077117
938.718	0.440812
941.611	0.307512
944.503	0.028756
947.396	0.120145
950.289	0.237586
953.181	0.276125
956.074	0.536875
958.967	0.422771
961.859	0.296215
964.752	0.447692
967.645	0.546308
970.537	0.38837
973.43	0.656161
976.323	0.810009
979.216	1.00411
982.108	1.75043
985.001	1.86742
987.894	2.19649
990.786	2.49675
993.679	3.23203
996.572	3.58318
999.464	3.04445
1002.36	3.15604
1005.25	2.77276
1008.14	1.81514
1011.03	1.17349
1013.93	0.721599
1016.82	0.814261
1019.71	0.83246
1022.61	0.784489
1025.5	0.27354
1028.39	0.185216
1031.28	0.358435
1034.18	0.656767
1037.07	0.277442
1039.96	0.483016
1042.86	0.080206
1045.75	0.670998
1048.64	0.336469
1051.53	0.441307
1054.43	0.062707
1057.32	0.134062
1060.21	0.151148
1063.1	0.138654
1066	0.557893
1068.89	0.324912
1071.78	0.051988
1074.67	0.432237
1077.57	0.166802
1080.46	0.500875
1083.35	0.171927
1086.24	0.290234
1089.14	0.379182
1092.03	0.522799
1094.92	0.555751
1097.82	0.704325
1100.71	0.750293
1103.6	0.670211
1106.49	0.315935
1109.39	0.328644
1112.28	0.264521
1115.17	0.642822
1118.07	0.424633
1120.96	0.430912
1123.85	0.446048
1126.74	0.654009
1129.64	0.59802
1132.53	0.455902
1135.42	0.189068
1138.31	0.493505
1141.21	0.17604
1144.1	0.589485
1146.99	0.190506
1149.88	0.090046
1152.78	0.160395
1155.67	0.008311
1158.56	0.301368
1161.46	0.144217
1164.35	0.22354
1167.24	0.750454
1170.13	0.194446
1173.03	0.160265
1175.92	0.077275
1178.81	0.230604
1181.7	0.338602
1184.6	0.438038
1187.49	0.71207
1190.38	0.588745
1193.28	0.418074
1196.17	0.28946
1199.06	0.475587
1201.95	0.53531
1204.85	0.474209
1207.74	0.366368
1210.63	0.45816
1213.52	0.75776
1216.42	0.406211
1219.31	0.247553
1222.2	0.129901
1225.1	0.309413
1227.99	0.471889
1230.88	0.044871
1233.77	0.263546
1236.67	0.427498
1239.56	0.313144
1242.45	0.607972
1245.34	0.246502
1248.24	0.091681
1251.13	0.043392
1254.02	0.468268
1256.91	0.356188
1259.81	0.11565
