Measurement: Raman, 780 nm, unoriented, Raman Data Processed
Mineral: Goethite
Rruff sample: R120086
Ideal chemistry: FeO(OH)
Locality: Alexander mine, Vrancice, Příbram, Central Bohemia Region, Bohemia, Czech Republic
Source: Michael Scott
Description: Elongated black crystals, associated with R070363, čechite
Raman shift (cm-1)	intensity
92.0856	0
95.4604	87.504
98.8353	2.327
102.21	0.23703
105.585	7.22397
108.96	9.82826
112.335	16.2963
115.709	22.8714
119.084	6.06879
122.459	2.80347
125.834	2.64731
129.209	1.92253
132.583	2.60243
135.958	1.70309
139.333	2.02385
142.708	2.20017
146.083	5.41397
149.458	9.5191
152.832	15.4579
156.207	24.9401
159.582	28.2661
162.957	42.7126
166.332	82.443
169.706	42.2259
173.081	6.2712
176.456	0.866661
179.831	0.462173
183.206	1.92559
186.581	0.019485
189.955	0.884529
193.33	2.11054
196.705	5.98354
200.08	10.1132
203.455	22.8164
206.829	40.5063
210.204	13.5363
213.579	2.42059
216.954	2.03158
220.329	5.95721
223.703	14.1575
227.078	29.6829
230.453	36.3268
233.828	43.7832
237.203	60.6698
240.578	93.2085
243.952	152.904
247.327	198.866
250.702	89.8347
254.077	21.0579
257.452	6.53787
260.827	1.86951
264.201	2.12436
267.576	2.22962
270.951	6.39149
274.326	18.7686
277.701	36.9806
281.075	76.1042
284.45	129.851
287.825	174.667
291.2	260.736
294.575	377.597
297.95	566.988
301.324	658.209
304.699	298.571
308.074	110.425
311.449	47.4231
314.824	23.4236
318.198	9.9805
321.573	5.51063
324.948	1.29748
328.323	1.9214
331.698	2.27251
335.072	1.8775
338.447	0.03949
341.822	3.79425
345.197	5.48016
348.572	11.8595
351.947	20.3146
355.321	31.7328
358.696	47.5085
362.071	71.5739
365.446	116.147
368.821	186.069
372.195	276.78
375.57	379.52
378.945	507.593
382.32	686.835
385.695	849.666
389.07	794.898
392.444	525.249
395.819	335.957
399.194	270.502
402.569	231.447
405.944	157.513
409.318	129.673
412.693	126.195
416.068	125.609
419.443	125.761
422.818	103.494
426.192	79.0607
429.567	54.0016
432.942	32.5658
436.317	15.0896
439.692	5.63675
443.067	0.17807
446.441	1.74286
449.816	2.53566
453.191	0.289474
456.566	5.40391
459.941	13.3416
463.315	24.3732
466.69	42.1838
470.065	67.9424
473.44	95.136
476.815	129.725
480.19	161.339
483.564	168.292
486.939	130.704
490.314	82.3411
493.689	45.7243
497.064	25.0707
500.438	12.3117
503.813	3.14731
507.188	0.049629
510.563	1.22823
513.938	1.32774
517.313	2.88174
520.687	5.40607
524.062	9.39558
527.437	16.4261
530.812	22.1932
534.187	33.0049
537.562	43.6968
540.936	59.5742
544.311	76.6316
547.686	94.5779
551.061	92.9976
554.436	69.9567
557.81	42.2
561.185	23.4785
564.56	12.0703
567.935	5.92662
571.31	3.2872
574.684	0.643982
578.059	4.86681
581.434	0.362068
584.809	1.0023
588.184	0.285507
591.558	0.661156
594.933	1.4748
598.308	4.60267
601.683	4.50371
605.058	8.10837
608.433	13.4154
611.807	16.6285
615.182	13.3647
618.557	9.32301
621.932	7.45361
625.307	6.32182
628.682	5.09336
632.056	3.01457
635.431	4.78115
638.806	3.8119
642.181	3.17404
645.556	4.1463
648.93	2.24876
652.305	2.41357
655.68	3.21501
659.055	1.75887
662.43	4.42474
665.804	4.47636
669.179	8.23306
672.554	6.17221
675.929	7.05109
679.304	9.28204
682.679	7.40339
686.053	6.99984
689.428	6.62878
692.803	6.05588
696.178	5.11215
699.553	3.32361
702.928	2.11759
706.302	3.62015
709.677	1.46274
713.052	2.31773
716.427	1.16531
719.802	0.175339
723.176	1.40862
726.551	1.11295
729.926	0.781403
733.301	1.5125
736.676	0.340874
740.051	0.66555
743.425	0.047112
746.8	0.660744
750.175	0.296394
753.55	0.243469
756.925	0.718384
760.299	0.103912
763.674	0.874107
767.049	0.353546
770.424	0.021873
773.799	1.47448
777.173	0.98188
780.548	2.06418
783.923	3.34127
787.298	1.05724
790.673	1.90801
794.048	0.632629
797.422	2.07487
800.797	1.42463
804.172	1.58398
807.547	2.94653
810.922	2.75541
814.296	2.23066
817.671	3.36547
821.046	1.74615
824.421	3.40407
827.796	3.34295
831.17	2.58463
834.545	2.54246
837.92	1.53201
841.295	3.47772
844.67	1.74219
848.045	2.31435
851.419	3.5489
854.794	2.91353
858.169	4.05208
861.544	3.66015
864.919	2.98457
868.293	4.41737
871.668	2.01146
875.043	3.27206
878.418	3.51924
881.793	2.05205
885.168	2.59148
888.542	2.24499
891.917	3.07481
895.292	1.49461
898.667	0.425377
902.042	1.04565
905.417	0.537712
908.791	0.065159
912.166	1.38205
915.541	0.512333
918.916	0.961178
922.291	0.048859
925.665	0.195877
929.04	0.734497
932.415	1.25785
935.79	0.159359
939.165	0.369099
942.539	0.105759
945.914	0.040768
949.289	1.37022
952.664	0.949738
956.039	1.68051
959.414	2.80077
962.788	1.8423
966.163	1.21034
969.538	3.20663
972.913	0.032707
976.288	2.91548
979.663	4.4014
983.037	3.35513
986.412	5.49959
989.787	5.29056
993.162	9.28268
996.537	11.8726
999.911	12.3044
1003.29	11.2653
1006.66	9.58283
1010.04	8.53442
1013.41	4.27348
1016.78	4.28505
1020.16	4.8718
1023.53	1.60468
1026.91	1.26831
1030.29	1.37324
1033.66	0.577221
1037.03	1.48432
1040.41	0.633022
1043.78	1.78932
1047.16	0.768532
1050.53	2.22883
1053.91	1.90782
1057.28	2.21464
1060.66	1.4951
1064.03	0.282227
1067.41	0.178505
1070.78	0.971127
1074.16	1.83352
1077.53	2.00538
1080.91	3.36266
1084.28	6.98115
1087.66	15.6163
1091.03	4.59074
1094.41	2.12837
1097.78	2.67162
1101.16	3.12548
1104.53	4.77044
1107.91	9.39696
1111.28	3.61565
1114.65	5.88596
1118.03	2.46376
1121.4	3.51725
1124.78	2.10669
1128.15	0.70079
1131.53	2.91827
1134.9	0.485481
1138.28	1.75334
1141.65	2.17863
1145.03	1.06458
1148.4	2.96448
1151.78	1.91372
1155.15	0.701447
1158.53	0.783615
1161.9	1.15551
1165.28	0.3372
1168.65	2.67585
1172.03	0.002182
1175.4	0.79314
1178.78	0.643616
1182.15	0.967564
1185.53	0.977612
1188.9	0.485207
1192.28	2.23466
1195.65	1.8694
1199.03	2.92595
1202.4	4.39738
1205.78	1.43494
1209.15	0.989674
1212.53	2.54714
1215.9	2.46689
1219.27	1.51174
1222.65	2.64879
1226.02	2.64698
1229.4	2.24369
1232.77	1.24055
1236.15	2.95798
1239.52	2.17343
1242.9	1.95431
1246.27	1.92796
1249.65	2.55566
1253.02	1.50349
1256.4	2.3615
1259.77	3.98196
1263.15	2.90205
1266.52	3.29457
1269.9	0.040672
1273.27	1.31942
1276.65	1.58218
1280.02	3.11641
1283.4	0.56311
