Measurement: Raman, 532 nm, unoriented, Raman Data Processed
Mineral: Goethite
Rruff sample: R050142
Ideal chemistry: FeO(OH)
Locality: Park County, Colorado, USA
Source: Dave Bunk Minerals
Description: Radiating spray of black to brown platy crystals
Measured chemistry: FeO(OH)
Raman shift (cm-1)	intensity
140.65	0
144.025	0.800467
147.4	1.65179
150.774	0.80188
154.149	2.18802
157.524	2.06833
160.899	2.25177
164.274	3.48801
167.649	7.58461
171.023	1.461
174.398	0.600611
177.773	0.030239
181.148	0.026489
184.523	0.151426
187.898	1.71451
191.272	2.46627
194.647	2.59281
198.022	4.90856
201.397	7.1976
204.772	12.6448
208.146	13.0165
211.521	4.66035
214.896	3.31687
218.271	3.54828
221.646	5.40682
225.02	8.19452
228.395	14.7835
231.77	20.2658
235.145	24.5904
238.52	31.1061
241.894	44.3471
245.269	64.7779
248.644	53.9713
252.019	17.2075
255.394	6.16394
258.769	5.34985
262.143	1.1247
265.518	0.692184
268.893	0.030872
272.268	0.442879
275.643	1.92102
279.017	5.4104
282.392	15.7453
285.767	25.4143
289.142	35.6397
292.517	48.9557
295.892	75.0942
299.266	119.6
302.641	102.212
306.016	40.3556
309.391	16.9521
312.766	7.77224
316.14	3.99356
319.515	1.49375
322.89	0.731869
326.265	0.797405
329.64	1.16147
333.015	0.023979
336.389	0.597523
339.764	0.908318
343.139	2.70481
346.514	5.26639
349.889	9.38921
353.264	13.8714
356.638	19.7101
360.013	28.2442
363.388	40.3238
366.763	61.6529
370.137	91.9631
373.512	130.438
376.887	171.193
380.262	219.423
383.637	279.761
387.012	317.146
390.386	282.69
393.761	203.83
397.136	155.316
400.511	135.145
403.886	103.668
407.26	67.814
410.635	55.1783
414.01	61.1499
417.385	75.3313
420.76	69.2349
424.135	43.3838
427.509	25.2648
430.884	13.7447
434.259	8.25145
437.634	3.54558
441.009	0.732891
444.384	1.08841
447.758	1.08536
451.133	0.220184
454.508	0.620838
457.883	2.85925
461.258	5.21223
464.632	7.92725
468.007	13.2368
471.382	19.2381
474.757	25.0316
478.132	30.8283
481.507	33.989
484.881	29.4876
488.256	20.8018
491.631	11.6238
495.006	5.67405
498.381	2.67862
501.755	1.99409
505.13	0.161709
508.505	0.369999
511.88	0.417
515.255	1.26004
518.63	2.02764
522.004	4.87622
525.379	6.16528
528.754	9.76489
532.129	14.4068
535.504	19.1625
538.878	27.6089
542.253	36.0715
545.628	43.8164
549.003	50.1393
552.378	45.857
555.752	34.1088
559.127	21.4563
562.502	12.5033
565.877	8.3285
569.252	4.3428
572.626	1.65692
576.001	0.794117
579.376	0.210953
582.751	0.388531
586.126	0.341427
589.5	0.440651
592.875	0.17688
596.25	0.06498
599.625	0.448448
603	0.873722
606.375	2.22451
609.75	1.82145
613.124	1.94197
616.499	2.68583
619.874	1.71236
623.249	1.9365
626.624	2.36563
629.998	3.05666
633.373	3.01617
636.748	3.86007
640.123	5.21227
643.498	6.26838
646.872	6.82148
650.247	9.03958
653.622	11.6987
656.997	14.6905
660.372	17.9742
663.746	22.6587
667.121	28.9465
670.496	34.5105
673.871	40.7201
677.246	45.2099
680.621	48.8501
683.995	48.4158
687.37	45.2641
690.745	39.4101
694.12	30.548
697.495	22.7716
700.87	17.3548
704.244	13.7975
707.619	10.2859
710.994	6.95367
714.369	5.27496
717.744	4.04169
721.118	3.26571
724.493	1.70026
727.868	2.1662
731.243	0.699596
734.618	1.0986
737.992	0.033943
741.367	0.592999
744.742	0.001991
748.117	0.309673
751.492	0.1003
754.867	0.076546
758.241	0.39109
761.616	0.861965
764.991	0.23954
768.366	1.12452
771.741	0.676304
775.115	0.879112
778.49	1.11456
781.865	0.986618
785.24	1.99099
788.615	1.94881
791.99	1.41312
795.364	0.662804
798.739	1.06995
802.114	0.594929
805.489	0.302322
808.864	0.652794
812.238	0.413887
815.613	0.445026
818.988	1.03618
822.363	0.013237
825.738	1.35857
829.112	0.992119
832.487	0.81992
835.862	0.858757
839.237	0.968468
842.612	1.37498
845.987	0.351452
849.361	0.406937
852.736	0.648003
856.111	0.913692
859.486	0.949348
862.861	0.501545
866.236	0.489288
869.61	0.191784
872.985	0.890438
876.36	0.255257
879.735	0.05925
883.11	0.811134
886.484	0.229801
889.859	0.058807
893.234	0.006042
896.609	0.356873
899.984	0.337852
903.359	0.085918
906.733	0.178741
910.108	0.77705
913.483	0.22842
916.858	0.811325
920.232	0.590179
923.607	0.694885
926.982	0.989063
930.357	1.31762
933.732	2.27051
937.107	1.63224
940.481	1.14661
943.856	1.01445
947.231	1.98025
950.606	0.49757
953.981	1.38436
957.356	1.33198
960.73	1.36977
964.105	1.43835
967.48	1.76437
970.855	2.41815
974.23	2.44016
977.604	3.53553
980.979	6.35646
984.354	7.93835
987.729	11.5487
991.104	15.5962
994.479	19.9053
997.853	23.744
1001.23	25.352
1004.6	24.8755
1007.98	19.5796
1011.35	12.4967
1014.73	9.86472
1018.1	6.16454
1021.48	4.66999
1024.85	3.11165
1028.23	1.88505
1031.6	1.66499
1034.98	1.61516
1038.35	0.936039
1041.73	0.81757
1045.1	0.684414
1048.48	0.67767
1051.85	0.480659
1055.22	0.505539
1058.6	0.023506
1061.97	0.346191
1065.35	0.727161
1068.72	0.223568
1072.1	0.610397
1075.47	1.23903
1078.85	1.48741
1082.22	1.71621
1085.6	3.39518
1088.97	4.71346
1092.35	5.39245
1095.72	6.30121
1099.1	7.04609
1102.47	9.84227
1105.85	9.68609
1109.22	10.9383
1112.6	10.675
1115.97	10.9539
1119.35	10.4254
1122.72	8.88854
1126.1	7.66496
1129.47	6.4767
1132.85	4.75195
1136.22	3.68637
1139.6	2.75332
1142.97	2.47165
1146.35	1.27716
1149.72	0.479832
1153.1	0.550758
1156.47	0.282936
1159.84	0.002888
1163.22	0.219139
1166.59	0.318069
1169.97	0.939175
1173.34	1.82387
1176.72	0.417324
1180.09	1.0249
1183.47	1.02062
1186.84	1.30664
1190.22	0.848476
1193.59	1.34464
1196.97	2.45153
1200.34	3.35626
1203.72	2.95208
1207.09	3.22542
1210.47	3.64449
1213.84	3.07557
1217.22	2.99369
1220.59	2.54064
1223.97	2.76259
1227.34	3.73048
1230.72	1.57773
1234.09	1.59515
1237.46	1.47022
1240.84	0.94894
1244.21	0.767681
1247.59	1.48772
1250.96	1.53913
1254.34	1.14157
1257.71	0.378265
1261.09	0.7257
1264.46	0.541012
1267.84	0.631592
1271.21	0.096745
1274.59	0.130917
1277.96	0.239521
1281.34	0.727604
1284.71	0.366581
1288.09	0.76524
1291.46	0.385235
1294.84	0.94643
