Measurement: Raman, 785 nm, unoriented, Raman Data Processed
Mineral: Goethite
Rruff sample: X050091
Ideal chemistry: FeO(OH)
Locality: Michigan, USA
Source: Caltech
Raman shift (cm-1)	intensity
206	0
210	19.036
214	11.122
218	11.135
222	18.215
226	13.906
230	2.349
234	16.029
238	57.294
242	144.587
246	161.754
250	63.393
254	31.068
258	22.508
262	8.542
266	3.194
270	2.322
274	3.094
278	0
282	12.329
286	30.164
290	83.541
294	198.045
298	341.562
302	252.781
306	95.777
310	32.633
314	9.069
318	4.502
322	0.077
326	3.594
330	9.179
334	10.625
338	14.044
342	26.08
346	26.583
350	27.63
354	11.907
358	2.282
362	6.466
366	0.101
370	20.118
374	74.608
378	161.378
382	313.991
386	466.138
390	475.619
394	355.484
398	238.6
402	124.351
406	22.042
410	9.192
414	16.355
418	41.176
422	18.266
426	1.797
430	5.449
434	12.83
438	14.678
442	6.328
446	5.548
450	6.245
454	1.533
458	0.719
462	1.116
466	4.079
470	12.789
474	26.825
478	43.574
482	41.211
486	28.904
490	17.324
494	7.031
498	3.731
502	3.479
506	1.042
510	0.045
514	0.548
518	0.188
522	0.367
526	1.813
530	3.466
534	11.959
538	29.119
542	69.1
546	108.975
550	119.364
554	88.047
558	44.298
562	17.429
566	4.089
570	1.403
574	2.078
578	0.108
582	2.298
586	6.584
590	4.381
594	1.788
598	5.486
602	2.972
606	3.763
610	8.623
614	8.535
618	3.906
622	0.148
626	0.773
630	0.022
634	0.98
638	3.972
642	0.694
646	0.239
650	2.497
654	4.466
658	4.186
662	1.63
666	0.146
670	3.262
674	2.125
678	4.965
682	5.332
686	3.474
690	2.039
694	0.316
698	1.367
702	0.388
706	0.262
710	0.449
714	1.553
718	1.332
722	1.453
726	3.909
730	3.505
734	0.357
738	2.759
742	1.182
746	2.625
750	1.998
754	1.574
758	2.038
762	6.484
766	5.343
770	1.264
774	0.369
778	1.151
782	0.941
786	2.802
790	2.871
794	4.063
798	2.542
802	0.277
806	0.154
810	1.271
814	2.574
818	1.229
822	2.808
826	1.294
830	2.143
834	4.262
838	4.7
842	2.532
846	0.488
850	0.026
854	1.861
858	4.346
862	1.665
866	1.747
870	1.001
874	0.697
878	2.527
882	2.348
886	1.722
890	3.585
894	2.407
898	1.573
902	3.748
906	3.758
910	1.073
914	1.52
918	2.624
922	0.031
926	1.607
930	1.305
934	0.665
938	0.46
942	1.194
946	2.921
950	2.372
954	2.772
958	2.447
962	0.7
966	1.874
970	1.891
974	2.214
978	0.009
982	1.941
986	2.003
990	3.461
994	2.112
998	2.944
1002	5.95
1006	3.085
1010	3.072
1014	0.54
1018	2.441
1022	3.289
1026	0.476
1030	1.336
1034	3.164
1038	0.644
1042	4.166
1046	1.774
1050	1.626
1054	1.215
1058	2.301
1062	1.539
1066	2.962
1070	1.492
1074	0.733
1078	1.051
1082	1.489
1086	0.124
1090	3.639
1094	0.339
1098	4.218
1102	5.94
1106	2.592
1110	4.535
1114	7.083
1118	3.45
1122	0.48
1126	2.146
1130	5.685
1134	4.656
1138	3.429
1142	3.446
1146	2.431
1150	1.218
1154	3.397
1158	2.938
1162	0.683
1166	3.431
1170	5.818
1174	1.522
1178	1.489
1182	0.471
1186	0.96
1190	0.294
1194	1.509
1198	1.298
1202	0.019
1206	2.735
1210	0.905
1214	1.212
1218	1.615
1222	5.647
1226	2.478
1230	0.849
1234	0.15
1238	3.123
1242	1.13
1246	1.601
1250	4.055
1254	3.235
1258	0.245
1262	3.354
1266	2.299
1270	2.664
1274	0.02
1278	1.921
1282	1.701
1286	1.798
1290	0.82
1294	2.857
1298	1.346
1302	0.363
1306	1.98
1310	1.497
1314	1.247
1318	3.672
1322	5.185
1326	2.223
1330	0.726
1334	3.585
1338	2.228
1342	1.539
1346	0.639
1350	2.818
1354	2.026
1358	0.084
1362	2.331
1366	2.138
1370	1.472
1374	0.61
1378	2.224
1382	0.17
1386	3.311
1390	3.428
1394	3.938
1398	1.779
1402	2.35
1406	0.052
1410	4
1414	0.665
1418	1.169
1422	2.192
1426	2.689
1430	0.063
1434	0.237
1438	0.852
1442	0.494
1446	0.189
1450	0.846
1454	2.396
1458	0.725
1462	1.34
1466	4.679
1470	4.874
1474	4.16
1478	7.033
1482	2.243
1486	2.255
1490	1.256
1494	1.647
1498	1.998
