Measurement: Raman, 532 nm, unoriented, Raman Data Processed
Mineral: Goethite
Rruff sample: R120086
Ideal chemistry: FeO(OH)
Locality: Alexander mine, Vrancice, Příbram, Central Bohemia Region, Bohemia, Czech Republic
Source: Michael Scott
Description: Elongated black crystals, associated with R070363, čechite
Raman shift (cm-1)	intensity
214.878	0
217.771	1.61693
220.664	1.70303
223.556	13.3527
226.449	29.0829
229.342	56.0947
232.234	84.0841
235.127	103.034
238.02	132.018
240.913	185.054
243.805	272.477
246.698	317.387
249.591	190.224
252.483	57.247
255.376	22.6512
258.269	11.1099
261.161	3.44006
264.054	0.75177
266.947	1.75015
269.84	0.723602
272.732	4.28857
275.625	6.46867
278.518	13.3019
281.41	27.8449
284.303	57.0892
287.196	76.234
290.089	100.532
292.981	133.717
295.874	205.841
298.767	309.608
301.659	295.31
304.552	132.435
307.445	58.283
310.337	30.0814
313.23	20.2987
316.123	15.4129
319.015	9.69743
321.908	8.15674
324.801	4.43884
327.694	2.0329
330.586	1.32353
333.479	0.49939
336.372	0.591995
339.264	0.82196
342.157	0.020203
345.05	2.62155
347.942	0.619095
350.835	0.626709
353.728	3.7943
356.621	5.60629
359.513	9.19278
362.406	16.478
365.299	29.9059
368.191	45.2214
371.084	71.5562
373.977	101.907
376.87	133.247
379.762	170.446
382.655	220.695
385.548	264.817
388.44	253.512
391.333	190.369
394.226	144.651
397.118	143.938
400.011	157.567
402.904	132.931
405.796	75.0779
408.689	48.23
411.582	39.6208
414.475	39.1663
417.367	43.8763
420.26	40.452
423.153	30.419
426.045	21.9134
428.938	14.6242
431.831	10.0539
434.724	1.9725
437.616	2.11128
440.509	0.626297
443.402	2.90007
446.294	1.54811
449.187	6.96957
452.08	5.79697
454.972	11.7117
457.865	21.0635
460.758	29.0319
463.651	44.3864
466.543	62.9924
469.436	85.446
472.329	109.55
475.221	136.947
478.114	160.471
481.007	173.566
483.899	162.309
486.792	118.668
489.685	77.3136
492.577	43.4344
495.47	23.8769
498.363	13.0253
501.256	3.62494
504.148	0.372803
507.041	1.5304
509.934	1.47053
512.826	0.894791
515.719	3.69667
518.612	6.10428
521.505	7.50305
524.397	11.0572
527.29	15.1333
530.183	17.6406
533.075	19.841
535.968	27.527
538.861	31.7761
541.753	36.4915
544.646	44.06
547.539	45.9435
550.432	40.9662
553.324	25.0711
556.217	14.9727
559.11	4.59377
562.002	4.38261
564.895	0.340157
567.788	2.11748
570.68	0.683228
573.573	1.06004
576.466	0.838829
579.359	0.825096
582.251	3.13341
585.144	2.38546
588.037	2.39862
590.929	3.46909
593.822	3.65778
596.715	5.8395
599.607	7.27359
602.5	6.59296
605.393	6.36352
608.285	8.89301
611.178	8.57317
614.071	8.95317
616.964	9.15775
619.856	10.3759
622.749	10.739
625.642	8.44276
628.534	7.83185
631.427	9.79949
634.32	7.41059
637.212	7.18457
640.105	7.93952
642.998	10.1965
645.891	8.03437
648.783	10.2365
651.676	9.68366
654.569	11.8926
657.461	11.7676
660.354	14.8239
663.247	15.3392
666.139	18.5808
669.032	18.8277
671.925	20.6902
674.818	21.4645
677.71	23.2385
680.603	23.5781
683.496	24.8498
686.388	21.9058
689.281	19.8862
692.174	17.1313
695.067	14.1754
697.959	11.6571
700.852	10.3744
703.745	5.40439
706.637	6.34431
709.53	6.46777
712.423	2.62511
715.315	2.81353
718.208	2.68746
721.101	1.62778
723.994	1.45713
726.886	2.75803
729.779	0.364784
732.672	0.901314
735.564	1.37712
738.457	1.35679
741.35	0.542656
744.242	1.69197
747.135	0.761154
750.028	0.2761
752.92	2.1071
755.813	1.0953
758.706	0.763367
761.599	1.25567
764.491	1.32812
767.384	0.821503
770.277	3.29089
773.169	3.59354
776.062	3.89141
778.955	3.41941
781.847	2.69127
784.74	2.11942
787.633	4.30948
790.526	0.203354
793.418	3.33929
796.311	2.60419
799.204	0.742409
802.096	1.56416
804.989	0.635788
807.882	1.81381
810.774	1.45349
813.667	1.01827
816.56	4.69641
819.453	4.02054
822.345	5.33179
825.238	2.95629
828.131	4.13994
831.023	7.45396
833.916	5.56566
836.809	5.76792
839.702	6.2271
842.594	7.02547
845.487	5.61268
848.38	6.37281
851.272	5.76073
854.165	5.14047
857.058	5.96011
859.95	9.33669
862.843	7.32583
865.736	7.89198
868.629	2.39737
871.521	4.35957
874.414	5.50493
877.307	4.69785
880.199	3.83431
883.092	2.63353
885.985	2.91835
888.877	1.23487
891.77	2.03333
894.663	3.76797
897.556	2.15835
900.448	0.768028
903.341	1.42417
906.234	0.924606
909.126	1.65511
912.019	0.767235
914.912	1.23038
917.804	0.433243
920.697	2.33472
923.59	2.24657
926.482	1.38717
929.375	0.793266
932.268	3.37132
935.161	3.74866
938.053	3.97869
940.946	4.11954
943.839	1.90369
946.731	2.5171
949.624	5.01749
952.517	5.48793
955.409	5.93515
958.302	3.62447
961.195	4.8781
964.088	5.08246
966.98	5.90182
969.873	8.71582
972.766	8.29332
975.658	7.56125
978.551	13.3931
981.444	13.4201
984.337	20.3027
987.229	28.3154
990.122	37.6567
993.015	45.0782
995.907	53.3864
998.8	55.8755
1001.69	60.1894
1004.59	53.1743
1007.48	39.0351
1010.37	30.426
1013.26	19.0398
1016.16	14.5626
1019.05	10.9847
1021.94	7.03947
1024.83	5.42661
1027.73	3.01457
1030.62	4.56746
1033.51	2.50888
1036.4	1.93649
1039.3	0.812851
1042.19	1.43797
1045.08	0.691879
1047.98	0.161026
1050.87	0.646194
1053.76	0.817551
1056.65	1.97565
1059.55	0.8228
1062.44	1.93448
1065.33	0.319992
1068.22	1.17372
1071.12	1.01552
1074.01	1.10963
1076.9	0.063187
1079.8	2.60637
1082.69	4.95805
1085.58	9.31859
1088.47	9.8427
1091.37	9.76941
1094.26	11.0379
1097.15	14.6245
1100.04	17.2394
1102.94	21.0598
1105.83	21.9508
1108.72	22.2129
1111.62	25.4349
1114.51	26.6259
1117.4	24.6756
1120.29	22.864
1123.19	19.7177
1126.08	15.194
1128.97	11.9353
1131.86	9.74681
1134.76	6.56618
1137.65	4.73979
1140.54	1.65114
1143.43	2.42459
1146.33	1.09702
1149.22	1.71658
1152.11	0.1409
1155.01	1.84944
1157.9	1.62782
1160.79	1.7898
1163.68	1.29748
1166.58	4.17288
1169.47	3.97476
1172.36	4.32568
1175.26	5.88336
1178.15	7.16313
1181.04	8.18549
1183.93	8.09473
1186.83	8.5293
1189.72	7.55176
1192.61	9.48122
1195.5	9.82625
1198.4	14.3726
1201.29	12.8823
1204.18	14.3645
1207.07	13.4916
1209.97	17.6556
1212.86	15.1305
1215.75	14.5285
1218.64	13.6544
1221.54	12.0191
1224.43	10.6246
1227.32	11.8269
1230.22	10.4455
1233.11	8.30902
1236	9.49565
1238.89	8.14841
1241.79	5.73929
1244.68	6.78505
1247.57	4.5661
1250.46	2.89209
1253.36	3.1653
1256.25	4.56848
1259.14	1.52913
1262.04	2.12735
1264.93	2.14995
1267.82	0.20668
1270.71	0.277466
1273.61	2.35556
1276.5	0.220291
1279.39	2.70183
1282.29	2.81874
1285.18	0.931473
1288.07	1.39056
1290.96	0.174835
1293.86	2.63243
1296.75	2.84531
1299.64	2.31926
1302.53	0.896286
