Measurement: Raman, 514 nm, unoriented, Raman Data Processed
Mineral: Goethite
Rruff sample: R050142
Ideal chemistry: FeO(OH)
Locality: Park County, Colorado, USA
Source: Dave Bunk Minerals
Description: Radiating spray of black to brown platy crystals
Measured chemistry: FeO(OH)
Raman shift (cm-1)	intensity
173.833	0
177.974	16.561
182.114	278.607
186.251	151.098
190.387	328.521
194.52	657.037
198.652	801.648
202.782	842.613
206.909	1455.29
211.035	382.316
215.159	255.525
219.281	700.6
223.4	1219.92
227.518	1790.14
231.634	3140.58
235.748	4729.72
239.86	7992.58
243.97	6531.22
248.079	2407.22
252.185	563.877
256.289	98.275
260.391	37.838
264.492	32.613
268.59	112.76
272.687	55.639
276.781	6.512
280.874	189.283
284.964	264.682
289.053	1215.54
293.14	4374.93
297.225	5467.7
301.308	2725.86
305.389	1143.49
309.468	421.074
313.545	306.797
317.62	190.336
321.693	190.711
325.765	130.752
329.834	78.115
333.902	6.264
337.967	86.791
342.031	246.016
346.093	257.98
350.153	341.789
354.21	451.809
358.267	577.285
362.321	732.562
366.373	1038.18
370.423	1250.07
374.471	1725.42
378.518	2266.6
382.563	3136.55
386.605	3433.2
390.646	4406.89
394.685	5174.31
398.722	5426.24
402.757	3649.64
406.79	2441.65
410.821	1869.14
414.851	1546.26
418.878	1436.77
422.904	1213.7
426.927	1238.32
430.949	1183.16
434.969	1333.3
438.987	1323.42
443.003	1252.6
447.018	1426.89
451.03	1401.31
455.041	1904.93
459.049	2106.69
463.056	2797.18
467.061	3586.45
471.064	4521.2
475.065	5339.24
479.064	5588.9
483.062	4667.69
487.057	3279.08
491.051	2406.76
495.043	1803.1
499.032	1477.14
503.02	1245.16
507.007	1030.88
510.991	1040.78
514.973	1021.92
518.954	1004.69
522.933	918.605
526.91	1013.56
530.885	1104.5
534.858	1245.7
538.829	1379.76
542.799	1678.25
546.766	1382.73
550.732	1422.94
554.696	557.805
558.658	313.199
562.618	323.494
566.576	85.33
570.533	200.287
574.488	180.539
578.44	5.426
582.391	66.266
586.341	33.324
590.288	82.24
594.233	133.379
598.177	20.547
602.119	26.061
606.059	36.324
609.997	1.908
613.933	166.232
617.868	33.307
621.801	30.881
625.731	90.586
629.66	51.635
633.588	81.574
637.513	150.93
641.437	200.137
645.358	68.668
649.278	127.176
653.196	124.484
657.113	8.592
661.027	114.801
664.94	224.84
668.851	195.414
672.76	310.074
676.667	227.824
680.572	222.652
684.476	261.289
688.378	191.414
692.278	105.734
696.176	102.787
700.072	89.418
703.967	105.346
707.86	20.67
711.751	100.607
715.64	75.771
719.527	122.771
723.413	85.283
727.297	100.664
731.179	105.361
735.059	125.787
738.937	140.773
742.814	9.781
746.689	84.76
750.562	118.611
754.433	170.434
758.303	366.424
762.17	125.816
766.036	68.82
769.901	86.316
773.763	26.807
777.624	288.555
781.482	222.135
785.339	87.262
789.195	66.33
793.048	95.346
796.9	44.75
800.75	38.258
804.598	80.562
808.445	28.018
812.289	98.443
816.132	5.072
819.973	29.258
823.813	51.92
827.65	33.639
831.486	96.059
835.32	66.742
839.152	54.961
842.983	20.9
846.812	0.615
850.639	103.133
854.464	44.348
858.288	70.055
862.11	87.787
865.93	70.354
869.748	9.641
873.564	290.572
877.379	84.936
881.192	3.467
885.004	114.232
888.813	111.457
892.621	88.051
896.427	55.18
900.232	166.594
904.034	317.713
907.835	137.119
911.634	187.061
915.432	385.406
919.227	133.773
923.021	278.945
926.813	243.154
930.604	190.068
934.393	275.762
938.18	284.082
941.965	314.102
945.749	296.285
949.53	302.088
953.311	338.484
957.089	256.07
960.866	454.084
964.641	379.42
968.414	359.371
972.185	535.256
975.955	617.047
979.723	795.273
983.49	1048.44
987.254	1302.03
991.017	1348.11
994.779	1513.86
998.538	1448.84
1002.3	1103.47
1006.05	884.33
1009.81	670.9
1013.56	480.062
1017.31	306.064
1021.06	184.117
1024.81	158.754
1028.55	167.803
1032.3	98.508
1036.04	8.826
1039.78	205.379
1043.52	106.166
1047.26	244.256
1050.99	195.713
1054.73	208.494
1058.46	127.652
1062.19	101.279
1065.92	119.201
1069.65	168.436
1073.37	55.949
1077.1	182.76
1080.82	185.904
1084.54	241.385
1088.26	337.197
1091.97	352.453
1095.69	461.117
1099.4	598.146
1103.12	688.506
1106.83	525.26
1110.54	625.141
1114.24	695.102
1117.95	442.18
1121.65	645.678
1125.35	557.51
1129.06	427.666
1132.75	311.168
1136.45	314.967
1140.15	265.127
1143.84	298.775
1147.53	262.328
1151.22	334.336
1154.91	307.76
1158.6	224.5
1162.28	405.451
1165.97	395.617
1169.65	298.016
1173.33	449.602
1177.01	527.414
1180.69	569.477
1184.36	645.65
1188.04	721.119
1191.71	783.248
1195.38	601.855
1199.05	739.859
1202.71	783.654
1206.38	697.246
1210.04	824.373
1213.71	825.838
1217.37	701.604
1221.03	812.504
1224.68	740.594
1228.34	687.061
1231.99	545.686
1235.65	709.025
1239.3	477.631
1242.95	668.158
1246.59	473.016
1250.24	471.752
1253.88	663.156
1257.53	485.535
1261.17	454.205
1264.81	427.67
1268.45	541.949
1272.08	336.703
1275.72	459.354
1279.35	480.744
1282.98	386.111
1286.61	372.135
1290.24	317.857
1293.87	290.49
1297.49	189.629
1301.11	302.963
1304.73	90.646
1308.36	285.773
1311.97	127.33
1315.59	160.865
1319.2	150.328
1322.82	104.436
1326.43	102.848
1330.04	64.004
1333.65	106.537
1337.26	77.504
1340.86	12.293
1344.47	101.053
1348.07	100.727
1351.67	25.523
1355.27	54.285
1358.87	51.701
1362.46	241.029
1366.06	8.172
1369.65	26.781
1373.24	52.031
1376.83	98.812
1380.42	11.305
1384	89.775
1387.59	164.168
1391.17	197.039
1394.75	26.545
1398.33	150.887
1401.91	253.201
1405.49	185.428
1409.06	130.139
1412.64	209.703
1416.21	101.465
1419.78	494.91
1423.35	177.32
1426.91	215.613
1430.48	207.123
1434.05	224.137
1437.61	250.84
1441.17	275.18
1444.73	287.326
1448.29	233.24
1451.84	172.926
1455.4	145.977
1458.95	254.65
1462.5	242.273
1466.05	115.969
1469.6	556.826
