Measurement: Raman, 780 nm, unoriented, Raman Data Processed
Mineral: Goldichite
Rruff sample: R120120
Ideal chemistry: KFe^3+^(SO_4_)_2_4H_2_O
Locality: Dexter #7 mine, San Rafael Swell, Emery County, Utah, USA
Source: Marcus Origlieri
Description: Aggregates of pale yellowish green bladed crystals on pink coquimbite
Raman shift (cm-1)	intensity
111.448	0
114.823	2.86334
118.198	0.027039
121.573	3.39339
124.948	6.66852
128.322	13.5142
131.697	25.9781
135.072	29.8744
138.447	30.5319
141.822	30.6875
145.197	38.9663
148.571	52.1304
151.946	60.3719
155.321	51.4137
158.696	34.3008
162.071	21.3245
165.446	8.70616
168.82	3.06831
172.195	2.79565
175.57	4.89839
178.945	11.911
182.32	19.8146
185.694	31.3505
189.069	44.1648
192.444	58.0359
195.819	71.1936
199.194	64.464
202.569	49.7488
205.943	35.1348
209.318	23.4489
212.693	17.276
216.068	11.641
219.442	4.94409
222.817	0.82547
226.192	1.78406
229.567	1.81103
232.942	0.692947
236.317	2.89226
239.691	9.93181
243.066	13.5029
246.441	14.1277
249.816	11.2382
253.191	11.6739
256.565	18.0539
259.94	28.854
263.315	30.0654
266.69	21.0513
270.065	18.4537
273.44	25.6367
276.814	39.3736
280.189	56.4926
283.564	77.3368
286.939	107.814
290.314	134.101
293.688	139.625
297.063	123.364
300.438	103.447
303.813	95.1455
307.188	95.5371
310.562	104.02
313.937	113.428
317.312	112.861
320.687	91.7336
324.062	61.978
327.437	39.2887
330.811	23.5541
334.186	15.4698
337.561	9.34491
340.936	5.67862
344.311	3.07023
347.685	1.31084
351.06	0.137383
354.435	0.351105
357.81	0.580101
361.185	0.087868
364.56	1.20563
367.934	0.546867
371.309	0.137802
374.684	1.11767
378.059	0.587509
381.434	0.574066
384.808	1.39017
388.183	1.28651
391.558	2.47887
394.933	3.77747
398.308	5.45335
401.683	8.26398
405.057	12.9797
408.432	16.4362
411.807	22.4874
415.182	28.7386
418.557	35.738
421.931	38.5101
425.306	36.9799
428.681	29.2675
432.056	21.1136
435.431	11.769
438.805	10.0562
442.18	11.1877
445.555	14.1774
448.93	19.2944
452.305	29.2831
455.68	43.8784
459.054	61.3783
462.429	78.8429
465.804	102.934
469.179	139.934
472.554	161.329
475.928	127.055
479.303	78.0012
482.678	50.2523
486.053	36.2706
489.428	29.5582
492.803	23.3154
496.177	14.4964
499.552	7.80677
502.927	5.12904
506.302	3.44934
509.677	1.8633
513.051	1.1139
516.426	1.11137
519.801	0.119034
523.176	0.165665
526.551	0.050484
529.926	0.407852
533.3	0.168457
536.675	0.331039
540.05	0.648193
543.425	0.293945
546.799	0.047226
550.174	0.786766
553.549	0.026955
556.924	0.565437
560.299	0.509308
563.674	2.37276
567.048	1.53329
570.423	1.37774
573.798	3.21079
577.173	4.6219
580.548	6.53783
583.923	9.28871
587.297	13.5174
590.672	15.5533
594.047	12.292
597.422	15.6535
600.797	21.9016
604.171	33.9706
607.546	36.7266
610.921	22.3759
614.296	11.8853
617.671	6.44618
621.045	6.68675
624.42	10.2077
627.795	16.9072
631.17	25.3551
634.545	40.7847
637.919	55.6706
641.294	34.8101
644.669	12.2721
648.044	4.8988
651.419	3.06461
654.794	1.63765
658.168	1.30141
661.543	0.663536
664.918	1.02197
668.293	0.874786
671.668	1.991
675.043	3.2691
678.417	3.56874
681.792	1.43498
685.167	1.5293
688.542	0.136078
691.917	0.334068
695.291	0.158836
698.666	0.22213
702.041	0.099136
705.416	0.395782
708.791	0.013535
712.165	0.554657
715.54	0.065376
718.915	0.25106
722.29	0.656441
725.665	0.405457
729.039	0.644592
732.414	0.533684
735.789	1.1187
739.164	2.05811
742.539	1.28482
745.914	1.57281
749.288	1.49319
752.663	1.17904
756.038	1.52561
759.413	0.662453
762.788	0.781898
766.163	1.09068
769.537	0.41069
772.912	0.78624
776.287	0.024582
779.662	0.545494
783.037	0.119537
786.411	1.20322
789.786	1.30835
793.161	1.55417
796.536	0.377304
799.911	0.944733
803.285	1.85231
806.66	1.60257
810.035	0.690216
813.41	0.182449
816.785	0.780304
820.159	0.931953
823.534	0.926216
826.909	1.50172
830.284	0.992508
833.659	1.15118
837.034	1.4998
840.408	1.07361
843.783	1.13695
847.158	2.12016
850.533	1.28082
853.908	0.375992
857.283	0.951294
860.657	0.268791
864.032	0.971489
867.407	0.795158
870.782	1.29147
874.157	0.44725
877.531	0.281792
880.906	0.327492
884.281	0.910278
887.656	0.352798
891.031	0.663368
894.405	0.462616
897.78	0.089828
901.155	0.68174
904.53	1.16434
907.905	1.65128
911.279	2.31411
914.654	3.88391
918.029	5.45527
921.404	6.893
924.779	10.8472
928.154	16.1873
931.528	24.5229
934.903	34.3296
938.278	54.425
941.653	83.338
945.028	125.909
948.403	184.074
951.777	245.513
955.152	280.254
958.527	248.368
961.902	171.55
965.277	106.421
968.651	64.5556
972.026	38.7277
975.401	23.642
978.776	13.6851
982.151	8.26054
985.525	4.65916
988.9	3.44512
992.275	3.57968
995.65	5.33909
999.025	9.6033
1002.4	17.905
1005.77	31.8007
1009.15	56.2738
1012.52	90.3102
1015.9	132.828
1019.27	147.696
1022.65	129.529
1026.02	164.128
1029.4	88.9193
1032.77	27.0553
1036.15	11.0983
1039.52	4.01529
1042.9	0.817139
1046.27	1.21223
1049.65	0.744064
1053.02	0.65522
1056.4	0.040283
1059.77	2.48265
1063.15	6.63055
1066.52	14.4229
1069.9	27.917
1073.27	56.4741
1076.64	81.5905
1080.02	48.7098
1083.39	19.7085
1086.77	8.65538
1090.14	4.99023
1093.52	3.851
1096.89	3.0556
1100.27	1.34588
1103.64	1.23308
1107.02	0.873756
1110.39	0.219154
1113.77	0.530586
1117.14	0.406013
1120.52	0.536461
1123.89	1.73747
1127.27	2.1063
1130.64	4.04005
1134.02	6.77511
1137.39	9.42873
1140.77	13.6574
1144.14	14.786
1147.52	12.4178
1150.89	9.88032
1154.27	6.83411
1157.64	3.88764
1161.02	2.8669
1164.39	2.20964
1167.77	1.75331
1171.14	0.28701
1174.52	0.298485
1177.89	0.544884
1181.27	0.263939
1184.64	0.856438
1188.01	0.338654
1191.39	1.205
1194.76	1.57001
1198.14	2.69298
1201.51	3.59238
1204.89	3.25104
1208.26	4.02677
1211.64	4.08153
1215.01	3.84285
1218.39	4.15086
1221.76	4.6338
1225.14	4.08034
1228.51	2.50741
1231.89	0.084564
1235.26	1.39775
1238.64	0.777191
1242.01	0.212738
1245.39	0.459335
1248.76	2.11877
1252.14	8.03461
1255.51	18.4532
1258.88	38.4399
1262.26	73.5462
1265.63	118.454
1269.01	99.0856
1272.38	46.1044
1275.76	16.6607
1279.13	4.86832
1282.51	0.078979
