Measurement: Raman, 532 nm, unoriented, Raman Data Processed
Mineral: Goldfieldite
Rruff sample: R110023
Ideal chemistry: Cu_10_Te_4_S_13_
Locality: Mohawk mine, Goldfield, Esmeralda County, Nevada, USA
Source: William Pinch
Description: Dark grey metallic massive to granular associated with pinkish grey famatinite R110021
Raman shift (cm-1)	intensity
211.504	0.307343
214.396	1.77234
217.289	6.20169
220.182	1.08243
223.074	5.82394
225.967	1.88397
228.86	1.49795
231.752	5.26117
234.645	1.44437
237.538	2.19141
240.43	0.384827
243.323	4.43842
246.216	2.22485
249.109	3.13922
252.001	2.80725
254.894	10.5533
257.787	8.92127
260.679	9.00501
263.572	7.58643
266.465	15.4706
269.358	14.4075
272.25	18.2269
275.143	26.0552
278.036	36.0541
280.928	43.2147
283.821	43.3555
286.714	50.3169
289.606	62.8901
292.499	72.3
295.392	84.9951
298.284	95.5436
301.177	103.933
304.07	112.705
306.963	123.43
309.855	128.132
312.748	142.14
315.641	158.624
318.533	180.63
321.426	192.35
324.319	205.13
327.212	206.996
330.104	215.326
332.997	220.186
335.89	228.207
338.782	237.574
341.675	261.232
344.568	279.603
347.46	306.952
350.353	344.749
353.246	356.481
356.139	361.702
359.031	339.642
361.924	308.901
364.817	281.513
367.709	233.038
370.602	187.735
373.495	150.379
376.387	128.899
379.28	99.8588
382.173	62.8735
385.065	41.53
387.958	18.7608
390.851	8.20575
393.744	3.10123
396.636	0.799957
399.529	3.15863
402.422	2.92508
405.314	1.59793
408.207	3.43759
411.1	0.382202
413.993	2.65042
416.885	3.67676
419.778	0.363739
422.671	0.452484
425.563	4.79102
428.456	1.91339
431.349	8.23679
434.241	2.76001
437.134	4.10257
440.027	4.64395
442.92	7.42712
445.812	9.32172
448.705	11.1085
451.598	9.10043
454.49	9.03082
457.383	13.5628
460.276	13.1866
463.168	12.4221
466.061	12.1927
468.954	16.8187
471.846	11.7941
474.739	9.77557
477.632	10.875
480.525	8.91727
483.417	9.42966
486.31	7.17926
489.203	6.24771
492.095	4.98715
494.988	9.84207
497.881	5.85522
500.774	5.28748
503.666	2.66785
506.559	3.2717
509.452	2.79321
512.344	4.64148
515.237	0.94696
518.13	1.71701
521.022	5.25125
523.915	1.06018
526.808	6.63666
529.701	5.32495
532.593	1.37149
535.486	3.05869
538.379	2.53671
541.271	2.86423
544.164	1.13144
547.057	3.61438
549.949	1.33237
552.842	6.85214
555.735	3.04501
558.628	1.50503
561.52	4.99652
564.413	3.21509
567.306	5.01245
570.198	4.2587
573.091	4.70718
575.984	1.36621
578.876	0.284729
581.769	3.56143
584.662	0.740631
587.554	1.95435
590.447	3.70117
593.34	4.29233
596.232	1.54099
599.125	0.759125
602.018	3.07098
604.911	2.04617
607.803	1.50388
610.696	1.58536
613.589	4.17871
616.481	2.37341
619.374	2.54373
622.267	0.36026
625.159	2.65607
628.052	0.143341
630.945	4.00211
633.838	4.32983
636.73	5.40741
639.623	4.86496
642.516	2.97906
645.408	4.09894
648.301	0.019043
651.194	3.89496
654.087	4.91177
656.979	4.57581
659.872	6.49432
662.765	3.91132
665.657	7.73801
668.55	3.53076
671.443	4.08758
674.335	5.09729
677.228	5.46195
680.121	4.40628
683.014	6.06805
685.906	6.1026
688.799	5.06369
691.692	5.82178
694.584	5.51746
697.477	11.9688
700.37	5.47684
703.263	3.9379
706.155	5.81216
709.048	5.85614
711.941	4.91547
714.833	5.7081
717.726	2.88544
720.619	0.476868
723.511	1.78802
726.404	2.25021
729.297	0.625153
732.189	3.27075
735.082	2.22824
737.975	3.6991
740.868	2.57056
743.76	3.66046
746.653	0.42099
749.546	1.21469
752.438	4.93692
755.331	2.88724
758.224	0.718994
761.116	0.711243
764.009	2.75119
766.902	2.39481
769.795	2.66113
772.687	3.54877
775.58	4.58569
778.473	0.242676
781.365	0.240814
784.258	4.96976
787.151	1.77017
790.043	1.81097
792.936	3.05139
795.829	5.95065
798.722	0.482269
801.614	1.10681
804.507	3.92133
807.4	0.707794
810.292	4.43109
813.185	4.62219
816.078	3.53363
818.971	5.60886
821.863	4.21017
824.756	3.49606
827.649	4.61066
830.541	3.59524
833.434	4.54868
836.327	1.99893
839.219	0.801758
842.112	2.09769
845.005	0.021393
847.898	2.80524
850.79	0.577515
853.683	3.59531
856.576	3.30926
859.468	2.9837
862.361	3.89203
865.254	3.59595
868.146	2.43759
871.039	3.41824
873.932	2.41437
876.824	2.04651
879.717	2.73474
882.61	4.65872
885.503	3.29257
888.395	7.09091
891.288	4.05093
894.181	3.39829
897.073	1.81122
899.966	2.50177
902.859	0.192719
905.751	5.10297
908.644	6.74054
911.537	2.60541
914.43	4.45953
917.322	5.81973
920.215	4.44525
923.108	4.39807
926	7.54675
928.893	5.00165
931.786	4.51871
934.678	3.94955
937.571	3.57401
940.464	3.83157
943.357	1.27524
946.249	5.27347
949.142	4.19507
952.035	0.717255
954.927	6.18256
957.82	5.29425
960.713	0.619598
963.606	2.53152
966.498	1.73923
969.391	1.36349
972.284	1.58637
975.176	2.64877
978.069	4.78336
980.962	5.69797
983.854	0.087799
986.747	6.03662
989.64	1.60208
992.533	2.63745
995.425	0.133667
998.318	3.95898
1001.21	4.24579
1004.1	2.34528
1007	4.53101
1009.89	4.15588
1012.78	2.28506
1015.67	0.18454
1018.57	6.69421
1021.46	2.89636
1024.35	7.07568
1027.24	4.54883
1030.14	3.74912
1033.03	3.86697
1035.92	1.42282
1038.82	3.39163
1041.71	5.56918
1044.6	0.924805
1047.49	4.56625
1050.39	2.97406
1053.28	4.45731
1056.17	6.67566
1059.07	6.68057
1061.96	4.9978
1064.85	6.38693
1067.74	5.77393
1070.63	3.76343
1073.53	2.02801
1076.42	4.76495
1079.31	0.87088
1082.21	1.38409
1085.1	0.333801
1087.99	4.21576
1090.88	3.29794
1093.78	2.11231
1096.67	4.66013
1099.56	2.63937
1102.45	3.61154
1105.35	3.05869
1108.24	3.17322
1111.13	2.45676
1114.03	1.45566
1116.92	1.03226
1119.81	3.51694
1122.7	6.51364
1125.6	1.70959
1128.49	7.41312
1131.38	4.95947
1134.28	2.08121
1137.17	2.82266
1140.06	1.2898
1142.95	3.25317
1145.85	1.09109
1148.74	4.45966
1151.63	3.35931
1154.52	0.45694
1157.42	2.90143
1160.31	2.77002
1163.2	4.38614
1166.09	3.96213
1168.99	5.53934
1171.88	5.74435
1174.77	3.95401
1177.66	4.85223
1180.56	3.78186
1183.45	3.09732
1186.34	5.98904
1189.24	2.22424
1192.13	3.55908
1195.02	2.5914
1197.91	1.07843
1200.81	4.30548
1203.7	2.42648
1206.59	6.00418
1209.48	10.8097
1212.38	5.55667
1215.27	3.12283
1218.16	2.31793
1221.06	0.649628
1223.95	0.181854
1226.84	2.68893
1229.73	1.7406
1232.63	1.04977
1235.52	2.62015
1238.41	2.39127
1241.31	3.47742
1244.2	5.15805
1247.09	4.57379
1249.98	5.08905
1252.88	3.25986
1255.77	8.10446
1258.66	1.98444
1261.55	6.27719
1264.45	5.513
1267.34	1.72281
1270.23	3.4931
1273.12	1.15878
1276.02	1.96616
1278.91	0.009338
1281.8	1.61575
1284.69	1.043
1287.59	0.70639
1290.48	2.78632
1293.37	0.654083
1296.27	1.73944
1299.16	3.98703
1302.05	2.34741
