Measurement: Raman, 532 nm, unoriented, Raman Data Processed
Mineral: Golyshevite
Rruff sample: R061047
Ideal chemistry: Na_10_Ca_9_Zr_3_Fe_2_SiNb(Si_3_O_9_)_2_(Si_9_O_27_)_2_(OH)_3_(CO_3_)H_2_O
Locality: Mica mine, Kovdor, Kola, Russia
Source: Michael Scott
Description: Dark brown vitreous blebs
Raman shift (cm-1)	intensity
122.486	0
125.861	128.912
129.236	322.578
132.611	793.352
135.986	1917.55
139.36	3323.4
142.735	3748.07
146.11	3232.74
149.485	2155.81
152.86	1311.53
156.234	804.125
159.609	487.319
162.984	274.644
166.359	12.4443
169.734	56.7202
173.109	31.9072
176.483	12.0601
179.858	263.457
183.233	379.264
186.608	698.424
189.983	1031.48
193.357	1256.33
196.732	1607.55
200.107	1789.77
203.482	1967.72
206.857	2025.32
210.232	1825.62
213.606	1626.79
216.981	1425.81
220.356	1179.27
223.731	897.454
227.106	594.21
230.481	365.74
233.855	158.039
237.23	0.437012
240.605	48.5591
243.98	117.508
247.355	39.3989
250.729	0.439941
254.104	97.2041
257.479	113.964
260.854	161.717
264.229	141.875
267.603	310.454
270.978	318.871
274.353	491.528
277.728	698.556
281.103	900.863
284.478	1067.93
287.852	1323.99
291.227	1719.68
294.602	2028.88
297.977	2453.84
301.352	2923.66
304.726	3114.75
308.101	3332.6
311.476	3145.04
314.851	2771.82
318.226	2428.99
321.601	2151.02
324.975	2017.06
328.35	2068.72
331.725	2360.77
335.1	2873.77
338.474	3424.59
341.849	3775.8
345.224	3684.44
348.599	3309.89
351.974	2702.23
355.349	1909.81
358.723	1285.37
362.098	802.391
365.473	368.533
368.848	187.933
372.223	99.1572
375.598	-19.0847
378.972	-53.8036
382.347	-36.1995
385.722	88.3394
389.097	396.215
392.472	780.673
395.846	1156.4
399.221	1265.84
402.596	1382.06
405.971	1315.87
409.346	1203.13
412.721	1063.44
416.095	996.692
419.47	852.407
422.845	758.127
426.22	720.801
429.594	694.604
432.969	650.71
436.344	664.814
439.719	887.394
443.094	1043.75
446.469	1352.31
449.843	1486.88
453.218	1625.26
456.593	1740.24
459.968	1781.14
463.343	1545.99
466.717	1211.05
470.092	843.792
473.467	486.704
476.842	119.138
480.217	9.91398
483.592	-28.0482
486.966	7.38474
490.341	80.6423
493.716	304.046
497.091	733.415
500.466	1110.34
503.841	1490.99
507.215	1794.11
510.59	1853.98
513.965	1745.19
517.34	1569.87
520.715	1346.94
524.089	1164.15
527.464	1144.18
530.839	1259.69
534.214	1581.49
537.589	2204.48
540.963	2958.4
544.338	3595.01
547.713	4412.68
551.088	5380.94
554.463	6455.24
557.837	7329.58
561.212	7965.44
564.587	8514.27
567.962	8461.78
571.337	7195.8
574.712	5293.23
578.086	3337.83
581.461	2126.39
584.836	1044.17
588.211	446.962
591.586	116.531
594.96	8.93006
598.335	83.0672
601.71	397.202
605.085	815.698
608.46	1260.3
611.835	1399.3
615.209	1267.59
618.584	964.523
621.959	580.076
625.334	330.56
628.709	123.418
632.083	45.9961
635.458	-41.3342
638.833	-49.7228
642.208	-6.51661
645.583	36.3071
648.957	198.547
652.332	381.212
655.707	458.787
659.082	698.044
662.457	896.163
665.832	1090.86
669.206	1369.49
672.581	1531.49
675.956	1671.44
679.331	1923.84
682.706	2033.04
686.081	2209.84
689.455	2270.72
692.83	2386.64
696.205	2447.22
699.58	2466.88
702.955	2520.79
706.329	2530.93
709.704	2479.51
713.079	2190.42
716.454	1479.92
719.829	713.544
723.203	235.132
726.578	46.6135
729.953	28.9932
733.328	116.938
736.703	320.216
740.077	569.661
743.452	824.15
746.827	914.491
750.202	886.561
753.577	671.78
756.952	646.147
760.326	488.985
763.701	472.84
767.076	430.27
770.451	377.156
773.826	341.157
777.201	301.349
780.575	378.915
783.95	424.698
787.325	404.291
790.7	411.605
794.075	357.553
797.449	286.638
800.824	212.57
804.199	149.141
807.574	101.81
810.949	55.1298
814.323	20.3877
817.698	26.1821
821.073	19.9656
824.448	36.7415
827.823	12.2183
831.197	38.3332
834.572	123.215
837.947	43.5793
841.322	42.7075
844.697	76.1074
848.072	249.023
851.446	557.414
854.821	935.171
858.196	1456.06
861.571	2065.95
864.946	2471.79
868.321	2813.92
871.695	2878.37
875.07	2743.45
878.445	2591.62
881.82	2407.77
885.195	2368.43
888.569	2574.2
891.944	2875.6
895.319	3209.58
898.694	3431.51
902.069	3617.84
905.443	3811.8
908.818	4008.3
912.193	4204.69
915.568	4512.16
918.943	4705.94
922.317	4884.07
925.692	4868.23
929.067	4642
932.442	4144.39
935.817	3566.05
939.192	3133.08
942.566	2615.5
945.941	2365.47
949.316	2072.51
952.691	1865.96
956.066	1536.5
959.441	1217.69
962.815	868.985
966.19	655.496
969.565	379.307
972.94	383.396
976.315	287.285
979.689	231.065
983.064	138.667
986.439	49.2642
989.814	58.1924
993.189	85.1787
996.563	27.6055
999.938	30.7593
1003.31	37.6138
1006.69	48.0693
1010.06	18.6274
1013.44	27.9399
1016.81	209.58
1020.19	393.027
1023.56	711.882
1026.94	890.847
1030.31	1104.73
1033.69	1138.48
1037.06	1218.31
1040.44	1368.84
1043.81	1415.4
1047.19	1603.99
1050.56	1804.01
1053.93	2322.17
1057.31	3029.85
1060.68	3999.33
1064.06	4840.96
1067.43	5324.3
1070.81	5608.1
1074.18	5874.73
1077.56	5773.48
1080.93	5277
1084.31	4484.76
1087.68	3713
1091.06	3189.09
1094.43	2737.5
1097.81	2142.21
1101.18	1619.11
1104.56	1177.41
1107.93	849.404
1111.31	595.25
1114.68	393.13
1118.06	253.938
1121.43	202.352
1124.81	154.975
1128.18	152.221
1131.56	116.198
1134.93	53.0083
1138.31	51.7701
1141.68	15.3448
1145.06	17.1946
1148.43	42.1918
1151.81	11.9198
1155.18	74.8373
1158.56	3.41687
1161.93	15.6327
1165.3	8.05237
1168.68	108.586
1172.05	152.086
1175.43	165.294
1178.8	208.914
1182.18	233.187
1185.55	255.814
1188.93	266.453
1192.3	328.271
1195.68	308.75
1199.05	337.468
1202.43	375.212
1205.8	314.317
1209.18	304.325
1212.55	303.76
1215.93	285.979
1219.3	246.964
1222.68	255.904
1226.05	257.134
1229.43	215.292
1232.8	199.358
1236.17	169.785
1239.55	178.687
1242.92	164.746
1246.3	203.321
1249.67	127.301
1253.05	98.6558
1256.42	110.323
1259.8	83.7356
1263.17	50.6027
1266.55	83.2861
1269.92	47.4636
1273.3	76.0108
1276.67	33.093
1280.05	39.9114
1283.42	73.2905
1286.8	6.77692
1290.17	0
