Measurement: Raman, 785 nm, unoriented, Raman Data Processed
Mineral: Golyshevite
Rruff sample: R061047
Ideal chemistry: Na_10_Ca_9_Zr_3_Fe_2_SiNb(Si_3_O_9_)_2_(Si_9_O_27_)_2_(OH)_3_(CO_3_)H_2_O
Locality: Mica mine, Kovdor, Kola, Russia
Source: Michael Scott
Description: Dark brown vitreous blebs
Raman shift (cm-1)	intensity
138.402	0
141.294	482.643
144.187	1650.58
147.08	2460.63
149.973	2254.33
152.865	1335.63
155.758	496.022
158.651	159.807
161.543	359.594
164.436	469.312
167.329	635.714
170.221	592.306
173.114	441.048
176.007	393.736
178.9	365.015
181.792	430.219
184.685	708.549
187.578	874.362
190.47	1212.48
193.363	1502.73
196.256	1792.63
199.149	1916.92
202.041	2094.24
204.934	2036.35
207.827	1944.17
210.719	1767.68
213.612	1593.4
216.505	1484.73
219.397	1267.29
222.29	1119.58
225.183	804.121
228.076	545.116
230.968	345.057
233.861	201.357
236.754	94.5835
239.646	72.9316
242.539	60.7734
245.432	75.5298
248.324	64.5518
251.217	1.48193
254.11	29.3755
257.002	99.3398
259.895	105.755
262.788	22.4214
265.681	3.03272
268.573	19.1514
271.466	36.0562
274.359	51.9326
277.251	99.4121
280.144	169.824
283.037	295.147
285.93	317.355
288.822	354.108
291.715	514.902
294.608	596.694
297.5	848.202
300.393	1153.59
303.286	1376.79
306.178	1559.62
309.071	1545.27
311.964	1480.49
314.856	1272.57
317.749	1078.62
320.642	946.861
323.535	824.852
326.427	816.546
329.32	740.875
332.213	918.151
335.105	1068.82
337.998	1447.9
340.891	1559.28
343.783	1721.96
346.676	1787.13
349.569	1558.67
352.462	1258.54
355.354	900.037
358.247	594.714
361.14	284.623
364.032	84.6997
366.925	12.3125
369.818	31.103
372.71	7.58496
375.603	34.7158
378.496	13.8003
381.389	12.0742
384.281	9.75635
387.174	105.511
390.067	299.195
392.959	515.644
395.852	747.243
398.745	898.335
401.637	834.037
404.53	752.653
407.423	631.121
410.315	625.148
413.208	571.458
416.101	578.421
418.994	545.507
421.886	481.698
424.779	480.813
427.672	409.303
430.564	369.085
433.457	377.03
436.35	423.457
439.243	520.237
442.135	657.922
445.028	755.438
447.921	856.047
450.813	852.999
453.706	908.61
456.599	1152.54
459.491	986.288
462.384	904.023
465.277	790.904
468.17	560.67
471.062	359.638
473.955	184.252
476.848	72.0835
479.74	71.6982
482.633	107.955
485.526	58.6519
488.418	18.1689
491.311	29.7769
494.204	193.846
497.096	259.514
499.989	375.805
502.882	549.744
505.775	764.301
508.667	808.386
511.56	875.179
514.453	919.197
517.345	836.081
520.238	777.306
523.131	669.621
526.024	692.252
528.916	682.892
531.809	794.782
534.702	1119.21
537.594	1624.81
540.487	2103.78
543.38	2464.39
546.272	2744.3
549.165	3180.19
552.058	3632.36
554.951	4197.99
557.843	4727.59
560.736	4978.9
563.629	5124.7
566.521	5407.91
569.414	5338.64
572.307	4639.42
575.199	3493.97
578.092	2462.99
580.985	1629.1
583.877	967.921
586.77	511.42
589.663	149.461
592.556	78.1401
595.448	111.71
598.341	12.4434
601.234	135.829
604.126	402.171
607.019	749.637
609.912	1084.97
612.804	1195.99
615.697	1121.86
618.59	954.056
621.482	699.108
624.375	553.129
627.268	346.514
630.161	275.971
633.053	147.404
635.946	70.2681
638.839	6.18604
641.731	12.7886
644.624	23.8218
647.517	24.9873
650.409	118.476
653.302	200.481
656.195	255.681
659.088	441.118
661.98	583.975
664.873	659.515
667.766	785.652
670.658	917.956
673.551	1008.04
676.444	1134.96
679.337	1128.95
682.229	1446.75
685.122	1251.55
688.015	1603.56
690.907	1448.96
693.8	1507.68
696.693	1623.39
699.585	1687.34
702.478	1990.96
705.371	1911.62
708.264	1943.27
711.156	1864.29
714.049	1794.28
716.942	1232.45
719.834	655.637
722.727	296.781
725.62	32.3188
728.512	60.5869
731.405	45.4438
734.298	66.2056
737.191	218.1
740.083	392.301
742.976	595.089
745.869	656.133
748.761	698.616
751.654	603.167
754.547	507.611
757.439	422.352
760.332	394.921
763.225	362.868
766.117	334.473
769.01	304.415
771.903	254.888
774.796	276.058
777.688	250.135
780.581	227.323
783.474	301.305
786.366	307.679
789.259	284.338
792.152	283.546
795.044	350.129
797.937	167.456
800.83	121.45
803.723	61.2876
806.615	82.9121
809.508	56.4043
812.401	47.8784
815.293	56.0151
818.186	44.9277
821.079	34.1352
823.971	47.9619
826.864	10.3091
829.757	28.4546
832.65	16.0693
835.542	12.5483
838.435	50.7495
841.328	21.7476
844.22	12.1421
847.113	9.1875
850.006	81.4634
852.899	229.041
855.791	270
858.684	700.614
861.577	619.388
864.469	680.573
867.362	857.104
870.255	847.842
873.147	870.816
876.04	834.644
878.933	797.718
881.825	739.365
884.718	698.898
887.611	792.124
890.504	801.036
893.396	875.6
896.289	1049.96
899.182	1127.98
902.074	1198.07
904.967	1284.58
907.86	1375.93
910.752	1448.48
913.645	1514.22
916.538	1746.27
919.431	1821.35
922.323	1831.05
925.216	2007.1
928.109	1961.32
931.001	1903.22
933.894	1664.57
936.787	1412.79
939.679	1247.02
942.572	1077.58
945.465	914.573
948.357	832.438
951.25	784.531
954.143	653.273
957.036	551.242
959.928	471.197
962.821	438.075
965.714	288.22
968.606	231.035
971.499	168.646
974.392	130.511
977.284	98.8843
980.177	136.696
983.07	102.288
985.963	53.7476
988.855	177.201
991.748	15.8965
994.641	48.5264
997.533	49.2534
1000.43	52.7085
1003.32	106.185
1006.21	23.3706
1009.1	47.0044
1012	58.5449
1014.89	6.84424
1017.78	25.9072
1020.67	105.248
1023.57	129.553
1026.46	140.977
1029.35	292.637
1032.25	244.178
1035.14	298
1038.03	248.524
1040.92	324.673
1043.82	239.62
1046.71	276.205
1049.6	329.849
1052.49	439.049
1055.39	772.35
1058.28	1133.28
1061.17	1726.42
1064.07	2121.43
1066.96	2259.84
1069.85	2183.75
1072.74	2161.72
1075.64	2115.29
1078.53	2120.26
1081.42	1773.65
1084.31	1416.91
1087.21	1133.79
1090.1	1015.59
1092.99	861.936
1095.88	737.381
1098.78	496.115
1101.67	209.465
1104.56	80.5244
1107.46	44.4639
1110.35	112.952
1113.24	135.585
1116.13	26.6113
1119.03	59.7549
1121.92	96.7295
1124.81	203.783
1127.7	265.62
1130.6	488.7
1133.49	621.698
1136.38	929.966
1139.28	1150.92
1142.17	1302.01
1145.06	1703.26
1147.95	1991.74
1150.85	2388.16
1153.74	2620.54
1156.63	2976.39
1159.53	3173.79
1162.42	3505.22
1165.31	3631.43
1168.2	3651.23
1171.1	3731.9
1173.99	3703.86
1176.88	3768.43
1179.77	3579.16
1182.67	3252.54
1185.56	2986.52
1188.45	2740.2
1191.34	2361.95
1194.24	1988.26
1197.13	1648.71
1200.02	1212.65
1202.91	871.508
1205.81	467.141
1208.7	154.775
1211.59	4.69336
1214.49	8.95312
