Measurement: Raman, 780 nm, unoriented, Raman Data Processed
Mineral: Gonnardite
Rruff sample: R100080
Ideal chemistry: (Na,Ca)_2_(Si,Al)_5_O_10_3H_2_O
Locality: Rio Chiavone nero, Fara, Breganze, Vicenza, Italy
Source: Ivano Rocchetti
Description: White spherical aggregate of acicular crystals, associated with colorless analcime
Raman shift (cm-1)	intensity
112.264	0
115.639	2.68562
119.014	6.44409
122.389	9.98903
125.763	8.6886
129.138	5.21041
132.513	0.97879
135.888	0.911652
139.263	0.731041
142.638	1.24479
146.012	0.002724
149.387	3.36822
152.762	6.77175
156.137	11.8921
159.512	15.8621
162.887	17.6625
166.261	16.7739
169.636	12.7559
173.011	8.70503
176.386	5.9071
179.761	4.41244
183.135	2.54502
186.51	1.46669
189.885	0.883965
193.26	1.21133
196.635	0.780903
200.01	0.092819
203.384	1.28636
206.759	1.47895
210.134	0.107964
213.509	1.46678
216.884	0.980988
220.258	3.12435
223.633	1.99527
227.008	2.60305
230.383	2.49758
233.758	3.98367
237.132	4.41076
240.507	4.63207
243.882	4.05146
247.257	3.61321
250.632	3.48675
254.006	2.4715
257.381	2.61164
260.756	1.32693
264.131	1.5354
267.506	1.23704
270.881	1.83842
274.255	0.834988
277.63	1.73615
281.005	0.724983
284.38	0.25074
287.755	0.340725
291.13	0.12915
294.504	1.24631
297.879	0.746311
301.254	0.54335
304.629	0.647835
308.004	0.653877
311.378	1.58918
314.753	1.94452
318.128	3.33727
321.503	3.25227
324.878	4.35643
328.252	5.65076
331.627	6.11592
335.002	7.6536
338.377	8.41177
341.752	8.20637
345.127	8.24226
348.501	7.55415
351.876	5.49759
355.251	4.12846
358.626	3.944
362.001	2.21677
365.375	2.57851
368.75	0.674894
372.125	1.12836
375.5	0.456715
378.875	1.39436
382.25	0.55345
385.624	0.645067
388.999	1.25143
392.374	0.346901
395.749	0.726645
399.124	0.126873
402.498	0.069477
405.873	1.31702
409.248	1.28021
412.623	2.39296
415.998	2.43205
419.373	3.0484
422.747	3.86611
426.122	6.74824
429.497	7.36283
432.872	9.99752
436.247	11.2629
439.622	13.1337
442.996	14.6513
446.371	15.4861
449.746	12.5395
453.121	8.81567
456.496	4.80118
459.87	3.61054
463.245	3.0654
466.62	2.50589
469.995	1.49018
473.37	0.149746
476.745	0.007149
480.119	0.87072
483.494	1.28164
486.869	0.109594
490.244	0.070824
493.619	0.001913
496.993	0.232262
500.368	1.57331
503.743	2.69137
507.118	3.60423
510.493	5.66993
513.867	11.0943
517.242	16.0455
520.617	22.2081
523.992	29.5997
527.367	38.8859
530.741	43.7747
534.116	39.7261
537.491	28.2997
540.866	17.6908
544.241	9.06424
547.616	5.38285
550.99	3.24125
554.365	2.68041
557.74	0.825041
561.115	0.676901
564.49	0.831392
567.865	0.403812
571.239	1.07715
574.614	0.839035
577.989	0.008835
581.364	1.31095
584.739	0.635
588.114	0.587339
591.488	1.03272
594.863	1.32189
598.238	1.43502
601.613	0.957821
604.987	0.851204
608.362	0.286268
611.737	1.12856
615.112	0.319916
618.487	0.651192
621.862	0.594749
625.236	0.577007
628.611	0.810911
631.986	0.13135
635.361	0.150318
638.736	0.479107
642.111	1.02468
645.485	0.383921
648.86	1.23612
652.235	0.665283
655.61	0.516052
658.985	0.088209
662.359	1.69719
665.734	0.759777
669.109	1.01616
672.484	1.8497
675.859	1.84977
679.234	1.22987
682.608	2.10541
685.983	1.81624
689.358	0.377815
692.733	1.45746
696.108	0.602615
699.482	1.2978
702.857	2.18795
706.232	1.20175
709.607	1.75797
712.982	1.28544
716.356	0.003527
719.731	1.86347
723.106	0.709675
726.481	1.31624
729.856	1.06934
733.231	1.12553
736.605	1.27788
739.98	0.871653
743.355	0.758917
746.73	2.51132
750.105	0.745245
753.48	0.294666
756.854	0.597916
760.229	1.23501
763.604	0.599829
766.979	0.414505
770.354	0.270153
773.728	0.778133
777.103	0.360792
780.478	0.127346
783.853	0.913883
787.228	0.813787
790.602	0.174358
793.977	0.504623
797.352	0.561882
800.727	0.515398
804.102	1.17481
807.477	0.149137
810.851	1.36517
814.226	0.318062
817.601	0.696068
820.976	1.88686
824.351	1.18582
827.726	1.41607
831.1	1.66407
834.475	1.24295
837.85	0.960266
841.225	1.96379
844.6	0.691065
847.974	1.56765
851.349	1.70529
854.724	1.57799
858.099	2.53508
861.474	0.536106
864.848	1.41638
868.223	1.78322
871.598	1.77031
874.973	1.64904
878.348	0.99822
881.722	1.20329
885.097	1.12916
888.472	0.244646
891.847	0.568359
895.222	0.382103
898.597	0.498972
901.971	0.817503
905.346	0.802588
908.721	0.168777
912.096	0.794502
915.471	0.467852
918.846	0.160879
922.22	0.546703
925.595	0.299107
928.97	0.174938
932.345	1.31526
935.72	0.320492
939.094	0.207026
942.469	0.380295
945.844	1.09201
949.219	0.820324
952.594	1.17189
955.968	1.37771
959.343	1.12743
962.718	0.604368
966.093	0.898699
969.468	0.14842
972.843	0.266787
976.217	1.18275
979.592	0.597441
982.967	1.30791
986.342	0.880457
989.717	1.24117
993.091	0.660156
996.466	1.63687
999.841	1.49432
1003.22	1.31617
1006.59	1.50722
1009.97	0.316633
1013.34	0.569885
1016.72	1.72875
1020.09	1.21059
1023.47	1.00875
1026.84	0.835756
1030.21	0.948446
1033.59	0.327572
1036.96	1.34402
1040.34	0.982145
1043.71	0.493464
1047.09	0.818098
1050.46	1.06636
1053.84	0.001163
1057.21	0.099432
1060.59	0.952816
1063.96	1.02803
1067.34	0.345549
1070.71	1.18298
1074.09	0.970341
1077.46	1.08337
1080.84	1.12187
1084.21	1.50819
1087.59	1.70237
1090.96	2.47372
1094.34	2.52251
1097.71	1.68168
1101.09	1.00342
1104.46	2.40384
1107.84	1.26115
1111.21	1.18535
1114.59	0.160536
1117.96	1.47309
1121.34	0.95962
1124.71	1.61997
1128.08	1.0946
1131.46	0.844256
1134.83	0.260434
1138.21	0.991896
1141.58	0.455147
1144.96	0.572886
1148.33	1.1523
1151.71	1.02333
1155.08	0.27457
1158.46	0.167048
1161.83	0.157
1165.21	0.566283
1168.58	0.508063
1171.96	1.07267
1175.33	1.28236
1178.71	1.59253
1182.08	0.912313
1185.46	1.39179
1188.83	1.22756
1192.21	1.21641
1195.58	2.02973
1198.95	1.50334
1202.33	0.61022
1205.7	1.46807
1209.08	0.617964
1212.45	1.41898
1215.83	1.08346
1219.2	0.401474
1222.58	0.147976
1225.95	0.818
1229.33	0.193281
1232.7	0.264713
1236.08	0.995577
1239.45	0.713172
1242.83	0.211765
1246.2	1.56327
1249.58	1.18212
1252.95	1.09177
1256.33	1.00962
1259.7	0.644866
1263.08	1.40385
1266.45	0.142723
1269.83	0.134073
1273.2	0.819489
1276.58	0.362158
1279.95	0.319513
1283.33	0.818752
