Measurement: Raman, 532 nm, unoriented, Raman Data Processed
Mineral: Gonnardite
Rruff sample: R100080
Ideal chemistry: (Na,Ca)_2_(Si,Al)_5_O_10_3H_2_O
Locality: Rio Chiavone nero, Fara, Breganze, Vicenza, Italy
Source: Ivano Rocchetti
Description: White spherical aggregate of acicular crystals, associated with colorless analcime
Raman shift (cm-1)	intensity
151.721	0
154.614	9.73476
157.506	19.6913
160.399	28.9925
163.292	37.0175
166.185	40.1983
169.077	39.8997
171.97	31.3173
174.863	25.173
177.755	15.9518
180.648	11.2434
183.541	7.65529
186.433	7.30578
189.326	4.18946
192.219	3.54493
195.112	4.64527
198.004	2.03408
200.897	3.02379
203.79	2.53479
206.682	1.95224
209.575	0.474518
212.468	0.16029
215.36	1.3564
218.253	0.398422
221.146	1.34286
224.038	0.686642
226.931	0.145267
229.824	0.074112
232.717	2.14239
235.609	2.54415
238.502	4.87411
241.395	3.6666
244.287	2.46165
247.18	2.37955
250.073	2.56795
252.965	1.2878
255.858	1.91658
258.751	1.59299
261.644	0.974224
264.536	0.413387
267.429	1.83464
270.322	2.25893
273.214	0.935421
276.107	1.80455
279	0.783497
281.892	0.648132
284.785	0.758953
287.678	1.21033
290.571	1.50784
293.463	1.80863
296.356	2.19292
299.249	1.64356
302.141	2.64815
305.034	2.05727
307.927	1.27063
310.82	2.97162
313.712	2.51768
316.605	5.24901
319.498	4.837
322.39	7.01299
325.283	10.1884
328.176	12.291
331.068	13.8771
333.961	16.5711
336.854	17.8369
339.747	16.8272
342.639	18.6602
345.532	16.3384
348.425	13.6103
351.317	10.7014
354.21	10.0914
357.103	8.23083
359.995	5.89578
362.888	3.90513
365.781	3.55045
368.673	0.003864
371.566	1.99314
374.459	0.541317
377.352	2.25981
380.244	0.784321
383.137	0.433784
386.03	1.01999
388.922	0.931362
391.815	0.154381
394.708	0.701126
397.601	0.762196
400.493	0.2146
403.386	0.417542
406.279	1.50453
409.171	1.43947
412.064	3.07584
414.957	3.39607
417.849	4.63971
420.742	8.02929
423.635	10.7516
426.527	14.2689
429.42	19.7706
432.313	26.0868
435.206	32.3231
438.098	39.4556
440.991	45.6431
443.884	52.1645
446.776	56.6581
449.669	47.7129
452.562	35.1115
455.454	23.2201
458.347	16.0973
461.24	13.9266
464.133	10.8218
467.025	11.3439
469.918	8.43372
472.811	7.71817
475.703	5.41608
478.596	3.53266
481.489	1.62754
484.382	3.0087
487.274	1.54878
490.167	2.13355
493.06	0.138687
495.952	0.413326
498.845	1.42047
501.738	1.26004
504.63	1.91529
507.523	5.61845
510.416	10.729
513.308	18.6601
516.201	27.7049
519.094	43.2292
521.987	58.5946
524.879	78.9972
527.772	101.639
530.665	115.832
533.557	112.885
536.45	86.2333
539.343	56.3648
542.236	34.6524
545.128	21.5357
548.021	11.7208
550.914	7.86946
553.806	4.17865
556.699	3.38513
559.592	0.465084
562.484	1.35558
565.377	0.236404
568.27	0.853725
571.163	0.881817
574.055	0.354458
576.948	0.871754
579.841	1.57046
582.733	2.41648
585.626	2.47731
588.519	1.63822
591.411	3.04738
594.304	2.51011
597.197	2.395
600.09	3.07704
602.982	2.53487
605.875	1.17913
608.768	1.47661
611.66	2.40669
614.553	1.52743
617.446	0.1101
620.338	0.302456
623.231	1.26581
626.124	0.345795
629.016	0.967697
631.909	0.272884
634.802	1.44739
637.695	0.232754
640.587	0.409924
643.48	0.971626
646.373	0.563251
649.265	0.713326
652.158	1.38834
655.051	0.714893
657.943	0.911266
660.836	0.892357
663.729	1.19369
666.622	1.90984
669.514	0.369595
672.407	1.06121
675.3	3.29605
678.192	3.90603
681.085	2.95148
683.978	3.47538
686.87	2.53098
689.763	2.13268
692.656	1.23569
695.549	2.44128
698.441	1.60974
701.334	2.36558
704.227	2.09217
707.119	4.27094
710.012	2.04288
712.905	3.38957
715.798	2.13758
718.69	2.26559
721.583	2.82827
724.476	1.87343
727.368	3.11836
730.261	3.8549
733.154	3.99126
736.046	2.32999
738.939	2.36591
741.832	2.26164
744.725	2.4981
747.617	2.27885
750.51	3.33575
753.403	3.25946
756.295	4.26079
759.188	2.61076
762.081	3.51845
764.973	3.65945
767.866	1.3436
770.759	1.9063
773.652	1.43026
776.544	0.218544
779.437	1.76271
782.33	1.53145
785.222	0.123386
788.115	1.15909
791.008	1.12136
793.9	0.535824
796.793	0.630581
799.686	0.738743
802.578	1.19459
805.471	0.973595
808.364	0.950245
811.257	0.211086
814.149	0.004723
817.042	0.364647
819.935	0.926823
822.827	0.66563
825.72	1.25867
828.613	1.22593
831.505	1.10175
834.398	1.15997
837.291	0.753235
840.184	1.09118
843.076	0.305984
845.969	2.45266
848.862	0.952007
851.754	1.46128
854.647	2.49679
857.54	2.51516
860.433	2.30358
863.325	3.67214
866.218	2.65925
869.111	2.85562
872.003	2.75954
874.896	1.78768
877.789	1.71582
880.681	2.38286
883.574	1.17159
886.467	1.33076
889.36	0.89259
892.252	2.25168
895.145	0.744038
898.038	1.28432
900.93	1.7117
903.823	1.00673
906.716	0.316883
909.608	1.15532
912.501	0.816071
915.394	0.655323
918.287	0.069851
921.179	0.046955
924.072	1.11832
926.965	0.906105
929.857	1.98502
932.75	0.527912
935.643	0.420879
938.535	0.390984
941.428	0.126915
944.321	0.573593
947.213	1.00669
950.106	1.32439
952.999	2.30578
955.892	2.66874
958.784	3.59817
961.677	2.81422
964.57	1.45199
967.462	2.87974
970.355	1.23578
973.248	2.0245
976.14	2.36391
979.033	2.28281
981.926	2.81727
984.819	3.08508
987.711	3.01253
990.604	3.70657
993.497	4.72489
996.389	4.39175
999.282	3.99741
1002.17	4.19631
1005.07	5.09936
1007.96	5.18959
1010.85	4.7019
1013.75	4.12638
1016.64	2.85877
1019.53	1.79001
1022.42	1.03686
1025.32	2.81331
1028.21	2.23885
1031.1	0.377167
1033.99	0.708996
1036.89	0.544857
1039.78	0.47377
1042.67	1.30959
1045.57	1.14286
1048.46	1.134
1051.35	3.45714
1054.24	2.10181
1057.14	2.32204
1060.03	1.68581
1062.92	3.39434
1065.81	3.54942
1068.71	3.55651
1071.6	3.99378
1074.49	3.96827
1077.38	2.67971
1080.28	4.22256
1083.17	6.27126
1086.06	4.26638
1088.96	3.8838
1091.85	4.4089
1094.74	4.36432
1097.63	5.78197
1100.53	5.24334
1103.42	4.4038
1106.31	4.80412
1109.2	4.31559
1112.1	3.08915
1114.99	4.03682
1117.88	3.75726
1120.78	1.6257
1123.67	1.43996
1126.56	0.127674
1129.45	1.08592
1132.35	0.078899
1135.24	0.110558
1138.13	0.100716
1141.02	1.36092
1143.92	0.482334
1146.81	1.00472
1149.7	0.37859
1152.6	0.30188
1155.49	0.018929
1158.38	0.39732
1161.27	0.932178
1164.17	0.128994
1167.06	0.334324
1169.95	1.56689
1172.84	0.406643
1175.74	0.370743
1178.63	0.329422
1181.52	1.06785
1184.41	0.321873
1187.31	1.89563
1190.2	0.773941
1193.09	1.20107
1195.99	0.576031
1198.88	1.40423
1201.77	0.702717
1204.66	0.658443
1207.56	1.02081
1210.45	1.71982
1213.34	1.4005
1216.23	0.059437
1219.13	0.460735
1222.02	0.598709
1224.91	0.545486
1227.81	1.0015
1230.7	1.20557
1233.59	1.31737
1236.48	1.27816
1239.38	1.14983
1242.27	1.70885
1245.16	0.913761
1248.05	0.342331
1250.95	2.27039
1253.84	1.4791
1256.73	0.313179
1259.62	1.33878
1262.52	1.54419
1265.41	2.23618
1268.3	1.30906
1271.2	0.661434
1274.09	1.8896
1276.98	0.920628
1279.87	1.51554
1282.77	0.165611
1285.66	0.606552
1288.55	1.66556
1291.44	0.803787
1294.34	0.878056
1297.23	0.012272
1300.12	2.14618
1303.02	0
