Measurement: Raman, 532 nm, unoriented, Raman Data Processed
Mineral: Gonnardite
Rruff sample: R100081
Ideal chemistry: (Na,Ca)_2_(Si,Al)_5_O_10_3H_2_O
Locality: Chaux de Bergonne, Gignat, Puy de Dome, France
Source: Ivano Rocchetti
Description: White spherical aggregates of acicular crystals
Raman shift (cm-1)	intensity
164.738	0
167.631	8.68652
170.524	18.9938
173.416	33.202
176.309	28.6359
179.202	24.5657
182.094	18.8304
184.987	14.4962
187.88	7.66144
190.773	3.52502
193.665	5.66553
196.558	0.275452
199.451	3.87793
202.343	8.94281
205.236	8.12518
208.129	8.66571
211.021	9.11676
213.914	5.08832
216.807	13.2898
219.699	13.9615
222.592	13.7582
225.485	12.5127
228.377	11.883
231.27	11.4202
234.163	9.63763
237.056	7.14258
239.948	12.0363
242.841	1.39532
245.734	1.58639
248.626	3.51587
251.519	2.3942
254.412	4.18341
257.305	0.401001
260.197	1.2727
263.09	1.95044
265.983	5.75256
268.875	4.68472
271.768	8.93466
274.661	4.19885
277.553	0.737762
280.446	3.14774
283.339	5.75958
286.232	5.1413
289.124	11.1542
292.017	14.2211
294.91	13.9473
297.802	14.2363
300.695	18.1016
303.588	19.2275
306.481	16.7939
309.373	11.8149
312.266	8.7793
315.159	8.01465
318.051	13.9286
320.944	9.83289
323.837	16.192
326.729	21.2645
329.622	21.5442
332.515	24.4428
335.408	26.5074
338.3	28.4139
341.193	33.0371
344.086	31.6092
346.978	29.4639
349.871	27.2169
352.764	26.129
355.656	26.4526
358.549	20.8804
361.442	22.629
364.334	18.1093
367.227	12.842
370.12	6.3349
373.012	4.99829
375.905	0.220398
378.798	3.61005
381.691	1.92603
384.583	1.74194
387.476	0.768372
390.369	0.146057
393.261	0.218628
396.154	3.08069
399.047	2.15118
401.94	3.45117
404.832	2.30542
407.725	2.65778
410.618	8.30981
413.51	10.5375
416.403	13.3596
419.296	16.052
422.188	17.362
425.081	24.6309
427.974	30.934
430.866	42.5941
433.759	60.7433
436.652	70.0413
439.545	84.8556
442.437	91.8243
445.33	87.1229
448.223	68.8666
451.115	46.9636
454.008	31.0283
456.901	15.4177
459.793	8.33734
462.686	8.90942
465.579	9.01379
468.472	9.78314
471.364	15.3526
474.257	13.2109
477.15	6.63312
480.042	5.39093
482.935	2.56274
485.828	3.2547
488.721	3.26959
491.613	7.65295
494.506	8.77106
497.399	5.98596
500.291	9.41101
503.184	9.61475
506.077	12.1739
508.969	18.6926
511.862	25.506
514.755	40.1566
517.648	60.7989
520.54	94.1269
523.433	133.964
526.326	185.324
529.218	255.224
532.111	303.246
535.004	294.639
537.896	224.838
540.789	154.532
543.682	100.242
546.575	60.6049
549.467	40.6178
552.36	23.663
555.253	16.6518
558.145	10.4826
561.038	3.76733
563.931	3.17395
566.823	3.56146
569.716	0.145752
572.609	1.43939
575.502	2.57416
578.394	2.76013
581.287	0.221802
584.18	2.73785
587.072	6.77826
589.965	4.08765
592.858	4.20044
595.75	4.88428
598.643	5.08789
601.536	4.36517
604.428	5.63385
607.321	6.35187
610.214	4.16522
613.107	5.56653
615.999	4.93854
618.892	2.22217
621.785	1.61658
624.677	3.86639
627.57	4.53821
630.463	2.02734
633.356	2.90167
636.248	1.66797
639.141	0.828186
642.034	0.906616
644.926	1.60815
647.819	0.533936
650.712	1.7392
653.604	1.04767
656.497	4.22778
659.39	3.03876
662.283	3.74011
665.175	2.61035
668.068	3.70599
670.961	3.92102
673.853	4.75372
676.746	7.05774
679.639	4.73248
682.531	8.17114
685.424	11.6936
688.317	11.6912
691.21	8.86609
694.102	9.80823
696.995	9.30853
699.888	12.2887
702.78	10.9617
705.673	16.3577
708.566	9.7821
711.458	13.0524
714.351	13.275
717.244	12.4373
720.136	7.92926
723.029	11.4445
725.922	8.18744
728.815	5.39148
731.707	5.28699
734.6	2.81439
737.493	5.89825
740.385	4.38281
743.278	1.18976
746.171	3.28699
749.063	5.87146
751.956	2.67645
754.849	1.5033
757.742	1.16321
760.634	1.96893
763.527	3.02441
766.42	3.2818
769.312	2.79333
772.205	3.05695
775.098	2.78839
777.99	1.19757
780.883	1.40509
783.776	4.56586
786.669	2.71338
789.561	2.07062
792.454	2.5874
795.347	3.43951
798.239	1.84772
801.132	2.23206
804.025	2.74805
806.918	2.20373
809.81	2.81433
812.703	0.677063
815.596	0.606934
818.488	2.73871
821.381	4.24255
824.274	2.04474
827.166	3.22015
830.059	6.05878
832.952	0.346985
835.845	2.28192
838.737	1.31842
841.63	1.2973
844.523	4.97241
847.415	1.15674
850.308	3.69025
853.201	2.33563
856.093	4.24383
858.986	3.82562
861.879	4.94586
864.771	1.66272
867.664	1.65753
870.557	6.93799
873.45	4.6004
876.342	0.419861
879.235	5.13403
882.128	2.37708
885.02	0.319519
887.913	2.07519
890.806	3.17639
893.698	3.14404
896.591	3.61768
899.484	2.38367
902.377	3.88257
905.269	3.71301
908.162	3.1629
911.055	1.70606
913.947	7.36292
916.84	3.4411
919.733	2.86737
922.625	4.33148
925.518	5.95843
928.411	7.51422
931.304	4.13983
934.196	2.30749
937.089	0.095032
939.982	0.049072
942.875	0.853638
945.767	1.08984
948.66	1.41541
951.553	0.775635
954.445	3.89142
957.338	2.37561
960.231	4.27649
963.123	4.36658
966.016	3.9046
968.909	8.33722
971.802	4.25409
974.694	5.77362
977.587	8.98462
980.48	7.81586
983.372	8.12085
986.265	9.61359
989.158	13.5749
992.05	9.61291
994.943	4.34332
997.836	11.1314
1000.73	10.2179
1003.62	9.1048
1006.51	7.58624
1009.41	7.04828
1012.3	5.71039
1015.19	5.95752
1018.09	6.23218
1020.98	8.61414
1023.87	6.84058
1026.76	5.90295
1029.66	8.90527
1032.55	8.79456
1035.44	8.55969
1038.33	6.52753
1041.23	5.49536
1044.12	4.69226
1047.01	1.66571
1049.9	1.00409
1052.8	0.33783
1055.69	1.96594
1058.58	0.602417
1061.47	3.49951
1064.37	3.5517
1067.26	3.14856
1070.15	4.08301
1073.05	4.3808
1075.94	5.82275
1078.83	7.51562
1081.72	6.9021
1084.62	8.20782
1087.51	6.47107
1090.4	7.22772
1093.3	10.6412
1096.19	9.41095
1099.08	4.70587
1101.97	5.26886
1104.87	6.70819
1107.76	5.12946
1110.65	7.95612
1113.54	2.44934
1116.44	4.25653
1119.33	4.6684
1122.22	5.88037
1125.12	2.6283
1128.01	2.95422
1130.9	2.21954
1133.79	0.047607
1136.68	3.06915
1139.58	8.34851
1142.47	1.93524
1145.36	0.956787
1148.26	0.29071
1151.15	0.737793
1154.04	3.91949
1156.93	3.31763
1159.83	3.93121
1162.72	0.418945
1165.61	1.625
1168.51	4.29425
1171.4	8.27942
1174.29	3.42181
1177.18	4.19513
1180.08	3.85394
1182.97	0.312683
1185.86	6.46393
1188.75	0.250122
1191.65	3.50244
1194.54	0.205933
1197.43	3.64069
1200.33	6.46277
1203.22	6.14819
1206.11	3.22058
1209	3.92157
1211.9	8.51886
1214.79	6.69464
1217.68	5.89313
1220.57	3.64825
1223.47	2.82764
1226.36	7.03503
1229.25	0.174805
1232.14	7.3443
1235.04	3.38104
1237.93	3.18567
1240.82	1.75214
1243.71	2.24615
1246.61	0.021179
1249.5	3.72052
1252.39	5.16339
1255.29	4.52905
1258.18	6.72241
1261.07	3.9696
1263.96	4.03113
1266.86	1.79065
1269.75	2.11096
1272.64	1.38788
1275.54	4.53027
1278.43	4.6192
1281.32	4.06714
1284.21	3.27002
1287.11	2.1333
1290	2.39716
1292.89	0.894775
1295.78	6.09491
1298.68	3.11688
1301.57	1.45221
