Measurement: Raman, 780 nm, unoriented, Raman Data Processed
Mineral: Gonnardite
Rruff sample: R100081
Ideal chemistry: (Na,Ca)_2_(Si,Al)_5_O_10_3H_2_O
Locality: Chaux de Bergonne, Gignat, Puy de Dome, France
Source: Ivano Rocchetti
Description: White spherical aggregates of acicular crystals
Raman shift (cm-1)	intensity
134.442	0
137.334	0.000275
140.227	5.05048
143.12	8.85742
146.012	13.7191
148.905	19.5582
151.798	29.283
154.69	35.0891
157.583	44.0618
160.476	50.7539
163.369	50.0649
166.261	46.1529
169.154	43.002
172.047	39.7985
174.939	41.7205
177.832	35.2939
180.725	28.2666
183.618	18.3081
186.51	9.50481
189.403	6.04985
192.296	2.08296
195.188	2.28984
198.081	3.61079
200.974	0.323959
203.866	0.99469
206.759	1.47618
209.652	0.334198
212.544	0.633499
215.437	3.39235
218.33	8.08083
221.223	12.0502
224.115	12.5915
227.008	13.2037
229.901	14.2453
232.793	11.7636
235.686	6.70972
238.579	4.23883
241.471	0.431061
244.364	1.09004
247.257	0.168594
250.15	0.114502
253.042	0.257416
255.935	0.235031
258.828	2.83803
261.72	1.56018
264.613	1.24277
267.506	1.69546
270.399	2.86646
273.291	2.37254
276.184	0.902405
279.077	1.62088
281.969	2.4212
284.862	2.56735
287.755	5.80527
290.647	6.22325
293.54	8.00842
296.433	5.82236
299.325	7.16812
302.218	8.20245
305.111	6.4574
308.004	4.58636
310.896	5.21132
313.789	3.38882
316.682	5.14771
319.574	6.61498
322.467	3.68916
325.36	6.35023
328.252	8.83841
331.145	9.24437
334.038	9.52849
336.931	11.9269
339.823	13.2788
342.716	14.8604
345.609	12.5687
348.501	13.0866
351.394	10.5191
354.287	12.1885
357.18	9.2941
360.072	8.85115
362.965	6.19333
365.858	4.94623
368.75	3.19171
371.643	4.16054
374.536	1.36424
377.428	1.15077
380.321	3.08521
383.214	0.233353
386.106	0.941086
388.999	0.288055
391.892	0.385834
394.785	0.40889
397.677	1.77798
400.57	1.53563
403.463	0.544373
406.355	1.68453
409.248	1.66756
412.141	2.53746
415.034	3.01399
417.926	3.03648
420.819	7.51617
423.712	10.4673
426.604	14.2778
429.497	19.6992
432.39	26.2319
435.282	34.1043
438.175	39.5237
441.068	45.2153
443.961	44.2235
446.853	43.7552
449.746	32.3774
452.639	22.9196
455.531	15.3451
458.424	9.59297
461.317	10.0512
464.209	10.9974
467.102	14.1272
469.995	19.0673
472.887	18.9361
475.78	16.4521
478.673	10.1762
481.566	7.70007
484.458	5.44183
487.351	6.61572
490.244	6.17978
493.136	7.58881
496.029	4.88974
498.922	3.92609
501.815	0.883835
504.707	0.327454
507.6	2.42113
510.493	3.96526
513.385	9.58962
516.278	14.1716
519.171	28.9532
522.063	44.5537
524.956	68.1144
527.849	97.3265
530.741	119.705
533.634	128.316
536.527	118.228
539.42	90.7481
542.312	65.2107
545.205	42.2703
548.098	28.4565
550.99	17.8197
553.883	12.937
556.776	8.2164
559.668	4.20813
562.561	2.47194
565.454	1.94475
568.347	0.29837
571.239	0.459206
574.132	0.73185
577.025	0.771851
579.917	0.681732
582.81	0.008942
585.703	1.2722
588.596	1.64751
591.488	0.262283
594.381	0.921738
597.274	0.165405
600.166	1.31464
603.059	3.37715
605.952	3.69383
608.845	2.63891
611.737	2.82226
614.63	2.68913
617.523	3.72206
620.415	1.98176
623.308	2.53149
626.201	2.3783
629.093	1.25484
631.986	1.44541
634.879	0.893494
637.771	1.59487
640.664	3.4897
643.557	1.38809
646.45	0.764961
649.342	1.06541
652.235	0.560486
655.128	0.063629
658.02	0.645729
660.913	0.233101
663.806	2.5889
666.698	0.896683
669.591	0.186729
672.484	2.31545
675.377	3.1385
678.269	2.17812
681.162	3.01495
684.055	2.68549
686.947	0.883003
689.84	0.891769
692.733	3.72713
695.625	2.71591
698.518	4.56184
701.411	2.53034
704.304	3.85301
707.196	3.35988
710.089	3.92697
712.982	3.86807
715.874	2.82117
718.767	5.01488
721.66	1.90362
724.553	3.11701
727.445	3.65513
730.338	3.87945
733.231	2.36417
736.123	1.09333
739.016	2.93173
741.909	1.34101
744.801	2.30216
747.694	1.101
750.587	1.53009
753.48	0.19352
756.372	1.15359
759.265	2.7623
762.158	4.29857
765.05	2.09601
767.943	1.58525
770.836	1.78452
773.728	2.68022
776.621	0.825356
779.514	1.86033
782.407	1.83933
785.299	0.683784
788.192	0.200874
791.085	0.886948
793.977	1.68883
796.87	2.70157
799.763	1.38226
802.655	0.265564
805.548	1.11057
808.441	1.18219
811.333	1.54793
814.226	0.251495
817.119	0.3377
820.012	0.836731
822.904	3.50813
825.797	0.467865
828.69	2.6888
831.582	0.293892
834.475	0.621933
837.368	1.28081
840.26	2.43963
843.153	0.858788
846.046	1.03452
848.939	1.99329
851.831	2.36604
854.724	1.49935
857.617	2.83615
860.509	2.19205
863.402	1.44588
866.295	2.63957
869.188	1.17254
872.08	0.156837
874.973	1.04751
877.866	2.64724
880.758	0.801834
883.651	1.45872
886.544	2.57788
889.436	0.798454
892.329	0.095215
895.222	0.991745
898.115	0.466927
901.007	0.801476
903.9	0.252182
906.793	2.3576
909.685	1.16642
912.578	2.56863
915.471	3.02072
918.363	2.78738
921.256	2.51925
924.149	2.23223
927.042	2.77522
929.934	2.0343
932.827	2.81533
935.72	2.15467
938.612	0.975151
941.505	2.37994
944.398	1.98547
947.29	2.57907
950.183	1.80956
953.076	1.24558
955.968	1.17553
958.861	1.9391
961.754	2.5627
964.647	2.3327
967.539	3.40644
970.432	3.86439
973.325	2.67605
976.217	4.78061
979.11	2.87144
982.003	3.77019
984.895	5.70238
987.788	5.00135
990.681	1.77439
993.574	3.68066
996.466	4.05759
999.359	4.4146
1002.25	4.92734
1005.14	4.20383
1008.04	3.39565
1010.93	2.35616
1013.82	0.841698
1016.72	2.41423
1019.61	2.18764
1022.5	0.376198
1025.39	2.10044
1028.29	1.21127
1031.18	1.5092
1034.07	0.413483
1036.96	1.96003
1039.86	0.952438
1042.75	0.236778
1045.64	0.227013
1048.54	1.26934
1051.43	3.40321
1054.32	1.62137
1057.21	1.82358
1060.11	1.00927
1063	2.31659
1065.89	4.448
1068.78	4.41315
1071.68	3.9764
1074.57	2.33772
1077.46	3.54012
1080.36	3.13598
1083.25	1.63205
1086.14	3.98044
1089.03	4.03884
1091.92	4.18622
1094.82	3.31342
1097.71	1.98422
1100.6	0.227715
1103.5	2.56026
1106.39	1.87584
1109.28	0.918175
1112.17	2.49467
1115.07	0.50428
1117.96	0.682899
1120.85	0.082817
1123.74	1.18898
1126.64	0.152817
1129.53	1.01068
1132.42	0.395874
1135.32	0.813431
1138.21	2.49927
1141.1	1.65087
1143.99	1.14845
1146.89	2.60397
1149.78	0.883644
1152.67	2.03443
1155.57	2.04153
1158.46	0.625763
1161.35	0.485558
1164.24	1.01958
1167.14	2.40123
1170.03	1.46346
1172.92	2.51425
1175.81	2.48746
1178.71	3.13094
1181.6	1.55941
1184.49	2.1563
1187.38	0.917244
1190.28	3.41753
1193.17	3.12093
1196.06	4.38084
1198.95	2.92435
1201.85	0.552742
1204.74	1.09261
1207.63	1.93612
1210.53	1.77087
1213.42	1.89675
1216.31	2.60083
1219.2	1.44914
1222.1	1.1464
1224.99	1.01181
1227.88	1.15782
1230.78	1.6125
1233.67	0.236427
1236.56	2.50237
1239.45	1.02112
1242.35	1.06504
1245.24	0.651123
1248.13	1.14548
1251.02	0.543709
1253.92	1.20201
1256.81	2.93285
1259.7	0.225403
1262.6	2.7713
1265.49	0.30162
1268.38	2.04518
1271.27	1.33388
1274.17	0.017929
1277.06	0.96402
1279.95	1.37533
1282.84	2.10111
1285.74	0
