Measurement: Raman, 532 nm, unoriented, Raman Data Processed
Mineral: Gorceixite
Rruff sample: R060158
Ideal chemistry: BaAl_3_(PO_4_)(PO_3_OH)(OH)_6_
Locality: 16 miles north of the Hess River, Mayo Mining District, Yukon Territory, Canada
Source: Mark Mauthner
Description: Aggregate of purple-grey colored crystals imbedded in a matrix of quartz and penikisite R060160
Measured chemistry: lighter phase: (Ba_0.91_Sr_0.09_)_Σ=1_Al_3.00_(P_1.00_O_4_)(P_1.00_O_3_OH)((OH)_5.50_F_0.50_)_Σ=6_ ; darker gray: (Ba_0.75_Sr_0.25_)_Σ=1_Al_3.00_(P_1.00_O_4_)(P_1.00_O_3_OH)((OH)_5.53_F_0.47_)_Σ=6_ ; H not measured but estimated by difference
Raman shift (cm-1)	intensity
148.6	0
151.493	7.3411
154.385	16.5134
157.278	28.9005
160.171	48.0032
163.063	70.2308
165.956	95.58
168.849	127.642
171.742	153.68
174.634	177.426
177.527	192.471
180.42	175.404
183.312	135.708
186.205	88.366
189.098	48.7316
191.99	27.1022
194.883	10.0191
197.776	1.17061
200.668	2.09921
203.561	6.56859
206.454	4.0386
209.347	3.08087
212.239	1.5367
215.132	9.73143
218.025	23.7626
220.917	42.7061
223.81	73.3089
226.703	119.736
229.596	184.994
232.488	279.27
235.381	392.228
238.274	517.157
241.166	663.184
244.059	829.951
246.952	997.052
249.845	1108.19
252.737	1034.36
255.63	768.917
258.523	494.797
261.415	302.254
264.308	192.491
267.201	132.068
270.093	95.9537
272.986	87.9481
275.879	99.7651
278.772	124.186
281.664	112.115
284.557	56.6169
287.45	22.0136
290.342	5.4155
293.235	1.47119
296.128	3.07251
299.021	0.542816
301.913	13.4803
304.806	25.5523
307.699	34.9052
310.591	48.3242
313.484	59.2279
316.377	66.0729
319.269	69.4633
322.162	77.2459
325.055	85.6616
327.947	109.376
330.84	149.608
333.733	194.081
336.626	242.459
339.518	296.49
342.411	343.503
345.304	384.432
348.196	394.898
351.089	366.635
353.982	312.706
356.875	248.476
359.767	189.978
362.66	139.434
365.553	100.501
368.445	76.7648
371.338	65.7965
374.231	51.4034
377.123	39.7426
380.016	23.6878
382.909	12.0146
385.802	9.83322
388.694	3.55835
391.587	0.338837
394.48	2.14565
397.372	2.84906
400.265	2.08017
403.158	2.64293
406.05	2.80408
408.943	0.653351
411.836	3.47063
414.729	5.87088
417.621	8.3503
420.514	15.1509
423.407	20.8506
426.299	29.7343
429.192	41.1742
432.085	56.9621
434.978	73.7827
437.87	93.2695
440.763	117.541
443.656	139.192
446.548	156.999
449.441	171.346
452.334	184.085
455.226	186.897
458.119	188.639
461.012	185.886
463.905	185.982
466.797	191.34
469.69	182.315
472.583	152.302
475.475	143.489
478.368	148.582
481.261	158.495
484.154	167.997
487.046	157.381
489.939	127.482
492.832	87.2567
495.724	49.5926
498.617	29.2167
501.51	14.959
504.402	7.85889
507.295	0.4021
510.188	2.50552
513.081	4.3476
515.973	2.57086
518.866	1.57787
521.759	6.41109
524.651	15.2347
527.544	25.6634
530.437	37.3151
533.33	55.5425
536.222	71.0879
539.115	90.022
542.008	105.643
544.9	115.686
547.793	123.194
550.686	114.049
553.578	94.1323
556.471	72.9287
559.364	47.688
562.256	34.4559
565.149	27.2947
568.042	25.8235
570.935	27.823
573.827	37.4828
576.72	54.5809
579.613	79.4206
582.505	114.991
585.398	161.075
588.291	223.412
591.184	300.942
594.076	385.927
596.969	475.375
599.862	548.542
602.754	570.093
605.647	527.506
608.54	442.898
611.433	337.463
614.325	230.446
617.218	142.442
620.111	85.168
623.003	50.3585
625.896	25.9251
628.789	17.8685
631.682	10.7855
634.574	4.65623
637.467	2.97542
640.36	0.664902
643.252	1.21289
646.145	1.70627
649.038	1.1373
651.93	1.71443
654.823	1.70821
657.716	0.558212
660.609	1.50862
663.501	0.89064
666.394	2.51816
669.287	4.00699
672.179	2.69237
675.072	6.12051
677.965	5.23991
680.857	6.6822
683.75	7.92452
686.643	7.35834
689.535	7.26254
692.428	8.50119
695.321	9.39783
698.214	12.2325
701.106	13.2295
703.999	11.1936
706.892	11.9042
709.784	11.3235
712.677	9.71127
715.57	7.37723
718.462	6.94084
721.355	8.0381
724.248	6.4836
727.141	3.93751
730.033	4.30162
732.926	3.37936
735.819	1.94074
738.712	1.15436
741.604	0.45076
744.497	1.17891
747.39	0.736847
750.282	2.29195
753.175	3.90569
756.068	1.84405
758.96	3.12978
761.853	0.917542
764.746	1.83545
767.639	0.441696
770.531	1.38161
773.424	2.39188
776.317	3.00345
779.209	5.4516
782.102	6.95677
784.995	10.33
787.888	12.8256
790.78	14.2647
793.673	17.602
796.566	21.8236
799.458	20.7062
802.351	22.3929
805.244	25.3645
808.136	22.577
811.029	19.3797
813.922	20.3046
816.814	20.4685
819.707	18.0114
822.6	17.1672
825.493	16.7614
828.385	17.736
831.278	17.9092
834.171	16.422
837.063	17.0305
839.956	19.2638
842.849	18.3729
845.741	23.4177
848.634	24.0263
851.527	28.9905
854.42	38.9173
857.312	49.0081
860.205	65.7095
863.098	83.9785
865.99	109.672
868.883	138.251
871.776	168.31
874.669	202.555
877.561	234.308
880.454	254.846
883.347	259.627
886.239	246.33
889.132	230.939
892.025	214.95
894.918	205.292
897.81	203.305
900.703	204.166
903.596	200.741
906.488	195.411
909.381	176.684
912.274	152.688
915.166	119.866
918.059	82.138
920.952	49.8896
923.845	26.9923
926.737	8.41736
929.63	1.76567
932.523	9.61821
935.415	12.1542
938.308	11.1391
941.201	7.84839
944.093	2.15167
946.986	5.28571
949.879	16.2964
952.771	29.9917
955.664	52.3159
958.557	86.5064
961.45	142.034
964.342	225.03
967.235	361.095
970.128	550.133
973.02	782.356
975.913	1037.41
978.806	1230.41
981.699	1161.28
984.591	832.8
987.484	540.14
990.377	359.778
993.269	269.928
996.162	228.772
999.055	215.319
1001.95	211.891
1004.84	198.714
1007.73	183.944
1010.63	170.17
1013.52	157.348
1016.41	148.266
1019.3	150.54
1022.2	156.702
1025.09	174.439
1027.98	211.172
1030.88	257.64
1033.77	322.286
1036.66	387.905
1039.55	436.181
1042.44	465.417
1045.34	439.002
1048.23	334.06
1051.12	199.624
1054.02	94.7151
1056.91	34.5028
1059.8	5.20166
1062.69	1.72391
1065.59	1.28339
1068.48	8.68195
1071.37	19.8348
1074.27	39.4114
1077.16	65.1172
1080.05	96.0582
1082.94	127.623
1085.84	156.149
1088.73	167.798
1091.62	156.854
1094.51	129.841
1097.41	100.602
1100.3	72.2204
1103.19	49.49
1106.09	30.3786
1108.98	15.4461
1111.87	5.88214
1114.76	2.24283
1117.66	8.25476
1120.55	6.32666
1123.44	6.41559
1126.33	2.15875
1129.23	0.431335
1132.12	8.92584
1135.01	15.9878
1137.9	25.2676
1140.8	34.4571
1143.69	43.3892
1146.58	44.2133
1149.47	39.8501
1152.37	31.9597
1155.26	26.5099
1158.15	20.1416
1161.05	16.296
1163.94	13.4698
1166.83	10.4959
1169.72	10.6077
1172.62	11.3446
1175.51	9.00737
1178.4	11.4578
1181.3	5.03876
1184.19	5.14064
1187.08	2.12576
1189.97	2.92841
1192.87	3.90807
1195.76	1.69977
1198.65	1.89392
1201.54	2.39665
1204.44	2.86443
1207.33	2.10484
1210.22	0.950424
1213.12	3.60164
1216.01	6.3739
1218.9	5.10579
1221.79	6.32164
1224.69	6.03264
1227.58	8.75075
1230.47	7.58379
1233.36	7.91859
1236.26	7.99017
1239.15	7.67918
1242.04	8.08902
1244.93	10.5169
1247.83	11.3873
1250.72	9.85927
1253.61	7.56334
1256.51	8.45656
1259.4	6.58563
1262.29	8.26601
1265.18	5.44258
1268.08	5.08884
1270.97	3.68887
1273.86	2.21901
1276.75	0.062378
1279.65	2.50017
1282.54	0.015121
1285.43	1.25223
1288.33	0.102142
1291.22	1.67227
1294.11	2.25354
1297	1.01534
1299.9	4.05739
