Measurement: Raman, 780 nm, unoriented, Raman Data Processed
Mineral: Gorceixite
Rruff sample: R060158
Ideal chemistry: BaAl_3_(PO_4_)(PO_3_OH)(OH)_6_
Locality: 16 miles north of the Hess River, Mayo Mining District, Yukon Territory, Canada
Source: Mark Mauthner
Description: Aggregate of purple-grey colored crystals imbedded in a matrix of quartz and penikisite R060160
Measured chemistry: lighter phase: (Ba_0.91_Sr_0.09_)_Σ=1_Al_3.00_(P_1.00_O_4_)(P_1.00_O_3_OH)((OH)_5.50_F_0.50_)_Σ=6_ ; darker gray: (Ba_0.75_Sr_0.25_)_Σ=1_Al_3.00_(P_1.00_O_4_)(P_1.00_O_3_OH)((OH)_5.53_F_0.47_)_Σ=6_ ; H not measured but estimated by difference
Raman shift (cm-1)	intensity
148.915	0
151.808	1.51267
154.701	5.87712
157.593	13.7926
160.486	27.1781
163.379	41.4802
166.271	58.0716
169.164	73.3519
172.057	90.0043
174.949	103.335
177.842	107.896
180.735	103.929
183.627	83.8365
186.52	58.7198
189.413	36.7751
192.306	20.3887
195.198	9.85208
198.091	5.08829
200.984	1.14854
203.876	0.236237
206.769	1.31909
209.662	0.513268
212.554	1.92099
215.447	0.522156
218.34	4.21563
221.233	8.83949
224.125	16.399
227.018	29.3947
229.911	46.8282
232.803	68.6928
235.696	93.4205
238.589	119.1
241.482	147.001
244.374	182.062
247.267	214.829
250.16	235.402
253.052	220.281
255.945	164.973
258.838	107.56
261.73	67.7128
264.623	43.3574
267.516	28.4018
270.408	21.73
273.301	20.2379
276.194	21.3046
279.087	26.6776
281.979	25.0695
284.872	12.3732
287.765	4.68718
290.657	0.730797
293.55	1.31073
296.443	0.964386
299.335	0.316177
302.228	2.79322
305.121	6.18482
308.014	9.18151
310.906	11.9061
313.799	15.937
316.692	18.6007
319.584	21.3411
322.477	23.6613
325.37	27.8979
328.262	37.2459
331.155	47.8279
334.048	59.2262
336.94	73.2609
339.833	85.2582
342.726	97.7283
345.619	107.432
348.511	112.699
351.404	107.016
354.297	95.358
357.189	82.2875
360.082	67.438
362.975	52.2642
365.868	36.8034
368.76	25.475
371.653	19.8734
374.546	14.9954
377.438	11.4821
380.331	7.84316
383.224	4.89189
386.116	3.67112
389.009	2.52494
391.902	1.10286
394.795	0.211258
397.687	0.48254
400.58	0.296795
403.473	0.709961
406.365	0.075714
409.258	0.129456
412.151	0.53548
415.043	0.013653
417.936	0.801731
420.829	1.83808
423.721	4.34736
426.614	5.51678
429.507	8.81089
432.399	12.9323
435.292	15.9598
438.185	23.2641
441.078	29.4157
443.97	35.2315
446.863	40.5637
449.756	44.084
452.648	47.4733
455.541	49.0268
458.434	48.8055
461.327	47.721
464.219	45.9269
467.112	45.6075
470.005	44.4541
472.897	38.405
475.79	35.8721
478.683	35.7849
481.575	37.2188
484.468	38.1552
487.361	35.486
490.253	29.5102
493.146	20.4638
496.039	12.4503
498.932	7.12129
501.824	4.23557
504.717	1.07361
507.61	0.825848
510.502	0.918156
513.395	0.134781
516.288	0.15976
519.181	0.535473
522.073	2.35081
524.966	4.38932
527.859	6.74106
530.751	7.41333
533.644	10.9832
536.537	14.1441
539.429	17.5857
542.322	20.8851
545.215	23.2192
548.107	24.638
551	23.9452
553.893	20.8962
556.785	16.9757
559.678	12.7852
562.571	9.03905
565.464	6.4376
568.356	6.65181
571.249	5.45217
574.142	5.67979
577.034	8.10012
579.927	10.7839
582.82	15.0518
585.712	20.4129
588.605	28.0279
591.498	35.9191
594.391	44.6023
597.283	52.4488
600.176	60.1365
603.069	66.4488
605.961	68.3884
608.854	63.7685
611.747	52.4998
614.639	38.0742
617.532	23.4183
620.425	14.5086
623.318	9.38984
626.21	4.75044
629.103	3.27879
631.996	1.53291
634.888	1.60423
637.781	0.366009
640.674	0.800861
643.567	0.033613
646.459	0.075605
649.352	0.163736
652.245	0.000607
655.137	0.496618
658.03	0.217594
660.923	0.252293
663.815	0.134577
666.708	0.415882
669.601	0.593048
672.494	0.878736
675.386	1.04254
678.279	1.21296
681.172	1.36886
684.064	1.55571
686.957	1.55627
689.85	1.69495
692.742	2.07282
695.635	1.6583
698.528	2.58
701.42	1.55607
704.313	1.40434
707.206	2.00985
710.098	2.16123
712.991	1.04374
715.884	0.926903
718.777	1.26875
721.669	0.478407
724.562	0.536089
727.455	0.334431
730.347	0.439215
733.24	0.912687
736.133	0.363667
739.025	0.31064
741.918	0.170002
744.811	0.017675
747.704	0.027622
750.596	0.301937
753.489	0.423901
756.382	0.189142
759.274	1.44063
762.167	2.75681
765.06	2.88497
767.952	4.43663
770.845	4.9846
773.738	6.34536
776.631	8.85761
779.523	10.5364
782.416	12.332
785.309	12.9818
788.201	15.072
791.094	16.5856
793.987	18.3822
796.88	19.6108
799.772	20.3466
802.665	20.45
805.558	20.3421
808.45	19.955
811.343	19.5354
814.236	17.3172
817.128	15.9885
820.021	15.2901
822.914	12.2021
825.807	11.9152
828.699	9.32407
831.592	7.80893
834.485	5.93747
837.377	4.28233
840.27	3.3171
843.163	3.51532
846.055	1.29759
848.948	0.301155
851.841	1.89985
854.734	4.63237
857.626	6.37037
860.519	9.08345
863.412	14.1391
866.304	18.3514
869.197	24.4188
872.09	29.0251
874.982	36.035
877.875	38.0144
880.768	39.4141
883.66	38.4292
886.553	35.5975
889.446	33.967
892.338	32.2285
895.231	32.0972
898.124	30.9997
901.017	32.5363
903.909	32.3688
906.802	31.4713
909.695	30.3319
912.587	25.4684
915.48	19.3321
918.373	13.3147
921.265	8.99418
924.158	3.90068
927.051	0.520575
929.944	1.06521
932.836	1.90973
935.729	2.15319
938.622	1.18884
941.514	0.849066
944.407	0.380194
947.3	2.47127
950.192	3.59904
953.085	5.86677
955.978	9.69228
958.87	15.1095
961.763	23.4369
964.656	35.8226
967.549	55.6373
970.441	80.0152
973.334	109.642
976.227	141.966
979.119	167.456
982.012	158.408
984.905	118.181
987.798	77.0022
990.69	53.3854
993.583	39.8135
996.476	31.8364
999.368	29.2148
1002.26	28.8973
1005.15	27.7002
1008.05	26.0536
1010.94	26.4784
1013.83	26.1487
1016.73	27.5833
1019.62	27.8159
1022.51	29.187
1025.4	30.9691
1028.3	32.926
1031.19	39.759
1034.08	45.2263
1036.97	51.26
1039.87	53.4044
1042.76	54.8478
1045.65	49.0807
1048.54	34.4509
1051.44	18.1913
1054.33	8.54674
1057.22	2.48316
1060.12	0.324516
1063.01	0.33548
1065.9	1.59327
1068.79	5.1559
1071.69	8.38331
1074.58	11.4717
1077.47	15.5573
1080.36	19.2498
1083.26	20.2936
1086.15	21.2626
1089.04	19.0041
1091.93	17.1343
1094.83	14.2908
1097.72	10.071
1100.61	8.40942
1103.51	4.40933
1106.4	2.2735
1109.29	1.91217
1112.18	1.02828
1115.08	0.460331
1117.97	1.64936
1120.86	0.791971
1123.75	1.47842
1126.65	0.157579
1129.54	0.005919
1132.43	1.11614
1135.33	1.82906
1138.22	3.55119
1141.11	4.95914
1144	6.31723
1146.9	7.71431
1149.79	8.58513
1152.68	8.42111
1155.57	7.90517
1158.47	5.83223
1161.36	4.08045
1164.25	2.39433
1167.14	3.16215
1170.04	2.20986
1172.93	3.11515
1175.82	2.3631
1178.72	1.93576
1181.61	1.32058
1184.5	1.83901
1187.39	1.14052
1190.29	0.355408
1193.18	1.32069
1196.07	1.47286
1198.96	0.339128
1201.86	1.30809
1204.75	1.25243
1207.64	0.119327
1210.54	0.067383
1213.43	0.984895
1216.32	0.014809
1219.21	0.974346
1222.11	0.850142
1225	1.28461
1227.89	0.412497
1230.78	1.16744
1233.68	1.22609
1236.57	0.875391
1239.46	2.20517
1242.36	1.52227
1245.25	1.36259
1248.14	2.21506
1251.03	1.74979
1253.93	1.46475
1256.82	1.16518
1259.71	1.05094
1262.6	1.45775
1265.5	0.777746
1268.39	0.398512
1271.28	0.458584
1274.17	0.954123
1277.07	0.723356
1279.96	0.327106
1282.85	0.745671
1285.74	0.201569
