Measurement: Raman, 532 nm, unoriented, Raman Data Processed
Mineral: Gordaite
Rruff sample: R100059
Ideal chemistry: NaZn_4_(SO_4_)(OH)_6_Cl6H_2_O
Locality: San Francisco mine, Sierra Gorda, Chile
Source: William W Pinch
Description: Groups of pale bluish-green thin tabular crystals
Raman shift (cm-1)	intensity
157.024	0
159.917	21.4442
162.81	14.6873
165.702	3.40173
168.595	2.80496
171.488	2.3529
174.381	4.36468
177.273	5.68893
180.166	9.96396
183.059	10.2835
185.951	12.9652
188.844	17.6468
191.737	25.5562
194.629	35.4289
197.522	46.5312
200.415	63.6856
203.308	78.9097
206.2	92.318
209.093	83.9841
211.986	61.234
214.878	43.8188
217.771	35.0294
220.664	40.1638
223.556	39.4539
226.449	40.3213
229.342	47.3709
232.234	51.1416
235.127	50.393
238.02	50.6317
240.913	45.0279
243.805	36.5619
246.698	23.0604
249.591	11.3873
252.483	7.79462
255.376	4.88016
258.269	1.99954
261.161	12.2165
264.054	19.6858
266.947	30.3209
269.84	41.1066
272.732	52.7366
275.625	71.3462
278.518	97.4005
281.41	111.339
284.303	83.7301
287.196	48.7821
290.089	27.4729
292.981	11.7858
295.874	3.94659
298.767	5.30218
301.659	0.63855
304.552	0.21933
307.445	0.911743
310.337	0.957245
313.23	2.73163
316.123	4.02191
319.015	2.38867
321.908	0.155701
324.801	0.42511
327.694	1.48782
330.586	0.21991
333.479	1.46045
336.372	2.80658
339.264	3.26141
342.157	1.30798
345.05	0.862976
347.942	1.31165
350.835	1.44476
353.728	6.18854
356.621	9.69659
359.513	13.8353
362.406	16.3218
365.299	21.1924
368.191	28.297
371.084	39.1846
373.977	52.7161
376.87	73.4512
379.762	102.663
382.655	131.443
385.548	166.202
388.44	203.969
391.333	227.395
394.226	203.871
397.118	149.438
400.011	101.531
402.904	64.1126
405.796	40.1823
408.689	26.8964
411.582	17.4684
414.475	12.5005
417.367	8.18896
420.26	8.41406
423.153	11.9001
426.045	14.0426
428.938	22.9985
431.831	35.756
434.724	47.3838
437.616	61.8048
440.509	75.6539
443.402	84.5053
446.294	89.8671
449.187	93.971
452.08	92.0024
454.972	83.7231
457.865	78.3319
460.758	71.8718
463.651	65.5668
466.543	54.9231
469.436	43.5074
472.329	33.895
475.221	23.6855
478.114	19.7274
481.007	16.9608
483.899	17.8457
486.792	15.4839
489.685	12.9651
492.577	9.55023
495.47	10.0105
498.363	8.10773
501.256	6.88385
504.148	4.81122
507.041	2.64746
509.934	0.374451
512.826	0.235229
515.719	0.917603
518.612	0.956787
521.505	0.399902
524.397	0.751526
527.29	0.010986
530.183	0.045837
533.075	2.31128
535.968	5.40247
538.861	3.83807
541.753	4.63019
544.646	4.11548
547.539	8.16864
550.432	6.26758
553.324	9.61352
556.217	7.22607
559.11	11.3722
562.002	13.0305
564.895	10.8049
567.788	11.064
570.68	10.5806
573.573	15.4225
576.466	15.7572
579.359	13.8008
582.251	22.831
585.144	24.5547
588.037	36.931
590.929	43.6781
593.822	53.3763
596.715	60.4933
599.607	67.8423
602.5	70.4875
605.393	72.3344
608.285	68.9918
611.178	59.2728
614.071	55.0953
616.964	44.2947
619.856	32.0088
622.749	25.5353
625.642	19.8172
628.534	15.1703
631.427	13.702
634.32	11.1656
637.212	9.49225
640.105	5.6629
642.998	2.8529
645.891	2.48914
648.783	5.0061
651.676	1.15472
654.569	3.64984
657.461	0.402954
660.354	1.55408
663.247	2.49341
666.139	4.25232
669.032	1.50098
671.925	2.88226
674.818	1.46832
677.71	0.02478
680.603	4.5531
683.496	3.31531
686.388	2.27075
689.281	5.41748
692.174	16.2094
695.067	8.99933
697.959	4.85773
700.852	5.09534
703.745	1.51038
706.637	6.26502
709.53	5.3476
712.423	6.01721
715.315	2.53479
718.208	1.97662
721.101	2.84192
723.994	4.23614
726.886	2.65595
729.779	2.00531
732.672	0.539124
735.564	1.9389
738.457	1.52338
741.35	1.4978
744.242	0.003967
747.135	3.75024
750.028	1.87305
752.92	2.58539
755.813	1.159
758.706	3.2887
761.599	2.88641
764.491	2.79089
767.384	1.37207
770.277	1.90442
773.169	4.74811
776.062	0.252319
778.955	2.36102
781.847	1.37555
784.74	3.55054
787.633	3.10034
790.526	5.11987
793.418	5.53583
796.311	2.89551
799.204	2.85797
802.096	2.79944
804.989	2.90253
807.882	2.10767
810.774	2.0166
813.667	1.48096
816.56	4.26849
819.453	4.67175
822.345	3.29388
825.238	2.46521
828.131	6.97345
831.023	6.81152
833.916	4.90942
836.809	6.51886
839.702	5.38019
842.594	5.57367
845.487	11.1388
848.38	7.33386
851.272	4.79364
854.165	4.66162
857.058	2.80945
859.95	4.39862
862.843	6.95306
865.736	2.32397
868.629	0.968201
871.521	1.22595
874.414	4.47095
877.307	4.10321
880.199	2.86133
883.092	2.2804
885.985	1.79938
888.877	0.708191
891.77	3.75397
894.663	2.13592
897.556	1.31683
900.448	0.197449
903.341	0.124023
906.234	3.22723
909.126	1.91125
912.019	0.964355
914.912	1.67926
917.804	0.562866
920.697	1.79468
923.59	1.67517
926.482	2.47089
929.375	0.012695
932.268	0.313477
935.161	0.011108
938.053	0.264465
940.946	5.35889
943.839	8.39777
946.731	12.298
949.624	17.0836
952.517	29.9855
955.409	60.5377
958.302	128.667
961.195	232.4
964.088	339.746
966.98	581.875
969.873	969.374
972.766	922.027
975.658	382.257
978.551	153.68
981.444	83.5291
984.337	65.0052
987.229	62.1096
990.122	61.1567
993.015	43.4086
995.907	32.6547
998.8	22.7074
1001.69	25.314
1004.59	25.1169
1007.48	20.4166
1010.37	17.4586
1013.26	9.65326
1016.16	7.97528
1019.05	7.01593
1021.94	5.4975
1024.83	0.619202
1027.73	3.71533
1030.62	0.98407
1033.51	1.12561
1036.4	1.19659
1039.3	2.5625
1042.19	1.03839
1045.08	0.049805
1047.98	0.929382
1050.87	2.59924
1053.76	3.26709
1056.65	4.33521
1059.55	4.45978
1062.44	6.93121
1065.33	8.89795
1068.22	8.70349
1071.12	9.85559
1074.01	12.7196
1076.9	19.9105
1079.8	22.5679
1082.69	29.8936
1085.58	40.4138
1088.47	42.4701
1091.37	49.3156
1094.26	53.6525
1097.15	46.1763
1100.04	38.6406
1102.94	33.4371
1105.83	29.4557
1108.72	28.1432
1111.62	31.5247
1114.51	29.4638
1117.4	29.9116
1120.29	29.4774
1123.19	25.5721
1126.08	15.1874
1128.97	11.7983
1131.86	6.56464
1134.76	8.38519
1137.65	2.65704
1140.54	4.44592
1143.43	2.42273
1146.33	3.63879
1149.22	1.56
1152.11	1.75275
1155.01	3.69574
1157.9	4.0849
1160.79	0.976807
1163.68	0.485413
1166.58	0.724609
1169.47	1.07501
1172.36	3.52246
1175.26	2.39447
1178.15	2.86432
1181.04	2.29877
1183.93	1.96234
1186.83	3.33569
1189.72	3.18805
1192.61	7.59112
1195.5	2.47943
1198.4	4.54205
1201.29	2.78955
1204.18	6.04016
1207.07	3.25873
1209.97	5.46716
1212.86	1.14838
1215.75	4.76117
1218.64	2.92017
1221.54	3.50964
1224.43	2.93555
1227.32	2.00598
1230.22	4.15692
1233.11	5.34564
1236	5.57965
1238.89	2.52722
1241.79	4.01788
1244.68	0.38501
1247.57	2.88831
1250.46	5.40472
1253.36	5.9104
1256.25	6.59595
1259.14	4.27899
1262.04	2.69904
1264.93	3.89642
1267.82	7.10889
1270.71	4.46271
1273.61	3.06787
1276.5	3.21686
1279.39	3.3775
1282.29	0.816345
1285.18	0.096008
1288.07	0.781982
1290.96	1.75861
1293.86	3.21326
1296.75	1.22308
1299.64	4.2218
1302.53	1.3523
