Measurement: Raman, 532 nm, unoriented, Raman Data Processed
Mineral: Gordonite
Rruff sample: R070437
Ideal chemistry: MgAl_2_(PO_4_)_2_(OH)_2_8H_2_O
Locality: Amatrice Hill, Stockton, Utah, USA
Source: Michael Scott
Description: Aggregates of colorless to pale purple bladed crystals associated with green variscite. The apparent green color of gordonite is due to the variscite.
Measured chemistry: Mg_1.00_Al_2.00_(P_1.00_O_4_)_2_(OH)_2_Â·7.98H_2_O; trace amounts of Fe; OH estimated by charge balance, H_2_O by difference
Raman shift (cm-1)	intensity
131.602	0
134.977	52.1915
138.352	202.905
141.727	288.961
145.102	206.614
148.476	125.753
151.851	11.5743
155.226	30.8564
158.601	45.5055
161.976	101.325
165.351	204.493
168.725	369.135
172.1	377.101
175.475	374.288
178.85	500.276
182.225	677.738
185.6	801.333
188.974	963.546
192.349	1048.28
195.724	918.127
199.099	590.972
202.474	188.054
205.848	28.9102
209.223	37.4021
212.598	8.98498
215.973	25.8928
219.348	13.8196
222.722	5.45081
226.097	20.5861
229.472	46.5493
232.847	218.436
236.222	397.12
239.596	623.968
242.971	913.462
246.346	1074.76
249.721	988.159
253.096	881.034
256.471	795.071
259.846	737.615
263.22	737.079
266.595	859.281
269.97	1088.89
273.345	1381.41
276.719	1841.85
280.094	2143.72
283.469	2066.86
286.844	1579.06
290.219	1276.17
293.594	1105.62
296.968	851.458
300.343	632.497
303.718	438.965
307.093	316.537
310.468	197.368
313.843	127.002
317.217	78.8142
320.592	50.6711
323.967	11.782
327.342	19.3304
330.717	7.16101
334.091	51.7811
337.466	16.0559
340.841	3.75562
344.216	11.9119
347.591	4.55078
350.966	18.6511
354.34	49.0718
357.715	31.4398
361.09	103.256
364.465	131.772
367.84	181.083
371.214	229.038
374.589	307.987
377.964	410.985
381.339	527.975
384.714	567.731
388.089	637.995
391.463	660.589
394.838	719.799
398.213	785.106
401.588	837.62
404.963	822.645
408.337	761.125
411.712	622.741
415.087	636.841
418.462	746.01
421.837	991.668
425.212	1290.53
428.586	1478.69
431.961	1470.67
435.336	1054.42
438.711	685.831
442.086	421.718
445.46	285.249
448.835	208.579
452.21	151.219
455.585	140.9
458.96	126.893
462.334	143.175
465.709	146.858
469.084	179.002
472.459	165.473
475.834	161.578
479.209	138.641
482.584	112.603
485.958	80.5673
489.333	29.3574
492.708	1.89563
496.083	8.58716
499.458	60.5579
502.832	41.8774
506.207	36.8063
509.582	7.00098
512.957	21.926
516.332	20.6627
519.707	45.6699
523.081	111.674
526.456	190.001
529.831	309.06
533.206	383.565
536.581	449.928
539.955	501.799
543.33	558.254
546.705	575.268
550.08	647.076
553.455	681.752
556.83	741.119
560.204	863.794
563.579	947.445
566.954	1102.42
570.329	1086.02
573.704	1044.11
577.078	999.307
580.453	988.311
583.828	975.811
587.203	937.133
590.578	849.965
593.952	803.63
597.327	670.844
600.702	574.175
604.077	525.451
607.452	533.94
610.827	507.583
614.201	522.803
617.576	487.763
620.951	483.207
624.326	429.877
627.701	381.534
631.075	316.204
634.45	303.638
637.825	237.565
641.2	208.494
644.575	205.728
647.949	133.134
651.324	118.373
654.699	103.407
658.074	99.8104
661.449	49.244
664.824	41.4746
668.198	39.0734
671.573	11.8524
674.948	7.30713
678.323	42.3886
681.698	34.9495
685.073	8.8866
688.447	21.2466
691.822	21.0986
695.197	36.1433
698.572	40.5847
701.947	57.3668
705.322	94.9159
708.696	89.8542
712.071	123.81
715.446	127.303
718.821	157.226
722.196	171.616
725.57	174.393
728.945	168.95
732.32	175.565
735.695	150.993
739.07	157.722
742.444	127.203
745.819	105.629
749.194	94.0653
752.569	69.1511
755.944	40.3073
759.318	60.5273
762.693	68.8172
766.068	32.1617
769.443	27.8126
772.818	24.934
776.193	7.25891
779.567	8.70288
782.942	3.46612
786.317	1.13275
789.692	17.5771
793.067	1.70459
796.442	9.59894
799.816	10.4447
803.191	22.8791
806.566	35.0273
809.941	27.1069
813.316	28.7265
816.69	23.3801
820.065	18.6129
823.44	18.6777
826.815	63.3901
830.19	18.0812
833.564	45.5018
836.939	4.3739
840.314	33.6488
843.689	46.1977
847.064	25.5493
850.439	69.6883
853.813	70.0604
857.188	95.4473
860.563	80.4089
863.938	90.1337
867.313	65.9475
870.688	89.6797
874.062	85.2582
877.437	95.453
880.812	95.3359
884.187	101.624
887.562	70.9613
890.937	40.3627
894.311	6.10998
897.686	7.18103
901.061	14.7606
904.436	43.5198
907.811	32.9105
911.185	12.2627
914.56	12.0172
917.935	21.8673
921.31	11.4303
924.685	14.7982
928.059	53.0808
931.434	89.6116
934.809	164.53
938.184	227.137
941.559	280.305
944.933	338.704
948.308	344.5
951.683	320.234
955.058	319.209
958.433	330.012
961.808	383.738
965.182	431.746
968.557	576.255
971.932	753.868
975.307	1087.78
978.682	1648.6
982.057	2536.38
985.431	3834.71
988.806	5389.77
992.181	6454.9
995.556	6420.69
998.931	4918.25
1002.3	2960.87
1005.68	1622.99
1009.05	880.736
1012.43	508.612
1015.8	282.184
1019.18	163.334
1022.55	82.968
1025.93	37.5858
1029.3	25.1584
1032.68	66.178
1036.05	58.1836
1039.43	83.494
1042.8	188.01
1046.18	213.396
1049.55	312.413
1052.93	363.141
1056.3	407.074
1059.68	294.578
1063.05	158.803
1066.43	65.374
1069.8	0.86792
1073.18	16.7753
1076.55	4.53467
1079.93	38.1033
1083.3	5.94458
1086.68	7.82507
1090.05	21.4653
1093.43	64.0974
1096.8	161.914
1100.17	196.438
1103.55	319.45
1106.92	407.538
1110.3	458.225
1113.67	441.14
1117.05	409.208
1120.42	284.531
1123.8	230.05
1127.17	162.719
1130.55	117.783
1133.92	96.2239
1137.3	117.752
1140.67	73.5082
1144.05	72.118
1147.42	59.3162
1150.8	83.066
1154.17	95.3076
1157.55	137.359
1160.92	159.783
1164.3	141.465
1167.67	132.388
1171.05	114.674
1174.42	62.7126
1177.8	56.1216
1181.17	44.2662
1184.55	16.8738
1187.92	3.30969
1191.3	13.9345
1194.67	7.59485
1198.05	34.9885
1201.42	6.57202
1204.8	36.0496
1208.17	39.7537
1211.54	15.6285
1214.92	47.5292
1218.29	2.91309
1221.67	11.6105
1225.04	43.1506
1228.42	20.0194
1231.79	43.1276
1235.17	66.001
1238.54	30.3053
1241.92	26.1641
1245.29	3.08521
1248.67	52.4172
1252.04	50.5148
1255.42	49.249
1258.79	26.6691
1262.17	22.1219
1265.54	21.4658
1268.92	65.6455
1272.29	18.9341
1275.67	33.6262
1279.04	31.876
1282.41	38.0354
1285.79	37.1531
1289.16	6.90295
1292.54	30.0581
1295.91	36.2151
1299.29	6.44397
1302.66	51.7045
1306.04	20.3711
1309.41	26.6862
1312.79	21.2566
1316.16	26.1545
