Measurement: Raman, 785 nm, unoriented, Raman Data Processed
Mineral: Gordonite
Rruff sample: R070437
Ideal chemistry: MgAl_2_(PO_4_)_2_(OH)_2_8H_2_O
Locality: Amatrice Hill, Stockton, Utah, USA
Source: Michael Scott
Description: Aggregates of colorless to pale purple bladed crystals associated with green variscite. The apparent green color of gordonite is due to the variscite.
Measured chemistry: Mg_1.00_Al_2.00_(P_1.00_O_4_)_2_(OH)_2_Â·7.98H_2_O; trace amounts of Fe; OH estimated by charge balance, H_2_O by difference
Raman shift (cm-1)	intensity
127.297	0
130.189	185.185
133.082	345.277
135.975	124.72
138.868	5.20581
141.76	68.959
144.653	364.425
147.546	649.51
150.438	615.594
153.331	407.657
156.224	101.357
159.116	82.0984
162.009	196.967
164.902	304.373
167.794	498.279
170.687	552.288
173.58	463.954
176.473	516.471
179.365	647.867
182.258	790.09
185.151	830.341
188.043	901.367
190.936	998.967
193.829	1016.73
196.721	941.377
199.614	537.605
202.507	204.428
205.4	83.334
208.292	50.1233
211.185	8.10474
214.078	53.3923
216.97	27.853
219.863	4.89526
222.756	62.8306
225.649	17.6091
228.541	12.8322
231.434	121.017
234.327	252.504
237.219	481.031
240.112	748.118
243.005	1036.55
245.897	1251.3
248.79	1340.45
251.683	1228.38
254.576	1096.1
257.468	1016.41
260.361	1014.5
263.254	1125.65
266.146	1209.15
269.039	1447.32
271.932	1735.16
274.824	2123.43
277.717	2559.48
280.61	2728.35
283.502	2528.6
286.395	2057.12
289.288	1663.48
292.181	1395.27
295.073	1170.56
297.966	934.039
300.859	683.638
303.751	515.808
306.644	363.49
309.537	296.676
312.43	232.615
315.322	151.915
318.215	93.9574
321.108	12.5032
324	4.6438
326.893	20.8258
329.786	36.9829
332.678	29.3196
335.571	6.82007
338.464	3.8031
341.356	4.08032
344.249	1.37952
347.142	10.9601
350.035	4.13867
352.927	54.9222
355.82	55.5175
358.713	117.838
361.605	135.903
364.498	169.251
367.391	245.805
370.284	364.12
373.176	467.829
376.069	601.034
378.962	715.748
381.854	793.247
384.747	880.087
387.64	862.073
390.532	867.232
393.425	881.988
396.318	891.909
399.211	1002.38
402.103	1059.82
404.996	1032.14
407.889	930.334
410.781	862.079
413.674	907.176
416.567	1112.57
419.459	1377.74
422.352	1770.95
425.245	2265.09
428.137	2698.92
431.03	2764.98
433.923	2336.3
436.816	1696.83
439.708	1108.91
442.601	764.951
445.494	532.479
448.386	378.84
451.279	265.892
454.172	239.462
457.065	157.531
459.957	158.891
462.85	112.264
465.743	133.291
468.635	164.375
471.528	136.32
474.421	170.843
477.313	139.438
480.206	103.173
483.099	93.6815
485.991	53.8512
488.884	25.1276
491.777	9.11694
494.67	6.40686
497.562	5.77295
500.455	25.4376
503.348	21.9414
506.24	24.3709
509.133	44.3841
512.026	9.87805
514.918	0.679321
517.811	40.91
520.704	65.7269
523.597	115.784
526.489	158.696
529.382	264.816
532.275	311.137
535.167	356.403
538.06	423.006
540.953	476.728
543.846	501.276
546.738	552.221
549.631	584.394
552.524	655.781
555.416	734.157
558.309	864.403
561.202	989.505
564.094	1130.67
566.987	1263.33
569.88	1309.59
572.773	1353
575.665	1445.5
578.558	1495.28
581.451	1568.73
584.343	1575.34
587.236	1544.7
590.129	1515.78
593.021	1296.49
595.914	1152.92
598.807	1005.32
601.699	889.037
604.592	785.979
607.485	689.293
610.378	611.697
613.27	565.088
616.163	515.982
619.056	464.466
621.948	385.583
624.841	345.137
627.734	295.068
630.626	279.999
633.519	228.963
636.412	252.343
639.305	231.403
642.197	237.944
645.09	216.816
647.983	197.347
650.875	173.646
653.768	132.997
656.661	107.524
659.553	91.9025
662.446	47.7081
665.339	52.1249
668.232	15.9508
671.124	13.9993
674.017	6.42041
676.91	12.1399
679.802	20.4232
682.695	17.2774
685.588	37.3207
688.481	19.326
691.373	6.77167
694.266	20.109
697.159	35.9213
700.051	47.6508
702.944	48.9905
705.837	45.2004
708.729	86.4414
711.622	93.5568
714.515	107.249
717.408	94.2634
720.3	137.263
723.193	155.313
726.086	145.19
728.978	172.161
731.871	165.555
734.764	160.336
737.656	133.797
740.549	133.203
743.442	109.391
746.335	103.568
749.227	112.13
752.12	51.8676
755.013	35.014
757.905	45.1452
760.798	48.355
763.691	18.6051
766.583	37.1215
769.476	21.5662
772.369	28.7959
775.261	4.55042
778.154	23.7269
781.047	3.6731
783.94	4.4881
786.832	3.23151
789.725	37.7615
792.618	27.9706
795.51	5.26575
798.403	6.20923
801.296	12.1767
804.188	8.67865
807.081	2.32098
809.974	40.1649
812.867	9.49353
815.759	11.1601
818.652	21.992
821.545	20.4455
824.437	14.4063
827.33	15.7239
830.223	3.50555
833.115	44.5822
836.008	90.0882
838.901	42.1506
841.794	55.8576
844.686	77.2129
847.579	94.4678
850.472	104.246
853.364	112.54
856.257	149.825
859.15	150.851
862.043	157.128
864.935	195.13
867.828	217.676
870.721	344.885
873.613	475.461
876.506	542.221
879.399	679.974
882.291	717.011
885.184	586.068
888.077	407.967
890.97	254.791
893.862	112.472
896.755	82.8831
899.648	49.365
902.54	8.04791
905.433	13.4804
908.326	38.7227
911.218	7.28815
914.111	4.13519
917.004	6.26788
919.896	4.75104
922.789	15.9959
925.682	26.4232
928.575	24.6346
931.467	75.2729
934.36	99.2817
937.253	132.235
940.145	233.382
943.038	253.913
945.931	315.725
948.823	306.641
951.716	291.137
954.609	266.638
957.502	283.547
960.394	369.045
963.287	365.784
966.18	444.605
969.072	519.916
971.965	704.081
974.858	959.353
977.75	1385.09
980.643	1915.5
983.536	2884.44
986.429	4167.81
989.321	5543.15
992.214	6616.87
995.107	6820.59
997.999	5628.61
1000.89	3891.83
1003.78	2414.91
1006.68	1421.18
1009.57	854.183
1012.46	531.07
1015.36	323.235
1018.25	223.241
1021.14	94.5169
1024.03	97.1718
1026.93	68.2577
1029.82	46.3544
1032.71	27.5095
1035.6	24.3943
1038.5	78.7487
1041.39	87.2355
1044.28	156.109
1047.17	194.132
1050.07	264.872
1052.96	266.314
1055.85	287.305
1058.75	252.159
1061.64	174.851
1064.53	102.305
1067.42	27.1193
1070.32	1.51392
1073.21	3.48798
1076.1	5.20355
1078.99	20.2399
1081.89	8.94354
1084.78	15.0411
1087.67	14.8557
1090.57	33.6061
1093.46	81.7708
1096.35	154.831
1099.24	123.34
1102.14	145.448
1105.03	215.784
1107.92	241.203
1110.82	265.508
1113.71	253.692
1116.6	217.918
1119.49	177.886
1122.38	149.548
1125.28	113.335
1128.17	90.1047
1131.06	63.279
1133.96	60.9136
1136.85	62.7549
1139.74	32.1234
1142.63	29.8373
1145.53	41.4412
1148.42	47.8281
1151.31	20.5397
1154.2	43.2606
1157.1	54.8907
1159.99	59.3022
1162.88	49.6855
1165.78	78.8109
1168.67	69.3911
1171.56	60.4663
1174.45	46.9708
1177.35	37.9337
1180.24	16.2646
1183.13	12.5936
1186.03	26.1945
1188.92	2.41931
1191.81	16.6926
1194.7	4.59155
1197.6	8.43103
1200.49	29.319
1203.38	20.2031
1206.27	34.3652
1209.17	43.6444
1212.06	42.9984
1214.95	33.8457
1217.85	28.1123
1220.74	33.3612
1223.63	41.946
1226.52	20.4679
1229.41	24.6472
1232.31	34.9905
1235.2	14.4766
1238.09	4.86231
1240.99	49.8908
