Measurement: Raman, 785 nm, unoriented, Raman Data Processed
Mineral: Gorgeyite
Rruff sample: R060578
Ideal chemistry: K_2_Ca_5_(SO_4_)_6_H_2_O
Locality: Inder Lake, West Kazakhstan, Kazakhstan
Source: Michael Scott
Description: Colorless to yellow tabular crystals
Raman shift (cm-1)	intensity
169.241	0
172.133	44.9502
175.026	21.1831
177.919	40.3389
180.812	35.8306
183.704	107.681
186.597	200.286
189.49	146.912
192.382	183.242
195.275	303.769
198.168	302.719
201.06	359.16
203.953	333.043
206.846	189.239
209.739	60.5942
212.631	97.6387
215.524	70.8281
218.417	76.5557
221.309	115.876
224.202	110.108
227.095	106.824
229.988	104.585
232.88	138.699
235.773	62.7627
238.666	117.141
241.558	184.543
244.451	140.684
247.344	201.577
250.236	125.682
253.129	40.7876
256.022	56.8227
258.915	46.3984
261.807	56.8242
264.7	73.4941
267.593	36.814
270.485	25.3745
273.378	3.18603
276.271	18.9365
279.163	3.93848
282.056	20.1773
284.949	59.9902
287.842	67.7417
290.734	32.2969
293.627	71.2388
296.52	14.3472
299.412	81.6997
302.305	41.8257
305.198	71.0171
308.09	16.751
310.983	75.6475
313.876	48.7402
316.769	88.1567
319.661	41.2158
322.554	53.2163
325.447	20.898
328.339	26.376
331.232	78.5005
334.125	23.2207
337.017	44.0981
339.91	25.9751
342.803	0.96875
345.695	52.9043
348.588	32.791
351.481	1.76074
354.374	0.734375
357.266	22.647
360.159	59.8145
363.052	13.2812
365.944	3.76856
368.837	16.1987
371.73	12.4243
374.623	20.0469
377.515	14.9624
380.408	56.4707
383.301	0.146484
386.193	24.4829
389.086	10.3076
391.979	54.3965
394.871	118.369
397.764	104.561
400.657	65.105
403.55	99.9033
406.442	48.8657
409.335	125.414
412.228	118.741
415.12	250.707
418.013	429.084
420.906	631.949
423.798	971.877
426.691	1454.21
429.584	1971.78
432.476	2122.77
435.369	2038.3
438.262	2070.73
441.155	2332.3
444.047	1840.02
446.94	942.758
449.833	600.335
452.725	591.428
455.618	680.427
458.511	729.321
461.404	655.571
464.296	485.016
467.189	608.357
470.082	831.455
472.974	1246.62
475.867	1743.65
478.76	2383.78
481.652	2514.44
484.545	2054.72
487.438	1391.56
490.33	1011.71
493.223	685.106
496.116	527.939
499.009	417.404
501.901	300.964
504.794	146.407
507.687	117.597
510.579	57.7832
513.472	46.4102
516.365	27.1846
519.258	12.4053
522.15	13.5596
525.043	55.7485
527.936	10.292
530.828	11.4551
533.721	34.2012
536.614	14.0366
539.506	28.189
542.399	0.399414
545.292	4.60156
548.185	10.1025
551.077	0.004395
553.97	10.9766
556.863	7.86719
559.755	52.7041
562.648	38.5669
565.541	3.35644
568.433	23.6875
571.326	55.8042
574.219	24.5615
577.111	56.5132
580.004	137.289
582.897	93.9224
585.79	147.748
588.682	296.372
591.575	485.201
594.468	665.937
597.36	621.797
600.253	595.626
603.146	728.23
606.038	595.803
608.931	467.682
611.824	532.56
614.717	588.074
617.609	723.804
620.502	914.767
623.395	1176.56
626.287	1732.55
629.18	2583.03
632.073	3061.45
634.966	2744.95
637.858	1436.16
640.751	699.777
643.644	480.466
646.536	580.577
649.429	754.098
652.322	1157.44
655.214	1444.39
658.107	1554.42
661	1850.89
663.893	1180.26
666.785	696.859
669.678	851.003
672.571	531.168
675.463	195.804
678.356	81.5093
681.249	45.0352
684.141	41.0332
687.034	0.433594
689.927	22.2234
692.819	20.2217
695.712	22.155
698.605	35.2346
701.498	0.212158
704.39	15.4023
707.283	20.6216
710.176	9.47852
713.068	16.7078
715.961	28.3538
718.854	13.0579
721.746	14.6338
724.639	3.3457
727.532	75.303
730.425	30.311
733.317	23.2432
736.21	44.4746
739.103	38.0867
741.995	56.7122
744.888	8.07935
747.781	84.9148
750.673	52.6216
753.566	164.45
756.459	47.8193
759.352	52.0872
762.244	39.1812
765.137	59.8997
768.03	49.884
770.922	63.1621
773.815	55.8833
776.708	63.78
779.601	31.5715
782.493	62.0972
785.386	70.6458
788.279	64.9392
791.171	47.9514
794.064	27.2031
796.957	53.1077
799.849	29.4033
802.742	52.1755
805.635	21.8398
808.528	40.063
811.42	13.0339
814.313	42.3638
817.206	47.1707
820.098	7.47388
822.991	68.4673
825.884	44.2959
828.776	39.8911
831.669	28.8667
834.562	7.21655
837.455	33.6072
840.347	63.7595
843.24	41.4695
846.133	11.3728
849.025	3.6145
851.918	30.1052
854.811	24.9182
857.703	49.5955
860.596	45.1938
863.489	43.0205
866.381	50.4968
869.274	55.7239
872.167	24.6145
875.06	53.5496
877.952	65.0896
880.845	44.3801
883.738	24.0864
886.63	43.3123
889.523	38.7344
892.416	21.7153
895.308	11.9121
898.201	27.447
901.094	32.0579
903.987	22.0754
906.879	3.89185
909.772	6.64746
912.665	28.4177
915.557	13.6604
918.45	7.84668
921.343	25.7139
924.236	29.1926
927.128	28.2024
930.021	29.7949
932.914	3.82275
935.806	20.2842
938.699	12.1101
941.592	31.0373
944.484	26.2869
947.377	31.2671
950.27	63.2334
953.163	90.229
956.055	47.4707
958.948	27.9185
961.841	52.9783
964.733	118.377
967.626	92.8415
970.519	118.97
973.411	199.075
976.304	226.755
979.197	293.564
982.09	388.946
984.982	622.364
987.875	918.961
990.768	1552.44
993.66	2763.64
996.553	5629.62
999.446	9048.32
1002.34	12833.1
1005.23	21342.8
1008.12	17131.9
1011.02	18652.4
1013.91	27690.4
1016.8	12020.6
1019.7	3473.28
1022.59	1451.93
1025.48	764.873
1028.37	405.239
1031.27	261.148
1034.16	167.921
1037.05	166.712
1039.94	113.399
1042.84	30.5295
1045.73	2.83618
1048.62	31.3267
1051.51	33.9919
1054.41	4.32788
1057.3	39.4587
1060.19	108.66
1063.09	214.715
1065.98	363.238
1068.87	336.143
1071.76	326.929
1074.66	419.034
1077.55	576.486
1080.44	480.993
1083.33	170.432
1086.23	40.5732
1089.12	56.2058
1092.01	20.9348
1094.9	19.5691
1097.8	87.1179
1100.69	233.703
1103.58	418.617
1106.48	598.943
1109.37	708.701
1112.26	664.54
1115.15	957.567
1118.05	1082.61
1120.94	1224.61
1123.83	853.906
1126.72	441.053
1129.62	373.03
1132.51	580.46
1135.4	1044.39
1138.3	1516.76
1141.19	1097.52
1144.08	632.676
1146.97	326.223
1149.87	215.894
1152.76	324.384
1155.65	582.206
1158.54	1135.98
1161.44	2005.22
1164.33	2677.62
1167.22	2054.26
1170.12	969.776
1173.01	639.433
1175.9	620.143
1178.79	367.445
1181.69	205.844
1184.58	88.5593
1187.47	67.6995
1190.36	35.0147
1193.26	5.01782
1196.15	19.9822
1199.04	23.8938
1201.93	22.1504
1204.83	29.9834
1207.72	105.785
1210.61	185.002
1213.51	268.156
1216.4	346.899
1219.29	270.666
1222.18	147.185
1225.08	74.9434
1227.97	59.1821
1230.86	45.863
1233.75	1.08179
1236.65	25.4114
1239.54	24.9644
1242.43	1.0398
