Measurement: Raman, 532 nm, unoriented, Raman Data Processed
Mineral: Gorgeyite
Rruff sample: R060578
Ideal chemistry: K_2_Ca_5_(SO_4_)_6_H_2_O
Locality: Inder Lake, West Kazakhstan, Kazakhstan
Source: Michael Scott
Description: Colorless to yellow tabular crystals
Raman shift (cm-1)	intensity
180.296	0
183.189	0.335815
186.082	35.2154
188.974	23.7915
191.867	41.7881
194.76	72.7122
197.652	128.065
200.545	107.831
203.438	105.939
206.331	41.6663
209.223	3.7251
212.116	17.3635
215.009	6.15283
217.901	45.8477
220.794	48.334
223.687	15.48
226.579	57.9665
229.472	38.7168
232.365	30.9247
235.257	34.8036
238.15	56.312
241.043	85.4872
243.936	103.444
246.828	113.245
249.721	88.9992
252.614	62.1111
255.506	48.4093
258.399	2.922
261.292	9.05579
264.185	14.3693
267.077	9.73987
269.97	22.7167
272.863	8.4292
275.755	37.546
278.648	21.882
281.541	3.63184
284.433	15.7107
287.326	27.0879
290.219	23.1411
293.111	24.0303
296.004	36.4307
298.897	46.0972
301.79	31.8023
304.682	18.48
307.575	19.9373
310.468	21.4595
313.36	34.0813
316.253	8.90771
319.146	70.5073
322.038	61.116
324.931	35.8494
327.824	30.0327
330.717	26.9338
333.609	42.3081
336.502	27.0659
339.395	12.2766
342.287	22.8213
345.18	38.6787
348.073	24.4873
350.966	25.1802
353.858	25.8108
356.751	10.063
359.644	0.384277
362.536	32.6873
365.429	11.0166
368.322	12.6223
371.214	18.7454
374.107	52.2571
377	7.49878
379.893	13.9824
382.785	3.6626
385.678	15.3386
388.571	15.221
391.463	13.0986
394.356	14.731
397.249	49.2891
400.142	18.1528
403.034	45.5371
405.927	60.5044
408.82	72.1799
411.712	53.1587
414.605	136.76
417.498	168.937
420.39	263.589
423.283	436.366
426.176	668.59
429.068	982.826
431.961	1176.78
434.854	1185.19
437.747	1198.87
440.639	1252.95
443.532	1173.22
446.425	579.96
449.317	423.857
452.21	416.592
455.103	520.66
457.995	643.437
460.888	595.029
463.781	435.727
466.674	397.215
469.566	545.187
472.459	833.723
475.352	1180.3
478.244	1642.2
481.137	1831.33
484.03	1626.46
486.923	1177.04
489.815	796.628
492.708	556.29
495.601	425.56
498.493	398.481
501.386	259.269
504.279	168.084
507.171	117.714
510.064	57.8589
512.957	40.8828
515.85	25.6123
518.742	11.8713
521.635	13.4465
524.528	5.57324
527.42	23.5024
530.313	23.4629
533.206	32.1108
536.098	13.5371
538.991	24.7178
541.884	17.0161
544.777	4.27808
547.669	3.02368
550.562	2.23218
553.455	43.9629
556.347	1.20679
559.24	6.02319
562.133	6.53223
565.025	22.7234
567.918	17.1011
570.811	49.5225
573.704	28.7507
576.596	28.6811
579.489	66.4522
582.382	108.932
585.274	178.121
588.167	303.651
591.06	494.549
593.952	763.796
596.845	763.394
599.738	669.934
602.631	766.768
605.523	688.77
608.416	524.974
611.309	488.776
614.201	561.935
617.094	725.186
619.987	970.435
622.88	1296.31
625.772	1806.37
628.665	2668.61
631.558	3237.79
634.45	3018.75
637.343	1633.91
640.236	755.174
643.128	461.39
646.021	411.416
648.914	514.653
651.807	700.591
654.699	1019.35
657.592	972.964
660.485	1276.59
663.377	924.367
666.27	472.024
669.163	469.951
672.055	402.052
674.948	99.8765
677.841	26.0857
680.734	46.675
683.626	39.7693
686.519	12.124
689.412	39.9417
692.304	2.96533
695.197	24.207
698.09	38.832
700.982	35.2117
703.875	18.3523
706.768	5.81226
709.66	34.3694
712.553	25.793
715.446	27.8784
718.339	35.5645
721.231	49.4582
724.124	49.6223
727.017	9.92627
729.909	45.8762
732.802	43.8118
735.695	14.2417
738.587	40.3074
741.48	34.3643
744.373	42.4692
747.266	15.4846
750.158	19.3474
753.051	34.5076
755.944	32.4729
758.837	13.7786
761.729	20.0947
764.622	4.10938
767.515	29.3313
770.407	47.9917
773.3	28.7551
776.193	50.0024
779.085	49.9006
781.978	37.4451
784.871	21.7664
787.764	20.1428
790.656	36.0706
793.549	10.0457
796.442	20.5151
799.334	6.48975
802.227	64.8667
805.12	43.5
808.012	5.75244
810.905	14.2795
813.798	73.4268
816.691	24.4421
819.583	42.5203
822.476	21.179
825.369	17.1045
828.261	44.8689
831.154	13.4851
834.047	35.5999
836.939	11.9543
839.832	8.14355
842.725	40.6973
845.617	41.4197
848.51	2.61865
851.403	28.3774
854.296	24.0671
857.188	47.1296
860.081	6.24976
862.974	18.6228
865.866	2.83765
868.759	17.7224
871.652	32.3601
874.544	56.0608
877.437	34.0046
880.33	25.7766
883.223	0.059326
886.115	25.2058
889.008	39.969
891.901	26.7078
894.793	4.22925
897.686	11.0227
900.579	21.3271
903.472	24.2241
906.364	34.6233
909.257	35.3662
912.15	6.36035
915.042	2.70703
917.935	9.4873
920.828	19.8535
923.721	32.7656
926.613	38.4165
929.506	29.3748
932.399	24.3806
935.291	56.2866
938.184	9.4895
941.077	36.645
943.969	56.0928
946.862	49.7983
949.755	20.9517
952.648	57.9495
955.54	32.1829
958.433	51.3191
961.326	78.1487
964.218	62.5147
967.111	125.269
970.004	126.417
972.896	145.713
975.789	185.941
978.682	237.716
981.574	323.106
984.467	462.523
987.36	612.639
990.253	1027.84
993.145	1870.85
996.038	3577.09
998.931	6674.17
1001.82	8989.38
1004.72	14441.8
1007.61	14920.5
1010.5	12680.9
1013.39	18765.1
1016.29	11615.5
1019.18	3140.7
1022.07	1226.14
1024.96	608.036
1027.86	393.636
1030.75	256.883
1033.64	134.526
1036.54	108.554
1039.43	56.7327
1042.32	30.5266
1045.21	31.1799
1048.11	3.5791
1051	10.1746
1053.89	9.1814
1056.79	37.8838
1059.68	83.1384
1062.57	124.711
1065.46	232.402
1068.36	293.666
1071.25	284.127
1074.14	370.335
1077.03	531.72
1079.93	633.513
1082.82	280.007
1085.71	68.4429
1088.6	10.6404
1091.5	23.8093
1094.39	7.3999
1097.28	65.0559
1100.17	245.06
1103.07	435.105
1105.96	617.218
1108.85	730.419
1111.75	791.015
1114.64	1032.68
1117.53	1350.37
1120.42	1522.84
1123.32	1320.11
1126.21	614.827
1129.1	322.463
1131.99	379.34
1134.89	618.543
1137.78	951.458
1140.67	815.907
1143.57	507.928
1146.46	268.661
1149.35	143.927
1152.24	259.422
1155.14	460.644
1158.03	1010.98
1160.92	1916.18
1163.82	2893.56
1166.71	2933.94
1169.6	1391.13
1172.49	741.862
1175.38	745.603
1178.28	488.611
1181.17	201.269
1184.06	83.325
1186.96	30.5845
1189.85	12.1724
1192.74	41.3408
1195.63	58.3086
1198.53	15.3606
1201.42	50.3589
1204.31	42.6895
1207.2	153.741
1210.1	279.083
1212.99	510.55
1215.88	614.99
1218.78	481.543
1221.67	191.08
1224.56	106.978
1227.45	70.5872
1230.35	60.0894
1233.24	34.1938
1236.13	35.4868
1239.03	15.7974
1241.92	7.79419
1244.81	10.7251
1247.7	5.75806
1250.6	24.563
1253.49	5.37598
1256.38	31.2095
1259.27	42.6641
1262.17	10.009
1265.06	30.7136
1267.95	25.6309
1270.85	2.7771
1273.74	66.6116
1276.63	36.408
1279.52	41.5859
1282.41	29.0454
1285.31	55.3201
1288.2	37.4949
1291.09	89.146
1293.99	29.3157
1296.88	44.8945
1299.77	2.08374
1302.66	13.1499
1305.56	41.5029
1308.45	69.2607
1311.34	25.6663
1314.23	53.8623
1317.13	25.4475
