Measurement: Raman, 780 nm, unoriented, Raman Data Processed
Mineral: Gotzenite
Rruff sample: R070449
Ideal chemistry: NaCa_6_Ti^4+^(Si_2_O_7_)_2_OF_3_
Locality: Mont Saint-Hilaire, Rouville County, Quebec, Canada
Source: Michael Scott
Description: Sprays of yellowish bladed crystals with green or colorless vesuvianite, white thick prismatic pectolite and brown phlogopite mica.
Raman shift (cm-1)	intensity
103.613	0
106.505	11.2129
109.398	4.6261
112.291	7.85901
115.184	26.398
118.076	13.9784
120.969	23.3209
123.862	36.8533
126.754	28.1223
129.647	25.9615
132.54	31.6885
135.433	42.928
138.325	38.7516
141.218	51.9187
144.111	49.4214
147.003	30.1902
149.896	26.6521
152.789	18.2117
155.681	2.49634
158.574	10.6792
161.467	8.85645
164.359	4.1875
167.252	13.7341
170.145	3.01514
173.038	6.43384
175.93	2.52441
178.823	6.2168
181.716	11.5732
184.608	7.44971
187.501	10.6538
190.394	11.2334
193.286	16.4839
196.179	17.2163
199.072	22.8096
201.965	29.6484
204.857	47.448
207.75	53.1367
210.643	68.9019
213.535	97.9463
216.428	127.835
219.321	147.813
222.214	170.759
225.106	194.081
227.999	220.898
230.892	241.781
233.784	273.672
236.677	293.005
239.57	286.68
242.462	286.373
245.355	291.562
248.248	288.213
251.14	253.951
254.033	229.501
256.926	208.405
259.818	185.204
262.711	172.861
265.604	159.141
268.497	156.523
271.389	149.3
274.282	132.154
277.175	133.739
280.067	124.111
282.96	136.285
285.853	126.871
288.745	118.276
291.638	112.555
294.531	102.068
297.424	83.5957
300.316	72.521
303.209	68.4214
306.102	44.3413
308.994	38.6597
311.887	42.8062
314.78	78.1509
317.673	93.8062
320.565	130.508
323.458	157.821
326.351	171.388
329.243	180.248
332.136	194.564
335.029	222.967
337.921	220.747
340.814	215.548
343.707	200.278
346.599	185.579
349.492	133.569
352.385	99.5869
355.278	53.5503
358.17	37.5806
361.063	26.374
363.956	18.4556
366.848	39.395
369.741	53.6562
372.634	69.4233
375.526	100.698
378.419	89.9126
381.312	57.1099
384.205	10.917
387.097	57.2212
389.99	120.931
392.883	220.098
395.775	308.852
398.668	402.834
401.561	520.263
404.453	641.564
407.346	763.69
410.239	892.119
413.132	1040.13
416.024	1169.12
418.917	1339.82
421.81	1498.35
424.702	1685.77
427.595	1839.74
430.488	1996.31
433.38	2131.43
436.273	2247.84
439.166	2350.23
442.058	2431.03
444.951	2448.23
447.844	2422.11
450.737	2317.56
453.629	2152.55
456.522	1987.37
459.415	1791.02
462.307	1575.94
465.2	1404.34
468.093	1313.8
470.986	1230.86
473.878	1226.24
476.771	1274.3
479.664	1362.37
482.556	1535.76
485.449	1735.72
488.342	1945.93
491.234	2149.19
494.127	2347.82
497.02	2547.26
499.913	2659.3
502.805	2713.41
505.698	2694.17
508.591	2634.22
511.483	2498.66
514.376	2308.91
517.269	2069.17
520.161	1848.69
523.054	1568.46
525.947	1347.4
528.84	1109.04
531.732	905.974
534.625	701.94
537.518	548.733
540.41	403.728
543.303	277.105
546.196	186.394
549.088	82.23
551.981	71.4434
554.874	4.80762
557.766	37.477
560.659	42.5083
563.552	59.4434
566.444	61.6631
569.337	50.2922
572.23	51.6477
575.123	49.2395
578.015	8.8479
580.908	6.07959
583.801	18.3196
586.693	27.6365
589.586	55.9221
592.479	85.5623
595.371	110.26
598.264	130.701
601.157	158.338
604.05	178.1
606.942	212.016
609.835	237.062
612.728	247.603
615.62	291.923
618.513	304.457
621.406	323.424
624.298	338.295
627.191	356.263
630.084	353.213
632.977	354.213
635.869	351.462
638.762	343.324
641.655	352.121
644.547	345.668
647.44	335.977
650.333	320.644
653.226	305.297
656.118	312.781
659.011	292.61
661.904	280.226
664.796	272.111
667.689	247.82
670.582	221.128
673.474	196.525
676.367	180.188
679.26	154.992
682.153	141.701
685.045	115.702
687.938	111.924
690.831	84.8162
693.723	71.2024
696.616	57.417
699.509	51.8767
702.401	36.4299
705.294	31.79
708.187	25.4219
711.079	23.1255
713.972	14.5068
716.865	1.20654
719.758	1.93164
722.65	5.72192
725.543	7.70703
728.436	11.5352
731.328	10.5029
734.221	15.5154
737.114	10.9416
740.006	25.865
742.899	32.2319
745.792	36.5671
748.684	47.8389
751.577	40.8901
754.47	70.6834
757.363	70.4856
760.255	70.8574
763.148	73.1528
766.041	73.1804
768.933	65.7107
771.826	77.6777
774.719	72.3362
777.611	59.8284
780.504	55.8511
783.397	32.1343
786.29	25.1997
789.182	13.3704
792.075	0.206543
794.968	10.0364
797.86	1.17163
800.753	0.19751
803.646	1.49145
806.538	8.09473
809.431	21.1411
812.324	11.0981
815.217	26.9231
818.109	22.2849
821.002	47.4004
823.895	45.7971
826.787	47.0825
829.68	56.1184
832.573	53.3809
835.466	57.0876
838.358	62.6252
841.251	51.894
844.144	59.1821
847.036	55.02
849.929	56.875
852.822	65.1169
855.714	64.1773
858.607	76.4546
861.5	71.9841
864.393	67.2781
867.285	72.5476
870.178	80.6128
873.071	77.8767
875.963	87.1511
878.856	76.1133
881.749	92.5684
884.641	91.7398
887.534	90.3994
890.427	89.3328
893.319	96.2698
896.212	101.332
899.105	84.6509
901.997	79.103
904.89	73.2676
907.783	79.4976
910.676	70.8674
913.568	60.3513
916.461	52.727
919.354	39.2617
922.246	20.4377
925.139	17.5875
928.032	11.0549
930.924	20.6643
933.817	5.31519
936.71	0.780884
939.603	1.2102
942.495	4.08728
945.388	27.274
948.281	7.74133
951.173	8.62707
954.066	6.19763
956.959	11.2581
959.851	8.45984
962.744	2.24194
965.637	0.807617
968.529	6.73816
971.422	10.1454
974.315	15.4426
977.208	24.6633
980.1	29.9592
982.993	30.9609
985.886	46.5125
988.778	52.907
991.671	61.0264
994.564	68.6489
997.457	81.4834
1000.35	87.6018
1003.24	91.1841
1006.13	96.8071
1009.03	103.005
1011.92	108.981
1014.81	121.112
1017.71	140.708
1020.6	128.736
1023.49	128.845
1026.38	133.61
1029.28	146.188
1032.17	156.908
1035.06	170.574
1037.95	189.743
1040.85	189.172
1043.74	193.222
1046.63	188.733
1049.53	189.674
1052.42	189.458
1055.31	199.938
1058.2	196.675
1061.1	202.388
1063.99	199.082
1066.88	190.605
1069.77	197.878
1072.67	193.317
1075.56	205.232
1078.45	188.907
1081.35	213.242
1084.24	221.314
1087.13	249.691
1090.02	273.16
1092.92	319.151
1095.81	299.488
1098.7	291.302
1101.59	311.292
1104.49	312.044
1107.38	341.365
1110.27	309.394
1113.16	284.138
1116.06	270.571
1118.95	259.739
1121.84	226.43
1124.73	212.586
1127.63	180.487
1130.52	162.901
1133.41	148.24
1136.31	90.1797
1139.2	56.9761
1142.09	10.2202
1144.98	68.564
1147.88	21.0664
1150.77	15.7398
1153.66	55.186
1156.56	78.3213
1159.45	132.43
1162.34	179.686
1165.23	211.64
1168.13	244.289
1171.02	287.744
1173.91	271.989
1176.8	191.501
1179.7	202.579
1182.59	150.564
1185.48	108.486
1188.38	114.704
1191.27	96.9043
1194.16	82.1231
1197.05	46.8867
1199.94	23.626
1202.84	0
