Measurement: Raman, 532 nm, unoriented, Raman Data Processed
Mineral: Gotzenite
Rruff sample: R140781
Ideal chemistry: NaCa_6_Ti^4+^(Si_2_O_7_)_2_OF_3_
Locality: Parco Chigi, Ariccia, Alban Hills, Rome Province, Latium, Italy
Source: Ch. and H. Sch√§fer
Description: Prismatic pale-yellow crystals, associated with colorless sanidine.
Measured chemistry: Na_1.00_(Ca_5.00_Na_0.36_Ce_0.19_La_0.12_Sr_0.09_Mn_0.04_Fe_0.03_Nd^3+^_0.02_Pr_0.01_Dy_0.01_)_5.87_(Ti_0.86_Nd^5+^_0.09_Zr_0.06_Th_0.02_)_1.03_(Si_2.02_O_7_)_2_OF_2.98_
Raman shift (cm-1)	intensity
93.158	0
96.5328	1.88271
99.9077	2.54312
103.282	0.27356
106.657	6.20647
110.032	7.93533
113.407	12.868
116.782	20.0512
120.157	14.4905
123.531	15.2294
126.906	10.2637
130.281	11.4645
133.656	6.99322
137.031	6.1687
140.405	8.06097
143.78	4.58554
147.155	6.80525
150.53	4.37598
153.905	5.14447
157.28	2.42224
160.654	1.05933
164.029	1.90132
167.404	0.604324
170.779	0.189743
174.154	0.47049
177.528	0.386047
180.903	0.057632
184.278	0.719879
187.653	2.71773
191.028	5.83879
194.403	7.42351
197.777	12.6017
201.152	17.7894
204.527	23.7336
207.902	31.8311
211.277	40.7536
214.651	49.722
218.026	55.5348
221.401	55.9453
224.776	51.2739
228.151	45.6695
231.525	36.9157
234.9	31.1993
238.275	27.6352
241.65	23.6042
245.025	21.8803
248.4	18.5603
251.774	16.1305
255.149	14.2507
258.524	14.9483
261.899	14.0635
265.274	18.1134
268.649	19.4358
272.023	20.3318
275.398	20.6011
278.773	20.9836
282.148	15.0818
285.523	8.56857
288.897	3.23352
292.272	1.38345
295.647	2.89725
299.022	1.88928
302.397	1.1864
305.772	4.41394
309.146	8.26315
312.521	14.1209
315.896	20.9742
319.271	26.4176
322.646	31.6772
326.02	30.7447
329.395	26.6201
332.77	25.348
336.145	27.2422
339.52	27.9624
342.894	28.7355
346.269	27.0563
349.644	26.1582
353.019	25.1472
356.394	29.2232
359.769	35.6524
363.143	43.9175
366.518	53.1517
369.893	60.9913
373.268	68.1753
376.643	67.3812
380.017	59.4491
383.392	47.2064
386.767	34.296
390.142	22.8214
393.517	12.7949
396.892	9.36783
400.266	10.4441
403.641	8.69446
407.016	10.1274
410.391	17.0083
413.766	21.9849
417.14	28.015
420.515	29.1444
423.89	27.4891
427.265	25.731
430.64	19.783
434.014	13.33
437.389	8.57074
440.764	4.47876
444.139	1.6255
447.514	0.451431
450.889	3.32794
454.263	2.20509
457.638	1.11688
461.013	1.60449
464.388	2.51912
467.763	2.9922
471.137	4.13249
474.512	5.5594
477.887	6.03374
481.262	5.13708
484.637	5.1447
488.012	6.5562
491.386	5.91303
494.761	4.5994
498.136	2.8327
501.511	2.39417
504.886	3.29941
508.26	3.32782
511.635	3.39468
515.01	4.18497
518.385	4.86227
521.76	4.33185
525.135	5.09631
528.509	5.63834
531.884	6.2615
535.259	7.49261
538.634	11.5918
542.009	10.8993
545.384	10.6103
548.758	9.23816
552.133	6.7601
555.508	5.25787
558.883	4.19263
562.258	3.39349
565.632	3.3873
569.007	6.81256
572.382	12.2455
575.757	21.3013
579.132	32.2867
582.506	44.8214
585.881	53.6141
589.256	56.1661
592.631	48.658
596.006	37.336
599.381	26.7803
602.755	14.2737
606.13	7.59024
609.505	3.79602
612.88	1.32935
616.255	0.195862
619.63	0.243317
623.004	1.40387
626.379	1.81592
629.754	0.892944
633.129	3.11597
636.504	7.67621
639.878	12.2149
643.253	17.2869
646.628	28.1473
650.003	38.1782
653.378	56.3478
656.752	77.0109
660.127	100.577
663.502	120.597
666.877	122.993
670.252	99.7231
673.626	66.8398
677.001	37.1903
680.376	21.1633
683.751	12.0826
687.126	5.20227
690.501	1.75232
693.875	2.3035
697.25	0.811371
700.625	2.76343
704	1.95312
707.375	1.80917
710.75	0.152557
714.124	1.19998
717.499	0.421051
720.874	0.213715
724.249	1.21033
727.624	5.37244
730.998	2.79312
734.373	6.04172
737.748	9.13644
741.123	16.4412
744.498	23.0576
747.872	31.7876
751.247	45.8824
754.622	57.0001
757.997	70.2226
761.372	85.4221
764.747	95.4834
768.121	106.374
771.496	111.643
774.871	115.425
778.246	114.876
781.621	114.105
784.995	108.36
788.37	103.873
791.745	99.2924
795.12	97.8384
798.495	95.181
801.87	99.6752
805.244	114.741
808.619	134.514
811.994	154.502
815.369	177.684
818.744	202.286
822.119	221.329
825.493	232.714
828.868	235.876
832.243	228.577
835.618	204.456
838.993	173.295
842.367	134.056
845.742	93.7406
849.117	62.8191
852.492	41.7939
855.867	28.1415
859.241	20.0187
862.616	14.7855
865.991	7.90469
869.366	1.87723
872.741	2.35663
876.115	4.17288
879.49	5.28009
882.865	4.89444
886.24	0.14447
889.615	7.67734
892.99	17.6546
896.364	29.7553
899.739	41.3821
903.114	54.8653
906.489	69.1052
909.864	80.5797
913.239	84.3281
916.613	78.6191
919.988	70.8455
923.363	59.279
926.738	54.1593
930.113	49.5299
933.487	48.8285
936.862	47.7402
940.237	52.7189
943.612	62.6125
946.987	79.2604
950.361	84.9615
953.736	73.338
957.111	51.1761
960.486	32.6733
963.861	15.2072
967.236	4.40653
970.61	1.33038
973.985	2.36008
977.36	2.45181
980.735	0.930115
984.11	1.23154
987.485	6.6987
990.859	6.62064
994.234	9.52441
997.609	10.3198
1000.98	15.6573
1004.36	17.3184
1007.73	18.2607
1011.11	22.4353
1014.48	24.8758
1017.86	27.0646
1021.23	31.189
1024.61	36.3413
1027.98	44.1373
1031.36	49.6356
1034.73	61.5635
1038.11	72.3046
1041.48	80.3101
1044.86	85.7257
1048.23	82.2358
1051.61	73.1024
1054.98	59.5751
1058.36	48.8459
1061.73	39.4279
1065.11	32.5271
1068.48	29.4145
1071.86	24.2471
1075.23	26.1693
1078.6	23.7037
1081.98	22.8625
1085.35	22.2609
1088.73	19.1565
1092.1	19.2707
1095.48	14.5877
1098.85	13.1968
1102.23	12.7398
1105.6	9.82022
1108.98	11.249
1112.35	6.64627
1115.73	7.40137
1119.1	4.11615
1122.48	4.02438
1125.85	0.429901
1129.23	0.260895
1132.6	2.40131
1135.98	0.138519
1139.35	0.373932
1142.73	0.705231
1146.1	0.504944
1149.48	0.065796
1152.85	0.750031
1156.22	2.07187
1159.6	1.57925
1162.97	1.94544
1166.35	2.47855
1169.72	0.904663
1173.1	2.32578
1176.47	2.53577
1179.85	2.86331
1183.22	5.12088
1186.6	8.22449
1189.97	5.14648
1193.35	5.60275
1196.72	4.03336
1200.1	4.31726
1203.47	2.20758
1206.85	0.401459
1210.22	5.21115
1213.6	4.04355
1216.97	2.42758
1220.35	2.89291
1223.72	3.31665
1227.1	0.529846
1230.47	1.58054
1233.85	3.23111
1237.22	6.9787
1240.6	1.52542
1243.97	2.98669
1247.35	4.12354
1250.72	4.25153
1254.1	2.16562
1257.47	2.97757
1260.85	2.40732
1264.22	1.82935
1267.59	1.55215
1270.97	3.22955
1274.34	1.09366
1277.72	0.87442
1281.09	3.33896
1284.47	2.47653
1287.84	1.06122
1291.22	3.10651
1294.59	0.859589
1297.97	1.17908
1301.34	0.012268
