Measurement: Raman, 532 nm, unoriented, Raman Data Processed
Mineral: Goudeyite
Rruff sample: R060268
Ideal chemistry: Cu^2+^_6_Al(As^5+^O_4_)_3_(OH)_6_3H_2_O
Locality: Copper Stope, Majuba Hill mine, Pershing County, Nevada, USA
Source: Michael Scott
Description: Green acicular crystals in spherical aggregates
Raman shift (cm-1)	intensity
180.166	0
183.059	2.64612
185.951	13.526
188.844	22.9653
191.737	28.5432
194.629	44.6957
197.522	47.8293
200.415	53.2739
203.308	65.0851
206.2	58.6769
209.093	52.0562
211.986	43.7129
214.878	42.0861
217.771	35.2676
220.664	44.8176
223.556	50.4006
226.449	68.6628
229.342	78.8144
232.234	91.4712
235.127	106.637
238.02	98.2068
240.913	84.3325
243.805	67.8285
246.698	48.4905
249.591	32.611
252.483	19.1401
255.376	7.17993
258.269	5.57397
261.161	3.27161
264.054	8.82184
266.947	2.05267
269.84	0.908813
272.732	4.51447
275.625	3.35443
278.518	4.18646
281.41	14.9493
284.303	14.0912
287.196	20.3647
290.089	18.6881
292.981	20.8748
295.874	20.9953
298.767	24.3226
301.659	28.652
304.552	35.4425
307.445	40.6557
310.337	53.322
313.23	75.0516
316.123	92.3334
319.015	112.27
321.908	125.668
324.801	128.366
327.694	128.421
330.586	110.818
333.479	93.2318
336.372	68.5106
339.264	57.6422
342.157	42.2115
345.05	32.6688
347.942	22.1995
350.835	13.1735
353.728	7.70758
356.621	0.921631
359.513	7.11896
362.406	2.44873
365.299	7.90985
368.191	8.35315
371.084	4.30231
373.977	5.30701
376.87	5.81494
379.762	2.10053
382.655	4.49219
385.548	15.6653
388.44	25.9791
391.333	34.0125
394.226	40.0271
397.118	50.9469
400.011	63.1062
402.904	73.4326
405.796	72.6379
408.689	62.8409
411.582	57.4751
414.475	43.0768
417.367	43.4209
420.26	52.1448
423.153	71.4556
426.045	92.7158
428.938	121.703
431.831	138.077
434.724	136.292
437.616	123.975
440.509	114.489
443.402	105.711
446.294	98.4082
449.187	99.7988
452.08	105.81
454.972	120.703
457.865	136.805
460.758	166.489
463.651	208.722
466.543	250.655
469.436	291.863
472.329	344.036
475.221	377.341
478.114	411.735
481.007	415.5
483.899	378.531
486.792	325.075
489.685	277.428
492.577	221.694
495.47	180.097
498.363	141.897
501.256	111.988
504.148	89.001
507.041	75.1462
509.934	55.7801
512.826	43.7106
515.719	31.1655
518.612	30.4061
521.505	42.7281
524.397	50.8843
527.29	60.444
530.183	73.7019
533.075	71.3643
535.968	70.455
538.861	65.2469
541.753	44.9415
544.646	32.5219
547.539	20.7014
550.432	19.4309
553.324	16.2293
556.217	5.96783
559.11	3.92865
562.002	5.64117
564.895	0.96814
567.788	2.26715
570.68	3.61383
573.573	4.85339
576.466	8.7659
579.359	6.95929
582.251	5.73184
585.144	4.57043
588.037	3.49194
590.929	1.01627
593.822	2.50519
596.715	6.09683
599.607	8.64499
602.5	11.5118
605.393	11.8377
608.285	22.0215
611.178	22.8707
614.071	27.322
616.964	29.6519
619.856	34.885
622.749	34.9368
625.642	34.8114
628.534	32.62
631.427	38.7001
634.32	41.0796
637.212	39.6943
640.105	34.8568
642.998	32.1973
645.891	28.089
648.783	27.6309
651.676	24.487
654.569	27.7004
657.461	24.674
660.354	27.3958
663.247	23.5221
666.139	24.4861
669.032	22.9761
671.925	23.9965
674.818	24.2313
677.71	24.1436
680.603	27.2416
683.496	27.0531
686.388	27.0393
689.281	25.44
692.174	24.7917
695.067	25.7366
697.959	34.937
700.852	29.214
703.745	36.7933
706.637	38.4333
709.53	37.1532
712.423	40.4574
715.315	39.3426
718.208	33.5582
721.101	35.038
723.994	29.3342
726.886	24.0975
729.779	20.8315
732.672	20.8339
735.564	18.3317
738.457	11.9439
741.35	12.8008
744.242	7.69177
747.135	3.05795
750.028	3.50763
752.92	4.27695
755.813	4.99225
758.706	7.11044
761.599	11.0882
764.491	8.50156
767.384	8.21124
770.277	1.85071
773.169	0.432068
776.062	8.5751
778.955	16.8556
781.847	29.8107
784.74	38.2549
787.633	46.9216
790.526	51.8458
793.418	57.3247
796.311	59.2109
799.204	62.1603
802.096	65.3227
804.989	66.8045
807.882	77.2237
810.774	87.3441
813.667	103.875
816.56	121.695
819.453	158.083
822.345	193.482
825.238	236.607
828.131	278.793
831.023	332.185
833.916	380.605
836.809	425.775
839.702	437.143
842.594	451.327
845.487	450.434
848.38	449.639
851.272	455.261
854.165	447.418
857.058	467.801
859.95	497.432
862.843	545.588
865.736	609.664
868.629	687.044
871.521	794.014
874.414	872.313
877.307	916.319
880.199	877.793
883.092	761.753
885.985	621.733
888.877	480.432
891.77	349.971
894.663	263.885
897.556	197.667
900.448	151.84
903.341	113.558
906.234	81.1248
909.126	63.6113
912.019	44.296
914.912	29.8318
917.804	16.2001
920.697	20.0202
923.59	8.27573
926.482	4.04422
929.375	0.380402
932.268	4.81134
935.161	10.424
938.053	7.13782
940.946	3.68103
943.839	2.465
946.731	6.64691
949.624	0.124054
952.517	0.530243
955.409	0.544464
958.302	0.147217
961.195	0.78006
964.088	6.07895
966.98	8.31897
969.873	15.2076
972.766	15.1914
975.658	18.802
978.551	17.5847
981.444	25.0388
984.337	25.1743
987.229	23.591
990.122	25.3283
993.015	23.5814
995.907	20.5201
998.8	17.2753
1001.69	24.2258
1004.59	25.6719
1007.48	24.4284
1010.37	22.5212
1013.26	24.0823
1016.16	24.3906
1019.05	20.6464
1021.94	21.8848
1024.83	17.6868
1027.73	19.6404
1030.62	21.8553
1033.51	24.2448
1036.4	30.2258
1039.3	37.878
1042.19	48.4443
1045.08	55.7383
1047.98	50.5881
1050.87	29.9486
1053.76	23.4333
1056.65	7.763
1059.55	8.62723
1062.44	6.76395
1065.33	4.33328
1068.22	3.61124
1071.12	0.358429
1074.01	0.579712
1076.9	2.42252
1079.8	0.239075
1082.69	4.72672
1085.58	7.28415
1088.47	2.53821
1091.37	0.425415
1094.26	5.2038
1097.15	1.84726
1100.04	5.63629
1102.94	3.59302
1105.83	7.39462
1108.72	3.41876
1111.62	4.05496
1114.51	10.3962
1117.4	5.07773
1120.29	4.21075
1123.19	4.23151
1126.08	2.1141
1128.97	4.45767
1131.86	6.49087
1134.76	5.18365
1137.65	1.61911
1140.54	0.405457
1143.43	3.05734
1146.33	1.86069
1149.22	5.32126
1152.11	4.83643
1155.01	3.21695
1157.9	1.01263
1160.79	0.554413
1163.68	2.78274
1166.58	0.36203
1169.47	4.11587
1172.36	6.67374
1175.26	6.0202
1178.15	1.39206
1181.04	0.141144
1183.93	2.83188
1186.83	1.00107
1189.72	3.40738
1192.61	2.38071
1195.5	4.12894
1198.4	3.45987
1201.29	2.04346
1204.18	3.19507
1207.07	0.528839
1209.97	6.14966
1212.86	3.74936
1215.75	1.87561
1218.64	0.306915
1221.54	1.39844
1224.43	7.4971
1227.32	4.89902
1230.22	5.70248
1233.11	5.37317
1236	2.63483
1238.89	0.633545
1241.79	6.10098
1244.68	0.161255
1247.57	7.70331
1250.46	2.94751
1253.36	6.69406
1256.25	7.38727
1259.14	5.94028
1262.04	5.5249
1264.93	2.88361
1267.82	7.31064
1270.71	2.46213
1273.61	3.42618
1276.5	7.83115
1279.39	2.12134
1282.29	3.75537
1285.18	5.83328
1288.07	6.82065
1290.96	4.80341
1293.86	3.70212
1296.75	0.367584
1299.64	3.34509
1302.53	1.92636
