Measurement: Raman, 780 nm, unoriented, Raman Data Processed
Mineral: Gowerite
Rruff sample: R050673
Ideal chemistry: Ca[B_5_O_8_(OH)][B(OH)_3_]3H_2_O
Locality: Death Valley, California, USA
Source: University of Arizona Mineral Museum
Description: Colorless bladed crystals associated with gypsum and priceite
Measured chemistry: (Ca_0.98_Sr_0.02_)_Σ=1_[B_5_O_8_(OH)][B(OH)_3_]·3H_2_O ; B not measured but estimated by stoichiometry
Raman shift (cm-1)	intensity
145.058	0
147.951	0.725967
150.844	4.08357
153.736	5.34946
156.629	9.00656
159.522	2.8127
162.414	1.08023
165.307	0.226105
168.2	0.593582
171.093	3.66518
173.985	8.37871
176.878	11.879
179.771	10.7846
182.663	8.94719
185.556	5.56978
188.449	4.12872
191.341	3.74289
194.234	1.77164
197.127	0.475449
200.019	0.938766
202.912	0.407211
205.805	1.17282
208.697	1.22874
211.59	1.62911
214.483	2.69554
217.376	2.05514
220.268	3.39436
223.161	2.20775
226.054	2.95505
228.946	4.19283
231.839	3.54094
234.732	4.79642
237.625	6.28915
240.517	8.50285
243.41	7.70531
246.303	8.34372
249.195	10.9016
252.088	11.3306
254.981	11.1764
257.873	10.228
260.766	8.39999
263.659	9.50801
266.551	7.7722
269.444	8.96057
272.337	9.10023
275.23	9.94516
278.122	12.439
281.015	14.8435
283.908	15.882
286.8	18.4816
289.693	19.9495
292.586	18.3518
295.478	11.4761
298.371	5.60413
301.264	4.32646
304.157	1.29363
307.049	0.177155
309.942	1.10594
312.835	1.12315
315.727	0.141632
318.62	0.052704
321.513	1.54459
324.406	3.2321
327.298	4.64067
330.191	5.871
333.084	6.50757
335.976	9.16542
338.869	11.6797
341.762	11.6818
344.654	11.8958
347.547	10.7252
350.44	11.8576
353.332	8.78287
356.225	4.25011
359.118	1.70567
362.01	0.358841
364.903	0.531464
367.796	0.226013
370.689	0.235657
373.581	0.356888
376.474	0.016418
379.367	3.44711
382.259	3.63357
385.152	7.12288
388.045	6.79004
390.938	5.56032
393.83	3.17987
396.723	3.68893
399.616	3.86171
402.508	3.59218
405.401	6.58609
408.294	7.23372
411.186	9.76891
414.079	8.7756
416.972	3.36766
419.865	0.316544
422.757	0.52243
425.65	1.21585
428.543	0.044296
431.435	0.344162
434.328	0.777771
437.221	2.08801
440.113	3.20844
443.006	4.82752
445.899	5.78325
448.791	9.16574
451.684	11.8471
454.577	15.2539
457.47	10.8486
460.362	7.58038
463.255	8.96043
466.148	9.55776
469.04	13.0602
471.933	16.5484
474.826	23.2062
477.719	30.9129
480.611	36.3413
483.504	24.6856
486.397	16.769
489.289	14.1277
492.182	14.2482
495.075	16.8428
497.967	17.6096
500.86	15.3612
503.753	9.77222
506.645	4.95543
509.538	4.19778
512.431	1.6921
515.323	1.70233
518.216	1.54055
521.109	0.249252
524.002	0.851936
526.894	0.104973
529.787	0.681419
532.68	0.346519
535.572	0.132797
538.465	1.60228
541.358	0.92408
544.25	1.21686
547.143	1.29931
550.036	4.5765
552.929	4.17203
555.821	7.60004
558.714	10.2162
561.607	13.1723
564.499	17.1456
567.392	12.8802
570.285	10.7245
573.178	9.10146
576.07	6.79666
578.963	3.85352
581.856	3.55911
584.748	5.86475
587.641	6.4938
590.534	7.14996
593.426	11.5429
596.319	15.3865
599.212	18.3817
602.105	15.2465
604.997	12.2968
607.89	10.8924
610.783	9.51263
613.675	9.396
616.568	9.31805
619.461	10.1196
622.353	10.7206
625.246	10.3032
628.139	7.52369
631.031	6.33459
633.924	5.97266
636.817	5.82887
639.71	2.07967
642.602	1.33942
645.495	0.533615
648.388	0.268196
651.28	0.689857
654.173	0.41835
657.066	0.073296
659.958	0.283295
662.851	0.39563
665.744	0.65567
668.636	1.50442
671.529	1.47279
674.422	1.35281
677.315	1.37862
680.207	1.96872
683.1	1.78879
685.993	2.53471
688.885	1.17348
691.778	0.86795
694.671	0.535454
697.563	0.582092
700.456	0.368645
703.349	1.11112
706.242	0.803726
709.134	0.113876
712.027	0.237465
714.92	0.080719
717.812	0.035591
720.705	0.260597
723.598	0.205742
726.49	0.73555
729.383	1.38003
732.276	2.14806
735.169	2.02081
738.061	2.47014
740.954	5.19489
743.847	5.6692
746.739	10.8419
749.632	15.3574
752.525	19.6371
755.418	23.9287
758.31	32.9934
761.203	45.8004
764.096	50.8081
766.988	33.83
769.881	15.5097
772.774	7.46018
775.666	2.89532
778.559	1.37411
781.452	1.36272
784.345	0.894348
787.237	0.373055
790.13	0.291382
793.023	0.453918
795.915	0.82608
798.808	3.01901
801.701	3.07349
804.593	3.46375
807.486	5.5303
810.379	7.12711
813.271	6.28082
816.164	3.12466
819.057	1.90884
821.949	0.353767
824.842	1.07203
827.735	2.12385
830.628	2.78568
833.52	5.0592
836.413	6.78561
839.306	3.7875
842.198	3.21341
845.091	0.422203
847.984	0.548447
850.876	0.025558
853.769	0.871254
856.662	0.08078
859.555	0.622025
862.447	1.76822
865.34	2.02565
868.233	2.62848
871.125	4.4417
874.018	5.52547
876.911	11.0129
879.803	18.1075
882.696	27.9608
885.589	38.9026
888.482	54.5254
891.374	74.0378
894.267	79.9876
897.16	52.3016
900.052	23.8392
902.945	10.8392
905.838	5.21896
908.731	2.37226
911.623	1.76724
914.516	0.682167
917.409	0.772606
920.301	0.26178
923.194	0.178238
926.087	0.306038
928.979	2.03495
931.872	2.25059
934.765	3.93985
937.658	6.18974
940.55	9.23116
943.443	12.3465
946.336	13.9088
949.228	15.4484
952.121	14.6884
955.014	12.5508
957.906	7.10416
960.799	5.52071
963.692	3.18166
966.584	2.69602
969.477	1.89518
972.37	0.593292
975.263	0.631538
978.155	0.305984
981.048	1.15306
983.941	1.08792
986.833	0.271759
989.726	1.1609
992.619	1.36236
995.511	0.573112
998.404	1.67606
1001.3	2.25153
1004.19	2.59515
1007.08	2.68365
1009.98	2.30457
1012.87	0.882088
1015.76	1.81158
1018.65	1.49432
1021.55	0.836433
1024.44	1.45193
1027.33	0.880493
1030.22	1.34979
1033.12	1.51103
1036.01	1.07384
1038.9	1.27378
1041.8	1.97654
1044.69	2.66299
1047.58	1.58031
1050.47	2.1398
1053.37	1.72262
1056.26	1.7099
1059.15	3.02486
1062.04	2.9513
1064.94	2.2749
1067.83	1.53063
1070.72	1.99894
1073.61	1.16989
1076.51	0.163261
1079.4	0.548615
1082.29	0.172615
1085.18	0.322784
1088.08	0.923897
1090.97	0.204414
1093.86	1.67326
1096.76	1.02336
1099.65	0.2071
1102.54	1.35702
1105.43	0.026405
1108.33	1.18019
1111.22	1.27145
1114.11	0.376793
1117.01	0.541595
1119.9	0.961601
1122.79	2.29214
1125.68	2.48623
1128.58	2.50491
1131.47	2.56426
1134.36	1.96207
1137.25	2.05227
1140.15	1.58912
1143.04	2.0285
1145.93	0.451958
1148.82	2.02718
1151.72	0.337624
1154.61	0.917824
1157.5	0.739288
1160.39	0.586128
1163.29	0.802383
1166.18	1.1723
1169.07	2.28268
1171.97	0.937424
1174.86	2.54181
1177.75	1.47803
1180.64	2.77541
1183.54	1.16296
1186.43	1.45525
1189.32	1.0387
1192.21	1.39858
1195.11	0.544083
1198	1.03595
1200.89	0.146049
1203.79	0.210464
1206.68	0.447639
1209.57	0.282127
1212.46	0.231956
1215.36	0.329887
1218.25	0.889297
1221.14	1.1036
1224.04	0.93634
1226.93	1.96351
1229.82	1.71664
1232.71	0.218193
1235.61	1.03121
1238.5	1.3756
1241.39	1.49496
1244.28	0.770462
1247.18	1.75086
1250.07	2.08183
1252.96	2.84359
1255.85	2.74314
1258.75	1.39342
1261.64	1.88119
1264.53	1.50845
1267.42	0.599182
1270.32	0.143608
1273.21	0.813171
1276.1	1.12648
1279	0.180328
1281.89	1.55423
1284.78	0.63118
