Measurement: Raman, 532 nm, unoriented, Raman Data Processed
Mineral: Gowerite
Rruff sample: R050673
Ideal chemistry: Ca[B_5_O_8_(OH)][B(OH)_3_]3H_2_O
Locality: Death Valley, California, USA
Source: University of Arizona Mineral Museum
Description: Colorless bladed crystals associated with gypsum and priceite
Measured chemistry: (Ca_0.98_Sr_0.02_)_Σ=1_[B_5_O_8_(OH)][B(OH)_3_]·3H_2_O ; B not measured but estimated by stoichiometry
Raman shift (cm-1)	intensity
145.707	0
148.6	15.1039
151.493	48.3766
154.385	49.9442
157.278	45.3531
160.171	29.5379
163.063	18.1396
165.956	19.3668
168.849	27.0253
171.742	34.3366
174.634	42.5214
177.527	49.6683
180.42	46.9993
183.312	35.8687
186.205	29.7985
189.098	26.5981
191.99	21.0057
194.883	9.76028
197.776	9.21936
200.668	6.02121
203.561	6.60501
206.454	1.58218
209.347	1.82275
212.239	1.54111
215.132	0.078491
218.025	0.06839
220.917	2.12204
223.81	0.35611
226.703	2.91171
229.596	0.630371
232.488	0.089447
235.381	1.49466
238.274	2.78979
241.166	4.95569
244.059	7.50934
246.952	9.58289
249.845	15.2544
252.737	18.823
255.63	23.573
258.523	25.4214
261.415	23.5041
264.308	21.7546
267.201	24.0952
270.093	25.6412
272.986	30.5422
275.879	35.943
278.772	43.7374
281.664	48.6645
284.557	61.1817
287.45	74.4578
290.342	83.0792
293.235	65.8472
296.128	40.5494
299.021	22.0225
301.913	7.76172
304.806	2.80463
307.699	1.68518
310.591	0.164185
313.484	2.23016
316.377	0.76416
319.269	1.84491
322.162	6.04852
325.055	6.88025
327.947	9.77777
330.84	13.7871
333.733	20.3896
336.626	25.9232
339.518	32.4797
342.411	34.6044
345.304	34.8625
348.196	36.2907
351.089	36.675
353.982	27.3676
356.875	15.3364
359.767	5.31818
362.66	1.95355
365.553	0.283447
368.445	0.039429
371.338	2.5705
374.231	6.38867
377.123	9.00915
380.016	13.4495
382.909	21.3393
385.802	28.6844
388.694	27.7345
391.587	16.9796
394.48	10.4725
397.372	7.70258
400.265	9.38037
403.158	10.9819
406.05	12.6251
408.943	20.179
411.836	24.0725
414.729	15.0627
417.621	6.9184
420.514	0.641052
423.407	0.965515
426.299	3.46332
429.192	1.08752
432.085	0.320984
434.978	1.70172
437.87	6.23724
440.763	9.92145
443.656	13.6041
446.548	19.8293
449.441	27.3885
452.334	37.1616
455.226	37.816
458.119	28.007
461.012	21.5515
463.905	27.6767
466.797	39.8013
469.69	47.7606
472.583	66.5547
475.475	92.7164
478.368	123.946
481.261	126.815
484.154	85.4377
487.046	55.7415
489.939	53.8443
492.832	60.0887
495.724	71.6143
498.617	68.3064
501.51	55.3509
504.402	35.6615
507.295	24.7654
510.188	13.0628
513.081	6.06921
515.973	3.16754
518.866	0.988525
521.759	1.87323
524.651	0.952576
527.544	2.47723
530.437	0.204407
533.33	1.40533
536.222	1.4068
539.115	0.381287
542.008	3.71307
544.9	5.6134
547.793	10.4346
550.686	15.315
553.578	17.2175
556.471	24.8013
559.364	35.7664
562.256	49.845
565.149	53.5486
568.042	51.7746
570.935	45.2783
573.827	35.249
576.72	25.5631
579.613	19.5743
582.505	18.4349
585.398	23.2454
588.291	27.4036
591.184	39.7551
594.076	55.1413
596.969	73.1758
599.862	76.2489
602.754	59.2175
605.647	44.2735
608.54	36.0902
611.433	35.7615
614.325	35.9424
617.218	34.7023
620.111	38.3854
623.003	41.011
625.896	37.3496
628.789	29.0223
631.682	25.2063
634.574	32.4324
637.467	23.7513
640.36	4.90997
643.252	1.10394
646.145	1.81305
649.038	0.615417
651.93	0.664673
654.823	3.11243
657.716	4.20404
660.609	7.38342
663.501	8.26935
666.394	5.50488
669.287	6.37805
672.179	2.56238
675.072	2.1311
677.965	3.55304
680.857	2.73126
683.75	1.34522
686.643	1.66333
689.535	0.261963
692.428	3.09418
695.321	1.00873
698.214	2.19952
701.106	2.79388
703.999	1.51874
706.892	1.55225
709.784	0.977478
712.677	2.06976
715.57	4.37781
718.462	4.61163
721.355	2.66931
724.248	3.10553
727.141	4.85413
730.033	6.11023
732.926	5.10352
735.819	10.3358
738.712	14.2853
741.604	25.2327
744.497	32.7224
747.39	48.5266
750.282	71.6246
753.175	91.6363
756.068	123.461
758.96	178.414
761.853	231.834
764.746	230.087
767.639	131.463
770.531	56.7189
773.424	26.781
776.317	13.9916
779.209	6.71271
782.102	5.4801
784.995	4.54346
787.888	1.3042
790.78	3.57642
793.673	4.75671
796.566	8.09582
799.458	10.5134
802.351	16.9403
805.244	24.5409
808.136	31.5747
811.029	31.1669
813.922	22.0214
816.814	7.63556
819.707	0.099609
822.6	0.113342
825.493	2.74438
828.385	0.62323
831.278	10.3254
834.171	13.5775
837.063	17.2754
839.956	14.3281
842.849	7.25879
845.741	4.59076
848.634	0.306824
851.527	1.22058
854.42	2.54694
857.312	2.98181
860.205	3.67285
863.098	4.99353
865.99	11.9477
868.883	15.699
871.776	23.2461
874.669	35.227
877.561	62.2048
880.454	107.204
883.347	166.612
886.239	238.917
889.132	344.074
892.025	450.271
894.918	424.862
897.81	246.483
900.703	110.202
903.596	46.26
906.488	23.024
909.381	11.1113
912.274	4.77814
915.166	3.41089
918.059	1.16754
920.952	0.040161
923.845	0.388489
926.737	1.20441
929.63	3.47095
932.523	9.86536
935.415	23.0984
938.308	38.7506
941.201	56.8764
944.093	78.5299
946.986	92.6284
949.879	93.9515
952.771	87.2281
955.664	65.8156
958.557	41.9211
961.45	25.4435
964.342	12.7579
967.235	5.43543
970.128	4.35901
973.02	1.67914
975.913	0.107483
978.806	0.14447
981.699	0.188538
984.591	0.004456
987.484	0.67981
990.377	0.628662
993.269	0.508118
996.162	2.1275
999.055	5.24042
1001.95	7.10577
1004.84	6.44391
1007.73	11.5724
1010.63	11.1758
1013.52	6.48718
1016.41	4.38019
1019.3	1.30926
1022.2	1.66174
1025.09	0.968994
1027.98	0.28479
1030.88	0.393982
1033.77	0.578552
1036.66	1.04785
1039.55	0.190552
1042.44	0.977356
1045.34	4.92883
1048.23	7.08356
1051.12	8.5282
1054.02	6.34808
1056.91	8.04742
1059.8	6.65143
1062.69	8.49323
1065.59	6.46167
1068.48	9.37958
1071.37	6.53522
1074.27	3.05084
1077.16	1.38226
1080.05	0.223999
1082.94	0.958679
1085.84	1.31805
1088.73	2.10535
1091.62	0.331665
1094.51	3.06677
1097.41	0.040039
1100.3	5.26019
1103.19	0.932495
1106.09	3.52496
1108.98	3.51929
1111.87	2.76953
1114.76	6.52502
1117.66	5.06567
1120.55	8.10229
1123.44	9.31293
1126.33	13.3145
1129.23	12.4789
1132.12	14.0087
1135.01	14.4061
1137.9	14.3575
1140.8	10.9758
1143.69	8.98926
1146.58	11.7979
1149.47	10.4759
1152.37	7.79596
1155.26	4.23694
1158.15	0.105164
1161.05	3.21979
1163.94	2.3432
1166.83	4.08655
1169.72	3.0058
1172.62	1.93323
1175.51	3.38959
1178.4	5.30267
1181.3	2.04388
1184.19	2.31342
1187.08	0.612244
1189.97	0.86676
1192.87	3.69818
1195.76	0.198486
1198.65	0.645691
1201.54	2.53436
1204.44	1.23828
1207.33	0.007385
1210.22	1.14978
1213.12	0.364197
1216.01	0.608582
1218.9	0.580505
1221.79	0.984924
1224.69	0.595703
1227.58	1.06421
1230.47	0.462585
1233.36	0.891541
1236.26	2.06042
1239.15	2.52954
1242.04	3.12231
1244.93	4.98956
1247.83	8.58746
1250.72	14.4266
1253.61	10.0148
1256.51	6.16888
1259.4	5.58783
1262.29	4.28003
1265.18	1.76379
1268.08	2.14648
1270.97	2.22974
1273.86	2.44683
1276.75	2.71859
1279.65	2.74509
1282.54	1.27948
1285.43	1.31427
