Measurement: Raman, 785 nm, unoriented, Raman Data Processed
Mineral: Goyazite
Rruff sample: R061054
Ideal chemistry: SrAl_3_(PO_4_)(PO_3_OH)(OH)_6_
Locality: Yukon Territory, Canada
Source: Royal Ontario Museum
Description: Pale green rhombohedral crystals with iron staining
Raman shift (cm-1)	intensity
171.668	0
174.561	13.5977
177.454	540.144
180.346	1705.99
183.239	3464.51
186.132	4393.68
189.024	4291.19
191.917	3488.7
194.81	2188.66
197.703	1602.81
200.595	952.867
203.488	664.047
206.381	185.602
209.273	166.324
212.166	123.848
215.059	280.879
217.952	277.727
220.844	610.793
223.737	1056.27
226.63	1139.96
229.522	1289.58
232.415	1344.52
235.308	1704.36
238.2	2235.5
241.093	3002.89
243.986	3841.84
246.879	5327.81
249.771	7569.81
252.664	10887
255.557	14504.6
258.449	16146.1
261.342	14155.5
264.235	9694.65
267.127	5903.2
270.02	3641.71
272.913	2350.15
275.805	1892.21
278.698	1805.48
281.591	1981.67
284.484	2277
287.376	1798.5
290.269	780.894
293.162	235.664
296.054	169.539
298.947	71.207
301.84	63.9492
304.733	164.438
307.625	370.996
310.518	261.023
313.411	423.5
316.303	577.555
319.196	543.773
322.089	784.356
324.981	1118.59
327.874	1379.46
330.767	1293.28
333.659	1126.6
336.552	1103.35
339.445	1115.31
342.338	1243.55
345.23	1368.43
348.123	1525.94
351.016	1803.19
353.908	2282.11
356.801	2689.34
359.694	3503.27
362.587	4492.56
365.479	5412.43
368.372	5854.12
371.265	5635.93
374.157	5096.86
377.05	4103.46
379.943	2983.46
382.835	2146.36
385.728	1412.17
388.621	966.664
391.514	852.031
394.406	919.035
397.299	781.586
400.192	405.762
403.084	234.769
405.977	109.754
408.87	159.773
411.762	136.508
414.655	24.7266
417.548	255.852
420.44	268.746
423.333	109.984
426.226	94.7539
429.119	240.16
432.011	181.984
434.904	338.004
437.797	394.867
440.689	638.82
443.582	841.481
446.475	1230.25
449.368	1364.69
452.26	1605.06
455.153	1619.6
458.046	1796.48
460.938	2003.9
463.831	1759.69
466.724	1520.84
469.616	1173.97
472.509	778.019
475.402	332.356
478.294	81.8516
481.187	117.152
484.08	104.871
486.973	273.984
489.865	129.023
492.758	336.578
495.651	268.066
498.543	405.727
501.436	508.957
504.329	943.059
507.221	1461.89
510.114	1933.97
513.007	1961.93
515.899	1333.06
518.792	593.519
521.685	221.363
524.578	57.0312
527.47	210.953
530.363	175.861
533.256	203.242
536.148	362.988
539.041	723.248
541.934	876.398
544.827	1295.14
547.719	1745.57
550.612	2079.72
553.505	2470.5
556.397	2680.82
559.29	2700.22
562.183	2640.36
565.075	2261.98
567.968	1922.23
570.861	1698.97
573.754	1699.14
576.646	2020.63
579.539	2301.35
582.432	2522.34
585.324	2570.86
588.217	2858.94
591.11	2859.32
594.002	2998.22
596.895	3008.84
599.788	3421.92
602.681	3960.94
605.573	4304.69
608.466	4614.47
611.359	4365.05
614.251	3545.48
617.144	3026.79
620.037	2326.06
622.929	2019.68
625.822	1733.51
628.715	1363.32
631.607	1119.18
634.5	896.086
637.393	676.08
640.286	543.561
643.178	253.211
646.071	100.453
648.964	12.8477
651.856	143.17
654.749	204.637
657.642	33.8477
660.534	19.1211
663.427	27.8691
666.32	111.238
669.213	94.8731
672.105	35.5547
674.998	55.3105
677.891	31.6406
680.783	29.2305
683.676	5.48242
686.569	45.3281
689.462	79.2832
692.354	108.219
695.247	194.318
698.14	102.975
701.032	106.092
703.925	89.0098
706.818	38.4961
709.71	34.4688
712.603	44.6504
715.496	115.871
718.389	179.225
721.281	85.6465
724.174	67.4551
727.067	147.156
729.959	4.5
732.852	47.1211
735.745	90.8672
738.638	110.418
741.53	213.857
744.423	3.13867
747.316	235.225
750.208	182.758
753.101	100.41
755.994	15.7812
758.886	61.9082
761.779	135.158
764.672	246.844
767.564	242.234
770.457	256.123
773.35	408.203
776.243	348.203
779.135	537.043
782.028	631.334
784.921	568.178
787.813	658.74
790.706	643.643
793.599	677.922
796.491	687.584
799.384	812.393
802.277	861.857
805.17	879.66
808.062	1018.83
810.955	952.191
813.848	1093.84
816.74	1220.73
819.633	1153.35
822.526	1063.58
825.418	933.197
828.311	802.984
831.204	843.016
834.096	806.922
836.989	676.135
839.882	489.06
842.775	457.111
845.667	428.523
848.56	442.836
851.453	287.477
854.345	158.793
857.238	60.4121
860.131	3.16016
863.024	26.3125
865.916	106.107
868.809	134.139
871.702	41.2949
874.594	43.7188
877.487	255.629
880.38	465.035
883.272	576.1
886.165	794.113
889.058	1101.34
891.951	1270.64
894.843	1322.19
897.736	1413.86
900.629	1336.87
903.521	1363.71
906.414	1131.37
909.307	1161.02
912.199	1307.19
915.092	1421.52
917.985	1699.87
920.878	1815.93
923.77	2138.62
926.663	2271.32
929.556	2229.36
932.448	2007.44
935.341	1582.35
938.234	1074.3
941.126	629.383
944.019	181.106
946.912	179.461
949.804	161.432
952.697	35.25
955.59	182.897
958.483	644.67
961.375	1317.21
964.268	1890.94
967.161	2606.88
970.053	3405.53
972.946	4252.7
975.839	5107.94
978.731	5988.77
981.624	6541.65
984.517	6450.25
987.41	5856.61
990.302	4816.17
993.195	3643.78
996.088	2529.34
998.98	1691.84
1001.87	1146.58
1004.77	1107.7
1007.66	902.357
1010.55	1024.6
1013.44	1491.54
1016.34	2201.98
1019.23	3024.42
1022.12	4289.03
1025.02	5748.75
1027.91	7272.7
1030.8	8096.11
1033.69	8129.99
1036.59	7231.43
1039.48	6077.51
1042.37	4217.47
1045.26	2774.86
1048.16	1632.93
1051.05	867.717
1053.94	416.578
1056.83	203.731
1059.73	39.6895
1062.62	65.5137
1065.51	51.7344
1068.4	104.508
1071.3	99.0098
1074.19	144
1077.08	2.9375
1079.98	7.53711
1082.87	36.2324
1085.76	98.3086
1088.65	89.8887
1091.55	55.8984
1094.44	142.168
1097.33	334.742
1100.22	99.9688
1103.12	66.6992
1106.01	85.5449
1108.9	269.857
1111.8	210.701
1114.69	170.783
1117.58	252.711
1120.47	117.424
1123.37	79.4941
1126.26	105.916
1129.15	53.0957
1132.05	39.2871
1134.94	0.517578
1137.83	22.9395
1140.72	21.9043
1143.62	208.951
1146.51	30.0547
1149.4	67.3223
1152.29	119.947
1155.19	51.6973
1158.08	71.0723
1160.97	173.654
1163.86	38.8047
1166.76	37.8359
1169.65	22.1406
1172.54	43.7695
1175.43	96.1172
1178.33	13.2852
1181.22	14.9531
1184.11	86.6934
1187.01	271.449
1189.9	94.8984
1192.79	132.777
1195.68	221.596
1198.58	291.438
1201.47	232.016
1204.36	212.129
1207.26	166.406
1210.15	200.172
1213.04	323.231
1215.93	316.912
1218.83	291.793
1221.72	265.404
1224.61	373.352
1227.5	276.248
1230.4	167.748
1233.29	71.5312
1236.18	132.1
1239.07	149.629
1241.97	96.8066
1244.86	81.5723
1247.75	104.35
1250.64	17.0059
1253.54	20.1621
1256.43	32.0215
1259.32	32.5859
1262.22	75.3184
1265.11	148.773
1268	0.333984
