Measurement: Raman, 532 nm, unoriented, Raman Data Processed
Mineral: Goyazite
Rruff sample: R061054
Ideal chemistry: SrAl_3_(PO_4_)(PO_3_OH)(OH)_6_
Locality: Yukon Territory, Canada
Source: Royal Ontario Museum
Description: Pale green rhombohedral crystals with iron staining
Raman shift (cm-1)	intensity
148.038	0
150.931	41.8611
153.824	2.55078
156.717	8.45703
159.609	81.7412
162.502	309.49
165.395	534.14
168.287	1032.94
171.18	1726.98
174.073	2671.64
176.965	4125.76
179.858	5762.85
182.751	7449.85
185.644	8557.67
188.536	7942.43
191.429	6002.3
194.322	3882.6
197.214	2332.66
200.107	1420.08
203	865.612
205.893	512.299
208.785	274.179
211.678	157.631
214.571	124.609
217.463	210.915
220.356	271.938
223.249	524.179
226.141	592.251
229.034	733.534
231.927	964.258
234.82	1187.74
237.712	1614.23
240.605	2179.55
243.498	3317.16
246.39	4959.94
249.283	7336.09
252.176	10277.1
255.068	13342.8
257.961	14860.6
260.854	13026
263.747	9011.66
266.639	5581.39
269.532	3428.57
272.425	2371.6
275.317	1974.27
278.21	1904.24
281.103	2089.27
283.995	2312.3
286.888	2041.22
289.781	1076.73
292.673	342.212
295.566	130.694
298.459	55.1406
301.352	55.5113
304.244	64.8523
307.137	103.795
310.03	281.753
312.922	460.689
315.815	690.411
318.708	902.16
321.601	1029.08
324.493	1078.92
327.386	1160.09
330.279	1185.72
333.171	1344.05
336.064	1479.08
338.957	1578.55
341.849	1679.53
344.742	1747.97
347.635	1857.9
350.527	2132.31
353.42	2528.13
356.313	3239.39
359.206	4230.17
362.098	5382.42
364.991	6464.23
367.884	6794.94
370.776	6360.92
373.669	5586.16
376.562	4507.62
379.454	3331.22
382.347	2427.74
385.24	1812.13
388.132	1288.6
391.025	935.871
393.918	696.575
396.811	410.888
399.703	296.291
402.596	158.198
405.489	1.66748
408.381	0.853027
411.274	21.1431
414.167	33.0635
417.06	41.0371
419.952	20.0244
422.845	8.93945
425.738	105.06
428.63	149.792
431.523	224.451
434.416	243.782
437.308	386.369
440.201	574.07
443.094	823.673
445.986	1096
448.879	1349.73
451.772	1736.49
454.665	1880.07
457.557	1969.31
460.45	1929.61
463.343	1717.24
466.235	1391.36
469.128	968.793
472.021	631.568
474.913	383.893
477.806	116.533
480.699	12.9731
483.592	38.9614
486.484	18.8857
489.377	48.3511
492.27	46.7915
495.162	77.1245
498.055	245.858
500.948	617.441
503.841	1021.92
506.733	1519.2
509.626	1893.9
512.519	1787.54
515.411	1347.44
518.304	620.312
521.197	130.295
524.089	3.90084
526.982	-18.1926
529.875	54.2848
532.768	219.757
535.66	606.848
538.553	977.289
541.446	1467.97
544.338	2130.51
547.231	2744.66
550.124	3382.86
553.016	3848.96
555.909	4179.13
558.802	4148.86
561.694	3828.89
564.587	3405.84
567.48	2948.44
570.373	2609.38
573.265	2448.51
576.158	2412.91
579.051	2454.28
581.943	2609.11
584.836	2648.19
587.729	2764.52
590.621	2790.16
593.514	2897.71
596.407	3056.59
599.3	3339.65
602.192	3576.85
605.085	3969.64
607.978	4249.32
610.87	4055.99
613.763	3566.93
616.656	2964.32
619.548	2565.87
622.441	2200.59
625.334	1806.91
628.227	1544.83
631.119	1209.82
634.012	935.411
636.905	605.841
639.797	349.207
642.69	201.524
645.583	115.872
648.475	18.2407
651.368	12.6763
654.261	0.270508
657.154	16.3584
660.046	27.0923
662.939	57.5122
665.832	54.1357
668.724	11.9898
671.617	2.35498
674.51	0.802734
677.402	18.7398
680.295	2.84033
683.188	53.4907
686.081	58.6763
688.973	58.2876
691.866	8.85303
694.759	50.1836
697.651	66.4336
700.544	64.6421
703.437	37.8999
706.329	55.6704
709.222	86.5015
712.115	14.9941
715.008	21.1475
717.9	92.4321
720.793	42.5288
723.686	56.6831
726.578	33.7978
729.471	49.293
732.364	50.0288
735.256	20.6572
738.149	63.144
741.042	24.6226
743.934	104.418
746.827	120.193
749.72	76.6592
752.613	75.5088
755.505	77.9956
758.398	108.213
761.291	8.2041
764.183	38.2358
767.076	27.4683
769.969	11.7148
772.861	8.12842
775.754	57.9014
778.647	49.7246
781.54	79.4004
784.432	96.0317
787.325	125.862
790.218	214.39
793.11	285.83
796.003	360.498
798.896	383.769
801.788	502.843
804.681	603.554
807.574	694.412
810.467	818.191
813.359	990.371
816.252	1139.57
819.145	1197.47
822.037	1190.41
824.93	1258.36
827.823	1244.56
830.716	1158.61
833.608	1030.41
836.501	1008.2
839.394	835.13
842.286	757.874
845.179	610.275
848.072	454.459
850.964	308.262
853.857	171.449
856.75	180.072
859.643	57.352
862.535	24.624
865.428	28.8364
868.321	66.021
871.213	62.3857
874.106	121.989
876.999	263.166
879.891	500.734
882.784	685.327
885.677	1028.54
888.569	1236.01
891.462	1466.59
894.355	1726.02
897.247	1737.17
900.14	1634.55
903.033	1584.82
905.926	1582.37
908.818	1586.66
911.711	1692.21
914.604	1837.81
917.496	2138.99
920.389	2470.4
923.282	2777.77
926.174	2903.95
929.067	2935.32
931.96	2587.84
934.853	2152.51
937.745	1498.74
940.638	891.75
943.531	303.389
946.423	52.4193
949.316	-38.128
952.209	15.0932
955.101	210.832
957.994	686.187
960.887	1395.95
963.78	2251.94
966.672	3023.28
969.565	3929.88
972.458	4964.55
975.35	5957.48
978.243	7100.68
981.136	7751.55
984.029	7727.12
986.921	7148.57
989.814	6009.68
992.707	4596.75
995.599	3266.38
998.492	2043.84
1001.38	1415.63
1004.28	1056.34
1007.17	1117.22
1010.06	1355.19
1012.96	1896.73
1015.85	2742.28
1018.74	3917.95
1021.63	5593.22
1024.53	7534.84
1027.42	9322.25
1030.31	10407
1033.2	10514.1
1036.1	9492.36
1038.99	7678.07
1041.88	5540.64
1044.78	3557.43
1047.67	2043.9
1050.56	1221.83
1053.45	443.838
1056.35	62.9131
1059.24	18.4277
1062.13	29.2383
1065.02	135.66
1067.92	225.527
1070.81	258.06
1073.7	164.165
1076.6	45.2119
1079.49	67.3867
1082.38	16.5166
1085.27	13.2559
1088.17	39.7451
1091.06	146.652
1093.95	196.762
1096.84	253.137
1099.74	210.701
1102.63	233.732
1105.52	299.133
1108.41	292.429
1111.31	224.253
1114.2	189.459
1117.09	184.254
1119.98	101.907
1122.88	12.7451
1125.77	64.3027
1128.66	9.57324
1131.56	17.1143
1134.45	38.626
1137.34	41.9961
1140.23	25.1582
1143.13	22.4019
1146.02	0.490723
1148.91	41.7573
1151.81	83.4863
1154.7	137.73
1157.59	65.7739
1160.48	50.3882
1163.38	14.0928
1166.27	17.6035
1169.16	126.679
1172.05	60.2734
1174.95	89.8252
1177.84	174.557
1180.73	189.583
1183.62	311.647
1186.52	290.264
1189.41	408.68
1192.3	354.094
1195.19	380.327
1198.09	421.706
1200.98	481.544
1203.87	502.25
1206.77	541.51
1209.66	567.426
1212.55	558.92
1215.44	531.03
1218.34	505.794
1221.23	490.954
1224.12	368.781
1227.02	311.532
1229.91	283.112
1232.8	257.758
1235.69	233.558
1238.59	216.15
1241.48	145.419
1244.37	156.122
1247.26	179.225
1250.16	93.5552
1253.05	74.7778
1255.94	72.2598
1258.84	174.801
1261.73	99.7251
1264.62	33.5034
1267.51	120.371
1270.41	108.564
1273.3	75.6162
1276.19	83.791
1279.08	9.09277
1281.98	19.7695
1284.87	34.7559
1287.76	0.400391
