Measurement: Raman, 532 nm, unoriented, Raman Data Processed
Mineral: Graemite
Rruff sample: R100207
Ideal chemistry: Cu^2+^Te^4+^O_3_H_2_O
Locality: Cole shaft, Bisbee, Cochise County, Arizona, USA
Source: Rob Lavinsky/Evan Jones
Description: Green platy, bladed crystals intimately associated with blue teineite, R100206, on cuprite
Raman shift (cm-1)	intensity
165.763	0
168.656	0.108917
171.549	10.842
174.441	16.5806
177.334	11.0206
180.227	16.1168
183.119	32.8748
186.012	48.5206
188.905	75.1751
191.798	107.855
194.69	102.71
197.583	73.3658
200.476	55.701
203.369	45.822
206.261	49.0444
209.154	63.6137
212.047	80.4854
214.939	85.5351
217.832	85.1442
220.725	67.6769
223.617	49.3892
226.51	31.9837
229.403	24.3313
232.296	17.0523
235.188	13.4307
238.081	11.879
240.974	14.803
243.866	19.4471
246.759	20.7488
249.652	12.0986
252.544	11.2839
255.437	12.8469
258.33	18.9396
261.223	26.546
264.115	35.1205
267.008	34.0579
269.901	29.7785
272.793	15.7911
275.686	7.88138
278.579	1.32245
281.471	0.344589
284.364	2.34274
287.257	2.98238
290.15	1.06134
293.042	4.09851
295.935	7.13242
298.828	13.0725
301.72	22.5909
304.613	29.3515
307.506	37.4624
310.399	45.2791
313.291	54.8244
316.184	54.2421
319.077	53.2541
321.969	48.5218
324.862	46.543
327.755	41.5111
330.647	47.9927
333.54	56.9628
336.433	72.9767
339.325	88.9086
342.218	91.7786
345.111	73.102
348.004	53.0921
350.896	36.6858
353.789	29.6732
356.682	17.1799
359.574	6.54985
362.467	1.52077
365.36	3.36473
368.253	3.82817
371.145	0.858932
374.038	0.067825
376.931	1.78729
379.823	1.89232
382.716	0.212341
385.609	1.72336
388.502	0.617523
391.394	3.18813
394.287	5.17348
397.18	8.46762
400.072	11.2082
402.965	11.8628
405.858	22.9267
408.75	30.2143
411.643	42.1408
414.536	57.467
417.428	71.2227
420.321	89.6564
423.214	106.959
426.107	119.75
428.999	127.784
431.892	127.571
434.785	132.417
437.677	155.767
440.57	181.189
443.463	209.62
446.356	233.987
449.248	248.072
452.141	261.002
455.034	260.236
457.926	244.824
460.819	212.435
463.712	171.948
466.604	135.739
469.497	97.6403
472.39	74.0063
475.283	54.9289
478.175	42.0117
481.068	34.9794
483.961	28.9444
486.853	27.4798
489.746	27.6985
492.639	37.3313
495.531	42.4648
498.424	49.2736
501.317	49.523
504.21	47.4565
507.102	45.7595
509.995	45.0496
512.888	39.4309
515.78	36.361
518.673	37.4055
521.566	37.2567
524.458	36.3067
527.351	31.9833
530.244	22.5096
533.137	13.7914
536.029	11.2525
538.922	4.80345
541.815	3.47911
544.707	0.825943
547.6	1.11061
550.493	1.26648
553.386	2.33716
556.278	1.29593
559.171	0.519257
562.064	1.19005
564.956	0.069031
567.849	0.190567
570.742	0.996552
573.635	0.073074
576.527	0.44783
579.42	2.44698
582.313	0.188232
585.205	1.55975
588.098	2.24261
590.991	3.2243
593.883	4.57257
596.776	2.88738
599.669	8.40144
602.562	10.798
605.454	13.0127
608.347	17.9311
611.24	22.9778
614.132	28.3123
617.025	35.1367
619.918	43.6698
622.81	48.8293
625.703	54.7201
628.596	54.7996
631.489	57.706
634.381	62.9847
637.274	66.6986
640.167	68.0949
643.059	63.767
645.952	56.418
648.845	58.0317
651.737	65.2639
654.63	73.1805
657.523	70.1874
660.416	54.9638
663.308	33.0831
666.201	17.4132
669.094	8.74387
671.986	0.342316
674.879	1.62933
677.772	1.49287
680.664	2.03911
683.557	3.43011
686.45	7.68605
689.343	18.7775
692.235	34.4466
695.128	58.3657
698.021	89.7453
700.913	132.854
703.806	179.417
706.699	213.503
709.592	215.05
712.484	195.489
715.377	188.05
718.27	199.402
721.162	226.534
724.055	267.665
726.948	316.112
729.841	391.369
732.733	477.456
735.626	527.418
738.519	466.697
741.411	344.462
744.304	234.578
747.197	163.746
750.089	122.486
752.982	96.036
755.875	79.2641
758.768	68.5807
761.66	60.8556
764.553	47.4869
767.446	28.3818
770.338	21.1049
773.231	12.4746
776.124	7.65391
779.016	4.45721
781.909	2.33215
784.802	2.34027
787.694	1.79079
790.587	0.308807
793.48	0.240982
796.373	0.399353
799.265	2.98871
802.158	0.853043
805.051	0.160385
807.943	0.204742
810.836	0.376266
813.729	0.280273
816.621	0.604202
819.514	1.24211
822.407	2.72484
825.3	1.39726
828.192	2.29114
831.085	3.63411
833.978	2.7085
836.87	2.37032
839.763	5.87248
842.656	4.29602
845.549	3.78828
848.441	4.8947
851.334	5.35973
854.227	4.49451
857.119	3.70053
860.012	4.79535
862.905	3.39134
865.798	5.40125
868.69	5.28871
871.583	3.84937
874.476	4.97298
877.368	2.44006
880.261	3.95216
883.154	3.42435
886.046	2.50049
888.939	2.94113
891.832	3.31258
894.725	1.54153
897.617	3.78252
900.51	2.15056
903.403	2.41248
906.295	3.32455
909.188	2.45575
912.081	1.59886
914.973	2.50027
917.866	1.88878
920.759	0.63472
923.652	2.08414
926.544	3.3553
929.437	1.6545
932.33	1.51506
935.222	0.394196
938.115	1.42809
941.008	0.569687
943.9	2.07846
946.793	3.15901
949.686	1.28954
952.579	0.632156
955.471	2.15369
958.364	0.398468
961.257	2.55609
964.149	3.70395
967.042	2.22815
969.935	6.93045
972.827	0.13176
975.72	2.41162
978.613	1.65018
981.506	2.74063
984.398	1.96201
987.291	2.40756
990.184	1.43657
993.077	3.82312
995.969	3.36804
998.862	3.42477
1001.75	2.24025
1004.65	2.15999
1007.54	0.857986
1010.43	2.091
1013.33	0.454636
1016.22	2.5144
1019.11	0.25061
1022	2.54555
1024.9	1.10352
1027.79	0.300705
1030.68	2.0289
1033.57	3.14461
1036.47	0.6035
1039.36	1.03012
1042.25	2.60284
1045.14	1.4778
1048.04	1.04889
1050.93	3.3645
1053.82	2.53986
1056.72	1.47453
1059.61	3.03536
1062.5	1.55862
1065.39	2.63002
1068.29	0.883255
1071.18	2.84937
1074.07	2.50085
1076.96	3.01518
1079.86	2.16769
1082.75	1.86595
1085.64	2.67416
1088.54	2.32172
1091.43	0.618179
1094.32	0.190811
1097.21	0.33699
1100.11	0.112839
1103	1.5855
1105.89	3.37709
1108.79	0.873291
1111.68	0.464096
1114.57	1.68469
1117.46	1.2292
1120.36	0.255966
1123.25	1.00061
1126.14	1.53003
1129.03	1.88313
1131.93	4.70664
1134.82	1.3598
1137.71	2.71594
1140.6	0.213104
1143.5	1.25438
1146.39	2.69475
1149.28	3.35298
1152.17	1.67928
1155.07	1.5424
1157.96	0.494019
1160.85	1.369
1163.75	2.10077
1166.64	3.34883
1169.53	2.49589
1172.42	0.830902
1175.32	1.56886
1178.21	3.27389
1181.1	0.483017
1183.99	1.55862
1186.89	1.14371
1189.78	1.29594
1192.67	2.32887
1195.57	1.40662
1198.46	0.501617
1201.35	4.64438
1204.24	3.11073
1207.14	0.485016
1210.03	2.35399
1212.92	2.43658
1215.82	0.165649
1218.71	0.850327
1221.6	0.511887
1224.49	3.40157
1227.38	3.00937
1230.28	2.72044
1233.17	2.27234
1236.06	0.675186
1238.96	0.467316
1241.85	3.6962
1244.74	1.02069
1247.63	0.344696
1250.53	2.70732
1253.42	2.75365
1256.31	1.8011
1259.2	0.742203
1262.1	2.69203
1264.99	0.777374
1267.88	1.85756
1270.78	1.75745
1273.67	2.00168
1276.56	2.57887
1279.45	1.47052
1282.35	1.70694
1285.24	0.347443
1288.13	0.524155
1291.03	2.27406
1293.92	0.314575
1296.81	1.83476
1299.7	0.621048
1302.6	0
