Measurement: Raman, 785 nm, unoriented, Raman Data Processed
Mineral: Graftonite
Rruff sample: R070153
Ideal chemistry: (Fe^2+^,Mn^2+^,Ca)_3_(PO_4_)_2_
Locality: Bull Moose mine, Custer, Custer County, South Dakota, USA
Source: James Shigley
Description: Dark brown vitreous massive
Raman shift (cm-1)	intensity
170.968	0
173.86	37.6055
176.753	4.66846
179.646	15.4499
182.538	22.4414
185.431	16.1936
188.324	34.0309
191.217	34.0826
194.109	24.3522
197.002	32.2559
199.895	82.9904
202.787	113.454
205.68	106.173
208.573	132.925
211.465	125.877
214.358	89.3447
217.251	85.1473
220.144	65.8843
223.036	72.3738
225.929	71.2756
228.822	83.2972
231.714	92.7638
234.607	120.972
237.5	176.27
240.393	203.754
243.285	245.487
246.178	275.757
249.071	312.351
251.963	299.057
254.856	275.591
257.749	235.876
260.641	179.626
263.534	132.867
266.427	89.0282
269.32	32.0789
272.212	44.2634
275.105	16.8972
277.998	54.1737
280.89	33.7159
283.783	38.1284
286.676	67.2025
289.568	67.6331
292.461	67.8012
295.354	74.6869
298.247	69.7071
301.139	77.6721
304.032	111.93
306.925	86.4257
309.817	57.6284
312.71	62.3313
315.603	66.3213
318.495	20.369
321.388	0.618774
324.281	2.26941
327.173	9.08948
330.066	1.16199
332.959	6.29907
335.852	21.8491
338.744	14.2959
341.637	14.4486
344.53	38.2604
347.422	23.6918
350.315	32.1364
353.208	48.9904
356.101	11.8849
358.993	22.4807
361.886	19.1679
364.779	13.7229
367.671	16.5454
370.564	12.3569
373.457	3.50647
376.349	17.1869
379.242	13.9607
382.135	33.2386
385.027	62.6877
387.92	82.1221
390.813	114.178
393.706	138.357
396.598	164.818
399.491	246.702
402.384	248.097
405.276	340.145
408.169	416.334
411.062	522.671
413.954	581.908
416.847	599.891
419.74	548.629
422.633	523.849
425.525	448.776
428.418	402.485
431.311	439.145
434.203	472.891
437.096	529.876
439.989	676.45
442.882	807.807
445.774	941.565
448.667	1174.29
451.56	1334.98
454.452	1353.57
457.345	1215.37
460.238	1097.38
463.13	941.547
466.023	800.904
468.916	676.411
471.808	583.148
474.701	482.287
477.594	391.369
480.487	362.853
483.379	235.069
486.272	212.718
489.165	182.413
492.057	143.991
494.95	81.4905
497.843	95.8956
500.735	46.5904
503.628	51.2098
506.521	19.004
509.413	3.93927
512.306	15.6749
515.199	6.14679
518.092	5.27515
520.984	20.3874
523.877	11.6855
526.77	0.461304
529.663	16.5448
532.555	2.79773
535.448	6.80554
538.341	23.8707
541.233	59.0739
544.126	61.9521
547.019	61.7051
549.911	98.1316
552.804	106.322
555.697	113.891
558.589	125.141
561.482	168.319
564.375	193.376
567.268	220.014
570.16	225.512
573.053	272.816
575.946	337.49
578.838	399.394
581.731	559.035
584.624	688.681
587.516	772.746
590.409	794.929
593.302	715.077
596.194	585.832
599.087	364.051
601.98	232.919
604.873	100.321
607.765	65.05
610.658	38.7455
613.551	25.6628
616.443	36.6219
619.336	50.7953
622.229	54.4733
625.121	38.4768
628.014	50.5423
630.907	78.4521
633.8	115.98
636.692	158.427
639.585	235.084
642.478	293.965
645.37	298.337
648.263	193.716
651.156	136.429
654.048	95.902
656.941	82.3081
659.834	17.4051
662.727	20.6066
665.619	37.2353
668.512	0.326782
671.405	6.23193
674.297	14.5715
677.19	13.2131
680.083	5.00067
682.976	26.6743
685.868	1.05762
688.761	6.2981
691.654	14.8368
694.546	20.9167
697.439	8.17352
700.332	35.4622
703.224	32.3571
706.117	0.644287
709.01	15.1715
711.903	10.8469
714.795	11.4883
717.688	30.4044
720.581	26.0284
723.473	22.7935
726.366	9.14667
729.259	8.03528
732.151	22.903
735.044	34.0793
737.937	8.20398
740.83	4.00787
743.722	6.20471
746.615	10.9067
749.508	0.791138
752.4	5.01599
755.293	16.0325
758.186	2.72443
761.078	10.944
763.971	8.99426
766.864	5.13898
769.756	13.8627
772.649	8.68219
775.542	10.9595
778.435	10.1437
781.327	20.5142
784.22	16.1372
787.113	10.054
790.005	7.58282
792.898	19.337
795.791	7.19177
798.683	23.7856
801.576	19.9864
804.469	0.608398
807.362	28.6053
810.254	23.7862
813.147	9.75726
816.04	12.5602
818.932	29.7551
821.825	37.5076
824.718	15.871
827.611	29.7013
830.503	38.6484
833.396	22.3225
836.289	23.607
839.181	18.1673
842.074	22.8477
844.967	15.368
847.859	17.5543
850.752	13.6406
853.645	20.0253
856.538	30.6088
859.43	24.6014
862.323	29.7333
865.216	22.8375
868.108	40.5013
871.001	35.4033
873.894	25.7028
876.786	12.6942
879.679	11.3038
882.572	6.19434
885.465	8.49365
888.357	30.675
891.25	15.759
894.143	18.8198
897.035	12.0691
899.928	8.76233
902.821	23.1899
905.713	13.0175
908.606	0.490601
911.499	28.275
914.391	7.46173
917.284	15.3743
920.177	10.0928
923.07	17.1295
925.962	10.5455
928.855	2.21875
931.748	32.3749
934.64	82.5383
937.533	100.916
940.426	183.676
943.318	325.618
946.211	499.903
949.104	748.376
951.996	1064.63
954.889	1518.82
957.782	2073.28
960.675	2584.86
963.567	3057.14
966.46	3038.32
969.353	2512.76
972.245	1775.27
975.138	1164.79
978.031	792.183
980.923	495.076
983.816	366.396
986.709	281.953
989.602	269.928
992.494	254.518
995.387	253.718
998.28	317.546
1001.17	377.732
1004.07	529.728
1006.96	771.466
1009.85	1059.41
1012.74	1423.17
1015.64	1676.47
1018.53	1752.85
1021.42	1790.26
1024.31	1654.73
1027.21	1414.96
1030.1	1138.68
1032.99	871.714
1035.88	676.44
1038.78	488.684
1041.67	404.137
1044.56	366.747
1047.46	304.469
1050.35	256.482
1053.24	203.542
1056.13	159.721
1059.03	72.0014
1061.92	35.9612
1064.81	34.4804
1067.7	2.06641
1070.6	7.40265
1073.49	15.3877
1076.38	6.12579
1079.28	7.08691
1082.17	7.34405
1085.06	2.01508
1087.95	0.097717
1090.85	43.8934
1093.74	57.0291
1096.63	75.4937
1099.52	111.272
1102.42	177.615
1105.31	206.555
1108.2	269.207
1111.1	309.193
1113.99	315.226
1116.88	243.069
1119.77	219.522
1122.67	159.775
1125.56	126.277
1128.45	87.1828
1131.34	51.5957
1134.24	24.6738
1137.13	27.6526
1140.02	3.90576
1142.91	13.3768
1145.81	12.9645
1148.7	11.3749
1151.59	9.58752
1154.48	20.9688
1157.38	0.639221
1160.27	31.3376
1163.16	22.944
1166.06	13.962
1168.95	19.1004
1171.84	6.80154
1174.73	18.424
1177.63	14.8007
1180.52	35.0872
1183.41	50.0471
1186.31	19.6381
1189.2	32.0073
1192.09	28.227
1194.98	21.4462
1197.88	1.30386
1200.77	46.4489
1203.66	31.5034
1206.55	60.1839
1209.45	39.3972
1212.34	35.3387
1215.23	39.3839
1218.12	12.6451
1221.02	19.9454
1223.91	12.2313
1226.8	29.0152
1229.7	35.5963
1232.59	29.7016
1235.48	2.62659
