Measurement: Raman, 532 nm, unoriented, Raman Data Processed
Mineral: Graftonite
Rruff sample: R070153
Ideal chemistry: (Fe^2+^,Mn^2+^,Ca)_3_(PO_4_)_2_
Locality: Bull Moose mine, Custer, Custer County, South Dakota, USA
Source: James Shigley
Description: Dark brown vitreous massive
Raman shift (cm-1)	intensity
135.236	0
138.611	43.2346
141.986	2.20581
145.361	18.7087
148.735	69.2582
152.11	126.772
155.485	180.692
158.86	160.607
162.235	140.294
165.609	114.255
168.984	87.2809
172.359	114.073
175.734	117.531
179.109	74.7092
182.483	73.6261
185.858	50.8878
189.233	62.6947
192.608	74.3086
195.983	71.693
199.358	77.5957
202.732	66.0795
206.107	78.8749
209.482	98.7517
212.857	82.276
216.232	54.4793
219.607	39.0585
222.981	5.68957
226.356	29.866
229.731	36.6357
233.106	76.0236
236.481	140.624
239.855	198.929
243.23	280.89
246.605	327.376
249.98	319.751
253.355	347.846
256.729	262.281
260.104	156.529
263.479	105.263
266.854	51.0353
270.229	9.09119
273.604	9.19446
276.978	5.29651
280.353	47.3948
283.728	75.1953
287.103	95.7849
290.478	84.6356
293.853	134.156
297.227	195.827
300.602	266.121
303.977	328.142
307.352	291.05
310.727	237.926
314.101	161.421
317.476	127.54
320.851	58.2408
324.226	24.485
327.601	35.9718
330.976	7.53418
334.35	28.0247
337.725	3.55981
341.1	18.5975
344.475	16.5128
347.85	29.6072
351.224	43.1245
354.599	86.7806
357.974	44.2191
361.349	56.6669
364.724	19.0979
368.099	0.285034
371.473	25.1068
374.848	17.5856
378.223	2.36035
381.598	2.57361
384.973	45.5492
388.347	96.9518
391.722	156.534
395.097	205.188
398.472	304.781
401.847	435.992
405.221	640.582
408.596	876.587
411.971	1091.8
415.346	1245.1
418.721	1182.62
422.096	1072.3
425.47	784.708
428.845	685.326
432.22	695.638
435.595	746.361
438.97	851.332
442.344	1110.74
445.719	1457.77
449.094	1722.65
452.469	1975.55
455.844	1947.71
459.219	1745.46
462.593	1524.04
465.968	1304.45
469.343	1089.11
472.718	875.903
476.093	703.409
479.467	589.078
482.842	439.695
486.217	345.687
489.592	251.517
492.967	211.349
496.342	148.191
499.716	85.031
503.091	106.602
506.466	45.6574
509.841	3.87268
513.216	2.22302
516.591	22.5486
519.965	9.74854
523.34	26.3739
526.715	13.016
530.09	33.7531
533.465	42.3023
536.839	70.9446
540.214	79.3495
543.589	154.142
546.964	226.571
550.339	264.186
553.713	295.815
557.088	361.95
560.463	441.375
563.838	520.457
567.213	566.422
570.588	607.12
573.962	772.248
577.337	1023.52
580.712	1391.29
584.087	1797.2
587.462	2033.66
590.837	2003.95
594.211	1800.34
597.586	1292.95
600.961	703.991
604.336	358.722
607.711	191.978
611.085	166.596
614.46	155.262
617.835	144.319
621.21	211.949
624.585	223.292
627.96	219.584
631.334	291.902
634.709	387.836
638.084	582.717
641.459	808.858
644.834	833.176
648.208	559.318
651.583	322.456
654.958	174.79
658.333	93.6953
661.708	41.6506
665.082	31.3506
668.457	7.25037
671.832	17.3558
675.207	16.4369
678.582	20.3386
681.957	18.2628
685.331	7.7533
688.706	4.47681
692.081	27.0413
695.456	24.9851
698.831	2.60144
702.206	7.84644
705.58	4.21509
708.955	13.3275
712.33	33.5981
715.705	26.0171
719.08	46.2627
722.454	20.8781
725.829	43.1709
729.204	33.6398
732.579	15.4963
735.954	5.71021
739.329	35.7668
742.703	23.0466
746.078	32.8426
749.453	25.7615
752.828	12.6118
756.203	18.8438
759.577	34.6473
762.952	1.69702
766.327	29.3914
769.702	29.0973
773.077	17.679
776.452	32.3844
779.826	8.04419
783.201	18.5791
786.576	28.5922
789.951	23.8932
793.326	13.829
796.7	41.1483
800.075	54.3231
803.45	61.4324
806.825	63.8344
810.2	72.9487
813.574	65.8845
816.949	69.3115
820.324	73.7357
823.699	68.072
827.074	93.696
830.449	108.893
833.823	49.584
837.198	56.5288
840.573	80.7799
843.948	44.2384
847.323	55.918
850.697	57.4885
854.072	59.5669
857.447	48.6997
860.822	59.1527
864.197	53.1384
867.572	99.2412
870.946	77.969
874.321	102.031
877.696	59.8616
881.071	43.3326
884.446	85.0758
887.821	84.082
891.195	43.2319
894.57	44.5782
897.945	23.2508
901.32	25.9889
904.695	12.511
908.069	8.2157
911.444	29.6151
914.819	24.1442
918.194	41.0514
921.569	40.7523
924.943	63.7616
928.318	19.2504
931.693	109.542
935.068	204.485
938.443	399.386
941.818	830.302
945.192	1401.89
948.567	2209.68
951.942	3473.06
955.317	5055.96
958.692	7041.52
962.067	8815.98
965.441	9398.43
968.816	7708.49
972.191	4983.68
975.566	3060.36
978.941	1776.15
982.315	1092.02
985.69	767.941
989.065	619.614
992.44	575.048
995.815	655.86
999.189	848.009
1002.56	1240.73
1005.94	2028.57
1009.31	3181.94
1012.69	4500.39
1016.06	5420.23
1019.44	5611.12
1022.81	5250.24
1026.19	4456.55
1029.56	3452.82
1032.94	2553.73
1036.31	1836.23
1039.69	1413.65
1043.06	1218.45
1046.44	1223.76
1049.81	1116.32
1053.19	944.182
1056.56	715.783
1059.94	499.06
1063.31	284.145
1066.69	133.139
1070.06	16.6773
1073.44	70.334
1076.81	75.6667
1080.18	21.3706
1083.56	57.9409
1086.93	13.7002
1090.31	104.605
1093.68	182.885
1097.06	332.959
1100.43	541.496
1103.81	760.806
1107.18	1083.94
1110.56	1293.43
1113.93	1278.97
1117.31	1019.6
1120.68	675.859
1124.06	460.7
1127.43	289.706
1130.81	163.336
1134.18	90.4465
1137.56	45.8555
1140.93	23.5449
1144.31	30.7237
1147.68	20.9717
1151.06	3.20081
1154.43	17.4205
1157.81	14.3458
1161.18	5.63489
1164.56	11.3575
1167.93	2.7915
1171.31	9.12634
1174.68	20.204
1178.06	22.686
1181.43	48.4373
1184.81	90.5189
1188.18	61.8097
1191.55	62.1748
1194.93	64.5306
1198.3	54.702
1201.68	55.2531
1205.05	54.4022
1208.43	67.3822
1211.8	38.0928
1215.18	60.969
1218.55	82.4523
1221.93	41.5699
1225.3	76.0593
1228.68	19.0135
1232.05	49.7239
1235.43	23.7669
1238.8	54.5081
1242.18	13.3005
1245.55	30.05
1248.93	40.0953
1252.3	34.3888
1255.68	28.8359
1259.05	26.9179
1262.42	27.5321
1265.8	32.0459
1269.17	18.2937
1272.55	39.4211
1275.92	53.4477
1279.3	32.7941
1282.67	51.171
1286.05	24.3554
1289.42	14.4988
1292.8	11.2975
1296.17	16.2749
1299.55	1.76782
1302.92	42.158
