Measurement: Raman, 532 nm, unoriented, Raman Data Processed
Mineral: Grandreefite
Rruff sample: R100012
Ideal chemistry: Pb_2_(SO_4_)F_2_
Locality: Grand Reef mine, Klondyke, Aravaipa District, Graham County, Arizona, USA
Source: Natural History Museum of Los Angeles County
Description: Colorless fragments from type specimen, associated with laurelite R100035 and pseudograndreefite R100006.  Photos of type specimen are courtesy of LACMNH.
Raman shift (cm-1)	intensity
119.419	0
122.794	37.7447
126.169	61.0584
129.544	3.07206
132.918	6.30284
136.293	118.16
139.668	274.263
143.043	312.701
146.418	468.956
149.792	736.708
153.167	974.913
156.542	1134.54
159.917	1313.42
163.292	1550.83
166.667	1626.82
170.041	1532.89
173.416	1381.91
176.791	1286.39
180.166	1223.65
183.541	1185.28
186.916	1105.79
190.29	1027.87
193.665	1004.19
197.04	1024.09
200.415	1053.73
203.79	1104.23
207.164	1138.04
210.539	1121.79
213.914	1066.29
217.289	978.255
220.664	865.975
224.038	754.285
227.413	666.439
230.788	587.942
234.163	510.723
237.538	424.696
240.913	339.441
244.287	268.766
247.662	203.043
251.037	173.84
254.412	148.944
257.787	128.348
261.161	101.134
264.536	89.6429
267.911	76.0846
271.286	62.1138
274.661	40.0537
278.036	24.0585
281.41	7.11047
284.785	2.90515
288.16	2.9834
291.535	2.38354
294.91	9.09485
298.284	9.47974
301.659	13.6085
305.034	11.6842
308.409	17.1364
311.784	6.97436
315.159	3.38867
318.533	2.35254
321.908	1.96484
325.283	13.1709
328.658	15.4495
332.033	11.5222
335.408	22.5032
338.782	27.1787
342.157	34.1045
345.532	36.2388
348.907	40.2437
352.281	44.2039
355.656	42.824
359.031	50.5835
362.406	51.2781
365.781	56.2087
369.156	42.228
372.53	28.5095
375.905	23.7436
379.28	24.5584
382.655	26.1643
386.03	25.7752
389.404	26.8992
392.779	19.5947
396.154	18.2371
399.529	12.721
402.904	17.6043
406.279	20.3357
409.653	19.0054
413.028	23.9465
416.403	20.7002
419.778	16.6721
423.153	20.6169
426.527	13.8467
429.902	20.135
433.277	45.291
436.652	152.78
440.027	200.209
443.402	286.113
446.776	556.678
450.151	1012.16
453.526	909.194
456.901	480.567
460.276	646.435
463.651	1061.22
467.025	1397.09
470.4	895.871
473.775	330.683
477.15	141.217
480.525	73.7144
483.899	35.314
487.274	26.6948
490.649	13.7012
494.024	3.11304
497.399	3.31787
500.774	7.91919
504.148	13.3467
507.523	5.43896
510.898	3.76001
514.273	1.07324
517.648	0.933594
521.022	0.348633
524.397	2.96362
527.772	9.67041
531.147	0.144287
534.522	3.5061
537.896	7.47095
541.271	1.77588
544.646	2.00562
548.021	4.65942
551.396	6.177
554.771	3.37671
558.145	4.20752
561.52	12.4412
564.895	27.5649
568.27	33.3071
571.645	72.3581
575.019	116.544
578.394	183.209
581.769	308.768
585.144	448.494
588.519	374.698
591.894	132.552
595.268	65.7988
598.643	48.3069
602.018	34.5832
605.393	41.1826
608.768	83.9314
612.142	141.721
615.517	183.219
618.892	355.561
622.267	531.923
625.642	484.006
629.016	89.2375
632.391	20.2214
635.766	2.81714
639.141	3.68359
642.516	0.432129
645.891	1.33057
649.265	6.33789
652.64	8.01001
656.015	14.6521
659.39	10.5124
662.765	11.1165
666.139	0.597412
669.514	7.92383
672.889	3.61377
676.264	3.10742
679.639	0.630127
683.014	8.05615
686.388	4.05664
689.763	1.34228
693.138	5.65796
696.513	7.55542
699.888	9.8606
703.263	0.793701
706.637	3.62256
710.012	18.281
713.387	12.2566
716.762	10.615
720.136	3.56348
723.511	4.01221
726.886	8.71851
730.261	16.9043
733.636	14.1335
737.011	11.9321
740.385	3.52856
743.76	6.34155
747.135	14.8359
750.51	17.551
753.885	3.54297
757.26	1.95019
760.634	2.65576
764.009	7.03833
767.384	7.46484
770.759	0.973633
774.134	3.05029
777.508	5.77295
780.883	4.2561
784.258	6.99609
787.633	0.030518
791.008	18.553
794.383	7.3772
797.757	0.155762
801.132	11.6953
804.507	7.52881
807.882	9.50732
811.257	5.87964
814.631	7.39111
818.006	8.48877
821.381	6.19067
824.756	2.24146
828.131	1.08667
831.505	6.14429
834.88	3.29199
838.255	6.11133
841.63	9.91284
845.005	2.7395
848.38	11.2422
851.754	15.5154
855.129	15.9499
858.504	24.6948
861.879	25.5207
865.254	16.7146
868.629	14.0049
872.003	21.7605
875.378	17.3518
878.753	17.4653
882.128	11.8848
885.503	3.30029
888.877	5.62109
892.252	2.61938
895.627	13.165
899.002	9.29443
902.377	0.529053
905.751	0.768555
909.126	0.871094
912.501	1.61987
915.876	0.434082
919.251	3.59204
922.625	2.02588
926	8.80664
929.375	5.5459
932.75	8.31934
936.125	10.5535
939.5	24.926
942.875	42.6882
946.249	68.7395
949.624	88.6814
952.999	159.721
956.374	256.953
959.749	479.36
963.123	1073.52
966.498	2181.61
969.873	3694.34
973.248	6616.4
976.623	8842.11
979.997	4852.4
983.372	1784.84
986.747	819.83
990.122	439.589
993.497	257.342
996.871	144.289
1000.25	86.1362
1003.62	55.1892
1007	37.438
1010.37	20.561
1013.75	6.9856
1017.12	3.7749
1020.5	4.64844
1023.87	12.6047
1027.24	14.3105
1030.62	4.67651
1033.99	3.05566
1037.37	29.9033
1040.74	48.2905
1044.12	105.189
1047.49	193.307
1050.87	265.496
1054.24	329.957
1057.62	336.127
1060.99	347.489
1064.37	456.336
1067.74	636.31
1071.12	925.495
1074.49	1236.38
1077.87	1537.43
1081.24	1571.28
1084.62	1358.86
1087.99	1068.48
1091.37	840.944
1094.74	746.025
1098.12	745.864
1101.49	868.013
1104.87	1083.15
1108.24	1377.36
1111.62	1639.2
1114.99	1615.39
1118.37	1214.72
1121.74	730.1
1125.12	401.015
1128.49	231.368
1131.86	132.78
1135.24	87.1448
1138.61	50.9297
1141.99	32.053
1145.36	11.7317
1148.74	16.3262
1152.11	7.33301
1155.49	13.5093
1158.86	8.8999
1162.24	1.87573
1165.61	6.17529
1168.99	2.23071
1172.36	7.56421
1175.74	0.196289
1179.11	7.12329
1182.49	0.414063
1185.86	10.0708
1189.24	2.25464
1192.61	5.26807
1195.99	6.4231
1199.36	15.4475
1202.73	1.28564
1206.11	0.698242
1209.48	6.76562
1212.86	7.64258
1216.23	15.2935
1219.61	15.2817
1222.98	12.6999
1226.36	20.7471
1229.73	17.3301
1233.11	23.6724
1236.48	28.4585
1239.86	24.179
1243.23	32.167
1246.61	42.543
1249.98	59.2544
1253.36	55.3259
1256.73	33.1226
1260.11	23.4507
1263.48	18.2107
1266.86	14.5884
1270.23	20.6741
1273.61	9.68555
1276.98	11.0051
1280.36	0.800537
1283.73	1.79199
1287.11	0.960938
1290.48	7.59009
1293.86	13.2563
1297.23	4.16455
1300.61	12.1448
