Measurement: Raman, 532 nm, unoriented, Raman Data Processed
Mineral: Grandidierite
Rruff sample: R050196
Ideal chemistry: MgAl_3_O_2_(BO_3_)SiO_4_
Locality: Madagascar
Source: Marcus Origlieri
Description: Aggregate of anhedral blue-green crystals
Measured chemistry: (Mg_0.829_Fe^2+^_0.169_Mn_0.002_)Al_3_(BO_3_)(SiO_4_)O_2_
Raman shift (cm-1)	intensity
144.88	0
148.255	6.36169
151.629	23.0041
155.004	43.4194
158.379	103.144
161.754	179.414
165.129	34.1842
168.504	9.96234
171.878	15.5295
175.253	9.6629
178.628	9.47729
182.003	9.21521
185.377	6.50665
188.752	2.74908
192.127	2.79102
195.502	3.86133
198.877	1.9184
202.252	10.1134
205.626	21.1693
209.001	32.54
212.376	47.1424
215.751	50.4934
219.126	55.1256
222.5	62.1407
225.875	71.3882
229.25	76.5408
232.625	63.6949
236	49.3384
239.375	57.8657
242.749	70.1868
246.124	34.3383
249.499	21.2428
252.874	21.8605
256.249	26.3049
259.623	36.3997
262.998	48.2518
266.373	62.8841
269.748	68.6237
273.123	45.2925
276.498	30.1714
279.872	20.1019
283.247	9.30273
286.622	1.27118
289.997	0.79718
293.372	2.08514
296.747	0.993164
300.121	9.17657
303.496	12.1547
306.871	11.6107
310.246	13.7855
313.62	2.06836
316.995	1.72101
320.37	2.45477
323.745	7.24872
327.12	19.2892
330.495	27.6633
333.869	43.3943
337.244	70.6201
340.619	136.644
343.994	169.755
347.369	55.4668
350.743	22.6628
354.118	18.7758
357.493	29.693
360.868	52.3055
364.243	50.7182
367.618	26.5917
370.992	28.0584
374.367	44.6835
377.742	35.1622
381.117	8.09467
384.492	2.38989
387.866	3.31476
391.241	1.71259
394.616	1.341
397.991	3.31172
401.366	7.25385
404.741	12.0869
408.115	26.6464
411.49	31.6166
414.865	42.5051
418.24	76.2123
421.615	140.618
424.99	189.718
428.364	102.455
431.739	61.7629
435.114	61.3138
438.489	86.4776
441.864	113.396
445.238	64.6034
448.613	19.3944
451.988	10.1027
455.363	5.99475
458.738	3.09021
462.113	6.48621
465.487	10.5831
468.862	17.1399
472.237	25.6315
475.612	38.5932
478.986	38.1295
482.361	42.2226
485.736	59.0397
489.111	80.2351
492.486	56.2935
495.861	25.4608
499.235	10.3095
502.61	5.55536
505.985	5.59509
509.36	12.2349
512.735	11.3273
516.11	5.99756
519.484	2.22803
522.859	3.40167
526.234	1.49744
529.609	1.98157
532.984	7.01953
536.358	14.7526
539.733	19.6279
543.108	20.4354
546.483	30.7728
549.858	34.4958
553.232	32.0383
556.607	31.2209
559.982	38.712
563.357	56.3763
566.732	77.24
570.107	116.65
573.481	177.454
576.856	231.634
580.231	189.67
583.606	100.922
586.981	47.7042
590.356	25.4011
593.73	15.5716
597.105	10.9612
600.48	10.4497
603.855	10.5075
607.23	13.1282
610.604	15.7329
613.979	17.2178
617.354	14.7758
620.729	9.09045
624.104	1.17834
627.479	0.330383
630.853	3.39087
634.228	1.02032
637.603	0.29303
640.978	6.25629
644.352	14.3484
647.727	29.2834
651.102	49.7656
654.477	91.5068
657.852	140.542
661.227	128.643
664.601	49.527
667.976	12.6238
671.351	3.08478
674.726	2.93475
678.101	5.03149
681.476	8.03546
684.85	18.1877
688.225	10.8258
691.6	5.15759
694.975	1.24072
698.35	1.09448
701.724	3.03918
705.099	9.1402
708.474	10.0261
711.849	18.3954
715.224	21.1602
718.598	16.43
721.973	12.2418
725.348	6.37646
728.723	2.20416
732.098	4.15991
735.472	8.28021
738.847	13.436
742.222	18.4847
745.597	16.8871
748.972	8.89771
752.347	9.66095
755.721	5.70874
759.096	9.93713
762.471	14.9885
765.846	11.7264
769.221	7.89215
772.596	7.30719
775.97	6.60529
779.345	0.405884
782.72	1.0072
786.095	0.901855
789.47	0.357362
792.844	0.617523
796.219	0.002441
799.594	0.478524
802.969	0.760626
806.344	0.923706
809.718	0.843445
813.093	0.508118
816.468	0.0237111
819.843	0.635376
823.218	1.82666
826.593	-0.0424416
829.967	1.62732
833.342	2.31628
836.717	4.0553
840.092	6.20117
843.467	7.60126
846.841	12.174
850.216	24.3695
853.591	40.8436
856.966	62.4862
860.341	97.4818
863.716	129.945
867.09	114.525
870.465	65.9917
873.84	40.1576
877.215	23.0294
880.59	14.9954
883.965	13.9719
887.339	11.3691
890.714	7.15942
894.089	4.41348
897.464	4.66637
900.839	3.10946
904.213	2.38282
907.588	0.319946
910.963	0.493286
914.338	2.8042
917.713	1.08435
921.087	1.21558
924.462	4.77417
927.837	13.6132
931.212	21.3922
934.587	41.8542
937.962	67.4925
941.336	110.705
944.711	165.658
948.086	199.871
951.461	181.22
954.836	127.994
958.21	81.2022
961.585	51.6278
964.96	41.5976
968.335	40.5408
971.71	50.5005
975.085	56.4524
978.459	65.8103
981.834	65.6289
985.209	59.0119
988.584	53.9613
991.959	54.1387
995.333	42.3237
998.708	26.1679
1002.08	15.4194
1005.46	8.48602
1008.83	4.0755
1012.21	5.43628
1015.58	4.2132
1018.96	5.63715
1022.33	7.07227
1025.71	11.9306
1029.08	16.3908
1032.46	23.1014
1035.83	26.6436
1039.21	29.9406
1042.58	30.7845
1045.96	29.1277
1049.33	26.6688
1052.7	16.8746
1056.08	12.3932
1059.45	9.05029
1062.83	3.97925
1066.2	1.67542
1069.58	0.157471
1072.95	0.134766
1076.33	1.57855
1079.7	1.51599
1083.08	0.157715
1086.45	1.78033
1089.83	1.92108
1093.2	2.48743
1096.58	3.06451
1099.95	0.581299
1103.33	1.10809
1106.7	1.89813
1110.08	3.19574
1113.45	0.757263
1116.83	2.06909
1120.2	4.22308
1123.58	3.00372
1126.95	2.151
1130.33	0.79303
1133.7	1.27673
1137.08	2.0318
1140.45	2.91803
1143.83	2.36621
1147.2	3.10583
1150.58	3.21143
1153.95	2.80908
1157.33	2.98236
1160.7	4.05432
1164.07	1.73926
1167.45	3.73523
1170.82	3.34082
1174.2	4.30157
1177.57	1.88177
1180.95	0.190979
1184.32	4.73181
1187.7	3.99091
1191.07	5.69318
1194.45	1.77698
1197.82	2.94067
1201.2	0.324707
1204.57	3.02033
1207.95	5.46191
1211.32	1.10248
1214.7	4.51154
1218.07	3.15271
1221.45	5.664
1224.82	6.41119
1228.2	6.91412
1231.57	4.71448
1234.94	0.349121
1238.32	0.31189
1241.69	1.99988
1245.07	2.15967
1248.44	1.44415
1251.82	2.32068
1255.19	2.74207
1258.57	1.34448
1261.94	3.37384
1265.32	6.8526
1268.69	2.2796
1272.07	3.14081
1275.44	2.13171
1278.82	3.07599
1282.19	1.18109
1285.57	1.51215
1288.94	1.29578
1292.32	3.53485
1295.69	1.84436
1299.07	0.197388
1302.44	2.23865
