Measurement: Raman, 780 nm, unoriented, Raman Data Processed
Mineral: Grandidierite
Rruff sample: R050196
Ideal chemistry: MgAl_3_O_2_(BO_3_)SiO_4_
Locality: Madagascar
Source: Marcus Origlieri
Description: Aggregate of anhedral blue-green crystals
Measured chemistry: (Mg_0.829_Fe^2+^_0.169_Mn_0.002_)Al_3_(BO_3_)(SiO_4_)O_2_
Raman shift (cm-1)	intensity
145.034	0
147.927	8.46988
150.82	28.0977
153.713	54.2957
156.605	99.584
159.498	195.631
162.391	102.19
165.283	22.3679
168.176	5.53418
171.069	1.78461
173.961	0.890594
176.854	0.60675
179.747	0.080383
182.639	2.62921
185.532	0.676666
188.425	2.5484
191.318	4.64932
194.21	10.5089
197.103	17.5064
199.996	26.2522
202.888	34.9231
205.781	46.1527
208.674	55.66
211.566	65.0861
214.459	73.4667
217.352	83.3588
220.245	88.5357
223.137	94.0118
226.03	97.423
228.923	90.6567
231.815	63.7453
234.708	40.3597
237.601	30.2912
240.494	30.3664
243.386	21.4275
246.279	11.6312
249.172	10.9732
252.064	11.0381
254.957	10.4926
257.85	11.0295
260.742	12.2848
263.635	11.5727
266.528	9.88028
269.42	6.60205
272.313	5.03049
275.206	0.820496
278.099	1.36612
280.991	0.262085
283.884	0.367798
286.777	0.083771
289.669	0.252075
292.562	1.42773
295.455	0.66571
298.347	1.92581
301.24	3.16183
304.133	3.23776
307.026	3.88989
309.918	6.0712
312.811	5.82321
315.704	7.5361
318.596	7.41132
321.489	8.64099
324.382	10.3674
327.274	13.0337
330.167	15.9408
333.06	19.9339
335.952	31.7974
338.845	46.1243
341.738	59.9469
344.631	38.5831
347.523	18.0218
350.416	16.177
353.309	18.3922
356.201	28.8017
359.094	47.2086
361.987	69.596
364.88	40.4028
367.772	12.3661
370.665	8.56732
373.558	5.95145
376.45	1.74219
379.343	0.241333
382.236	2.44891
385.128	0.876617
388.021	0.049622
390.914	2.73611
393.807	5.18225
396.699	4.9064
399.592	7.09229
402.485	10.2143
405.377	15.3946
408.27	15.9068
411.163	9.69186
414.055	11.7138
416.948	18.6274
419.841	32.0903
422.733	50.4649
425.626	46.4547
428.519	33.5732
431.412	28.728
434.304	26.2732
437.197	25.6542
440.09	27.313
442.982	24.0663
445.875	24.0417
448.768	22.4731
451.661	22.0856
454.553	20.3119
457.446	21.004
460.339	20.2443
463.231	20.2857
466.124	22.1088
469.017	25.604
471.909	32.3657
474.802	34.3432
477.695	41.3432
480.587	47.601
483.48	63.6855
486.373	83.9131
489.266	85.781
492.158	54.6706
495.051	31.0035
497.944	18.6145
500.836	8.11768
503.729	2.24457
506.622	0.084045
509.514	1.22174
512.407	0.513306
515.3	3.11789
518.193	0.352203
521.085	2.65491
523.978	4.46799
526.871	7.79108
529.763	7.64484
532.656	10.7483
535.549	11.1601
538.442	9.07931
541.334	6.68237
544.227	9.25821
547.12	6.98575
550.012	5.7858
552.905	4.75089
555.798	5.92438
558.69	6.47494
561.583	7.14999
564.476	7.91589
567.369	7.74618
570.261	9.0238
573.154	11.4486
576.047	12.2312
578.939	11.5092
581.832	7.57745
584.725	4.9303
587.617	6.17172
590.51	4.86508
593.403	5.50195
596.295	4.08807
599.188	4.06738
602.081	3.76251
604.973	6.52875
607.866	6.75186
610.759	7.08554
613.652	8.93234
616.544	8.89002
619.437	6.06714
622.33	3.6116
625.222	0.651215
628.115	0.906342
631.008	1.44971
633.9	0.151917
636.793	2.82269
639.686	5.75723
642.579	14.324
645.471	20.5926
648.364	27.8496
651.257	38.7853
654.149	58.9153
657.042	81.9624
659.935	75.6657
662.827	34.8633
665.72	11.4901
668.613	4.30045
671.506	1.11066
674.398	0.367126
677.291	2.52716
680.184	5.95502
683.076	14.5654
685.969	13.1839
688.862	2.08316
691.755	0.864227
694.647	1.03177
697.54	2.91446
700.433	7.73575
703.325	13.7994
706.218	22.6088
709.111	28.6927
712.003	39.381
714.896	35.1299
717.789	27.8536
720.682	19.5336
723.574	11.683
726.467	9.35941
729.36	8.04738
732.252	7.46228
735.145	9.18639
738.038	9.49857
740.93	12.4472
743.823	11.6699
746.716	8.00397
749.609	5.57224
752.501	6.0871
755.394	4.67651
758.287	4.58577
761.179	4.19835
764.072	4.05449
766.965	1.51537
769.857	1.18614
772.75	0.31369
775.643	1.90764
778.535	0.037064
781.428	0.259476
784.321	0.42511
787.214	0.166183
790.106	1.14781
792.999	0.270645
795.892	0.091751
798.784	0.112274
801.677	0.638504
804.57	0.91011
807.462	0.73613
810.355	0.483582
813.248	0.982361
816.141	1.00446
819.033	1.88173
821.926	2.35603
824.819	3.44353
827.711	3.28728
830.604	4.22809
833.497	4.24902
836.389	4.58112
839.282	4.49371
842.175	6.19721
845.068	7.67029
847.96	10.4961
850.853	13.9026
853.746	20.2884
856.638	24.9509
859.531	32.9723
862.424	40.2331
865.317	39.7017
868.209	28.6916
871.102	19.9724
873.995	14.3807
876.887	12.5409
879.78	10.296
882.673	9.08362
885.565	7.26756
888.458	5.01701
891.351	5.6581
894.243	3.93413
897.136	2.91612
900.029	1.56667
902.922	0.28009
905.814	0.362656
908.707	0.710663
911.6	0.686661
914.492	0.771606
917.385	0.515045
920.278	0.989777
923.17	1.17255
926.063	3.70363
928.956	9.20383
931.848	13.6404
934.741	21.9875
937.634	30.7833
940.527	39.5396
943.419	50.4404
946.312	56.8943
949.205	55.4482
952.097	45.5541
954.99	35.447
957.883	28.2037
960.775	26.0968
963.668	25.7087
966.561	27.3674
969.454	30.9886
972.346	33.8436
975.239	36.2269
978.132	39.7901
981.024	44.1282
983.917	45.7725
986.81	51.1604
989.702	55.2527
992.595	51.4757
995.488	40.8233
998.381	26.5432
1001.27	15.6156
1004.17	9.71924
1007.06	7.11798
1009.95	5.68892
1012.84	3.24446
1015.74	3.1021
1018.63	3.34244
1021.52	4.84938
1024.41	6.40144
1027.31	8.68919
1030.2	10.5631
1033.09	15.1694
1035.99	16.1854
1038.88	16.9991
1041.77	16.5936
1044.66	15.2745
1047.56	11.6748
1050.45	8.7179
1053.34	6.74345
1056.23	4.92595
1059.13	3.90689
1062.02	2.4738
1064.91	2.54393
1067.81	1.04964
1070.7	0.250031
1073.59	0.189362
1076.48	1.08672
1079.38	1.07175
1082.27	0.140945
1085.16	0.309921
1088.05	0.204575
1090.95	0.312134
1093.84	0.686691
1096.73	0.457596
1099.62	0.318268
1102.52	0.019318
1105.41	0.221359
1108.3	0.481522
1111.2	0.281342
1114.09	0.958405
1116.98	0.577362
1119.87	0.183441
1122.77	1.64237
1125.66	1.50917
1128.55	1.54587
1131.44	2.97574
1134.34	2.10114
1137.23	1.87814
1140.12	3.07687
1143.02	2.93709
1145.91	3.02333
1148.8	2.00694
1151.69	4.06601
1154.59	2.02733
1157.48	2.95462
1160.37	3.20876
1163.26	1.23373
1166.16	1.2298
1169.05	2.51837
1171.94	2.79849
1174.84	3.33095
1177.73	1.38728
1180.62	2.56636
1183.51	1.4099
1186.41	2.99065
1189.3	2.27052
1192.19	2.06947
1195.08	1.96156
1197.98	2.0092
1200.87	2.18085
1203.76	1.94347
1206.65	1.07596
1209.55	1.49072
1212.44	1.68916
1215.33	1.94363
1218.23	2.56297
1221.12	0.242889
1224.01	0.916031
1226.9	0.59993
1229.8	0.435928
1232.69	0.372009
1235.58	1.71013
1238.47	1.32899
1241.37	1.41325
1244.26	1.29781
1247.15	0.252594
1250.05	0.651749
1252.94	0.108627
1255.83	1.66115
1258.72	1.14978
1261.62	1.59605
1264.51	0.996475
1267.4	0.722153
1270.29	1.05121
1273.19	0.38858
1276.08	0.602615
1278.97	0.065964
1281.87	0.776154
1284.76	1.47258
