Measurement: Raman, 780 nm, unoriented, Raman Data Processed
Mineral: Grandreefite
Rruff sample: R100012
Ideal chemistry: Pb_2_(SO_4_)F_2_
Locality: Grand Reef mine, Klondyke, Aravaipa District, Graham County, Arizona, USA
Source: Natural History Museum of Los Angeles County
Description: Colorless fragments from type specimen, associated with laurelite R100035 and pseudograndreefite R100006.  Photos of type specimen are courtesy of LACMNH.
Raman shift (cm-1)	intensity
92.4974	0
95.8722	340.471
99.2471	313.524
102.622	101.799
105.997	11.669
109.371	1.91797
112.746	98.175
116.121	159.864
119.496	173.436
122.871	209.005
126.246	229.642
129.62	298.219
132.995	472.635
136.37	614.784
139.745	366.918
143.12	78.3352
146.494	13.5945
149.869	13.0918
153.244	35.5876
156.619	87.9722
159.994	128.594
163.369	156.267
166.743	126.434
170.118	88.0669
173.493	48.7949
176.868	55.8843
180.243	71.8728
183.618	108.817
186.992	139.959
190.367	190.686
193.742	271.301
197.117	365.471
200.492	459.826
203.866	558.728
207.241	614.836
210.616	597.571
213.991	515.716
217.366	436.358
220.74	338.786
224.115	278.691
227.49	231.992
230.865	195.463
234.24	161.537
237.615	127.63
240.989	78.5727
244.364	39.6797
247.739	32.0147
251.114	7.23779
254.489	1.8894
257.863	0.809326
261.238	7.57739
264.613	12.1763
267.988	8.79956
271.363	5.93384
274.738	3.39038
278.112	1.67383
281.487	1.7168
284.862	7.4397
288.237	4.66602
291.612	1.95874
294.986	2.6167
298.361	2.47273
301.736	5.06348
305.111	3.97412
308.486	12.4463
311.861	10.4187
315.235	10.6843
318.61	17.2205
321.985	12.186
325.36	19.5752
328.735	19.0737
332.109	19.1323
335.484	23.5178
338.859	26.8643
342.234	29.0469
345.609	18.1868
348.984	15.8079
352.358	18.9446
355.733	15.4351
359.108	18.8425
362.483	16.595
365.858	17.1575
369.233	15.7866
372.607	13.3235
375.982	5.23999
379.357	3.42334
382.732	0.231201
386.106	2.03491
389.481	7.10059
392.856	1.44019
396.231	5.14502
399.606	2.13037
402.981	4.25439
406.355	9.43042
409.73	2.12964
413.105	2.03979
416.48	4.33301
419.855	6.05835
423.229	13.5542
426.604	10.1206
429.979	21.9153
433.354	44.3657
436.729	63.3799
440.104	77.2932
443.478	132.044
446.853	256.607
450.228	469.726
453.603	282.969
456.978	212.082
460.353	311.758
463.727	505.388
467.102	570.872
470.477	300.176
473.852	119.259
477.227	64.9095
480.601	37.011
483.976	30.3264
487.351	23.291
490.726	18.7794
494.101	17.8301
497.476	15.2064
500.85	12.6536
504.225	13.8961
507.6	2.96985
510.975	8.3346
514.35	3.28601
517.724	5.12842
521.099	7.12744
524.474	0.273438
527.849	3.93237
531.224	3.07458
534.598	8.04346
537.973	1.70459
541.348	2.70862
544.723	1.72241
548.098	2.54065
551.472	10.0299
554.847	9.45996
558.222	11.8107
561.597	17.6245
564.972	11.0649
568.347	19.4458
571.721	38.5314
575.096	56.8682
578.471	79.1106
581.846	144.162
585.221	203.695
588.596	110.685
591.97	41.2103
595.345	24.3231
598.72	21.4716
602.095	28.0825
605.47	43.8323
608.845	87.6783
612.219	100.788
615.594	148.496
618.969	261.572
622.344	433.717
625.719	215.006
629.093	39.7588
632.468	13.7124
635.843	13.0801
639.218	3.66455
642.593	9.72729
645.967	8.53809
649.342	1.82764
652.717	1.64941
656.092	0.571167
659.467	1.85254
662.842	2.07678
666.216	0.860474
669.591	3.07752
672.966	6.46997
676.341	1.21423
679.716	9.80627
683.091	9.10535
686.465	3.74316
689.84	4.77686
693.215	8.14758
696.59	3.68164
699.965	5.03027
703.339	5.00561
706.714	3.9331
710.089	4.40918
713.464	5.08386
716.839	4.73608
720.213	9.41321
723.588	1.08606
726.963	3.46069
730.338	1.65759
733.713	3.98706
737.087	1.81982
740.462	3.11621
743.837	1.64648
747.212	10.3209
750.587	1.76123
753.962	1.54163
757.336	2.44345
760.711	2.0321
764.086	3.46936
767.461	8.48157
770.836	3.38977
774.211	0.810913
777.585	2.53442
780.96	3.65442
784.335	1.36951
787.71	1.50586
791.085	7.13196
794.459	7.92835
797.834	6.63159
801.209	9.60486
804.584	4.28955
807.959	8.11279
811.333	7.86487
814.708	3.26172
818.083	9.31287
821.458	5.67163
824.833	4.51843
828.208	7.83923
831.582	12.0754
834.957	10.9801
838.332	5.04675
841.707	14.4276
845.082	11.8521
848.457	11.752
851.831	19.5033
855.206	13.9322
858.581	21.7587
861.956	14.4467
865.331	13.9888
868.705	16.4737
872.08	16.7181
875.455	16.1294
878.83	11.6161
882.205	10.0973
885.58	19.3644
888.954	5.54736
892.329	9.46887
895.704	2.30847
899.079	3.63538
902.454	6.11963
905.828	0.341064
909.203	3.74768
912.578	3.42322
915.953	3.83008
919.328	11.9322
922.702	4.4353
926.077	3.68018
929.452	2.20624
932.827	6.84741
936.202	10.2399
939.577	9.78894
942.951	12.9404
946.326	19.0526
949.701	38.6017
953.076	57.7351
956.451	107.856
959.825	234.976
963.2	531.486
966.575	876.01
969.95	1442.75
973.325	2496.34
976.699	2613.75
980.074	1127.74
983.449	445.845
986.824	212.461
990.199	120.779
993.574	68.6679
996.948	36.5981
1000.32	24.3799
1003.7	10.1836
1007.07	0.457397
1010.45	4.06213
1013.82	2.08325
1017.2	3.80603
1020.57	0.931396
1023.95	0.719849
1027.32	5.81067
1030.7	16.2122
1034.07	20.0685
1037.45	39.8735
1040.82	68.2192
1044.2	107.823
1047.57	156.833
1050.94	197.804
1054.32	221.71
1057.69	217.421
1061.07	239.751
1064.44	295.793
1067.82	404.12
1071.19	555.375
1074.57	712.064
1077.94	795.577
1081.32	761.768
1084.69	622.732
1088.07	473.224
1091.44	362.102
1094.82	323.891
1098.19	311.983
1101.57	360.035
1104.94	437.784
1108.32	541.86
1111.69	609.593
1115.07	542.53
1118.44	366.101
1121.82	213.343
1125.19	120.864
1128.57	72.9165
1131.94	36.1517
1135.32	20.4208
1138.69	10.8701
1142.07	5.24915
1145.44	3.69019
1148.82	3.12988
1152.19	1.16785
1155.57	1.01269
1158.94	1.88281
1162.31	0.21582
1165.69	0.759155
1169.06	4.55444
1172.44	4.26416
1175.81	4.8772
1179.19	3.7301
1182.56	2.53735
1185.94	5.42896
1189.31	8.03796
1192.69	7.60852
1196.06	4.54993
1199.44	6.91077
1202.81	0.646484
1206.19	5.35925
1209.56	3.60571
1212.94	4.81067
1216.31	8.07336
1219.69	0.644653
1223.06	2.13147
1226.44	10.0812
1229.81	7.24072
1233.19	8.73023
1236.56	8.27368
1239.93	20.6827
1243.31	6.29407
1246.68	14.456
1250.06	9.78198
1253.43	5.37036
1256.81	4.8219
1260.18	5.755
1263.56	7.14246
1266.93	5.59619
1270.31	3.05042
1273.68	2.47852
1277.06	7.12268
1280.43	2.12866
1283.81	6.15234
