Measurement: Raman, 532 nm, unoriented, Raman Data Processed
Mineral: Graphite
Rruff sample: R050503
Ideal chemistry: C
Locality: Sterling mine, Ogdensburg, New Jersey, USA
Source: Marcus Origlieri
Description: Black hexagonal platy crystals
Raman shift (cm-1)	intensity
161.135	0
165.474	0.07478
169.813	1.55282
174.152	0.362844
178.491	0.087419
182.83	0.605426
187.169	1.34104
191.508	1.00748
195.847	0.387967
200.186	0.88914
204.525	1.02882
208.864	0.967311
213.203	1.19799
217.542	1.05857
221.882	1.88908
226.221	0.579027
230.56	0.574282
234.899	0.102422
239.238	0.45295
243.577	0.82025
247.916	1.5741
252.255	1.4074
256.594	0.315012
260.933	1.85107
265.272	0.983541
269.611	1.47843
273.95	1.14297
278.289	1.55315
282.628	0.634928
286.967	0.171646
291.306	1.30013
295.645	1.32699
299.985	0.018941
304.324	1.43259
308.663	0.338138
313.002	0.755926
317.341	0.462837
321.68	0.891247
326.019	1.28
330.358	0.960754
334.697	0.396763
339.036	2.01933
343.375	0.820598
347.714	0.695388
352.053	1.31939
356.392	0.426351
360.731	0.739908
365.07	1.24265
369.409	1.125
373.748	0.959437
378.087	0.434566
382.426	0.978512
386.765	0.161328
391.105	0.746325
395.444	0.342772
399.783	1.75344
404.122	0.207931
408.461	0.400631
412.8	0.781792
417.139	0.085035
421.478	0.996511
425.817	1.10522
430.156	0.768464
434.495	1.46361
438.834	0.566225
443.173	0.883396
447.512	1.28804
451.851	0.430443
456.19	0.734941
460.529	1.1439
464.868	0.503455
469.207	1.33357
473.547	0.215579
477.886	0.057492
482.225	0.580951
486.564	1.53161
490.903	1.77449
495.242	0.602629
499.581	1.06145
503.92	0.476517
508.259	0.69242
512.598	0.499716
516.937	0.704435
521.276	0.461323
525.615	0.026572
529.954	0.346565
534.293	1.22743
538.632	0.391092
542.971	0.473648
547.31	0.473708
551.649	0.730557
555.989	0.416465
560.328	0.437171
564.667	0.946121
569.006	0.857306
573.345	1.08335
577.684	0.894779
582.023	0.467001
586.362	0.71618
590.701	0.304963
595.04	0.521134
599.379	0.895147
603.718	0.775507
608.057	0.611659
612.396	0.153916
616.735	0.00575
621.074	0.470448
625.413	0.161864
629.752	0.481321
634.091	0.865382
638.431	0.955774
642.77	0.970955
647.109	0.884376
651.448	0.532424
655.787	1.53583
660.126	0.969678
664.465	0.505515
668.804	0.743035
673.143	0.396697
677.482	0.529924
681.821	0.899899
686.16	0.32781
690.499	0.545289
694.838	0.51425
699.177	0.318769
703.516	0.699173
707.855	0.72305
712.194	0.920254
716.533	0.33775
720.872	0.194398
725.212	0.915
729.551	0.246866
733.89	0.595436
738.229	0.522927
742.568	0.680338
746.907	0.34664
751.246	0.367163
755.585	0.717731
759.924	0.36831
764.263	0.729288
768.602	0.895991
772.941	0.3211
777.28	0.208396
781.619	0.062844
785.958	0.440624
790.297	0.520443
794.636	0.9237
798.976	0.302669
803.314	0.668259
807.654	0.566402
811.993	0.207623
816.332	0.408549
820.671	0.313005
825.01	0.63268
829.349	0.241947
833.688	0.845591
838.027	1.06798
842.366	0.902228
846.705	0.878698
851.044	0.511931
855.383	0.73959
859.722	1.24381
864.061	1.48529
868.4	0.725181
872.739	0.83371
877.078	0.790003
881.417	0.900808
885.756	0.83173
890.096	0.007182
894.435	0.187042
898.774	0.669464
903.113	0.448456
907.452	0.539725
911.791	0.287434
916.13	0.325002
920.469	0.768174
924.808	0.312736
929.147	0.349979
933.486	0.459416
937.825	0.402917
942.164	0.154563
946.503	0.485312
950.842	0.258136
955.181	0.226325
959.52	0.58782
963.859	0.684417
968.198	0.86105
972.538	0.879589
976.876	0.002119
981.216	0.758203
985.555	0.094096
989.894	0.537301
994.233	0.820681
998.572	0.759828
1002.91	0.533087
1007.25	0.583939
1011.59	0.675102
1015.93	0.150815
1020.27	0.774446
1024.61	0.577189
1028.94	1.20825
1033.28	0.204326
1037.62	0.626399
1041.96	0.900552
1046.3	1.16835
1050.64	0.736349
1054.98	0.904966
1059.32	0.661917
1063.66	0.800572
1068	0.664367
1072.34	0.496819
1076.67	0.25683
1081.01	0.828525
1085.35	0.356492
1089.69	0.804564
1094.03	0.216942
1098.37	0.611848
1102.71	0.580512
1107.05	0.571989
1111.39	0.068526
1115.73	0.733092
1120.07	0.405256
1124.4	0.008542
1128.74	0.577415
1133.08	0.385612
1137.42	0.600382
1141.76	0.756505
1146.1	0.0608
1150.44	0.424955
1154.78	0.161387
1159.12	0.336999
1163.46	0.722538
1167.8	0.276329
1172.13	0.628796
1176.47	0.623219
1180.81	1.07141
1185.15	0.626616
1189.49	0.454895
1193.83	0.356838
1198.17	0.843914
1202.51	0.241889
1206.85	0.310302
1211.18	1.1761
1215.52	0.549654
1219.86	0.474538
1224.2	0.831269
1228.54	0.799589
1232.88	1.15036
1237.22	0.15145
1241.56	0.90313
1245.9	0.845669
1250.24	0.936684
1254.58	0.800704
1258.91	0.944046
1263.25	0.438421
1267.59	1.04298
1271.93	0.979419
1276.27	0.293047
1280.61	1.3079
1284.95	0.38601
1289.29	0.557822
1293.63	1.7111
1297.97	0.913232
1302.31	0.353095
1306.64	0.599149
1310.98	0.671654
1315.32	0.136386
1319.66	0.502618
1324	0.581891
1328.34	1.35136
1332.68	1.17603
1337.02	1.91471
1341.36	0.67906
1345.7	0.990004
1350.04	1.19427
1354.37	1.81906
1358.71	0.794813
1363.05	0.50118
1367.39	0.949398
1371.73	0.763671
1376.07	1.00238
1380.41	0.702582
1384.75	0.528008
1389.09	0.571473
1393.43	0.220256
1397.77	0.550254
1402.1	0.046526
1406.44	0.456994
1410.78	0.016101
1415.12	0.437369
1419.46	1.18064
1423.8	0.161813
1428.14	0.380773
1432.48	1.02686
1436.82	0.866129
1441.15	0.486303
1445.49	0.894509
1449.83	0.773229
1454.17	0.122728
1458.51	0.238578
1462.85	0.314065
1467.19	0.329498
1471.53	0.248746
1475.87	0.294845
1480.21	0.431328
1484.55	0.621306
1488.88	0.030135
1493.22	0.553338
1497.56	0.354168
1501.9	0.049991
1506.24	0.387482
1510.58	0.890381
1514.92	0.167045
1519.26	0.482053
1523.6	0.029401
1527.94	0.554089
1532.28	0.849596
1536.61	0.718538
1540.95	1.10616
1545.29	1.43714
1549.63	2.79083
1553.97	4.54185
1558.31	6.38144
1562.65	9.10944
1566.99	17.3736
1571.33	29.5123
1575.67	45.069
1580.01	56.7739
1584.34	44.2295
1588.68	25.7092
1593.02	12.4264
1597.36	6.96549
1601.7	4.45484
1606.04	3.07294
1610.38	1.89201
1614.72	1.88857
1619.06	2.24184
1623.39	1.23062
1627.73	0.365409
1632.07	1.52787
1636.41	0.80828
1640.75	1.17497
1645.09	0.091328
1649.43	0.573809
1653.77	1.59013
1658.11	1.35779
1662.45	0.466721
1666.79	0.115867
1671.12	0.609089
1675.46	0.69742
1679.8	1.0403
1684.14	0.478029
1688.48	0.268582
1692.82	1.33507
1697.16	1.72557
1701.5	1.64673
1705.84	1.05546
1710.18	1.42569
1714.52	1.16745
1718.85	0.699525
1723.19	0.763667
1727.53	0.918641
1731.87	1.06729
1736.21	0.14602
1740.55	1.80515
1744.89	0.815321
1749.23	1.3739
1753.57	2.14463
1757.91	1.65439
1762.24	0.539001
1766.58	0.872709
1770.92	1.12075
1775.26	0.603168
1779.6	0.494179
1783.94	0.683187
1788.28	0.77928
1792.62	0.23145
1796.96	0.946291
