Measurement: Raman, 532 nm, unoriented, Raman Data Processed
Mineral: Graphite
Rruff sample: R090047
Ideal chemistry: C
Locality: Merelani, Tanzania
Source: Wendell Wilson
Description: Silver gray platelets associated with diopside, R090046
Raman shift (cm-1)	intensity
150.046	0
154.385	4.52668
158.724	2.90432
163.063	4.1144
167.402	0.846355
171.741	2.33172
176.081	2.61881
180.419	2.71793
184.759	1.89715
189.098	1.58831
193.437	1.69774
197.776	1.2792
202.115	2.71426
206.454	0.535194
210.793	1.00516
215.132	1.75374
219.471	0.997263
223.81	0.481361
228.149	1.13824
232.488	1.39186
236.827	1.90396
241.166	0.568604
245.505	1.36046
249.844	1.76464
254.183	1.22841
258.522	0.352682
262.861	0.122938
267.201	1.51436
271.54	1.12783
275.879	1.14459
280.218	1.15697
284.557	0.212006
288.896	1.16546
293.235	1.17065
297.574	1.47455
301.913	0.603738
306.252	1.42399
310.591	0.464972
314.93	1.10918
319.269	0.169126
323.608	0.24872
327.947	0.514261
332.286	1.0234
336.625	1.90177
340.964	0.618272
345.303	1.61421
349.642	1.08467
353.982	0.875995
358.321	0.686803
362.66	0.001246
366.999	0.643604
371.338	0.48983
375.677	0.194223
380.016	0.675913
384.355	0.673509
388.694	1.25519
393.033	0.676278
397.372	0.862234
401.711	0.166863
406.05	0.747158
410.389	0.469783
414.728	0.179972
419.067	0.75224
423.406	0.441772
427.745	0.123046
432.084	0.054958
436.424	0.149821
440.763	0.355251
445.102	0.416435
449.441	0.553782
453.78	0.003905
458.119	1.0908
462.458	0.624164
466.797	0.663539
471.136	0.137189
475.475	0.812599
479.814	1.1467
484.153	1.0324
488.492	0.937749
492.831	1.44439
497.17	0.397579
501.509	1.52759
505.848	0.853777
510.187	0.654821
514.527	0.885633
518.865	0.255299
523.205	1.37192
527.544	0.305045
531.883	0.290581
536.222	0.580604
540.561	1.69672
544.9	0.376305
549.239	0.988664
553.578	1.58567
557.917	0.901716
562.256	0.349587
566.595	0.882565
570.934	0.913324
575.273	0.739875
579.612	0.768188
583.951	0.261146
588.29	1.93743
592.629	1.40293
596.968	0.621692
601.308	1.07535
605.647	0.420027
609.986	0.189731
614.325	0.970656
618.664	0.267815
623.003	0.391775
627.342	0.772882
631.681	0.829724
636.02	0.024074
640.359	0.271306
644.698	0.51512
649.037	0.113786
653.376	0.521685
657.715	0.657101
662.054	0.914582
666.393	0.476133
670.732	0.698456
675.071	0.092477
679.41	0.312264
683.75	0.985749
688.089	0.868291
692.428	0.285761
696.767	0.246144
701.106	0.322158
705.445	0.661757
709.784	0.234946
714.123	0.657047
718.462	0.803538
722.801	0.140422
727.14	0.32495
731.479	0.224984
735.818	0.059277
740.157	0.423127
744.496	0.638514
748.835	0.947129
753.174	0.205975
757.513	0.355302
761.852	0.673896
766.192	0.329848
770.53	0.678579
774.87	0.590572
779.209	0.600229
783.548	0.725726
787.887	0.367756
792.226	0.744655
796.565	0.575244
800.904	0.774982
805.243	0.342957
809.582	1.28
813.921	0.850655
818.26	1.11501
822.599	1.49022
826.938	1.4886
831.277	1.29137
835.616	1.41779
839.955	1.38957
844.294	1.09435
848.634	2.14918
852.972	2.02565
857.312	1.86764
861.651	2.57454
865.99	1.70152
870.329	1.63161
874.668	0.89112
879.007	1.32943
883.346	1.57091
887.685	0.469663
892.024	0.186853
896.363	0.051682
900.702	0.209002
905.041	0.614141
909.38	0.192373
913.719	0.050585
918.058	0.163249
922.397	0.39287
926.736	0.055691
931.075	0.547572
935.414	0.732766
939.754	0.309899
944.093	0.082035
948.432	0.37923
952.771	1.21034
957.11	0.244545
961.449	0.344479
965.788	0.309985
970.127	0.377207
974.466	0.154588
978.805	0.159534
983.144	0.767522
987.483	0.985062
991.822	0.525579
996.161	0.552893
1000.5	1.17443
1004.84	0.622261
1009.18	0.888769
1013.52	0.897932
1017.86	0.590443
1022.2	1.09701
1026.54	0.644991
1030.87	1.33839
1035.21	0.865707
1039.55	1.7535
1043.89	1.46179
1048.23	1.19954
1052.57	1.13511
1056.91	1.00259
1061.25	0.548558
1065.59	0.864467
1069.92	1.23255
1074.26	0.48133
1078.6	0.151506
1082.94	0.557258
1087.28	0.029447
1091.62	0.675228
1095.96	0.54275
1100.3	0.775198
1104.64	0.350213
1108.98	0.300966
1113.32	0.863956
1117.65	0.515311
1121.99	0.268767
1126.33	0.824694
1130.67	0.741216
1135.01	0.708357
1139.35	0.320308
1143.69	0.908007
1148.03	0.052022
1152.37	0.261986
1156.71	0.394601
1161.05	0.707917
1165.38	0.958512
1169.72	1.61233
1174.06	0.267201
1178.4	0.502163
1182.74	1.06056
1187.08	1.06898
1191.42	0.742473
1195.76	0.475746
1200.1	0.642183
1204.44	1.18844
1208.78	1.46721
1213.11	0.773264
1217.45	0.614463
1221.79	0.95403
1226.13	1.25263
1230.47	0.634642
1234.81	0.600929
1239.15	1.47839
1243.49	0.589696
1247.83	0.853137
1252.16	0.869259
1256.5	0.17522
1260.84	1.17823
1265.18	0.579587
1269.52	1.0739
1273.86	1.45975
1278.2	1.09175
1282.54	1.33952
1286.88	1.33721
1291.22	0.701043
1295.56	0.61556
1299.89	0.801257
1304.23	1.20441
1308.57	0.051009
1312.91	0.430108
1317.25	0.472308
1321.59	0.826483
1325.93	0.754563
1330.27	0.554643
1334.61	0.661189
1338.95	0.810144
1343.29	0.167939
1347.62	0.81011
1351.96	0.601798
1356.3	1.75503
1360.64	2.26848
1364.98	0.706546
1369.32	0.529958
1373.66	0.920566
1378	0.793194
1382.34	1.05341
1386.68	1.57855
1391.02	1.47538
1395.35	0.764137
1399.69	1.63291
1404.03	0.387211
1408.37	1.42622
1412.71	0.984371
1417.05	1.37433
1421.39	0.65211
1425.73	0.307115
1430.07	0.223305
1434.4	0.698305
1438.74	1.04871
1443.08	0.612062
1447.42	1.51991
1451.76	1.11231
1456.1	0.894442
1460.44	0.89026
1464.78	1.2512
1469.12	1.27041
1473.46	0.551686
1477.8	0.260462
1482.13	0.148172
1486.47	0.012467
1490.81	0.894831
1495.15	0.793245
1499.49	1.4343
1503.83	1.156
1508.17	0.261917
1512.51	1.29859
1516.85	0.04994
1521.19	0.15864
1525.53	0.436318
1529.87	0.630489
1534.2	0.978798
1538.54	1.91759
1542.88	2.61063
1547.22	4.15998
1551.56	5.90361
1555.9	12.8662
1560.24	14.9597
1564.58	25.5748
1568.92	43.5953
1573.26	69.2879
1577.59	97.1635
1581.93	100.776
1586.27	60.1897
1590.61	33.1053
1594.95	17.6661
1599.29	10.8882
1603.63	7.21866
1607.97	4.76182
1612.31	4.20767
1616.65	3.55448
1620.98	1.58806
1625.32	2.11277
1629.66	0.992654
1634	0.615869
1638.34	0.877616
1642.68	0.550163
1647.02	0.224335
1651.36	1.98439
1655.7	0.753211
1660.04	1.15263
1664.38	0.63197
1668.71	1.39489
1673.05	1.56156
1677.39	1.05525
1681.73	0.617756
1686.07	1.35846
1690.41	0.594776
1694.75	1.41077
1699.09	1.17716
1703.43	2.16873
1707.77	1.51391
1712.11	0.341234
1716.44	0.550884
1720.78	1.57229
1725.12	0.331009
1729.46	1.28142
1733.8	1.741
1738.14	1.47016
1742.48	1.92189
1746.82	2.03023
1751.16	1.6002
1755.49	1.37979
1759.83	1.25884
1764.17	0.229041
1768.51	1.45087
1772.85	2.0908
1777.19	0.607167
1781.53	2.00012
1785.87	2.06067
1790.21	1.26888
1794.55	0.296295
1798.89	0.496517
