Measurement: Raman, 785 nm, unoriented, Raman Data Processed
Mineral: Gratonite
Rruff sample: R060956
Ideal chemistry: Pb_9_As_4_S_15_
Locality: Rio Tinto mine, Rio Tinto, Huelva Province, Spain
Source: Bob Jenkins
Description: Dark-gray metallic elongated prismatic trigonal crystals
Measured chemistry: Pb_9.00_As_4.00_S_15.00_
Raman shift (cm-1)	intensity
89.7084	0
93.0832	20.4217
96.458	66.8987
99.8328	113.505
103.208	119.272
106.582	221.743
109.957	196.89
113.332	107.251
116.707	32.58
120.082	41.4229
123.457	54.62
126.831	17.2881
130.206	265.672
133.581	584.571
136.956	847.13
140.331	1351.6
143.705	2556.65
147.08	4503.25
150.455	6106.81
153.83	6798.64
157.205	6682.6
160.579	6104.59
163.954	5347.68
167.329	4864.9
170.704	4509.72
174.079	4118.55
177.454	3700.72
180.828	3532.84
184.203	3676.45
187.578	3741.18
190.953	3157.14
194.328	2412.71
197.702	1833.08
201.077	1528.47
204.452	1373.93
207.827	1197.15
211.202	1074.79
214.577	936.137
217.951	895.892
221.326	841.931
224.701	884.66
228.076	954.3
231.451	1092.81
234.825	1202.32
238.2	1267.26
241.575	1180.87
244.95	927.849
248.325	699.788
251.7	567.099
255.074	453.545
258.449	303.477
261.824	154.708
265.199	61.0922
268.574	16.2423
271.948	26.5483
275.323	32.4147
278.698	56.7224
282.073	42.2726
285.448	13.4506
288.822	9.4906
292.197	25.4679
295.572	52.2775
298.947	155.717
302.322	359.642
305.697	764.697
309.071	1172.18
312.446	1468.56
315.821	1361.07
319.196	708.275
322.571	401.226
325.945	364.971
329.32	490.123
332.695	598.673
336.07	495.006
339.445	197.736
342.82	237.385
346.194	499.904
349.569	1406.2
352.944	3360.43
356.319	5806.71
359.693	4546.1
363.068	2138.76
366.443	1188.69
369.818	717.182
373.193	403.669
376.568	238.189
379.942	172.515
383.317	110.289
386.692	64.1244
390.067	8.33258
393.442	23.9555
396.817	22.1267
400.191	16.5916
403.566	10.4108
406.941	4.32721
410.316	26.0095
413.691	5.77637
417.065	3.88861
420.44	10.2854
423.815	31.642
427.19	27.5983
430.565	28.0175
433.94	44.8782
437.314	21.1223
440.689	15.1516
444.064	72.5206
447.439	40.4641
450.813	43.3751
454.188	53.5564
457.563	47.3754
460.938	29.7364
464.313	57.9477
467.688	43.6362
471.062	65.6127
474.437	48.6113
477.812	38.9865
481.187	34.965
484.562	38.6479
487.937	41.2606
491.311	55.2641
494.686	18.697
498.061	33.0322
501.436	33.1978
504.811	53.0523
508.185	38.195
511.56	39.4136
514.935	20.3487
518.31	22.2607
521.685	49.8803
525.059	30.7843
528.434	4.04327
531.809	18.4828
535.184	4.97717
538.559	12.4679
541.933	15.0461
545.308	28.2482
548.683	0.380676
552.058	9.90124
555.433	7.90759
558.808	17.8696
562.182	19.1326
565.557	9.13361
568.932	11.522
572.307	21.2158
575.682	6.34271
579.057	11.3636
582.431	25.2609
585.806	14.7772
589.181	20.1636
592.556	25.0601
595.931	22.1254
599.305	5.98322
602.68	40.0518
606.055	33.643
609.43	0.555298
612.805	19.8124
616.179	51.4077
619.554	37.5852
622.929	31.8226
626.304	26.7383
629.679	52.8437
633.053	20.261
636.428	10.972
639.803	22.0165
643.178	22.094
646.553	51.0474
649.928	27.4296
653.302	10.0539
656.677	36.4907
660.052	36.0474
663.427	26.2093
666.802	3.56696
670.177	18.1019
673.551	28.024
676.926	18.3484
680.301	13.6578
683.676	1.6059
687.051	18.2889
690.425	13.2983
693.8	14.8361
697.175	20.9717
700.55	19.6431
703.925	8.09894
707.299	25.0079
710.674	33.1075
714.049	18.0269
717.424	37.8571
720.799	23.7848
724.173	19.9726
727.548	25.6577
730.923	18.3976
734.298	21.7675
737.673	33.5686
741.048	21.3447
744.422	5.72412
747.797	21.4498
751.172	36.6088
754.547	61.7703
757.922	1.14404
761.296	19.7761
764.671	23.2506
768.046	8.66107
771.421	21.5386
774.796	28.2302
778.17	34.1462
781.545	16.6544
784.92	26.2144
788.295	43.8419
791.67	44.7703
795.045	17.4597
798.419	22.7487
801.794	23.0233
805.169	14.7962
808.544	36.2724
811.919	20.7088
815.293	7.38074
818.668	27.2371
822.043	32.4881
825.418	35.2617
828.793	55.9814
832.168	26.0397
835.542	13.7985
838.917	4.78671
842.292	16.9644
845.667	4.12503
849.042	30.4656
852.416	20.2661
855.791	35.5835
859.166	18.5807
862.541	9.24149
865.916	31.5978
869.29	58.272
872.665	27.4582
876.04	31.9996
879.415	25.2174
882.79	14.4489
886.165	13.3713
889.539	39.7652
892.914	45.6608
896.289	25.8713
899.664	15.7881
903.039	16.8895
906.413	14.9008
909.788	6.39227
913.163	15.8197
916.538	8.86203
919.913	16.7124
923.288	34.8832
926.662	2.13278
930.037	34.1482
933.412	30.571
936.787	11.5854
940.162	13.9147
943.536	31.1626
946.911	16.5382
950.286	40.5508
953.661	30.3661
957.036	6.91605
960.41	2.6496
963.785	13.5942
967.16	17.2854
970.535	2.41931
973.91	5.48621
977.285	31.407
980.659	30.8646
984.034	39.1579
987.409	11.451
990.784	19.6849
994.159	23.6447
997.534	31.1637
1000.91	21.6882
1004.28	35.8003
1007.66	41.6403
1011.03	34.6696
1014.41	48.0819
1017.78	13.2495
1021.16	26.5699
1024.53	4.02826
1027.91	1.38058
1031.28	31.1704
1034.66	34.42
1038.03	43.763
1041.41	24.9314
1044.78	43.8641
1048.16	6.53839
1051.53	7.84863
1054.9	45.4066
1058.28	1.18167
1061.65	9.60779
1065.03	9.46335
1068.4	5.21207
1071.78	33.3129
1075.15	26.1282
1078.53	14.3732
1081.9	30.6926
1085.28	13.5666
1088.65	36.5305
1092.03	28.4311
1095.4	30.9267
1098.78	33.9057
1102.15	34.6054
1105.53	3.46439
1108.9	28.9024
1112.28	38.8673
1115.65	31.4351
1119.03	38.5036
1122.4	30.3467
1125.78	32.0862
1129.15	24.6441
1132.53	8.24432
1135.9	32.5703
1139.28	14.0005
1142.65	50.4092
1146.03	54.4851
1149.4	12.1807
1152.78	22.0943
1156.15	24.2488
1159.53	25.5019
1162.9	53.6204
1166.27	55.982
1169.65	58.5744
1173.02	33.8707
1176.4	44.1363
1179.77	33.2814
1183.15	36.8714
1186.52	28.2734
1189.9	43.2965
1193.27	56.5646
1196.65	41.6576
1200.02	56.7531
1203.4	50.8426
1206.77	8.39224
1210.15	46.245
1213.52	51.3693
1216.9	29.1107
1220.27	41.1359
1223.65	52.1583
1227.02	28.1309
1230.4	62.9971
1233.77	46.3054
1237.14	19.1542
1240.52	18.2818
1243.89	60.3346
1247.27	49.3058
1250.64	50.6513
1254.02	42.6989
1257.39	9.94791
1260.77	43.2539
1264.14	22.1772
1267.52	19.645
1270.89	0.171722
