Measurement: Raman, 780 nm, unoriented, Raman Data Processed
Mineral: Gratonite
Rruff sample: R050365
Ideal chemistry: Pb_9_As_4_S_15_
Locality: Cerro de Pasco, Peru
Source: University of Arizona Mineral Museum
Description: Dark lead gray aggregate, including single crystals
Measured chemistry: Pb_9.00_As_4.00_S_15.00_
Raman shift (cm-1)	intensity
155.681	0
158.573	537.402
161.466	847.236
164.359	747.96
167.251	483.821
170.144	81.6577
173.037	36.0054
175.93	60.123
178.822	438.585
181.715	1040.82
184.608	1726.67
187.5	2059.83
190.393	1979.06
193.286	1436.13
196.179	756.132
199.071	313.393
201.964	84.8889
204.857	22.79
207.749	62.9836
210.642	93.8716
213.535	60.2766
216.427	251.129
219.32	549.292
222.213	809.221
225.106	990.237
227.998	1112.34
230.891	1210.73
233.784	1305.13
236.676	1457.54
239.569	1497.33
242.462	1373.79
245.354	1236.46
248.247	1120.84
251.14	1044.85
254.032	960.183
256.925	839.003
259.818	688.018
262.711	545.448
265.603	421.408
268.496	333.901
271.389	251.001
274.281	219.219
277.174	191.951
280.067	205.639
282.959	222.031
285.852	258.849
288.745	323.923
291.638	413.384
294.53	547.028
297.423	727.623
300.316	916.318
303.208	1136.87
306.101	1426.99
308.994	1579.97
311.887	1638.54
314.779	1563.42
317.672	1079.12
320.565	619.722
323.457	435.816
326.35	420.607
329.243	484.996
332.135	395.677
335.028	284.185
337.921	442.233
340.813	796.877
343.706	1095.17
346.599	1541.55
349.492	2227.41
352.384	3222.68
355.277	4493.48
358.17	4789.5
361.062	3079.26
363.955	1631.99
366.848	940.564
369.74	561.857
372.633	319.629
375.526	167.699
378.419	81.6346
381.311	35.6916
384.204	7.06653
387.097	9.51834
389.989	26.4605
392.882	27.8532
395.775	26.3666
398.668	18.5878
401.56	21.4115
404.453	17.3408
407.346	9.21417
410.238	7.88037
413.131	7.58646
416.024	7.70941
418.916	13.7109
421.809	19.6765
424.702	35.1735
427.594	38.127
430.487	48.858
433.38	59.8781
436.273	72.5119
439.165	77.6689
442.058	88.9792
444.951	90.8131
447.843	106.895
450.736	100.951
453.629	103.77
456.522	98.5211
459.414	95.7227
462.307	91.8792
465.2	85.3464
468.092	81.1608
470.985	72.2125
473.878	68.0107
476.77	63.4201
479.663	59.2897
482.556	61.0815
485.449	56.1368
488.341	51.5254
491.234	46.6906
494.127	48.5976
497.019	42.5518
499.912	37.5921
502.805	40.5559
505.697	35.7469
508.59	26.4747
511.483	24.4796
514.375	19.377
517.268	15.3899
520.161	16.3289
523.054	11.2023
525.946	10.5757
528.839	8.56962
531.732	3.1444
534.624	5.76679
537.517	5.58561
540.41	9.71103
543.303	6.76994
546.195	11.1283
549.088	11.2071
551.981	12.7533
554.873	9.47204
557.766	8.85634
560.659	11.8798
563.551	8.85496
566.444	7.84193
569.337	7.40321
572.23	9.09803
575.122	5.60199
578.015	2.95945
580.908	8.54473
583.8	6.70332
586.693	2.35664
589.586	3.57659
592.478	2.40837
595.371	1.33337
598.264	0.642246
601.156	1.63298
604.049	4.75199
606.942	10.6654
609.835	13.1295
612.727	17.1333
615.62	17.2286
618.513	18.2382
621.405	15.1643
624.298	10.8722
627.191	5.42055
630.083	2.65434
632.976	0.896645
635.869	1.96921
638.761	2.51342
641.654	4.45071
644.547	5.3506
647.44	5.63321
650.332	7.34796
653.225	12.8503
656.118	13.6665
659.01	14.6282
661.903	13.5636
664.796	13.9164
667.688	9.45859
670.581	6.95926
673.474	3.23629
676.367	1.94721
679.259	0.712151
682.152	2.17119
685.045	0.63703
687.937	0.444521
690.83	0.27029
693.723	1.3065
696.615	2.15381
699.508	0.619848
702.401	2.43042
705.294	3.90345
708.186	8.0457
711.079	10.329
713.972	10.9465
716.864	12.0105
719.757	9.12483
722.65	7.07571
725.543	5.35891
728.435	5.04922
731.328	5.86706
734.221	5.35591
737.113	3.72282
740.006	3.95156
742.899	3.2416
745.791	1.12367
748.684	2.70371
751.577	0.489727
754.47	1.14598
757.362	0.826871
760.255	2.0666
763.148	0.619124
766.04	1.27399
768.933	0.239017
771.826	1.51797
774.718	3.33015
777.611	0.867455
780.504	1.55442
783.396	1.3959
786.289	1.52656
789.182	2.41744
792.075	1.63554
794.967	1.4215
797.86	1.7414
800.753	1.1215
803.645	3.53373
806.538	1.85667
809.431	2.92514
812.323	2.77637
815.216	0.405623
818.109	2.51454
821.002	1.30225
823.894	2.02808
826.787	2.94126
829.68	3.32716
832.572	2.42768
835.465	1.96829
838.358	1.61836
841.25	3.05815
844.143	1.66008
847.036	2.92629
849.929	0.552008
852.821	0.579463
855.714	2.29521
858.607	0.376825
861.5	2.6251
864.392	1.17419
867.285	0.518281
870.178	2.25087
873.07	0.280474
875.963	0.829027
878.856	1.44033
881.748	1.88093
884.641	1.35446
887.534	1.86708
890.427	0.778932
893.319	0.993537
896.212	1.43918
899.105	1.40409
901.997	1.51661
904.89	1.20896
907.783	0.775946
910.675	1.984
913.568	1.27494
916.461	0.544659
919.353	1.59736
922.246	1.35202
925.139	2.15655
928.032	0.964627
930.924	1.44507
933.817	1.65616
936.71	0.069928
939.602	0.948751
942.495	1.17256
945.388	0.051058
948.28	0.818597
951.173	0.027588
954.066	1.58131
956.958	0.229174
959.851	0.349868
962.744	2.88618
965.637	0.501345
968.529	1.20442
971.422	1.61586
974.315	1.75687
977.207	2.22207
980.1	1.1524
982.993	1.30315
985.885	1.71373
988.778	1.7583
991.671	1.86432
994.564	1.00814
997.456	0.236361
1000.35	2.11243
1003.24	2.79191
1006.13	0.775965
1009.03	1.05663
1011.92	1.65061
1014.81	2.19877
1017.71	1.32335
1020.6	3.27655
1023.49	1.1593
1026.38	2.17748
1029.28	1.07666
1032.17	1.87708
1035.06	1.29295
1037.95	1.22853
1040.85	1.08022
1043.74	0.615853
1046.63	1.85894
1049.53	1.68201
1052.42	2.4691
1055.31	0.886652
1058.2	1.44769
1061.1	1.39257
1063.99	2.47888
1066.88	2.58928
1069.77	0.733345
1072.67	0.498932
1075.56	2.39159
1078.45	2.30472
1081.35	0.876198
1084.24	2.14034
1087.13	1.218
1090.02	1.96992
1092.91	1.92951
1095.81	0.542842
1098.7	2.08399
1101.59	1.61052
1104.49	4.17436
1107.38	0.050519
1110.27	0.868735
1113.16	1.13132
1116.06	0.884891
1118.95	2.49922
1121.84	1.22991
1124.73	2.15995
1127.63	2.06946
1130.52	1.26941
1133.41	2.48268
1136.31	2.28395
1139.2	0.133384
1142.09	0.017644
1144.98	1.33672
1147.88	1.86027
1150.77	1.39289
1153.66	2.54582
1156.56	3.53676
1159.45	1.83102
1162.34	2.44019
1165.23	1.57689
1168.13	1.43423
1171.02	1.00215
1173.91	0.249032
1176.8	2.17431
1179.7	1.69038
1182.59	2.77899
1185.48	0.024628
1188.38	1.04679
1191.27	3.10689
1194.16	2.36054
1197.05	1.03985
1199.94	1.16677
1202.84	2.37029
1205.73	1.34807
1208.62	0.903183
1211.52	2.63435
1214.41	3.78512
1217.3	1.09187
1220.19	1.17952
1223.09	0.163549
1225.98	1.13267
1228.87	0.873538
1231.77	0.787465
1234.66	0.528649
1237.55	3.19032
1240.44	0.511373
1243.34	3.24695
1246.23	2.34486
1249.12	0.617939
1252.01	0.721752
1254.91	3.69483
1257.8	1.53106
1260.69	1.38423
1263.59	2.29877
1266.48	3.88364
1269.37	0.375447
1272.26	1.04794
1275.16	1.10902
1278.05	1.36367
1280.94	1.92823
1283.83	0.842751
