Measurement: Raman, 532 nm, unoriented, Raman Data Processed
Mineral: Graulichite-(Ce)
Rruff sample: R070031
Ideal chemistry: CeFe^3+^_3_(As^5+^O_4_)_2_(OH)_6_
Locality: Hourt quarry, Ardennes, Belgium
Source: Michael Scott
Description: Pale green rhombohedral crystals lining a small vug
Raman shift (cm-1)	intensity
154.039	0
156.932	209.904
159.825	111.184
162.717	19.5176
165.61	63.0918
168.503	274.43
171.395	498.766
174.288	732.383
177.181	1011.75
180.073	1611.71
182.966	2249.26
185.859	3158.55
188.751	4042.62
191.644	4863.27
194.537	5623.68
197.43	6020.68
200.322	5966.75
203.215	5553.89
206.108	5087.06
209	4381.92
211.893	3847.89
214.786	3124.2
217.679	2422.13
220.571	2047.06
223.464	1676.16
226.357	1539.58
229.249	1349.99
232.142	1214.4
235.035	1119.93
237.927	1372.95
240.82	1331.73
243.713	1352.2
246.605	1412.82
249.498	1330.64
252.391	1240.53
255.284	1298.58
258.176	1289.33
261.069	1087.86
263.962	1041.72
266.854	979.893
269.747	749.502
272.64	677.766
275.532	640.906
278.425	642.537
281.318	621.91
284.211	688.856
287.103	832.144
289.996	1311.31
292.889	1727.56
295.781	2152.76
298.674	2503.53
301.567	2736.04
304.459	2833.46
307.352	2876.24
310.245	2988.64
313.137	2934.66
316.03	2923.73
318.923	2713.24
321.815	2348.95
324.708	1778.18
327.601	1265.16
330.494	794.938
333.386	459.875
336.279	212.836
339.172	93.9062
342.064	70.4844
344.957	169.801
347.85	266.461
350.743	228.41
353.635	201.039
356.528	164.559
359.421	47.5195
362.313	39.4531
365.206	220.469
368.099	335.703
370.991	385.269
373.884	397.742
376.777	574.18
379.67	643.481
382.562	791.82
385.455	966.305
388.348	870.336
391.24	1129.46
394.133	1229.99
397.026	1176.78
399.918	1487.23
402.811	1610.94
405.704	2191.61
408.596	2539.92
411.489	2995.33
414.382	3727.51
417.274	3969.82
420.167	4489.24
423.06	4768.19
425.953	5059.92
428.845	5301.13
431.738	5364.15
434.631	5588.28
437.523	5860.94
440.416	5759.72
443.309	5856.15
446.202	5730.72
449.094	5539.86
451.987	5421.32
454.88	5504.36
457.772	5702.25
460.665	5890.7
463.558	6451.7
466.45	6706.03
469.343	6933.96
472.236	7257.26
475.128	7682.49
478.021	8003.51
480.914	7975.88
483.807	7522.55
486.699	6644.11
489.592	5654.12
492.485	4673.2
495.377	3560.46
498.27	2788.35
501.163	1950.63
504.055	1519.44
506.948	1084.15
509.841	605.797
512.734	465.516
515.626	253.871
518.519	203.184
521.412	13.9609
524.304	31.2969
527.197	143.074
530.09	176.363
532.982	252.391
535.875	93.1523
538.768	99.1836
541.66	41.3906
544.553	141.363
547.446	273.566
550.339	647.434
553.231	771.981
556.124	1172.76
559.017	1526.25
561.909	1958.7
564.802	1977.47
567.695	2185.54
570.587	2411.39
573.48	2414.71
576.373	2460.13
579.265	2211.9
582.158	2287.49
585.051	2253.36
587.944	2166.62
590.836	1939.04
593.729	1817.42
596.622	2012.89
599.514	2036.63
602.407	1868.91
605.3	1895.08
608.192	1802.84
611.085	1850.95
613.978	1847.48
616.871	1601.12
619.763	1573.26
622.656	1345.7
625.549	1223.35
628.441	957.082
631.334	860.445
634.227	557.695
637.119	457.766
640.012	346.844
642.905	251.273
645.798	153.031
648.69	69.9961
651.583	72.2383
654.476	28.8906
657.368	188.188
660.261	188.824
663.154	146.582
666.046	31.1484
668.939	24.3242
671.832	141.582
674.725	210.047
677.617	386.438
680.51	639.992
683.403	572.891
686.295	515.949
689.188	671.098
692.081	633.812
694.973	632.516
697.866	595.887
700.759	563.438
703.652	505.219
706.544	333.856
709.437	393.316
712.33	230.934
715.222	290.379
718.115	150.023
721.008	324.324
723.9	104.551
726.793	5.76562
729.686	120.195
732.578	116.379
735.471	23.6328
738.364	97.3242
741.256	84.9219
744.149	259.312
747.042	77.0391
749.935	127.391
752.827	100.324
755.72	86.7969
758.613	22.0352
761.505	41.5195
764.398	45.1445
767.291	46.4883
770.183	147.879
773.076	89.9688
775.969	18.5898
778.862	20.6758
781.754	9.36719
784.647	138.457
787.54	450.449
790.432	495.336
793.325	793.621
796.218	1006.3
799.111	1333.75
802.003	1695.06
804.896	2049.96
807.789	2301.74
810.681	2624.46
813.574	3043.56
816.467	3057.29
819.359	3440.62
822.252	4151.78
825.145	4367.71
828.037	4930.32
830.93	5523.87
833.823	6224.68
836.716	7504.84
839.608	8730.12
842.501	10010.6
845.394	11206.2
848.286	12004.4
851.179	12153.8
854.072	11889.3
856.964	11427.4
859.857	10857.9
862.75	10278.8
865.643	9593.85
868.535	8927.95
871.428	7974.23
874.321	7271.68
877.213	6270.31
880.106	5675.17
882.999	4773.03
885.891	4328.8
888.784	3683.35
891.677	3261.37
894.569	2735.34
897.462	2463.58
900.355	2022.42
903.248	1692.39
906.14	1366.04
909.033	1189.68
911.926	896.602
914.818	847.051
917.711	571.91
920.604	339.215
923.496	259.953
926.389	161.231
929.282	3.62109
932.174	31.8672
935.067	31.4766
937.96	137.926
940.853	47.2031
943.745	21.1328
946.638	156.301
949.531	49.3984
952.423	42.9688
955.316	149.68
958.209	49.8477
961.101	73.3906
963.994	13.4961
966.887	85.3906
969.779	90.7734
972.672	85.4922
975.565	243.008
978.458	47.1953
981.35	324.231
984.243	549.375
987.136	850.879
990.028	1282
992.921	1735.11
995.814	2201.63
998.707	2260.41
1001.6	1855.03
1004.49	1261.82
1007.38	917.801
1010.28	517.762
1013.17	415.078
1016.06	192.363
1018.96	268.902
1021.85	191.742
1024.74	52.1289
1027.63	48.6133
1030.53	70.2344
1033.42	127.703
1036.31	5.71484
1039.2	17.7695
1042.1	55.3984
1044.99	102.836
1047.88	77.4336
1050.78	262.57
1053.67	60.3477
1056.56	172.582
1059.45	430.606
1062.35	539.023
1065.24	486.586
1068.13	475.242
1071.02	433.617
1073.92	565.008
1076.81	658.129
1079.7	479.832
1082.6	728.164
1085.49	466.852
1088.38	601.398
1091.27	605.027
1094.17	656.363
1097.06	672.594
1099.95	352.848
1102.84	447.988
1105.74	461.379
1108.63	400.883
1111.52	462.707
1114.41	362.281
1117.31	281.289
1120.2	317.445
1123.09	184.473
1125.98	342.211
1128.88	278.594
1131.77	231.398
1134.66	326.945
1137.56	355.469
1140.45	221.805
1143.34	416.918
1146.23	425.231
1149.13	307.609
1152.02	625.356
1154.91	409.644
1157.81	461.301
1160.7	325.652
1163.59	362.379
1166.48	425.156
1169.38	402.07
1172.27	331.973
1175.16	348.66
1178.05	266.203
1180.95	177.891
1183.84	75.7266
1186.73	27.1328
1189.62	155.359
1192.52	71.7891
1195.41	241.125
1198.3	105.262
1201.19	5.57031
1204.09	116.512
1206.98	11.7734
1209.87	22.2109
1212.77	96.2266
1215.66	217.621
1218.55	15.582
1221.44	75.9727
1224.34	205.574
1227.23	30.5859
1230.12	207.816
1233.02	277.535
1235.91	31.6055
1238.8	223.375
1241.69	51.6133
1244.59	91.4141
1247.48	89.793
1250.37	182.066
1253.26	215.629
1256.16	170.988
1259.05	227.438
1261.94	163.438
1264.84	157.551
1267.73	323.606
1270.62	232.391
1273.51	187.555
1276.4	203.934
1279.3	199.738
1282.19	199.66
1285.08	187.824
1287.98	195.199
1290.87	224.441
1293.76	279.633
1296.65	49.5703
1299.55	48.4531
1302.44	229.793
1305.33	154.211
