Measurement: Raman, 532 nm, unoriented, Raman Data Processed
Mineral: Greenockite
Rruff sample: R090045
Ideal chemistry: CdS
Locality: Synthetic
Source: Carl Ingerson via UAMM
Description: Red and yellow bundles of bladed crystals
Raman shift (cm-1)	intensity
103.763	0
107.138	666.711
110.513	1284.3
113.887	328.281
117.262	176.39
120.637	1703.49
124.012	5453.72
127.387	8041.46
130.762	9809.96
134.136	13119.7
137.511	16440.8
140.886	16094.9
144.261	13351.4
147.636	11102.9
151.011	8584
154.385	5434.91
157.76	4157.28
161.135	2574.76
164.51	1200.03
167.885	313.273
171.259	166.088
174.634	883.248
178.009	681.658
181.384	765.875
184.759	3202.76
188.133	7115.49
191.508	14098.2
194.883	25626
198.258	41297.8
201.633	58740.3
205.008	75226.5
208.382	91636.2
211.757	99082.1
215.132	77252.6
218.507	47410.5
221.882	29333.9
225.256	25253.5
228.631	27421.1
232.006	35124.8
235.381	23766.9
238.756	21119.3
242.131	13942.2
245.505	4302.18
248.88	4888.39
252.255	8587.07
255.63	4031.85
259.005	713.152
262.38	1139.94
265.754	72.1953
269.129	1760.11
272.504	3607.81
275.879	5478.13
279.254	6618.08
282.628	8626.07
286.003	13595.5
289.378	20350.4
292.753	27548
296.128	36959.6
299.503	49697.1
302.877	61857.9
306.252	59762
309.627	54698.6
313.002	53124
316.377	51470.5
319.752	48443
323.126	45168.9
326.501	42216
329.876	38322.8
333.251	34604.1
336.626	33329.6
340	32386
343.375	30520.6
346.75	28573.2
350.125	23832
353.5	17836.5
356.875	15311
360.249	16270.6
363.624	17795.7
366.999	14960.6
370.374	8482.85
373.749	3703.74
377.123	10.1797
380.498	1130.62
383.873	827.066
387.248	155.609
390.623	290.848
393.998	836.342
397.372	1537.7
400.747	2186.8
404.122	2797.4
407.497	3231.53
410.872	3887.43
414.247	4412.84
417.621	4382.29
420.996	4374.76
424.371	4301.53
427.746	3838.03
431.121	3325.85
434.495	3217.42
437.87	2350.55
441.245	1224.45
444.62	224.648
447.995	48.6211
451.37	97.1963
454.744	72.8652
458.119	180.099
461.494	131.846
464.869	389.285
468.244	550.199
471.618	979.53
474.993	1168.07
478.368	1466.58
481.743	1705.68
485.118	2112.77
488.493	2371.35
491.867	2718.36
495.242	2963.92
498.617	3030.79
501.992	2637.52
505.367	2315.09
508.741	1443.02
512.116	360.919
515.491	232.203
518.866	758.957
522.241	558.148
525.616	111.555
528.99	817.148
532.365	2374.78
535.74	4251.48
539.115	6403.84
542.49	8396.71
545.865	9749.94
549.239	11175.8
552.614	11711.6
555.989	12118.7
559.364	12414.2
562.739	11448.2
566.114	10350
569.488	11242.5
572.863	13996.1
576.238	20333.1
579.613	32773
582.987	53021.7
586.362	83024
589.737	122275
593.112	169986
596.487	220685
599.862	253940
603.236	240537
606.611	182360
609.986	116659
613.361	72002.1
616.736	45908.5
620.111	30403.8
623.485	20180.1
626.86	13964.5
630.235	9577.77
633.61	6768.54
636.985	4787.88
640.36	3608.11
643.734	2479.77
647.109	1450.88
650.484	798.343
653.859	211.534
657.234	201.061
660.609	295.17
663.983	393.931
667.358	391.076
670.733	353.249
674.108	205.398
677.482	4.78809
680.857	231.863
684.232	452.9
687.607	739.685
690.982	1009.15
694.357	1037.6
697.731	1319.86
701.106	1372.15
704.481	1453.31
707.856	1523.31
711.231	1490.55
714.606	1505.3
717.98	1359.32
721.355	1193.72
724.73	1030.16
728.105	737.527
731.48	620.48
734.855	409.331
738.229	208.529
741.604	181.053
744.979	185.108
748.354	251.377
751.729	139.063
755.103	170.638
758.478	220.235
761.853	193.224
765.228	65.8406
768.603	104.475
771.977	164.656
775.352	109.819
778.727	135.946
782.102	220.508
785.477	204.617
788.852	137.135
792.226	140.183
795.601	177.081
798.976	303.206
802.351	235.698
805.726	240.425
809.101	281.059
812.475	319.048
815.85	292.293
819.225	321.541
822.6	276.182
825.975	276.18
829.35	241.94
832.724	215.895
836.099	299.065
839.474	191.906
842.849	220.328
846.224	131.958
849.598	110.224
852.973	129.364
856.348	133.073
859.723	95.854
863.098	1.88574
866.472	54.1313
869.847	17.5474
873.222	84.4814
876.597	34.3955
879.972	42.3389
883.347	55.979
886.721	100.858
890.096	277.621
893.471	329.769
896.846	466.168
900.221	504.291
903.596	585.618
906.97	604.758
910.345	418.867
913.72	297.706
917.095	248.951
920.47	96.5142
923.845	9.09375
927.219	37.877
930.594	133.234
933.969	6.02002
937.344	7.1084
940.719	28.9536
944.093	35.2563
947.468	52.7114
950.843	35.4014
954.218	49.1421
957.593	86.6099
960.967	81.0181
964.342	4.74023
967.717	114.311
971.092	33.1685
974.467	185.13
977.842	159.278
981.216	132.716
984.591	127.363
987.966	207.333
991.341	208.338
994.716	175.769
998.091	83.3662
1001.47	198.35
1004.84	178.331
1008.22	190.59
1011.59	166.869
1014.97	145.002
1018.34	95.3882
1021.71	68.6631
1025.09	98.394
1028.46	169.513
1031.84	49.4507
1035.21	120.988
1038.59	119.42
1041.96	128.38
1045.34	171.784
1048.71	123.515
1052.09	95.9404
1055.46	62.3247
1058.84	138.847
1062.21	234.681
1065.59	170.939
1068.96	77.6655
1072.34	113.106
1075.71	152.461
1079.09	119.984
1082.46	106.697
1085.84	166.182
1089.21	138.464
1092.59	47.1094
1095.96	66.394
1099.34	184.295
1102.71	201.432
1106.09	40.9873
1109.46	118.373
1112.83	97.9277
1116.21	72.1904
1119.58	84.5967
1122.96	115.061
1126.33	35.0176
1129.71	146.099
1133.08	126.405
1136.46	91.1411
1139.83	88.9556
1143.21	58.9658
1146.58	66.355
1149.96	27.9311
1153.33	136.346
1156.71	79.6543
1160.08	97.6997
1163.46	187.523
1166.83	84.4644
1170.21	110.914
1173.58	119.013
1176.96	157.148
1180.33	67.3784
1183.71	25.6811
1187.08	65.1562
1190.45	38.6103
1193.83	204.885
1197.2	162.606
1200.58	145.347
1203.95	114.195
1207.33	134.501
1210.7	150.474
1214.08	92.7178
1217.45	139.851
1220.83	154.443
1224.2	78.5015
1227.58	41.3438
1230.95	153.427
1234.33	91.9067
1237.7	132.697
1241.08	19.5054
1244.45	110.254
1247.83	91.0596
1251.2	45.8511
1254.58	56.8242
1257.95	61.7544
1261.33	34.8252
1264.7	149.311
1268.08	86.6099
1271.45	77.3354
1274.83	24.1055
1278.2	59.1113
1281.58	126.085
1284.95	104.309
1288.33	51.8081
1291.7	75.478
1295.08	24.6431
1298.45	118.113
1301.82	0
