Measurement: Raman, 780 nm, unoriented, Raman Data Processed
Mineral: Greenockite
Rruff sample: R090045
Ideal chemistry: CdS
Locality: Synthetic
Source: Carl Ingerson via UAMM
Description: Red and yellow bundles of bladed crystals
Raman shift (cm-1)	intensity
92.0254	0
95.4002	428.328
98.775	379.818
102.15	314.697
105.525	754.789
108.9	870.806
112.274	404.15
115.649	256.027
119.024	186.233
122.399	431.505
125.773	797.498
129.148	855.304
132.523	889.981
135.898	944.097
139.273	850.564
142.648	714.276
146.022	493.51
149.397	114.454
152.772	210.221
156.147	109.298
159.522	46.5024
162.897	178.149
166.271	316.022
169.646	490.448
173.021	664.278
176.396	857.827
179.771	1121.25
183.145	1303.19
186.52	1468.51
189.895	1708.26
193.27	2107.12
196.645	2612.38
200.019	3368.49
203.394	4579.54
206.769	5997.1
210.144	7689.18
213.519	7097.69
216.893	5462.27
220.268	3690.31
223.643	3152.39
227.018	3253.36
230.393	3780.34
233.768	3663.68
237.142	2768.53
240.517	2646.97
243.892	1693.27
247.267	1477.02
250.642	1479.16
254.017	1279.05
257.391	559.743
260.766	252.552
264.141	118.188
267.516	54.6919
270.891	34.291
274.265	22.0664
277.64	43.3164
281.015	69.2866
284.39	4.34375
287.765	179.88
291.139	446.374
294.514	838.2
297.889	1314.92
301.264	1874.41
304.639	2215.14
308.014	2084.77
311.388	2039.48
314.763	2046.02
318.138	2139.89
321.513	2191.01
324.888	2238.62
328.262	2246.38
331.637	2102.13
335.012	2170.11
338.387	2379.05
341.762	2592.02
345.137	2643.94
348.511	2448.18
351.886	1933.17
355.261	1600.21
358.636	1553.44
362.01	1632.82
365.385	1583.93
368.76	1175.77
372.135	764.182
375.51	298.273
378.885	60.9312
382.259	4.90674
385.634	19.394
389.009	35.0645
392.384	9.28662
395.759	7.27393
399.134	26.1148
402.508	34.7944
405.883	48.5537
409.258	52.2095
412.633	90.0386
416.008	103.188
419.382	114.328
422.757	161.322
426.132	184.749
429.507	143.834
432.882	149.229
436.257	126.992
439.631	95.5928
443.006	48.5435
446.381	16.1631
449.756	27.1426
453.13	21.0024
456.505	7.61035
459.88	27.9492
463.255	9.8584
466.63	41.23
470.005	33.9883
473.379	50.0527
476.754	44.6304
480.129	2.6084
483.504	22.0107
486.879	12.7671
490.253	43.4072
493.628	37.5395
497.003	13.2935
500.378	14.8877
503.753	12.2881
507.128	2.12744
510.502	8.50195
513.877	11.7295
517.252	11.8271
520.627	7.12451
524.002	7.13086
527.376	33.6816
530.751	36.544
534.126	87.2002
537.501	114.828
540.876	190.645
544.25	231.076
547.625	295.398
551	372.691
554.375	473.79
557.75	529.476
561.125	514.57
564.499	457.351
567.874	444.049
571.249	484.479
574.624	452.525
577.999	621.165
581.374	826.917
584.748	1053.25
588.123	1379.44
591.498	1677.78
594.873	1818.8
598.248	1692.86
601.622	1304.32
604.997	884.438
608.372	563.186
611.747	344.609
615.122	213.733
618.496	148.012
621.871	91.3799
625.246	59.8281
628.621	51.2607
631.996	3.59375
635.37	19.7842
638.745	36.2685
642.12	22.1035
645.495	11.4336
648.87	7.08984
652.245	7.14453
655.619	3.91211
658.994	11.374
662.369	2.08203
665.744	3.29199
669.119	9.76758
672.494	18.4785
675.868	16.5654
679.243	26.458
682.618	25.2188
685.993	13.9082
689.368	16.1514
692.742	22.7646
696.117	22.6865
699.492	23.0322
702.867	13.6543
706.242	28.1699
709.616	55.4297
712.991	52.5605
716.366	66.5488
719.741	60.7607
723.116	31.9385
726.49	23.2988
729.865	12.5986
733.24	35.877
736.615	23.4521
739.99	24.0449
743.365	49.8477
746.739	16.0342
750.114	28.6543
753.489	8.15137
756.864	3.03809
760.239	1.09082
763.614	2.53418
766.988	1.82324
770.363	8.60059
773.738	7.13672
777.113	28.8848
780.487	9.68457
783.862	23.1973
787.237	29.6689
790.612	19.0977
793.987	23.5
797.362	41.5
800.736	22.0693
804.111	28.7422
807.486	35.9736
810.861	48.7568
814.236	24.418
817.611	48.8164
820.985	24.667
824.36	35.457
827.735	40.9648
831.11	49.8945
834.485	34.5772
837.859	29.2178
841.234	45.0469
844.609	14.9229
847.984	24.5938
851.359	13.1914
854.734	21.0479
858.108	37.0518
861.483	22.9648
864.858	8.68262
868.233	1.33398
871.607	32.9697
874.982	28.5293
878.357	19.6064
881.732	21.9805
885.107	18.3984
888.482	12.2568
891.856	34.4414
895.231	21.6699
898.606	7.64551
901.981	14.124
905.356	1.00098
908.731	1.92969
912.105	22.6465
915.48	20.4482
918.855	21.1572
922.23	33.4619
925.605	24.1367
928.979	26.6602
932.354	38.0039
935.729	33.8408
939.104	49.6338
942.479	35.4277
945.854	26.8555
949.228	23.7119
952.603	34.2188
955.978	51.1279
959.353	40.7315
962.727	27.0771
966.102	12.2881
969.477	9.8584
972.852	12.0693
976.227	5.81738
979.602	17.2744
982.976	13.3477
986.351	3.2666
989.726	47.8057
993.101	7.10547
996.476	43.7353
999.851	27.7793
1003.23	18.4375
1006.6	27.8193
1009.98	37.0225
1013.35	43.7432
1016.73	20.1279
1020.1	40.6602
1023.47	30.3994
1026.85	63.6533
1030.22	42.0859
1033.6	35.2432
1036.97	47.6475
1040.35	12.3906
1043.72	29.7988
1047.1	59.5723
1050.47	53.706
1053.85	29.8027
1057.22	49.0381
1060.6	57.4219
1063.97	44.8701
1067.35	14.1572
1070.72	53.7568
1074.1	42.2246
1077.47	73.2295
1080.85	38.8545
1084.22	32.3408
1087.6	1.5332
1090.97	34.6484
1094.35	25.7822
1097.72	29.8154
1101.1	24.7783
1104.47	17.5439
1107.84	5.84375
1111.22	18.9961
1114.59	11.8027
1117.97	8.09766
1121.34	9.57129
1124.72	39.9004
1128.09	17.4316
1131.47	1.74023
1134.84	33.916
1138.22	15.2949
1141.59	33.7812
1144.97	27.4893
1148.34	35.3408
1151.72	22.2451
1155.09	57.2197
1158.47	35.6904
1161.84	79.0791
1165.22	68.5459
1168.59	78.1728
1171.97	52.2295
1175.34	87.5859
1178.72	84.5674
1182.09	86.2148
1185.46	90.7393
1188.84	82.376
1192.21	96.2022
1195.59	84.1992
1198.96	70.3535
1202.34	92.8076
1205.71	65.4394
1209.09	43.749
1212.46	88.0566
1215.84	14.9766
1219.21	20.5605
1222.59	12.4844
1225.96	1.81543
1229.34	19.8809
1232.71	41.2139
1236.09	45.1875
1239.46	34.875
1242.84	11.9834
1246.21	20.957
1249.59	24.3535
1252.96	46.9707
1256.34	16.6738
1259.71	9.28223
1263.09	38.7969
1266.46	69.708
1269.84	54.6016
1273.21	53.6855
1276.59	32.749
1279.96	23.7236
1283.34	56.4805
