Measurement: Raman, 532 nm, unoriented, Raman Data Processed
Mineral: Greenockite
Rruff sample: R060091
Ideal chemistry: CdS
Locality: Mono County, California, USA
Source: University of Arizona Mineral Museum
Description: Yellowish-orange earthy coating
Measured chemistry: (Cd_0.95_Fe_0.03_Cr_0.01_[box]_0.01_)_Î£=1_S_1.00_ ; trace amounts of Ni.
Raman shift (cm-1)	intensity
138.101	0
141.476	6.65015
144.85	14.2248
148.225	1.41577
151.6	25.1841
154.975	34.2717
158.35	24.9827
161.725	7.83008
165.099	18.717
168.474	42.8438
171.849	34.5964
175.224	10.7563
178.599	10.145
181.973	25.7229
185.348	19.116
188.723	18.793
192.098	0.277344
195.473	1.39209
198.847	6.26465
202.222	0.567627
205.597	2.51416
208.972	2.23267
212.347	6.42383
215.722	12.9409
219.096	17.5618
222.471	0.229004
225.846	1.64966
229.221	0.303711
232.596	5.92896
235.97	20.2769
239.345	33.4031
242.72	37.2246
246.095	40.259
249.47	52.9133
252.845	52.4092
256.219	75.3457
259.594	87.8037
262.969	100.381
266.344	110.893
269.719	141.757
273.093	199.736
276.468	249.581
279.843	309.754
283.218	374.166
286.593	453.135
289.967	522.193
293.342	576.748
296.717	599.74
300.092	552.206
303.467	462.146
306.842	387.149
310.216	317.234
313.591	237.463
316.966	193.61
320.341	177.374
323.716	136.029
327.091	113.033
330.465	86.4097
333.84	70.1987
337.215	45.6728
340.59	40.2895
343.965	34.7544
347.339	24.9878
350.714	16.5864
354.089	15.0063
357.464	2.9834
360.839	0.942871
364.214	8.17188
367.588	11.5767
370.963	34.8335
374.338	26.2676
377.713	15.5562
381.088	3.50732
384.462	7.68848
387.837	13.1753
391.212	14.8359
394.587	3.03027
397.962	13.8188
401.337	3.21875
404.711	2.30859
408.086	12.959
411.461	12.7119
414.836	15.4219
418.211	13.9692
421.585	9.57666
424.96	7.25488
428.335	19.9712
431.71	14.8999
435.085	14.7095
438.459	11.6924
441.834	6.06543
445.209	15.8169
448.584	17.6826
451.959	16.3247
455.334	4.4668
458.708	10.2129
462.083	18.9668
465.458	18.6958
468.833	18.002
472.208	20.0435
475.582	29.4062
478.957	32.1738
482.332	34.1289
485.707	34.9512
489.082	21.9668
492.457	14.8565
495.831	0.374512
499.206	0.349121
502.581	10.5361
505.956	13.5117
509.331	20.7588
512.705	17.1787
516.08	20.8101
519.455	8.50879
522.83	1.19434
526.205	1.15674
529.58	2.62988
532.954	1.5332
536.329	19.648
539.704	18.7129
543.079	31.8355
546.454	25.9487
549.828	29.7783
553.203	48.4946
556.578	50.0542
559.953	63.7231
563.328	96.4077
566.702	136.231
570.077	160.925
573.452	197.008
576.827	245.401
580.202	294.493
583.577	324.864
586.951	359.838
590.326	390.577
593.701	403.68
597.076	398.938
600.451	371.936
603.825	332.974
607.2	273.733
610.575	227.05
613.95	192.81
617.325	153.811
620.699	121.61
624.074	83.9385
627.449	86.1714
630.824	68.9424
634.199	55.7681
637.573	35.2295
640.948	40.2637
644.323	28.6343
647.698	39.4595
651.073	15.7315
654.448	7.37695
657.822	18.2798
661.197	16.1245
664.572	8.79736
667.947	9.68408
671.322	2.41309
674.697	8.04395
678.071	16.2231
681.446	6.98779
684.821	1.98828
688.196	5.78613
691.571	16.6396
694.945	7.62305
698.32	10.2378
701.695	20.9097
705.07	19.3491
708.445	20.9439
711.819	24.7891
715.194	39.3794
718.569	27.5171
721.944	14.7583
725.319	12.4976
728.694	2.10596
732.068	13.042
735.443	13.2705
738.818	32.5591
742.193	30.9795
745.568	28.3584
748.942	31.0635
752.317	20.4922
755.692	25.0312
759.067	15.2476
762.442	4.85254
765.817	3.30469
769.191	18.5801
772.566	14.5601
775.941	23.7886
779.316	16.562
782.691	25.8032
786.065	11.1748
789.44	24.1802
792.815	15.7305
796.19	23.0444
799.565	1.88281
802.939	0.812012
806.314	11.6719
809.689	9.20801
813.064	6.65381
816.439	1.85547
819.814	13.8145
823.188	26.8091
826.563	5.99463
829.938	0.511719
833.313	11.0571
836.688	8.69434
840.062	22.1533
843.437	31.5889
846.812	28.6011
850.187	14.6465
853.562	14.105
856.937	43.5625
860.311	36.5903
863.686	37.4853
867.061	54.4419
870.436	55.6245
873.811	55.8486
877.186	47.627
880.56	50.8877
883.935	67.25
887.31	52.7681
890.685	64.7563
894.06	65.6572
897.434	54.7861
900.809	47.9233
904.184	53.1523
907.559	50.3325
910.934	47.854
914.308	26.0005
917.683	17.9458
921.058	27.6929
924.433	28.0981
927.808	31.0425
931.183	25.1108
934.557	9.12109
937.932	23.3921
941.307	24.4155
944.682	19.5879
948.057	27.477
951.432	5.62012
954.806	1.18897
958.181	4.61523
961.556	7.77246
964.931	0.204102
968.306	4.88623
971.68	1.13428
975.055	0.558105
978.43	6.19873
981.805	35.1597
985.18	18.23
988.554	2.56836
991.929	12.8467
995.304	7.66016
998.679	0.922363
1002.05	5.771
1005.43	1.32568
1008.8	0.024902
1012.18	15.4678
1015.55	12.7607
1018.93	21.3618
1022.3	22.9141
1025.68	19.9541
1029.05	22.3066
1032.43	19.9248
1035.8	16.7759
1039.18	20.5864
1042.55	4.46436
1045.93	9.40625
1049.3	5.10938
1052.68	6.48584
1056.05	12.083
1059.43	19.1963
1062.8	18.2827
1066.17	31.125
1069.55	24.8247
1072.92	19.8628
1076.3	3.16065
1079.67	6.54297
1083.05	5.71143
1086.42	9.125
1089.8	9.49756
1093.17	14.2788
1096.55	31.8696
1099.92	19.668
1103.3	13.2705
1106.67	16.5879
1110.05	15.1001
1113.42	7.17481
1116.8	1.38721
1120.17	8.49707
1123.55	12.3247
1126.92	9.64502
1130.3	22.4453
1133.67	13.0039
1137.05	0.491211
1140.42	8.50049
1143.8	17.6587
1147.17	13.522
1150.55	6.41016
1153.92	11.3223
1157.3	29.148
1160.67	31.8872
1164.05	24.6943
1167.42	16.0557
1170.79	29.2007
1174.17	18.0332
1177.54	26.6504
1180.92	32.54
1184.29	47.397
1187.67	38.582
1191.04	40.0117
1194.42	45.6216
1197.79	41.2056
1201.17	26.98
1204.54	31.3008
1207.92	45.3423
1211.29	33.4219
1214.67	26.9209
1218.04	24.1675
1221.42	32.4414
1224.79	36.7446
1228.17	28.0786
1231.54	23.5557
1234.92	13.7788
1238.29	1.50732
1241.67	6.33887
1245.04	0.471191
1248.41	12.9722
1251.79	17.4033
1255.16	27.8882
1258.54	16.061
1261.91	19.2705
1265.29	22.6509
1268.66	11.9507
1272.04	14.8496
1275.41	8.21143
1278.79	14.3184
1282.16	1.33691
1285.54	2.40185
1288.91	2.12842
1292.29	0.421387
1295.66	0.057617
