Measurement: Raman, 532 nm, unoriented, Raman Data Processed
Mineral: Greenockite
Rruff sample: R060110
Ideal chemistry: CdS
Locality: San Juan mine, Dragoon Mountains, Cochise County, Arizona, USA
Source: University of Arizona Mineral Museum
Description: Yellow earthy coating
Raman shift (cm-1)	intensity
158.471	0
161.363	15.2823
164.256	5.39527
167.149	3.7151
170.041	6.90791
172.934	25.9232
175.827	46.7583
178.72	51.3949
181.612	54.0965
184.505	72.9829
187.398	96.4604
190.29	117.716
193.183	137.058
196.076	142.853
198.968	145.008
201.861	152.628
204.754	163.242
207.647	180.577
210.539	188.694
213.432	188.653
216.325	171.803
219.217	140.188
222.11	112.539
225.003	90.6865
227.895	75.4894
230.788	64.9236
233.681	65.8546
236.573	91.1575
239.466	106.74
242.359	87.6763
245.252	57.4057
248.144	42.1722
251.037	32.8812
253.93	35.4182
256.822	34.371
259.715	44.6015
262.608	49.9716
265.5	68.2857
268.393	87.2676
271.286	122.748
274.179	167.875
277.071	246.39
279.964	353.926
282.857	508.519
285.75	714.589
288.642	996.789
291.535	1376.36
294.428	1835.49
297.32	2323.38
300.213	2758.61
303.106	2939.99
305.998	2687.67
308.891	2055.69
311.784	1395.65
314.676	914.057
317.569	617.42
320.462	432.63
323.355	317.602
326.247	235.258
329.14	174.872
332.033	131.97
334.925	98.2062
337.818	78.269
340.711	59.3021
343.603	44.6616
346.496	31.4866
349.389	21.3138
352.281	11.5554
355.174	5.69141
358.067	1.04761
360.96	4.63977
363.852	5.31525
366.745	7.68903
369.638	3.97546
372.53	6.80975
375.423	4.25708
378.316	5.86261
381.209	7.12311
384.101	0.362976
386.994	3.26679
389.887	4.13794
392.779	10.8059
395.672	11.0444
398.565	18.6082
401.457	22.3761
404.35	24.2943
407.243	28.8966
410.135	33.9927
413.028	38.8329
415.921	37.6769
418.814	41.1996
421.706	42.2195
424.599	39.6516
427.492	42.9186
430.384	41.5726
433.277	38.3563
436.17	35.9516
439.062	32.9394
441.955	27.547
444.848	22.6166
447.741	23.0073
450.633	22.4905
453.526	18.3648
456.419	19.3969
459.311	12.4339
462.204	15.8785
465.097	15.5098
467.99	12.3549
470.882	11.7882
473.775	10.5753
476.668	11.6883
479.56	9.33337
482.453	12.7052
485.346	10.5676
488.238	10.8335
491.131	11.2631
494.024	12.8972
496.916	12.2769
499.809	11.7113
502.702	8.97424
505.595	4.88184
508.487	5.06622
511.38	6.78339
514.273	2.60175
517.165	0.558411
520.058	0.633057
522.951	0.317932
525.844	0.734802
528.736	1.89728
531.629	2.40179
534.522	0.123535
537.414	0.158569
540.307	4.92419
543.2	7.97766
546.092	8.8169
548.985	17.3331
551.878	17.7958
554.771	24.2114
557.663	23.4031
560.556	25.8987
563.449	31.0429
566.341	32.8925
569.234	36.9985
572.127	43.282
575.019	53.0453
577.912	70.2606
580.805	94.0706
583.697	126.654
586.59	163.612
589.483	217.274
592.376	283.541
595.268	359.263
598.161	428.103
601.054	496.117
603.946	530.425
606.839	525.132
609.732	482.642
612.625	418.792
615.517	339.747
618.41	271.237
621.303	208.755
624.195	159.32
627.088	118.496
629.981	89.8036
632.873	70.7349
635.766	58.4672
638.659	46.9213
641.552	35.6171
644.444	23.958
647.337	18.5095
650.23	13.1862
653.122	11.0434
656.015	5.63141
658.908	7.3541
661.8	1.6542
664.693	2.57401
667.586	0.530121
670.479	0.486572
673.371	3.21167
676.264	1.47519
679.157	2.28705
682.049	0.69812
684.942	0.699066
687.835	0.077179
690.727	0.797058
693.62	3.13278
696.513	1.32077
699.405	5.55347
702.298	3.04394
705.191	2.61139
708.084	4.38571
710.976	4.07809
713.869	3.10263
716.762	3.99442
719.654	3.09897
722.547	7.08682
725.44	5.41202
728.332	4.90201
731.225	5.1925
734.118	2.39267
737.011	2.65356
739.903	3.14935
742.796	1.73132
745.689	0.362427
748.581	0.733978
751.474	5.13309
754.367	5.75708
757.26	6.71188
760.152	3.81665
763.045	3.00018
765.938	4.18091
768.83	2.00272
771.723	1.35526
774.616	4.02808
777.508	4.46539
780.401	3.58881
783.294	5.26901
786.187	4.67142
789.079	2.94476
791.972	2.94659
794.865	4.36612
797.757	2.84741
800.65	1.81125
803.543	0.912109
806.435	3.07281
809.328	5.1152
812.221	2.12051
815.114	4.75192
818.006	1.97253
820.899	3.16244
823.792	3.90311
826.684	0.034546
829.577	0.483368
832.47	3.22482
835.362	0.796082
838.255	2.60754
841.148	2.37433
844.04	0.415192
846.933	3.203
849.826	1.09717
852.719	1.65109
855.611	3.96402
858.504	3.8855
861.397	3.49982
864.289	1.31808
867.182	2.60431
870.075	0.273315
872.967	4.21542
875.86	7.2258
878.753	3.34335
881.646	2.49225
884.538	4.45975
887.431	5.62463
890.324	6.93869
893.216	6.96396
896.109	11.5125
899.002	12.1134
901.894	12.2486
904.787	19.2819
907.68	17.1252
910.573	16.3533
913.465	17.5459
916.358	14.4634
919.251	14.1824
922.143	12.9322
925.036	8.6109
927.929	11.5977
930.822	7.68237
933.714	4.79959
936.607	1.5032
939.5	0.08432
942.392	4.26877
945.285	2.81644
948.178	1.02716
951.07	5.3717
953.963	3.7009
956.856	0.768951
959.749	0.611816
962.641	0.370148
965.534	2.73486
968.427	0.650848
971.319	0.046356
974.212	1.883
977.105	2.56574
979.997	4.70789
982.89	2.00299
985.783	3.55597
988.676	2.38367
991.568	1.07144
994.461	2.3757
997.354	1.26254
1000.25	0.97113
1003.14	0.303497
1006.03	4.18686
1008.92	2.27289
1011.82	4.13556
1014.71	0.766541
1017.6	3.98434
1020.5	2.41882
1023.39	1.52286
1026.28	0.697968
1029.17	5.52567
1032.07	2.31976
1034.96	6.29803
1037.85	5.55112
1040.74	2.37552
1043.64	3.00821
1046.53	3.2211
1049.42	4.74875
1052.32	0.078827
1055.21	12.1556
1058.1	5.13962
1060.99	1.99896
1063.89	3.43954
1066.78	3.08051
1069.67	3.85239
1072.56	1.13651
1075.46	1.78095
1078.35	1.18765
1081.24	4.99188
1084.13	1.60559
1087.03	3.49268
1089.92	2.49783
1092.81	1.70569
1095.7	2.69122
1098.6	0.308746
1101.49	3.45667
1104.38	2.04449
1107.28	2.36316
1110.17	1.98511
1113.06	2.5827
1115.95	3.67203
1118.85	1.11975
1121.74	4.34439
1124.63	3.05832
1127.53	1.20346
1130.42	1.59403
1133.31	1.92459
1136.2	4.22461
1139.1	4.1684
1141.99	3.33835
1144.88	1.90527
1147.77	6.35785
1150.67	4.61438
1153.56	2.71191
1156.45	2.94598
1159.35	2.28632
1162.24	3.80658
1165.13	4.37695
1168.02	3.0871
1170.92	3.48712
1173.81	1.99506
1176.7	2.46326
1179.59	0.874756
1182.49	1.66254
1185.38	1.50171
1188.27	2.87769
1191.16	2.36224
1194.06	3.17584
1196.95	2.9303
1199.84	2.03955
1202.73	1.27014
1205.63	2.18933
1208.52	4.66248
1211.41	3.58752
1214.31	5.80316
1217.2	3.30768
1220.09	2.53552
1222.98	3.08148
1225.88	3.85046
1228.77	2.21222
1231.66	4.63532
1234.56	1.87701
1237.45	0.686829
1240.34	2.73132
1243.23	1.68689
1246.13	2.65228
1249.02	2.15185
1251.91	2.77063
1254.8	1.40497
1257.7	3.65387
1260.59	2.58783
1263.48	2.91345
1266.38	1.44763
1269.27	2.04889
1272.16	1.5965
1275.05	4.01672
1277.95	3.54968
1280.84	1.89905
1283.73	1.76978
1286.62	4.3089
1289.52	1.37805
1292.41	3.05688
1295.3	0.359741
1298.19	3.5274
1301.09	0.951294
