Measurement: Raman, 532 nm, unoriented, Raman Data Processed
Mineral: Greifensteinite
Rruff sample: R070613
Ideal chemistry: Ca_2_Fe^2+^_5_Be_4_(PO_4_)_6_(OH)_4_6H_2_O
Locality: Tip Top mine, Custer County, South Dakota, USA
Source: Dakota Matrix Minerals
Description: Darker orange-brown blebs in pale salmon colored montgomeryite, associated with tiptopite (R070609)
Raman shift (cm-1)	intensity
132.369	0
135.262	0.026192
138.155	4.57412
141.047	3.41559
143.94	0.837471
146.833	4.07615
149.725	4.39371
152.618	9.36337
155.511	13.6082
158.404	15.8271
161.296	22.9588
164.189	30.2302
167.082	34.9622
169.974	42.6204
172.867	44.7723
175.76	44.2717
178.652	41.1687
181.545	34.2138
184.438	28.8298
187.331	23.1532
190.223	18.9815
193.116	18.0145
196.009	16.858
198.901	16.4356
201.794	15.8835
204.687	15.5456
207.579	17.0363
210.472	15.8855
213.365	14.6889
216.257	13.7231
219.15	9.89835
222.043	6.24463
224.936	4.49098
227.828	1.69839
230.721	0.045456
233.614	0.552307
236.506	1.39142
239.399	1.37144
242.292	0.094109
245.185	1.85944
248.077	1.65734
250.97	4.45657
253.863	4.14339
256.755	5.93114
259.648	6.38854
262.541	5.87551
265.433	5.09396
268.326	3.76552
271.219	2.58557
274.111	0.973473
277.004	1.63341
279.897	0.104927
282.79	1.6451
285.682	0.719559
288.575	2.18038
291.468	3.85972
294.36	4.62888
297.253	5.20215
300.146	5.23366
303.038	4.75937
305.931	3.78545
308.824	2.72073
311.717	3.33895
314.609	1.97391
317.502	3.98752
320.395	5.0798
323.287	5.12067
326.18	6.21783
329.073	7.99625
331.966	8.93796
334.858	10.2988
337.751	10.0966
340.644	9.131
343.536	6.52107
346.429	2.40485
349.322	0.104675
352.214	2.14439
355.107	0.535332
358	1.47671
360.892	5.39302
363.785	10.2646
366.678	15.8289
369.571	23.7286
372.463	29.4451
375.356	38.1729
378.249	41.2288
381.141	40.9711
384.034	39.4846
386.927	34.1255
389.82	28.2023
392.712	22.6034
395.605	20.3338
398.498	18.1601
401.39	17.0533
404.283	15.126
407.176	10.4493
410.068	6.01238
412.961	4.64119
415.854	3.70165
418.747	3.63736
421.639	3.58776
424.532	7.20391
427.425	10.8585
430.317	17.768
433.21	23.3784
436.103	32.2029
438.995	35.9384
441.888	37.238
444.781	36.2464
447.673	32.4945
450.566	28.9872
453.459	24.3128
456.352	20.9309
459.244	17.1937
462.137	12.6666
465.03	9.68994
467.922	6.89912
470.815	3.44669
473.708	1.02635
476.601	0.720329
479.493	0.101364
482.386	0.521675
485.279	1.15014
488.171	4.5901
491.064	6.18159
493.957	11.8524
496.849	15.618
499.742	17.6958
502.635	18.2438
505.527	19.0776
508.42	16.0924
511.313	13.8023
514.206	10.4223
517.098	9.96189
519.991	8.15328
522.884	6.77622
525.776	5.91419
528.669	4.03726
531.562	1.65301
534.455	1.02649
537.347	0.237274
540.24	0.288311
543.133	1.24032
546.025	0.226952
548.918	0.913303
551.811	1.4294
554.703	4.33233
557.596	5.6309
560.489	8.70817
563.381	10.5917
566.274	13.1237
569.167	14.9707
572.06	18.521
574.952	19.5575
577.845	21.0514
580.738	23.6613
583.63	24.5497
586.523	23.5975
589.416	22.2747
592.308	21.6332
595.201	21.8993
598.094	20.5696
600.987	18.8559
603.879	17.9356
606.772	13.7402
609.665	9.44472
612.557	5.47463
615.45	3.56041
618.343	2.08368
621.236	3.57641
624.128	4.92952
627.021	8.46288
629.914	14.2963
632.806	19.1066
635.699	23.7243
638.592	24.3746
641.484	23.293
644.377	21.2938
647.27	17.2098
650.163	14.6162
653.055	12.3114
655.948	9.8711
658.841	7.65469
661.733	6.54613
664.626	5.141
667.519	3.9284
670.411	3.23596
673.304	1.68832
676.197	1.27574
679.09	0.360744
681.982	0.577923
684.875	0.190449
687.768	0.399055
690.66	0.151814
693.553	0.289246
696.446	0.034222
699.338	0.494236
702.231	0.312958
705.124	1.74917
708.016	1.30223
710.909	2.12429
713.802	1.40912
716.695	2.1109
719.587	1.21195
722.48	1.13589
725.373	0.824936
728.265	0.664787
731.158	0.155872
734.051	0.338676
736.943	0.273388
739.836	0.807014
742.729	0.966782
745.622	0.577682
748.514	0.029716
751.407	0.754845
754.3	1.39944
757.192	2.48929
760.085	2.93534
762.978	3.34084
765.87	4.54976
768.763	4.85714
771.656	6.22567
774.549	5.91296
777.441	5.83528
780.334	6.54234
783.227	6.3343
786.119	5.21733
789.012	5.26093
791.905	4.22138
794.798	4.15224
797.69	4.60419
800.583	3.93486
803.476	4.65892
806.368	3.91014
809.261	3.25687
812.154	3.71045
815.046	4.82012
817.939	4.98017
820.832	5.442
823.725	5.11431
826.617	5.2318
829.51	5.33412
832.403	5.58128
835.295	6.16883
838.188	5.55649
841.081	6.48664
843.973	5.87341
846.866	6.19528
849.759	5.43109
852.652	5.21693
855.544	6.06619
858.437	5.78307
861.33	4.75302
864.222	4.76208
867.115	3.92895
870.008	4.28922
872.9	3.4914
875.793	2.91103
878.686	2.25129
881.578	2.59423
884.471	2.26694
887.364	1.72845
890.257	0.824478
893.149	0.407681
896.042	0.172333
898.935	0.189377
901.827	0.082222
904.72	0.280392
907.613	1.54036
910.505	1.72924
913.398	0.899918
916.291	1.04893
919.184	1.07242
922.076	0.767746
924.969	0.532372
927.862	3.37541
930.754	5.06067
933.647	8.56428
936.54	13.1912
939.433	19.9775
942.325	27.6717
945.218	35.5226
948.111	43.0737
951.003	51.9305
953.896	60.692
956.789	70.2401
959.681	81.056
962.574	94.7652
965.467	110.595
968.36	129.319
971.252	151.925
974.145	174.829
977.038	201.456
979.93	233.218
982.823	253.988
985.716	265.378
988.608	265.932
991.501	256.261
994.394	242.878
997.287	227.421
1000.18	208.233
1003.07	186.506
1005.97	169.081
1008.86	148.268
1011.75	128.837
1014.64	109.912
1017.53	94.312
1020.43	79.0485
1023.32	67.4569
1026.21	58.3194
1029.11	48.9386
1032	40.9894
1034.89	32.9164
1037.78	27.352
1040.68	22.3299
1043.57	17.4645
1046.46	12.9816
1049.36	9.74527
1052.25	6.31897
1055.14	3.44842
1058.03	0.791153
1060.93	0.604294
1063.82	0.856621
1066.71	0.934494
1069.6	1.11243
1072.5	0.225548
1075.39	0.067535
1078.28	0.639343
1081.17	0.200294
1084.07	0.798485
1086.96	0.345039
1089.85	0.638519
1092.75	0.090424
1095.64	0.467461
1098.53	0.312889
1101.42	0.526329
1104.32	0.098244
1107.21	0.194298
1110.1	0.210022
1112.99	1.72881
1115.89	1.90536
1118.78	1.23457
1121.67	2.31525
1124.57	1.49612
1127.46	2.72727
1130.35	2.85078
1133.24	3.39799
1136.14	5.17946
1139.03	4.67582
1141.92	6.00378
1144.81	5.52813
1147.71	6.76701
1150.6	6.85286
1153.49	7.12428
1156.38	6.22063
1159.28	6.30058
1162.17	5.48074
1165.06	5.18117
1167.96	3.73667
1170.85	3.81467
1173.74	3.41339
1176.63	2.33899
1179.53	1.83284
1182.42	1.25003
1185.31	0.421543
1188.2	1.57736
1191.1	0.576378
1193.99	0.829536
1196.88	0.176739
1199.78	1.18639
1202.67	0.125431
1205.56	0.4319
1208.45	0.581944
1211.35	1.45588
1214.24	2.05157
1217.13	1.73947
1220.02	2.0428
1222.92	1.84747
1225.81	2.53999
1228.7	2.71164
1231.6	3.1813
1234.49	2.87262
1237.38	2.86594
1240.27	2.45021
1243.17	2.07609
1246.06	2.09908
1248.95	2.04138
1251.84	2.22036
1254.74	1.96381
1257.63	1.72755
1260.52	1.90989
1263.41	1.63534
1266.31	1.64383
1269.2	0.965195
1272.09	0.731579
1274.99	0.539528
1277.88	0.322308
1280.77	0.038841
