Measurement: Raman, 780 nm, unoriented, Raman Data Processed
Mineral: Greifensteinite
Rruff sample: R100221
Ideal chemistry: Ca_2_Fe^2+^_5_Be_4_(PO_4_)_6_(OH)_4_6H_2_O
Locality: Xanda mine, Virgem da Lapa, Minas Gerais, Brazil
Source: Luiz Menezes
Description: Rosettes of green platy crystals on microcline and muscovite
Raman shift (cm-1)	intensity
171.601	0
174.494	1.53442
177.386	4.41858
180.279	1.65959
183.172	2.03586
186.065	2.53178
188.957	1.53883
191.85	5.36259
194.743	5.46141
197.635	7.7905
200.528	10.6861
203.421	5.80884
206.313	7.98419
209.206	4.38939
212.099	2.35613
214.992	0.086334
217.884	1.82056
220.777	2.98646
223.67	0.291092
226.562	2.55107
229.455	3.25934
232.348	7.6084
235.24	9.83662
238.133	14.8385
241.026	17.5401
243.918	21.2749
246.811	22.4795
249.704	22.5638
252.597	23.5208
255.489	18.0969
258.382	19.4721
261.275	18.9824
264.167	16.9725
267.06	10.0371
269.953	10.8671
272.846	6.79359
275.738	4.24863
278.631	6.91672
281.524	7.30603
284.416	4.54135
287.309	2.91127
290.202	8.84537
293.094	7.80936
295.987	7.28854
298.88	5.88725
301.772	5.42447
304.665	1.61278
307.558	10.5508
310.45	7.10123
313.343	6.18187
316.236	6.16698
319.129	7.16457
322.021	11.1402
324.914	6.7446
327.807	9.5137
330.699	11.5644
333.592	12.6108
336.485	3.50835
339.377	5.50017
342.27	0.338943
345.163	0.359863
348.056	0.838852
350.948	4.06418
353.841	8.02763
356.734	14.2445
359.626	23.786
362.519	35.8032
365.412	45.001
368.305	58.1689
371.197	65.0196
374.09	70.4676
376.983	63.4171
379.875	49.4214
382.768	33.0825
385.661	25.6165
388.553	12.4955
391.446	10.1947
394.339	5.55803
397.231	1.16374
400.124	0.721832
403.017	2.07198
405.909	5.05676
408.802	2.74112
411.695	2.04552
414.588	5.1589
417.48	10.2133
420.373	17.5236
423.266	29.2179
426.158	35.181
429.051	44.9132
431.944	49.7449
434.837	50.0538
437.729	47.207
440.622	38.5986
443.515	28.2716
446.407	20.5629
449.3	15.4901
452.193	10.2621
455.085	11.5241
457.978	10.3736
460.871	4.48129
463.764	5.5527
466.656	2.59723
469.549	4.69069
472.442	3.53757
475.334	2.84714
478.227	2.92001
481.12	6.55559
484.012	13.0024
486.905	12.0724
489.798	13.4465
492.69	9.43491
495.583	9.74637
498.476	7.36661
501.369	3.17096
504.261	3.90904
507.154	1.41235
510.047	5.08301
512.939	4.67781
515.832	1.34598
518.725	0.898315
521.617	0.995926
524.51	0.366089
527.403	0.404144
530.296	0.372879
533.188	2.56952
536.081	1.14943
538.974	4.72771
541.866	9.39023
544.759	13.2396
547.652	15.2682
550.544	19.8071
553.437	22.1671
556.33	26.1202
559.222	26.5358
562.115	16.4572
565.008	16.6209
567.901	11.6719
570.793	8.8712
573.686	6.44477
576.579	8.73202
579.471	8.15197
582.364	7.59292
585.257	0.762276
588.149	5.6216
591.042	5.82384
593.935	0.455711
596.828	5.81103
599.72	2.3001
602.613	7.66793
605.506	4.55588
608.398	1.86769
611.291	3.48912
614.184	3.49267
617.077	2.99738
619.969	7.81203
622.862	12.3132
625.755	14.6491
628.647	18.5433
631.54	24.1669
634.433	22.3563
637.325	18.7436
640.218	15.8936
643.111	9.17016
646.004	5.39716
648.896	0.042473
651.789	0.767868
654.682	1.4884
657.574	0.698204
660.467	2.27116
663.36	0.69326
666.252	4.54031
669.145	2.26351
672.038	2.92856
674.931	0.538307
677.823	2.38235
680.716	7.74381
683.609	2.48779
686.501	4.72675
689.394	2.28585
692.287	5.90661
695.179	5.29631
698.072	3.03871
700.965	1.05956
703.857	2.45489
706.75	5.60335
709.643	3.98263
712.535	3.29446
715.428	6.36127
718.321	5.27256
721.214	5.92215
724.106	4.75385
726.999	3.34085
729.892	2.34952
732.784	5.06878
735.677	4.98692
738.57	1.1251
741.462	4.18164
744.355	2.23881
747.248	4.45254
750.141	7.44094
753.033	4.28142
755.926	2.42654
758.819	5.1693
761.711	3.3816
764.604	5.4756
767.497	5.99296
770.389	5.16412
773.282	4.62158
776.175	6.15224
779.068	3.41042
781.96	4.07307
784.853	6.85391
787.746	2.17588
790.638	1.56105
793.531	4.60238
796.424	2.94921
799.317	8.57929
802.209	2.6254
805.102	3.33456
807.995	2.59183
810.887	9.67361
813.78	5.75113
816.673	4.05532
819.565	6.05894
822.458	7.17957
825.351	4.21139
828.244	3.07414
831.136	4.50236
834.029	2.54775
836.922	4.48351
839.814	6.57294
842.707	4.38135
845.6	3.43897
848.492	6.10979
851.385	7.60858
854.278	6.42576
857.17	6.33237
860.063	7.98241
862.956	5.50691
865.849	7.13244
868.741	4.84339
871.634	4.02518
874.527	4.36893
877.419	4.01186
880.312	3.96081
883.205	2.09064
886.097	5.06027
888.99	4.02653
891.883	2.14216
894.775	1.14114
897.668	1.55773
900.561	2.49272
903.454	0.941498
906.346	3.34772
909.239	0.376396
912.132	0.71376
915.024	1.02346
917.917	1.22543
920.81	1.36599
923.702	1.41023
926.595	3.60327
929.488	4.42307
932.381	7.30407
935.273	8.79637
938.166	17.3468
941.059	22.481
943.951	26.4464
946.844	31.868
949.737	39.6893
952.63	46.7541
955.522	52.841
958.415	60.7512
961.308	69.1745
964.2	79.9533
967.093	96.406
969.986	118.267
972.878	139.335
975.771	158.155
978.664	174.235
981.557	180.875
984.449	166.988
987.342	149.738
990.235	129.667
993.127	116.461
996.02	99.2262
998.913	81.7268
1001.8	75.8129
1004.7	66.0791
1007.59	54.6285
1010.48	46.917
1013.38	44.7959
1016.27	39.4046
1019.16	32.3515
1022.05	28.9952
1024.95	26.4429
1027.84	17.3757
1030.73	18.4358
1033.62	7.76972
1036.52	11.8049
1039.41	6.96137
1042.3	8.30444
1045.2	2.17426
1048.09	2.94671
1050.98	2.46652
1053.87	1.35283
1056.77	1.68475
1059.66	0.929138
1062.55	1.32332
1065.44	2.78877
1068.34	3.11488
1071.23	4.18664
1074.12	5.66055
1077.02	3.45802
1079.91	1.03518
1082.8	1.32008
1085.69	4.36694
1088.59	0.535873
1091.48	3.30724
1094.37	0.839607
1097.26	6.76262
1100.16	7.35062
1103.05	1.18591
1105.94	2.7085
1108.84	0.470764
1111.73	2.41758
1114.62	1.57451
1117.51	0.430733
1120.41	1.72824
1123.3	1.26205
1126.19	5.31596
1129.08	1.53764
1131.98	1.29101
1134.87	0.064087
1137.76	1.92567
1140.65	3.416
1143.55	3.11655
1146.44	5.34265
1149.33	4.2182
1152.23	3.09518
1155.12	2.49537
1158.01	1.65554
1160.9	1.70827
1163.8	0.385971
1166.69	1.33972
1169.58	2.5249
1172.47	2.02669
1175.37	4.70957
1178.26	1.7297
1181.15	2.01488
1184.05	1.28038
1186.94	0.102226
1189.83	2.41137
1192.72	3.6382
1195.62	3.96687
1198.51	5.39856
1201.4	3.33999
1204.29	3.37002
1207.19	2.50809
1210.08	1.81218
1212.97	2.87616
1215.87	4.26964
1218.76	5.54049
1221.65	3.75178
1224.54	3.32296
1227.44	6.40343
1230.33	1.81862
1233.22	3.40938
1236.11	4.43932
1239.01	3.18089
1241.9	3.14545
1244.79	4.82487
1247.68	1.94969
1250.58	2.11959
1253.47	3.5652
1256.36	2.92209
1259.26	1.83612
1262.15	4.15641
1265.04	4.40227
1267.93	1.28367
1270.83	4.17672
1273.72	6.09
1276.61	4.0948
1279.5	3.31275
1282.4	2.65793
