Measurement: Raman, 532 nm, unoriented, Raman Data Processed
Mineral: Greifensteinite
Rruff sample: R100221
Ideal chemistry: Ca_2_Fe^2+^_5_Be_4_(PO_4_)_6_(OH)_4_6H_2_O
Locality: Xanda mine, Virgem da Lapa, Minas Gerais, Brazil
Source: Luiz Menezes
Description: Rosettes of green platy crystals on microcline and muscovite
Raman shift (cm-1)	intensity
177.334	0
180.227	0.788589
183.119	2.55564
186.012	0.999817
188.905	1.2071
191.798	2.58315
194.69	2.68938
197.583	2.93282
200.476	4.10413
203.369	1.37599
206.261	2.56122
209.154	0.900635
212.047	2.92071
214.939	0.243156
217.832	0.173294
220.725	2.15263
223.617	2.43906
226.51	0.151665
229.403	6.2967
232.296	3.76462
235.188	3.46857
238.081	5.97318
240.974	7.80619
243.866	9.53899
246.759	7.36301
249.652	8.40839
252.544	8.71318
255.437	8.93076
258.33	9.95448
261.223	8.83894
264.115	10.7891
267.008	7.71192
269.901	7.66687
272.793	4.04346
275.686	2.62396
278.579	3.07071
281.471	1.17443
284.364	0.700523
287.257	0.971619
290.15	2.6238
293.042	1.80714
295.935	0.592033
298.828	2.37062
301.72	1.58213
304.613	1.63029
307.506	5.45886
310.399	0.500252
313.291	1.75277
316.184	0.029503
319.077	0.386734
321.969	2.20296
324.862	1.17574
327.755	0.379128
330.647	3.64328
333.54	5.03647
336.433	0.20401
339.325	3.42756
342.218	1.49926
345.111	1.0532
348.004	1.10873
350.896	1.10464
353.789	1.2802
356.682	0.214066
359.574	1.48027
362.467	5.14751
365.36	7.24567
368.253	12.8701
371.145	17.8853
374.038	24.7917
376.931	27.7045
379.823	26.2766
382.716	21.6063
385.609	19.7069
388.502	12.2602
391.394	9.88467
394.287	6.49445
397.18	5.76804
400.072	4.92554
402.965	4.1106
405.858	3.73251
408.75	5.18205
411.643	4.03189
414.536	3.28513
417.428	2.32562
420.321	4.40343
423.214	7.99176
426.107	12.2262
428.999	17.0933
431.892	22.0835
434.785	24.6595
437.677	27.6042
440.57	23.8939
443.463	18.1239
446.356	12.4312
449.248	8.53435
452.141	7.05489
455.034	6.3529
457.926	5.07968
460.819	3.18587
463.712	2.34476
466.604	2.61398
469.497	1.25709
472.39	2.14162
475.283	2.25645
478.175	0.296761
481.068	1.79256
483.961	2.54846
486.853	2.06609
489.746	4.66354
492.639	4.30397
495.531	5.34464
498.424	7.58733
501.317	5.2317
504.21	2.23286
507.102	0.650703
509.995	3.1935
512.888	3.21851
515.78	4.13589
518.673	4.26595
521.566	1.99822
524.458	5.14219
527.351	5.04459
530.244	6.49039
533.137	5.16822
536.029	7.42712
538.922	9.62736
541.815	13.8531
544.707	19.5638
547.6	23.1504
550.493	33.1591
553.386	43.4959
556.278	46.0734
559.171	45.2659
562.064	33.9809
564.956	23.6453
567.849	15.6865
570.742	10.9533
573.635	9.44853
576.527	5.61214
579.42	4.05914
582.313	3.43308
585.205	1.21668
588.098	0.644508
590.991	2.98302
593.883	2.51542
596.776	0.485237
599.669	5.25781
602.562	3.94381
605.454	7.76383
608.347	4.07885
611.24	2.99826
614.132	1.71477
617.025	1.81224
619.918	2.96529
622.81	4.57677
625.703	11.0782
628.596	13.0459
631.489	17.5584
634.381	21.7877
637.274	19.2201
640.167	13.5451
643.059	8.76093
645.952	4.77163
648.845	1.30727
651.737	0.797802
654.63	0.320141
657.523	0.547054
660.416	0.239346
663.308	0.632927
666.201	0.279675
669.094	2.39452
671.986	1.52285
674.879	2.53923
677.772	0.673508
680.664	2.00551
683.557	5.63829
686.45	1.40874
689.343	5.0262
692.235	2.80257
695.128	3.42599
698.021	5.54965
700.913	4.6955
703.806	6.08666
706.699	4.15894
709.592	4.3405
712.484	4.06639
715.377	4.51242
718.27	2.98595
721.162	1.98629
724.055	2.42559
726.948	3.89912
729.841	1.88634
732.733	3.46439
735.626	1.53054
738.519	0.955872
741.411	1.18585
744.304	2.47516
747.197	0.587353
750.089	4.66122
752.982	1.13042
755.875	0.985046
758.768	3.21642
761.66	3.87744
764.553	4.62074
767.446	5.33487
770.338	3.63638
773.231	3.18222
776.124	4.20526
779.016	4.02414
781.909	0.545151
784.802	3.63612
787.694	0.767227
790.587	2.11535
793.48	1.66589
796.373	0.249397
799.265	3.43001
802.158	3.03907
805.051	3.91683
807.943	2.12078
810.836	1.68903
813.729	1.64154
816.621	6.31618
819.514	4.47161
822.407	1.88906
825.3	2.96776
828.192	3.39736
831.085	2.83914
833.978	2.59158
836.87	3.62767
839.763	2.40836
842.656	2.67371
845.549	3.06179
848.441	3.49578
851.334	2.82341
854.227	3.86089
857.119	4.46395
860.012	3.26086
862.905	2.16155
865.798	2.19529
868.69	1.00334
871.583	3.52396
874.476	3.40158
877.368	2.70635
880.261	2.84207
883.154	4.14483
886.046	2.09859
888.939	2.36053
891.832	1.12254
894.725	0.294899
897.617	0.625843
900.51	1.16372
903.403	0.899353
906.295	0.135532
909.188	0.110626
912.081	1.74166
914.973	1.48859
917.866	1.05517
920.759	0.13802
923.652	0.96917
926.544	0.102783
929.437	0.40757
932.33	2.93424
935.222	4.30845
938.115	5.89525
941.008	9.66718
943.9	13.6279
946.793	20.8362
949.686	26.4761
952.579	28.2836
955.471	32.9592
958.364	39.3848
961.257	46.5086
964.149	52.6819
967.042	66.0805
969.935	82.5223
972.827	106.936
975.72	139.379
978.613	177.945
981.506	207.818
984.398	208.837
987.291	196.641
990.184	172.771
993.077	148.056
995.969	127.496
998.862	104.383
1001.75	87.1629
1004.65	69.0727
1007.54	57.4386
1010.43	49.0142
1013.33	39.3326
1016.22	33.9129
1019.11	31.4875
1022	28.5277
1024.9	23.9599
1027.79	20.047
1030.68	18.7225
1033.57	15.4683
1036.47	14.0141
1039.36	8.0723
1042.25	6.90476
1045.14	2.77259
1048.04	3.68081
1050.93	0.636024
1053.82	0.27729
1056.72	0.368828
1059.61	0.001656
1062.5	0.205055
1065.39	1.6287
1068.29	1.52125
1071.18	2.81206
1074.07	1.69276
1076.96	3.65198
1079.86	3.71573
1082.75	5.50084
1085.64	4.52039
1088.54	4.89362
1091.43	4.96495
1094.32	4.36468
1097.21	6.19346
1100.11	4.24107
1103	6.05279
1105.89	2.61778
1108.79	4.92333
1111.68	5.55055
1114.57	0.854813
1117.46	1.16999
1120.36	1.90296
1123.25	2.16189
1126.14	0.534286
1129.03	0.886345
1131.93	0.206093
1134.82	1.17189
1137.71	0.680878
1140.6	3.17241
1143.5	1.17131
1146.39	3.50346
1149.28	1.72696
1152.17	3.12711
1155.07	1.7267
1157.96	1.55214
1160.85	1.82119
1163.75	0.160667
1166.64	0.86731
1169.53	0.920364
1172.42	0.228031
1175.32	2.05045
1178.21	0.060833
1181.1	1.34057
1183.99	1.81516
1186.89	1.84451
1189.78	3.20979
1192.67	2.14153
1195.57	3.25122
1198.46	2.85247
1201.35	3.47769
1204.24	3.97844
1207.14	3.81864
1210.03	3.50321
1212.92	3.00222
1215.82	5.09299
1218.71	4.6499
1221.6	5.21297
1224.49	4.34978
1227.38	4.19604
1230.28	0.698841
1233.17	2.56207
1236.06	1.95281
1238.96	2.77047
1241.85	1.46848
1244.74	2.43864
1247.63	0.494114
1250.53	3.23817
1253.42	3.95802
1256.31	2.10334
1259.2	3.34442
1262.1	3.40914
1264.99	3.14033
1267.88	0.841351
1270.78	2.52251
1273.67	2.70552
1276.56	0.854702
1279.45	1.85328
1282.35	1.8763
1285.24	0.454224
1288.13	2.23759
1291.03	3.69643
1293.92	2.61272
1296.81	1.4599
1299.7	3.11971
1302.6	0
