Measurement: Raman, 532 nm, unoriented, Raman Data Processed
Mineral: Greifensteinite
Rruff sample: R060588
Ideal chemistry: Ca_2_Fe^2+^_5_Be_4_(PO_4_)_6_(OH)_4_6H_2_O
Locality: Linopolis, Minas Gerais, Brazil
Source: Michael Scott
Description: Light brown elongated prismatic crystals, associated with elongated brown eosphorite, and radiating green gormanite, R080075
Raman shift (cm-1)	intensity
134.298	0
137.673	17.8244
141.047	39.2365
144.422	29.2711
147.797	8.23602
151.172	0.596008
154.547	0.112
157.921	0.884705
161.296	8.20975
164.671	24.4721
168.046	39.9989
171.421	56.7942
174.796	72.493
178.17	82.8879
181.545	91.433
184.92	73.9565
188.295	60.559
191.67	58.4442
195.044	62.6295
198.419	68.247
201.794	68.5217
205.169	53.4002
208.544	39.1398
211.918	32.7793
215.293	27.2835
218.668	21.9666
222.043	14.7478
225.418	10.4034
228.792	10.9011
232.167	13.6403
235.542	19.1393
238.917	24.0349
242.292	26.0422
245.667	30.4811
249.041	30.09
252.416	36.5265
255.791	36.769
259.166	35.3556
262.541	32.1086
265.916	33.8552
269.29	32.3017
272.665	30.6458
276.04	23.2327
279.415	14.2139
282.79	6.90439
286.164	1.43631
289.539	0.772949
292.914	2.12314
296.289	0.913361
299.664	4.98578
303.038	6.29724
306.413	9.15042
309.788	10.5808
313.163	11.4647
316.538	10.0807
319.913	10.7038
323.287	9.45778
326.662	9.82961
330.037	9.6839
333.412	10.5311
336.787	12.2894
340.161	13.9549
343.536	11.2967
346.911	8.51474
350.286	2.98181
353.661	1.27603
357.036	1.35742
360.41	0.59317
363.785	9.29825
367.16	15.3278
370.535	32.0815
373.91	45.8236
377.284	63.1554
380.659	76.9847
384.034	76.417
387.409	63.1136
390.784	50.0419
394.159	45.7419
397.533	50.6901
400.908	65.1902
404.283	86.1191
407.658	91.4849
411.033	78.3634
414.407	65.7032
417.782	51.4361
421.157	40.9469
424.532	32.8704
427.907	36.7209
431.281	46.9161
434.656	60.986
438.031	73.3979
441.406	64.6421
444.781	42.0966
448.156	19.1114
451.53	7.66647
454.905	2.13016
458.28	2.57657
461.655	1.75198
465.03	2.53268
468.404	1.26102
471.779	1.04974
475.154	2.27359
478.529	0.103119
481.904	1.3057
485.279	6.10684
488.653	8.50934
492.028	10.7407
495.403	10.9513
498.778	15.807
502.153	15.4861
505.527	9.8916
508.902	5.01346
512.277	1.60388
515.652	0.87149
519.027	0.224762
522.402	0.727234
525.776	3.26187
529.151	1.54913
532.526	2.26593
535.901	4.75385
539.276	13.3108
542.65	29.7551
546.025	49.9174
549.4	72.6938
552.775	100.926
556.15	135.02
559.525	150.061
562.899	137.205
566.274	102.549
569.649	74.7508
573.024	57.9247
576.399	51.0223
579.774	53.2039
583.148	44.539
586.523	26.1527
589.898	14.1727
593.273	6.3905
596.648	4.19522
600.022	6.45029
603.397	11.7842
606.772	13.4925
610.147	7.17853
613.522	3.53734
616.896	9.61079
620.271	16.9814
623.646	37.6587
627.021	58.9956
630.396	84.2631
633.77	105.427
637.145	97.0273
640.52	66.7724
643.895	41.2831
647.27	25.001
650.645	13.176
654.019	5.22087
657.394	3.15138
660.769	0.319229
664.144	1.576
667.519	1.52126
670.894	0.490677
674.268	1.76823
677.643	0.840057
681.018	0.024689
684.393	1.02809
687.768	2.17435
691.142	2.63641
694.517	1.11009
697.892	2.23204
701.267	3.42693
704.642	2.2993
708.016	2.82478
711.391	4.11032
714.766	6.2269
718.141	2.40794
721.516	4.61507
724.891	3.4183
728.265	2.66054
731.64	1.04378
735.015	0.470932
738.39	1.71845
741.765	0.568817
745.139	1.08791
748.514	0.98317
751.889	1.98585
755.264	2.92641
758.639	5.12059
762.014	7.73251
765.388	10.8745
768.763	11.0914
772.138	13.963
775.513	17.0811
778.888	16.807
782.263	18.4332
785.637	19.4453
789.012	23.9383
792.387	27.6529
795.762	30.5658
799.136	32.6764
802.511	36.6837
805.886	37.3993
809.261	37.498
812.636	29.7856
816.011	30.5146
819.385	29.0168
822.76	26.6838
826.135	25.019
829.51	22.8157
832.885	21.3415
836.26	20.746
839.634	17.4407
843.009	16.1661
846.384	14.6605
849.759	14.0825
853.134	12.3791
856.508	13.9231
859.883	9.52087
863.258	10.2416
866.633	8.14992
870.008	4.85921
873.383	5.86739
876.757	5.40062
880.132	3.94353
883.507	5.77652
886.882	4.11768
890.257	4.40987
893.631	2.60007
897.006	1.67599
900.381	0.693741
903.756	0.101212
907.131	0.181229
910.505	0.446793
913.88	1.67059
917.255	0.727905
920.63	1.25725
924.005	0.148926
927.38	1.0105
930.754	2.90659
934.129	6.07646
937.504	12.6345
940.879	22.7272
944.254	36.2064
947.629	50.9314
951.003	69.2702
954.378	87.2258
957.753	106.827
961.128	129.539
964.503	174.23
967.877	259.034
971.252	388.282
974.627	566.482
978.002	798.984
981.377	982.957
984.751	885.309
988.126	637.278
991.501	439.87
994.876	307.892
998.251	221.31
1001.63	163.368
1005	129.921
1008.38	108.802
1011.75	97.516
1015.12	91.1986
1018.5	87.4164
1021.87	81.9172
1025.25	74.6706
1028.62	69.2023
1032	67.6499
1035.37	62.8917
1038.75	50.6641
1042.12	32.7762
1045.5	17.7661
1048.87	10.1614
1052.25	4.77249
1055.62	0.731049
1059	1.70096
1062.37	1.49966
1065.75	2.96722
1069.12	2.54547
1072.5	1.29132
1075.87	1.13705
1079.25	0.058563
1082.62	6.50641
1086	16.2598
1089.37	30.3924
1092.75	40.8753
1096.12	37.5575
1099.49	27.4684
1102.87	21.242
1106.24	19.0388
1109.62	19.3033
1112.99	26.7025
1116.37	31.3398
1119.74	29.4285
1123.12	21.586
1126.49	13.8155
1129.87	6.45079
1133.24	3.69316
1136.62	0.50798
1139.99	1.61119
1143.37	0.58725
1146.74	0.291229
1150.12	0.020142
1153.49	0.956665
1156.87	0.561661
1160.24	1.15462
1163.62	2.23608
1166.99	3.28651
1170.37	4.28214
1173.74	4.74603
1177.12	6.62676
1180.49	7.7503
1183.87	6.99661
1187.24	5.91647
1190.62	6.31953
1193.99	8.11215
1197.37	8.66675
1200.74	7.41956
1204.12	6.70641
1207.49	8.36322
1210.86	6.40828
1214.24	7.92389
1217.61	6.31082
1220.99	4.28278
1224.36	5.08601
1227.74	4.79755
1231.11	6.17396
1234.49	4.35898
1237.86	2.38667
1241.24	3.51628
1244.61	3.27792
1247.99	5.80541
1251.36	5.6895
1254.74	3.53958
1258.11	3.84239
1261.49	4.69492
1264.86	3.28516
1268.24	4.12428
1271.61	3.05173
1274.99	4.90181
1278.36	3.7471
1281.73	3.60808
1285.11	3.34998
1288.48	1.24731
1291.86	1.88159
1295.23	2.61696
1298.61	0.647842
1301.98	0.729507
