Measurement: Raman, 780 nm, unoriented, Raman Data Processed
Mineral: Greifensteinite
Rruff sample: R060588
Ideal chemistry: Ca_2_Fe^2+^_5_Be_4_(PO_4_)_6_(OH)_4_6H_2_O
Locality: Linopolis, Minas Gerais, Brazil
Source: Michael Scott
Description: Light brown elongated prismatic crystals, associated with elongated brown eosphorite, and radiating green gormanite, R080075
Raman shift (cm-1)	intensity
132.539	0
135.432	0.431953
138.325	4.32758
141.217	5.28606
144.11	3.08212
147.003	0.741989
149.895	0.423164
152.788	0.690407
155.681	1.48233
158.573	0.608658
161.466	3.02646
164.359	4.22586
167.251	5.72366
170.144	7.98235
173.037	10.8616
175.93	11.2119
178.822	14.2901
181.715	13.5913
184.608	11.9345
187.5	10.8828
190.393	10.7432
193.286	10.7249
196.179	10.529
199.071	11.5637
201.964	9.45428
204.857	9.6475
207.749	10.1944
210.642	10.8468
213.535	10.095
216.427	8.07528
219.32	5.87929
222.213	5.6843
225.106	5.61631
227.998	5.9762
230.891	7.14087
233.784	7.65205
236.676	8.18436
239.569	5.924
242.462	5.37923
245.354	6.00295
248.247	6.46347
251.14	5.61765
254.032	5.58034
256.925	4.43688
259.818	3.85384
262.711	3.47731
265.603	3.29739
268.496	3.68749
271.389	2.72413
274.281	2.65742
277.174	0.724533
280.067	0.593269
282.959	0.368095
285.852	0.609016
288.745	1.03292
291.638	0.180161
294.53	0.802101
297.423	1.56008
300.316	3.70746
303.208	3.60096
306.101	3.64389
308.994	4.48384
311.887	4.98684
314.779	5.07492
317.672	4.87035
320.565	4.52704
323.457	3.4604
326.35	3.70589
329.243	3.15027
332.135	2.19516
335.028	3.67027
337.921	3.39166
340.813	2.90515
343.706	1.39708
346.599	0.926971
349.492	0.81282
352.384	1.05243
355.277	0.770027
358.17	1.75967
361.062	2.84753
363.955	4.69153
366.848	8.59508
369.74	11.8361
372.633	15.15
375.526	20.2727
378.419	23.1163
381.311	23.644
384.204	20.0683
387.097	16.3005
389.989	12.017
392.882	8.19652
395.775	6.58934
398.668	5.00028
401.56	5.76492
404.453	7.23645
407.346	6.01918
410.238	5.4631
413.131	4.7971
416.024	5.39091
418.916	5.71259
421.809	5.99982
424.702	6.39968
427.594	7.17404
430.487	11.5055
433.38	16.3895
436.273	19.1857
439.165	21.0328
442.058	18.6763
444.951	14.3206
447.843	9.28903
450.736	5.35454
453.629	4.12427
456.522	1.83092
459.414	0.737984
462.307	0.806534
465.2	0.951401
468.092	3.8e-05
470.985	0.575317
473.878	0.422096
476.77	1.0258
479.663	0.595032
482.556	0.91774
485.449	0.378487
488.341	1.28365
491.234	1.19024
494.127	2.15987
497.019	2.8798
499.912	3.7643
502.805	3.02648
505.697	3.09315
508.59	1.6078
511.483	0.785324
514.375	1.90559
517.268	1.03149
520.161	0.875229
523.054	1.37283
525.946	1.95963
528.839	0.859764
531.732	0.115013
534.624	0.047264
537.517	0.550491
540.41	0.572937
543.303	0.015862
546.195	1.21094
549.088	1.4945
551.981	2.15774
554.873	4.53478
557.766	5.73692
560.659	7.35512
563.551	6.03802
566.444	4.67326
569.337	4.27602
572.23	4.05357
575.122	3.85032
578.015	4.22068
580.908	4.29868
583.8	4.37767
586.693	4.26367
589.586	4.85793
592.478	2.81895
595.371	3.09091
598.264	3.04783
601.156	4.10787
604.049	5.75239
606.942	5.30416
609.835	4.45557
612.727	1.73863
615.62	2.48045
618.513	3.83077
621.405	4.94991
624.298	7.53283
627.191	10.4999
630.083	13.6729
632.976	15.1533
635.869	15.3215
638.761	13.3265
641.654	8.63963
644.547	5.32482
647.44	4.37049
650.332	1.52284
653.225	1.43487
656.118	0.331955
659.01	0.928497
661.903	0.117157
664.796	0.521942
667.688	0.139221
670.581	0.328705
673.474	0.56694
676.367	0.026932
679.259	0.176582
682.152	0.17701
685.045	0.301956
687.937	0.581421
690.83	0.174973
693.723	0.407173
696.615	0.403641
699.508	0.129623
702.401	1.12817
705.294	1.15465
708.186	1.24731
711.079	1.70257
713.972	1.51218
716.864	1.73196
719.757	1.84164
722.65	2.30546
725.543	2.08073
728.435	0.912933
731.328	0.493805
734.221	1.08369
737.113	0.016998
740.006	0.252594
742.899	0.426445
745.791	0.016594
748.684	0.481201
751.577	0.666664
754.47	0.957848
757.362	0.067375
760.255	0.728737
763.148	0.56929
766.04	1.0438
768.933	0.834229
771.826	1.00721
774.718	1.30659
777.611	1.23425
780.504	1.37885
783.396	1.25517
786.289	2.66329
789.182	2.37254
792.075	2.69929
794.967	2.60176
797.86	3.11549
800.753	2.8305
803.645	3.27148
806.538	2.66856
809.431	2.76164
812.323	2.86014
815.216	3.2117
818.109	3.2506
821.002	2.74231
823.894	2.91032
826.787	3.15649
829.68	2.79385
832.572	3.02341
835.465	3.28714
838.358	2.95002
841.25	2.21157
844.143	2.72292
847.036	2.74208
849.929	1.25736
852.821	2.06334
855.714	1.0305
858.607	1.33902
861.5	1.92942
864.392	1.97768
867.285	2.34705
870.178	1.06713
873.07	2.15964
875.963	2.26015
878.856	0.491364
881.748	1.22199
884.641	0.951195
887.534	1.91444
890.427	0.236328
893.319	0.191559
896.212	0.057877
899.105	0.19371
901.997	0.403366
904.89	0.095062
907.783	0.087326
910.675	0.287308
913.568	0.635139
916.461	0.212822
919.353	0.156456
922.246	0.042358
925.139	0.856461
928.032	0.023094
930.924	2.34345
933.817	2.12447
936.71	3.54514
939.602	4.60776
942.495	5.74456
945.388	8.5369
948.28	9.94093
951.173	12.1994
954.066	13.8194
956.958	15.4221
959.851	18.0036
962.744	20.336
965.637	24.9615
968.529	33.2449
971.422	44.5416
974.315	56.9199
977.207	72.5575
980.1	84.0884
982.993	82.9635
985.885	68.63
988.778	52.5527
991.671	39.9418
994.564	30.5533
997.456	25.6728
1000.35	21.9937
1003.24	19.2026
1006.13	16.003
1009.03	16.4781
1011.92	14.7229
1014.81	14.5504
1017.71	14.8688
1020.6	13.4578
1023.49	11.6827
1026.38	9.70575
1029.28	8.30689
1032.17	6.80586
1035.06	6.01201
1037.95	5.34119
1040.85	4.73605
1043.74	3.84806
1046.63	3.4644
1049.53	3.88907
1052.42	3.18551
1055.31	1.75101
1058.2	1.0807
1061.1	0.901787
1063.99	0.381523
1066.88	0.007957
1069.77	0.13343
1072.67	0.423691
1075.56	0.44508
1078.45	0.143875
1081.35	0.48465
1084.24	0.318459
1087.13	0.798508
1090.02	1.31769
1092.91	1.91206
1095.81	2.27965
1098.7	2.17729
1101.59	1.52155
1104.49	2.10676
1107.38	2.8102
1110.27	2.71707
1113.16	3.3871
1116.06	4.39778
1118.95	3.83953
1121.84	3.38072
1124.73	2.90727
1127.63	1.22569
1130.52	0.926861
1133.41	1.55343
1136.31	0.054771
1139.2	0.730373
1142.09	0.09642
1144.98	0.034958
1147.88	0.283928
1150.77	0.765972
1153.66	0.286121
1156.56	0.880634
1159.45	0.308167
1162.34	0.611828
1165.23	0.267849
1168.13	0.56427
1171.02	1.37894
1173.91	1.00794
1176.8	1.09432
1179.7	1.62385
1182.59	1.41792
1185.48	1.52455
1188.38	1.31971
1191.27	1.36165
1194.16	1.05053
1197.05	0.862106
1199.94	1.51756
1202.84	0.664536
1205.73	0.640686
1208.62	1.19111
1211.52	0.446918
1214.41	0.788567
1217.3	1.43094
1220.19	0.667553
1223.09	0.542149
1225.98	0.04744
1228.87	0.475014
1231.77	0.967533
1234.66	1.12667
1237.55	1.07861
1240.44	0.257961
1243.34	1.10815
1246.23	0.43808
1249.12	0.136692
1252.01	0.377041
1254.91	0.979164
1257.8	0.613644
1260.69	1.1382
1263.59	0.047268
1266.48	0.225342
1269.37	0.314034
1272.26	0.409084
1275.16	0.380207
1278.05	0.698788
1280.94	0.616161
1283.83	0.261227
