Measurement: Raman, 780 nm, unoriented, Raman Data Processed
Mineral: Greifensteinite
Rruff sample: R070613
Ideal chemistry: Ca_2_Fe^2+^_5_Be_4_(PO_4_)_6_(OH)_4_6H_2_O
Locality: Tip Top mine, Custer County, South Dakota, USA
Source: Dakota Matrix Minerals
Description: Darker orange-brown blebs in pale salmon colored montgomeryite, associated with tiptopite (R070609)
Raman shift (cm-1)	intensity
127.236	0
130.129	2.73585
133.021	4.47305
135.914	8.23392
138.807	4.14128
141.699	0.255325
144.592	0.605179
147.485	1.13334
150.377	5.82975
153.27	11.9121
156.163	20.4056
159.055	28.874
161.948	42.5083
164.841	55.4688
167.734	66.6016
170.626	76.7409
173.519	75.2195
176.412	66.455
179.304	53.6422
182.197	40.8122
185.09	33.4117
187.982	28.5265
190.875	25.7807
193.768	27.8035
196.661	30.7909
199.553	34.6766
202.446	38.0314
205.339	43.4323
208.231	46.823
211.124	49.5542
214.017	46.3407
216.91	38.9459
219.802	25.6991
222.695	16.2542
225.588	9.03562
228.48	4.0028
231.373	1.36437
234.266	0.263527
237.158	0.855103
240.051	0.013443
242.944	0.710686
245.837	2.0363
248.729	5.34661
251.622	7.83473
254.515	10.0096
257.407	10.0726
260.3	11.668
263.193	8.8237
266.085	8.46854
268.978	5.58374
271.871	3.74986
274.764	2.69934
277.656	0.504478
280.549	0.497795
283.442	1.00961
286.334	0.896835
289.227	2.29259
292.12	3.07
295.012	4.23885
297.905	3.66291
300.798	3.45465
303.69	1.41888
306.583	2.46127
309.476	0.354706
312.369	1.65366
315.261	0.690575
318.154	3.30157
321.047	3.33546
323.939	2.94565
326.832	4.45944
329.725	5.33629
332.618	5.04393
335.51	5.77135
338.403	4.92989
341.296	3.51374
344.188	0.42572
347.081	0.966568
349.974	2.65429
352.866	1.01591
355.759	0.358017
358.652	3.03039
361.545	6.29411
364.437	10.148
367.33	14.9772
370.223	22.3246
373.115	27.2237
376.008	34.2692
378.901	39.811
381.793	47.4655
384.686	52.8623
387.579	60.9931
390.471	68.8761
393.364	79.6744
396.257	91.5955
399.15	103.25
402.042	107.928
404.935	103.047
407.828	88.5884
410.72	77.245
413.613	68.8773
416.506	59.4824
419.399	53.2673
422.291	48.5038
425.184	43.5712
428.077	39.5743
430.969	36.3364
433.862	34.4145
436.755	30.3525
439.647	24.6642
442.54	19.4758
445.433	17.3125
448.325	12.5557
451.218	11.9346
454.111	12.1688
457.004	10.047
459.896	12.8681
462.789	12.6577
465.682	11.6458
468.574	10.4021
471.467	7.18796
474.36	3.70635
477.252	2.27435
480.145	0.447586
483.038	1.04553
485.931	1.59405
488.823	1.83296
491.716	1.00793
494.609	1.77262
497.501	3.8402
500.394	4.03713
503.287	3.9389
506.18	1.80502
509.072	1.49676
511.965	0.686653
514.857	0.1325
517.75	0.52565
520.643	0.392235
523.536	2.466
526.428	3.14307
529.321	3.47638
532.214	3.35503
535.106	3.68179
537.999	3.34613
540.892	4.6489
543.784	5.26755
546.677	7.32719
549.57	10.5137
552.463	15.9471
555.355	20.2449
558.248	25.5711
561.141	29.0801
564.033	32.7314
566.926	32.8638
569.819	31.9686
572.712	31.5994
575.604	32.4784
578.497	33.633
581.39	32.7144
584.282	30.9459
587.175	28.479
590.068	26.5953
592.96	24.4456
595.853	23.4725
598.746	24.0328
601.639	25.4894
604.531	23.2989
607.424	18.7741
610.317	10.7125
613.209	6.01585
616.102	2.32393
618.995	0.326542
621.888	0.87743
624.78	3.83564
627.673	6.34115
630.566	10.5275
633.458	13.9473
636.351	15.0726
639.244	13.2308
642.136	11.3389
645.029	8.86321
647.922	6.04441
650.814	2.87875
653.707	1.417
656.6	0.938961
659.493	0.638752
662.385	0.68055
665.278	0.071407
668.171	0.041656
671.063	0.322807
673.956	0.183723
676.849	0.201286
679.741	0.070538
682.634	0.528854
685.527	0.256748
688.42	0.865707
691.312	0.021141
694.205	0.390781
697.098	0.919342
699.99	0.106121
702.883	0.198517
705.776	0.718948
708.668	0.317459
711.561	0.591518
714.454	1.36544
717.346	1.05896
720.239	0.217396
723.132	0.359631
726.025	1.0171
728.917	0.31218
731.81	0.579849
734.703	0.341305
737.595	0.602303
740.488	0.979065
743.381	2.08744
746.274	2.29175
749.166	3.70721
752.059	4.15606
754.952	4.43235
757.844	6.02331
760.737	7.01162
763.63	7.92014
766.522	9.24498
769.415	10.7148
772.308	11.1603
775.201	12.3874
778.093	11.2078
780.986	11.018
783.879	10.6025
786.771	8.85638
789.664	6.98423
792.557	6.47325
795.449	5.97659
798.342	4.8963
801.235	4.01787
804.128	2.8422
807.02	3.25903
809.913	3.12045
812.806	2.4407
815.698	2.97471
818.591	3.10677
821.484	2.71685
824.376	2.83649
827.269	2.45221
830.162	3.01306
833.054	3.3062
835.947	3.48061
838.84	3.6252
841.733	4.22454
844.625	4.47996
847.518	4.97455
850.411	4.68171
853.303	5.1207
856.196	4.57393
859.089	5.6327
861.981	5.1574
864.874	3.90721
867.767	4.69924
870.66	3.61604
873.552	3.09537
876.445	3.44895
879.338	2.90247
882.23	2.13452
885.123	1.81862
888.016	1.92241
890.909	2.0356
893.801	0.549618
896.694	0.698849
899.587	0.06702
902.479	0.78256
905.372	0.876089
908.265	0.310839
911.157	1.20675
914.05	1.26314
916.943	0.562897
919.836	0.144691
922.728	0.141281
925.621	0.827881
928.514	2.16182
931.406	4.51028
934.299	7.76247
937.192	9.53246
940.084	15.0785
942.977	18.4888
945.87	23.0968
948.763	28.1517
951.655	32.7054
954.548	36.6128
957.441	41.7992
960.333	50.5022
963.226	61.514
966.119	77.3978
969.011	96.4809
971.904	120.261
974.797	148.279
977.689	180.046
980.582	208.667
983.475	223.47
986.368	221.232
989.26	212.673
992.153	198.119
995.046	184.564
997.938	170.214
1000.83	152.897
1003.72	139.142
1006.62	123.242
1009.51	108.084
1012.4	94.3027
1015.29	81.7019
1018.19	66.6667
1021.08	55.2769
1023.97	45.8562
1026.87	37.8503
1029.76	29.9248
1032.65	25.5692
1035.54	20.6145
1038.44	17.4638
1041.33	15.0666
1044.22	11.7744
1047.11	10.4245
1050.01	8.25427
1052.9	6.03524
1055.79	3.1973
1058.68	0.595692
1061.58	0.618572
1064.47	0.010563
1067.36	0.521183
1070.26	0.050392
1073.15	0.689346
1076.04	0.031082
1078.93	0.124329
1081.83	0.174911
1084.72	0.165989
1087.61	0.363758
1090.51	0.486881
1093.4	0.126854
1096.29	1.34678
1099.18	0.30217
1102.08	0.850716
1104.97	0.470055
1107.86	0.91592
1110.75	0.036037
1113.65	1.00683
1116.54	1.43755
1119.43	2.20904
1122.32	2.93168
1125.22	3.86178
1128.11	4.57922
1131	4.42055
1133.89	5.57332
1136.79	6.18118
1139.68	6.27007
1142.57	6.03333
1145.47	6.82363
1148.36	6.74578
1151.25	6.80351
1154.14	6.84408
1157.04	6.39519
1159.93	6.68518
1162.82	5.83301
1165.71	4.44642
1168.61	3.00419
1171.5	2.97959
1174.39	2.92004
1177.29	2.06214
1180.18	1.7275
1183.07	2.03337
1185.96	1.91417
1188.86	1.19562
1191.75	0.777529
1194.64	1.16291
1197.54	1.50312
1200.43	0.549431
1203.32	1.57891
1206.21	0.376789
1209.11	1.24028
1212	1.65846
1214.89	1.57847
1217.78	0.837299
1220.68	1.47213
1223.57	1.21633
1226.46	1.51932
1229.35	1.83035
1232.25	2.64894
1235.14	3.01898
1238.03	2.6093
1240.92	2.15949
1243.82	1.83756
1246.71	1.64562
1249.6	1.9396
1252.5	1.86331
1255.39	1.25321
1258.28	1.34034
1261.17	1.25341
1264.07	1.08858
1266.96	0.826361
1269.85	0.3568
1272.74	0.623379
1275.64	0.777546
1278.53	0.742168
