Measurement: Raman, 532 nm, unoriented, Raman Data Processed
Mineral: Grossular
Rruff sample: R100161
Ideal chemistry: Ca_3_Al_2_(SiO_4_)_3_
Locality: Kenya
Source: William W. Pinch
Description: Green gemmy fragments
Raman shift (cm-1)	intensity
157.567	0
160.46	0.00177
163.353	6.03482
166.245	21.1898
169.138	54.627
172.031	65.168
174.924	70.5178
177.816	83.9497
180.709	133.539
183.602	110.356
186.494	53.2985
189.387	37.1939
192.28	25.0283
195.173	22.2685
198.065	20.7677
200.958	20.6699
203.851	23.4504
206.743	18.1705
209.636	8.99972
212.529	2.586
215.421	1.90872
218.314	2.94775
221.207	1.74789
224.1	5.87573
226.992	17.2338
229.885	31.3875
232.778	51.8417
235.67	75.5231
238.563	101.784
241.456	116.842
244.348	143.742
247.241	187.484
250.134	153.687
253.026	123.975
255.919	121.434
258.812	101.874
261.705	72.3443
264.597	47.0395
267.49	41.664
270.383	47.9762
273.276	72.5496
276.168	109.852
279.061	115.334
281.954	55.7837
284.846	20.8166
287.739	12.4342
290.632	7.58731
293.524	7.69223
296.417	5.42752
299.31	3.3757
302.202	2.05963
305.095	1.29819
307.988	3.52423
310.881	4.12094
313.773	1.27313
316.666	0.644196
319.559	6.85443
322.451	12.2966
325.344	19.536
328.237	31.0322
331.13	30.9903
334.022	23.429
336.915	28.5627
339.808	33.0521
342.7	43.2888
345.593	61.7226
348.486	78.3681
351.378	104.782
354.271	143.63
357.164	212.795
360.057	315.432
362.949	445.889
365.842	609.427
368.735	780.111
371.627	924.712
374.52	1059.13
377.413	860.578
380.305	472.236
383.198	239.841
386.091	136.6
388.984	84.1014
391.876	62.2094
394.769	51.9755
397.662	52.34
400.554	58.41
403.447	63.221
406.34	72.5273
409.233	91.1455
412.125	124.534
415.018	154.469
417.911	126.233
420.803	68.8839
423.696	40.656
426.589	26.0607
429.481	12.7681
432.374	13.0884
435.267	8.92133
438.159	5.86273
441.052	2.35654
443.945	3.71457
446.838	1.117
449.73	2.98123
452.623	4.36578
455.516	0.240265
458.409	1.74271
461.301	0.632599
464.194	0.597504
467.087	1.29041
469.979	8.04712
472.872	13.5178
475.765	21.4139
478.657	28.6029
481.55	20.5203
484.443	17.3462
487.336	20.1352
490.228	22.7531
493.121	37.0431
496.014	50.1105
498.906	63.3498
501.799	78.9815
504.692	84.1403
507.584	91.3679
510.477	86.3236
513.37	67.715
516.263	52.021
519.155	47.2118
522.048	47.4374
524.941	54.023
527.833	54.9934
530.726	54.128
533.619	65.1917
536.511	84.9362
539.404	115.797
542.297	174.896
545.19	263.481
548.082	327.981
550.975	224.767
553.868	98.5815
556.76	51.0341
559.653	30.8742
562.546	21.0996
565.438	21.0508
568.331	15.3686
571.224	14.1918
574.117	11.6941
577.009	6.32562
579.902	4.21368
582.795	4.86124
585.687	6.45276
588.58	7.82642
591.473	12.7824
594.365	5.22604
597.258	1.43552
600.151	4.01654
603.044	3.20569
605.936	1.48483
608.829	4.74225
611.722	8.44299
614.614	15.7249
617.507	21.8239
620.4	34.9959
623.293	48.3156
626.185	61.3704
629.078	71.8611
631.971	68.5028
634.863	56.0943
637.756	42.7466
640.649	30.6
643.542	20.9412
646.434	16.0847
649.327	7.78531
652.22	3.31027
655.112	4.71112
658.005	4.85043
660.898	4.72501
663.79	4.60764
666.683	9.81592
669.576	8.86597
672.468	11.0717
675.361	14.3619
678.254	16.0324
681.147	21.4551
684.039	27.9826
686.932	33.3868
689.825	39.4665
692.717	42.7538
695.61	43.6917
698.503	50.7832
701.396	54.2898
704.288	59.0767
707.181	60.857
710.074	54.5993
712.966	45.1556
715.859	34.2726
718.752	29.7852
721.644	21.306
724.537	15.1836
727.43	11.2052
730.323	6.77011
733.215	4.72418
736.108	3.24841
739.001	0.570953
741.893	5.67017
744.786	5.05695
747.679	2.92325
750.572	3.6301
753.464	3.76382
756.357	0.283905
759.25	2.37351
762.142	1.26535
765.035	1.47357
767.928	1.54056
770.82	2.43716
773.713	5.16342
776.606	7.45123
779.499	6.79941
782.391	11.1448
785.284	4.95593
788.177	2.42255
791.069	5.00653
793.962	3.43008
796.855	11.6778
799.747	19.6829
802.64	36.5369
805.533	60.4047
808.426	87.4051
811.318	116.518
814.211	158.422
817.104	197.032
819.996	242.143
822.889	276.39
825.782	273.217
828.674	224.971
831.567	169.969
834.46	130.776
837.353	105.641
840.245	93.2113
843.138	87.7243
846.031	90.9075
848.923	97.4939
851.816	106.953
854.709	120.124
857.601	133.271
860.494	167.108
863.387	226.911
866.28	339.918
869.172	503.078
872.065	730.26
874.958	1016.81
877.851	1329.8
880.743	1455.52
883.636	1249.22
886.529	884.835
889.421	563.384
892.314	338.348
895.207	200.585
898.099	123.981
900.992	75.7847
903.885	51.4485
906.778	36.9735
909.67	27.8541
912.563	21.4711
915.456	18.4719
918.348	17.1434
921.241	16.1433
924.134	18.2801
927.026	16.7539
929.919	16.5853
932.812	14.4957
935.705	6.62262
938.597	0.58075
941.49	8.25058
944.383	8.57883
947.275	4.81497
950.168	0.646729
953.061	1.50226
955.953	0.777283
958.846	2.86368
961.739	1.1077
964.631	2.31897
967.524	4.98648
970.417	6.08542
973.31	15.8359
976.202	17.9144
979.095	21.7742
981.988	27.6534
984.88	33.5785
987.773	31.2651
990.666	38.4808
993.559	49.8373
996.451	46.9929
999.344	57.7141
1002.24	60.9871
1005.13	72.3117
1008.02	77.2999
1010.91	68.4266
1013.81	50.244
1016.7	34.1898
1019.59	24.7449
1022.49	19.7909
1025.38	17.9423
1028.27	24.3412
1031.16	27.7679
1034.06	31.7343
1036.95	36.7253
1039.84	33.7496
1042.73	27.6379
1045.63	28.7649
1048.52	24.5126
1051.41	16.9841
1054.31	17.8585
1057.2	14.6251
1060.09	10.3854
1062.98	8.34015
1065.88	6.59747
1068.77	5.65051
1071.66	6.31519
1074.55	3.94995
1077.45	4.62659
1080.34	4.77521
1083.23	4.27014
1086.12	4.08722
1089.02	0.734558
1091.91	0.310425
1094.8	1.11706
1097.7	1.70636
1100.59	0.759705
1103.48	0.13739
1106.37	1.42584
1109.27	0.055481
1112.16	2.97388
1115.05	2.45483
1117.94	1.28613
1120.84	1.82434
1123.73	0.864563
1126.62	4.26025
1129.52	4.41522
1132.41	2.01074
1135.3	3.40631
1138.19	1.90991
1141.09	3.63995
1143.98	5.93805
1146.87	6.30646
1149.77	8.73724
1152.66	12.1119
1155.55	7.47803
1158.44	9.47852
1161.34	7.60223
1164.23	7.38373
1167.12	5.3244
1170.01	4.67096
1172.91	4.06769
1175.8	5.02759
1178.69	5.69745
1181.58	2.20697
1184.48	4.26044
1187.37	4.46655
1190.26	3.08704
1193.15	1.1236
1196.05	0.066956
1198.94	3.79944
1201.83	3.85998
1204.73	0.434631
1207.62	1.40045
1210.51	2.23676
1213.4	3.97357
1216.3	5.59961
1219.19	3.07281
1222.08	2.64703
1224.97	6.91736
1227.87	2.86877
1230.76	4.65692
1233.65	5.43457
1236.55	3.21527
1239.44	4.64844
1242.33	2.43707
1245.22	6.63434
1248.12	6.53491
1251.01	2.97595
1253.9	7.97284
1256.8	3.89417
1259.69	9.70245
1262.58	7.27374
1265.47	4.9621
1268.37	5.78168
1271.26	8.151
1274.15	5.59082
1277.04	3.93439
1279.94	3.05469
1282.83	4.4856
1285.72	6.29126
1288.61	4.27771
1291.51	5.03332
1294.4	8.74286
1297.29	1.16089
1300.18	2.23529
