Measurement: Raman, 780 nm, unoriented, Raman Data Processed
Mineral: Grossular
Rruff sample: R050312
Ideal chemistry: Ca_3_Al_2_(SiO_4_)_3_
Locality: Eden Mills mine, Vermont, USA
Source: Eugene Schlepp
Description: Red crystal
Measured chemistry: Ca_3.00_(Al_1.75_Fe^3+^_0.23_Ti_0.02_)_Σ=2_((Si_0.99_Al_0.01_)_Σ=1_O_4_)_3_
Raman shift (cm-1)	intensity
99.2731	0
102.648	1.96447
106.023	1.36877
109.397	1.5819
112.772	2.18388
116.147	0.901588
119.522	1.03557
122.897	2.55169
126.272	2.07534
129.646	2.14166
133.021	0.495262
136.396	1.43828
139.771	1.04862
143.146	1.47411
146.52	3.22814
149.895	7.12192
153.27	7.67673
156.645	13.4501
160.02	22.0178
163.395	25.2848
166.769	31.382
170.144	45.0513
173.519	68.3757
176.894	119.93
180.269	153.411
183.643	66.3551
187.018	25.3548
190.393	12.0962
193.768	6.4588
197.143	3.36198
200.518	0.925888
203.892	1.73769
207.267	1.14265
210.642	1.00976
214.017	3.38893
217.392	6.24004
220.766	12.7716
224.141	25.2147
227.516	41.6896
230.891	60.0474
234.266	89.7081
237.641	123.153
241.015	132.659
244.39	164.56
247.765	151.706
251.14	54.9464
254.515	21.4982
257.889	22.3491
261.264	25.6123
264.639	32.8613
268.014	46.8475
271.389	70.0138
274.764	110.091
278.138	128.217
281.513	63.4832
284.888	27.6936
288.263	13.7659
291.638	4.51854
295.012	3.22772
298.387	7.24425
301.762	4.00964
305.137	2.33836
308.512	10.3435
311.887	15.7389
315.261	22.2189
318.636	26.2229
322.011	31.298
325.386	48.5308
328.761	60.4281
332.135	49.9368
335.51	43.9549
338.885	52.8644
342.26	76.636
345.635	114.566
349.01	167.529
352.384	234.488
355.759	350.954
359.134	490.896
362.509	680.729
365.884	946.045
369.258	1173.53
372.633	1359.94
376.008	1151.15
379.383	631.58
382.758	337.803
386.132	202.802
389.507	137.44
392.882	106.022
396.257	92.106
399.632	84.2315
403.007	88.7632
406.381	92.6972
409.756	116.715
413.131	142.999
416.506	99.8533
419.881	42.668
423.255	16.8742
426.63	6.64436
430.005	0.021507
433.38	1.78239
436.755	4.29925
440.13	2.92069
443.504	2.88117
446.879	0.600594
450.254	3.10252
453.629	3.98096
457.004	4.60676
460.378	4.98372
463.753	4.44728
467.128	4.31895
470.503	4.32051
473.878	10.9995
477.252	13.838
480.627	9.09944
484.002	6.02767
487.377	6.11551
490.752	10.1709
494.127	13.7958
497.501	17.645
500.876	17.953
504.251	25.4848
507.626	33.1198
511.001	21.7719
514.375	10.0335
517.75	5.89374
521.125	8.50372
524.5	17.9005
527.875	28.4084
531.25	51.5507
534.624	71.5411
537.999	118.428
541.374	198.768
544.749	319.009
548.124	267.968
551.498	101.971
554.873	32.7187
558.248	13.6022
561.623	6.95118
564.998	3.93306
568.372	5.03712
571.747	6.11154
575.122	4.0808
578.497	2.35116
581.872	0.135674
585.247	0.576965
588.621	4.03734
591.996	2.30672
595.371	1.18009
598.746	1.96398
602.121	2.10703
605.495	5.93018
608.87	11.6113
612.245	17.7008
615.62	21.3873
618.995	27.6497
622.37	38.2368
625.744	45.4274
629.119	44.3819
632.494	28.6837
635.869	15.0015
639.244	7.39928
642.619	3.93928
645.993	1.18108
649.368	0.571018
652.743	0.37571
656.118	0.944836
659.493	1.18928
662.867	0.980183
666.242	2.01739
669.617	1.65511
672.992	3.95569
676.367	3.97295
679.741	6.48722
683.116	6.99994
686.491	7.93555
689.866	9.43176
693.241	10.9323
696.615	11.1916
699.99	13.1799
703.365	12.1251
706.74	12.4244
710.115	12.766
713.49	10.4327
716.864	11.501
720.239	8.6609
723.614	6.86726
726.989	4.93347
730.364	4.72215
733.739	3.36182
737.113	0.673412
740.488	0.26239
743.863	0.94009
747.238	1.35631
750.612	3.58432
753.987	2.94216
757.362	2.76511
760.737	2.55196
764.112	1.68092
767.487	0.990211
770.861	2.72902
774.236	11.5599
777.611	9.66766
780.986	11.5371
784.361	11.8532
787.736	8.37896
791.11	5.69667
794.485	9.20411
797.86	17.8925
801.235	36.6767
804.61	65.1396
807.984	104.746
811.359	151.504
814.734	196.643
818.109	256.702
821.484	318.462
824.859	343.204
828.233	288.904
831.608	221.755
834.983	172.862
838.358	141.958
841.733	126.875
845.107	122.782
848.482	122.537
851.857	126.348
855.232	135.84
858.607	162.936
861.981	223.063
865.356	321.443
868.731	463.639
872.106	660.682
875.481	899.114
878.856	1063.05
882.23	978.29
885.605	680.171
888.98	403.787
892.355	231.789
895.73	138.24
899.105	85.1816
902.479	58.1668
905.854	42.4461
909.229	29.2088
912.604	19.4796
915.979	8.98798
919.353	3.73936
922.728	0.811569
926.103	2.37644
929.478	4.38383
932.853	6.24583
936.227	3.84225
939.602	0.065468
942.977	3.36057
946.352	5.61803
949.727	5.72745
953.102	4.3393
956.476	1.96528
959.851	0.516464
963.226	1.53989
966.601	4.0997
969.976	9.0477
973.35	15.6477
976.725	21.3304
980.1	28.784
983.475	33.8132
986.85	36.4354
990.225	40.6602
993.599	44.3574
996.974	51.1466
1000.35	60.4145
1003.72	71.2312
1007.1	72.1285
1010.47	57.4072
1013.85	33.8325
1017.22	19.5388
1020.6	11.5506
1023.97	6.88179
1027.35	6.22448
1030.72	4.2081
1034.1	5.69121
1037.47	4.06868
1040.85	2.75495
1044.22	2.11434
1047.6	1.90239
1050.97	3.04055
1054.35	1.42076
1057.72	0.881388
1061.1	2.60129
1064.47	3.01298
1067.85	0.810514
1071.22	1.15649
1074.6	1.77264
1077.97	1.41601
1081.34	2.40655
1084.72	1.18294
1088.09	1.76183
1091.47	1.3469
1094.84	0.124285
1098.22	0.315628
1101.59	0.233746
1104.97	0.433918
1108.34	1.38794
1111.72	0.627731
1115.09	0.994617
1118.47	1.02655
1121.84	0.32593
1125.22	0.546391
1128.59	1.81104
1131.97	0.224571
1135.34	0.847763
1138.72	1.87518
1142.09	2.99271
1145.47	2.34758
1148.84	3.52932
1152.22	3.94143
1155.59	3.6432
1158.96	2.74837
1162.34	2.54327
1165.71	2.24693
1169.09	2.79399
1172.46	1.63073
1175.84	0.792988
1179.21	0.442394
1182.59	0.339634
1185.96	0.278923
1189.34	1.71943
1192.71	3.66665
1196.09	5.2862
1199.46	6.66621
1202.84	7.07661
1206.21	5.0806
1209.59	3.5641
1212.96	2.77258
1216.34	2.41903
1219.71	0.950794
1223.09	1.23052
1226.46	0.068447
1229.84	0.076904
1233.21	1.49631
1236.59	1.39926
1239.96	1.43809
1243.34	1.32593
1246.71	2.34248
1250.09	1.64097
1253.46	2.44932
1256.84	2.12645
1260.21	1.46564
1263.59	0.667667
1266.96	1.9382
1270.33	1.34679
1273.71	0.237434
1277.08	1.63028
1280.46	1.046
