Measurement: Raman, 785 nm, unoriented, Raman Data Processed
Mineral: Grossular
Rruff sample: R060453
Ideal chemistry: Ca_3_Al_2_(SiO_4_)_3_
Locality: unknown
Source: Gemological Institute of America
Description: Green colored fragment
Measured chemistry: (Ca_2.91_Mg_0.05_Mn_0.04_)_Σ=3_(Al_1.96_Ti_0.02_[box]_0.02_)_Σ=2_(Si_1.00_O_4_)_3_; trace amounts of Fe and Cr
Raman shift (cm-1)	intensity
175.981	0
178.391	46.2929
180.802	191.161
183.212	99.263
185.623	74.6127
188.034	33.7581
190.444	58.7134
192.855	103.579
195.265	52.8934
197.676	60.5496
200.087	38.2679
202.497	46.0231
204.908	12.5375
207.318	19.1031
209.729	37.095
212.139	16.3617
214.55	14.1658
216.961	60.0073
219.371	57.9196
221.782	84.2449
224.192	143.521
226.603	235.055
229.013	316.686
231.424	306.644
233.835	410.115
236.245	452.204
238.656	465.718
241.066	472.46
243.477	517.695
245.888	534.745
248.298	575.997
250.709	602.511
253.119	627.421
255.53	714.68
257.941	848.592
260.351	1025.56
262.762	1033.22
265.172	958.517
267.583	763.695
269.993	534.25
272.404	331.022
274.815	197.363
277.225	160.348
279.636	103.991
282.046	35.0267
284.457	28.3204
286.868	17.5435
289.278	60.8507
291.689	56.8285
294.099	48.2781
296.51	83.9631
298.921	131.977
301.331	240.474
303.742	310.296
306.152	355.673
308.563	426.46
310.973	579.126
313.384	735.257
315.795	857.9
318.205	1037.25
320.616	1257.2
323.026	1391.53
325.437	1636.33
327.847	2021.25
330.258	2349.11
332.669	2790.99
335.079	3204.53
337.49	3859.55
339.9	4474.4
342.311	5139.22
344.721	5725.48
347.132	6351.95
349.543	6614.8
351.953	6327.82
354.364	5622.5
356.774	4289.61
359.185	3073.55
361.596	2277.21
364.006	1677.07
366.417	1481.49
368.827	1331.28
371.238	1185.28
373.649	1111.12
376.059	924.655
378.47	589.075
380.88	189.928
383.291	30.3684
385.701	67.6913
388.112	44.5583
390.523	9.83044
392.933	53.8619
395.344	105.025
397.754	176.927
400.165	278.452
402.575	393.239
404.986	461.769
407.397	503.725
409.807	596.117
412.218	632.257
414.628	770.327
417.039	782.524
419.45	681.429
421.86	572.733
424.271	660.793
426.681	653.011
429.092	729.729
431.502	789.122
433.913	867.452
436.324	944.658
438.734	1018.92
441.145	884.865
443.555	809.018
445.966	741.225
448.377	572.37
450.787	469.592
453.198	379.8
455.608	249.164
458.019	194.019
460.43	70.0131
462.84	109.099
465.251	18.4926
467.661	30.666
470.072	26.5164
472.483	16.7222
474.893	49.4679
477.304	3.41138
479.714	16.1914
482.125	74.9556
484.535	133.817
486.946	246.948
489.356	362.588
491.767	536.199
494.178	705.649
496.588	763.101
498.999	906.2
501.409	1033.98
503.82	1194.1
506.231	1318.99
508.641	1561.26
511.052	1820.25
513.462	2031.41
515.873	2240.75
518.284	2525.58
520.694	2582.72
523.105	2827.57
525.515	2782.69
527.926	2605.91
530.337	2331.9
532.747	1950.03
535.158	1471.31
537.568	1107.6
539.979	816.206
542.389	631.187
544.8	492.503
547.211	468.116
549.621	411.089
552.032	151.542
554.442	88.3467
556.853	9.16016
559.263	58.8694
561.674	49.9908
564.085	110.365
566.495	94.0384
568.906	165.273
571.316	192.252
573.727	220.321
576.138	302.618
578.548	396.579
580.959	481.51
583.369	414.974
585.78	456.937
588.19	503.036
590.601	484.589
593.012	524.499
595.422	448.105
597.833	503.043
600.243	528.021
602.654	557.979
605.064	521.694
607.475	455.991
609.886	345.104
612.296	287.907
614.707	197.402
617.117	94.533
619.528	167.537
621.939	38.0201
624.349	78.7704
626.76	11.391
629.17	49.1052
631.581	0.850098
633.991	10.121
636.402	28.886
638.813	7.44751
641.223	7.63342
643.634	10.3403
646.044	21.8115
648.455	12.499
650.866	32.1705
653.276	35.0098
655.687	93.9024
658.097	75.2156
660.508	63.99
662.918	11.8178
665.329	12.6327
667.74	27.9941
670.15	83.6589
672.561	56.9524
674.971	40.5806
677.382	107.074
679.793	119.266
682.203	81.6235
684.614	74.2971
687.024	104.889
689.435	138.874
691.846	175.548
694.256	209.237
696.667	154.061
699.077	170.128
701.488	139.375
703.898	163.138
706.309	212.245
708.72	211.163
711.13	169.12
713.541	146.693
715.951	199.679
718.362	174.475
720.773	130.206
723.183	172.609
725.594	130.485
728.004	54.6604
730.415	69.2133
732.825	111.068
735.236	55.2777
737.647	4.42035
740.057	32.9423
742.468	9.32696
744.878	10.6774
747.289	27.2625
749.699	47.3042
752.11	38.0939
754.521	35.3909
756.931	7.64941
759.342	111.616
761.752	73.312
764.163	100.136
766.574	126.913
768.984	64.447
771.395	124.369
773.805	145.804
776.216	175.736
778.626	165.842
781.037	143.554
783.448	169.867
785.858	174.433
788.269	166.512
790.679	155.162
793.09	200.629
795.501	195.286
797.911	101.873
800.322	103.35
802.732	100.468
805.143	155.714
807.553	124.12
809.964	104.448
812.375	123.044
814.785	128.87
817.196	157.87
819.606	152.287
822.017	250.137
824.428	166.628
826.838	115.923
829.249	117.841
831.659	91.0133
834.07	24.6725
836.481	34.0011
838.891	14.6852
841.302	20.6715
843.712	29.7024
846.123	19.3967
848.533	23.0472
850.944	5.82568
853.355	40.7622
855.765	95.2385
858.176	52.8417
860.586	130.988
862.997	104.96
865.408	133.465
867.818	291.261
870.229	409.111
872.639	550.9
875.05	842.37
877.46	1058.44
879.871	1125.38
882.282	1088.69
884.692	912.887
887.103	512.189
889.513	397.012
891.924	321.1
894.335	176.504
896.745	132.478
899.156	93.0636
901.566	65.0784
903.977	9.93982
906.388	41.9153
908.798	48.6095
911.209	15.6716
913.619	55.0111
916.03	9.65906
918.44	41.4179
920.851	29.8864
923.261	19.1094
925.672	49.7071
928.083	8.39477
930.493	53.2181
932.904	107.266
935.314	109.348
937.725	129.853
940.136	59.7649
942.546	106.519
944.957	95.928
947.367	161.219
949.778	216.332
952.188	175.565
954.599	193.866
957.01	243.817
959.42	252.784
961.831	333.147
964.241	401.683
966.652	447.307
969.063	441.331
971.473	476.097
973.884	633.196
976.294	650.332
978.705	710.727
981.115	729.845
983.526	728.445
985.937	771.537
988.347	735.064
990.758	666.321
993.168	739.584
995.579	785.608
997.99	706.328
1000.4	679.76
1002.81	764.409
1005.22	716.98
1007.63	610.561
1010.04	483.429
1012.45	497.028
1014.86	345.945
1017.27	284.047
1019.68	339.745
1022.1	220.8
1024.51	205.97
1026.92	239.07
1029.33	54.3257
1031.74	41.5304
1034.15	46.9153
1036.56	55.279
1038.97	9.32495
1041.38	11.6277
1043.79	27.8888
1046.2	2.9779
1048.61	68.0331
1051.02	56.2515
1053.43	95.4332
1055.84	132.473
1058.25	186.746
1060.66	192.291
1063.08	188.852
1065.49	258.273
1067.9	170.449
1070.31	153.209
1072.72	127.18
1075.13	192.925
1077.54	174.702
1079.95	139
1082.36	90.1091
1084.77	57.7534
1087.18	43.3355
1089.59	74.3418
1092	20.6084
