Measurement: Raman, 532 nm, unoriented, Raman Data Processed
Mineral: Grossular
Rruff sample: R060499
Ideal chemistry: Ca_3_Al_2_(SiO_4_)_3_
Locality: Lake Jaco, Chihuahua, Mexico
Source: Michael Scott
Description: Tan colored single dodecahedral crystal
Measured chemistry: (Ca_2.90_Mg_0.10_)_Σ=3_(Al_1.78_Fe^3+^_0.19_Ti_0.03_)_Σ=2_(Si_1.00_O_4_)_3_
Raman shift (cm-1)	intensity
131.906	0
135.281	2.01649
138.656	7.57188
142.03	13.3706
145.405	17.9937
148.78	21.8791
152.155	18.962
155.53	18.8899
158.905	19.7463
162.279	33.4204
165.654	40.8954
169.029	52.3815
172.404	65.7331
175.779	95.0477
179.153	171.189
182.528	120.376
185.903	18.1017
189.278	8.94154
192.653	6.35358
196.028	5.02557
199.402	4.32553
202.777	1.15857
206.152	3.28406
209.527	2.32623
212.902	2.9559
216.276	5.12152
219.651	14.2472
223.026	29.6541
226.401	55.2043
229.776	104.362
233.15	170.78
236.525	258.777
239.9	287.008
243.275	305.554
246.65	365.579
250.025	151.137
253.399	75.2138
256.774	60.3313
260.149	76.9102
263.524	82.7464
266.899	100.956
270.273	138.751
273.648	230.211
277.023	345.412
280.398	154.025
283.773	73.0547
287.147	51.7007
290.522	27.7062
293.897	7.60316
297.272	7.63562
300.647	12.1355
304.022	2.33548
307.396	8.94458
310.771	21.0018
314.146	30.9971
317.521	45.2132
320.896	67.4988
324.271	97.0874
327.645	126.022
331.02	102.743
334.395	73.8765
337.77	78.5497
341.145	98.6838
344.519	124.408
347.894	138.405
351.269	186.666
354.644	286.106
358.019	453.359
361.394	688.875
364.768	1008.04
368.143	1375.32
371.518	1773.13
374.893	2066.59
378.267	1412.6
381.642	754.607
385.017	439.963
388.392	284.334
391.767	207.88
395.142	168.062
398.516	154.072
401.891	143.975
405.266	139.109
408.641	136.775
412.016	145.846
415.39	106.582
418.765	46.5099
422.14	15.2547
425.515	1.0078
428.89	6.64343
432.265	6.8869
435.639	6.66211
439.014	3.55077
442.389	0.150574
445.764	5.17149
449.139	15.7911
452.514	24.2617
455.888	28.8168
459.263	30.8669
462.638	30.8864
466.013	32.1649
469.388	38.9882
472.762	51.3075
476.137	55.9782
479.512	44.8884
482.887	35.6748
486.262	34.7907
489.637	41.7784
493.011	50.4256
496.386	58.221
499.761	57.7595
503.136	58.1016
506.511	58.603
509.885	50.6541
513.26	26.7712
516.635	16.612
520.01	13.0592
523.385	16.577
526.76	29.7605
530.134	71.1997
533.509	133.579
536.884	229.301
540.259	396.255
543.634	593.861
547.008	506.974
550.383	195.561
553.758	77.1
557.133	47.8633
560.508	46.5898
563.882	48.3346
567.257	44.3812
570.632	35.8427
574.007	29.0187
577.382	16.2717
580.756	7.40694
584.131	0.105225
587.506	3.53046
590.881	4.96065
594.256	5.76363
597.631	4.52393
601.005	20.0545
604.38	34.1118
607.755	48.3596
611.13	63.1211
614.505	79.1662
617.88	95.3513
621.254	116.444
624.629	141.031
628.004	150.838
631.379	126.109
634.754	90.018
638.128	54.8458
641.503	29.9642
644.878	15.3359
648.253	5.37227
651.628	1.28462
655.002	0.346634
658.377	1.89543
661.752	5.57803
665.127	9.5596
668.502	12.83
671.876	19.2232
675.251	25.253
678.626	28.4696
682.001	32.1505
685.376	30.3721
688.751	25.7985
692.125	24.1547
695.5	21.6249
698.875	24.4184
702.25	23.4674
705.625	22.5116
709	18.9239
712.374	11.8018
715.749	6.75415
719.124	3.06194
722.499	0.604187
725.874	0.601395
729.248	1.82338
732.623	1.63426
735.998	7.67343
739.373	15.263
742.748	21.7044
746.122	26.9578
749.497	28.119
752.872	34.7614
756.247	40.8225
759.622	52.9648
762.997	78.9594
766.371	112.287
769.746	140.937
773.121	142.451
776.496	106.455
779.871	62.4533
783.245	21.2003
786.62	1.42578
789.995	11.643
793.37	8.95306
796.745	1.20297
800.12	18.0607
803.494	51.7785
806.869	107.559
810.244	180.481
813.619	267.905
816.994	363.859
820.368	432.521
823.743	419.795
827.118	320.243
830.493	228.661
833.868	164.276
837.242	128.625
840.617	111.862
843.992	103.084
847.367	100.203
850.742	105.02
854.117	129.196
857.491	186.377
860.866	290.136
864.241	475.603
867.616	761.354
870.991	1135.06
874.365	1515.67
877.74	1661.89
881.115	1345.69
884.49	830.458
887.865	445.242
891.24	216.86
894.614	96.4981
897.989	36.8609
901.364	12.4954
904.739	3.15033
908.114	8.30835
911.489	9.35815
914.863	18.3813
918.238	33.3825
921.613	45.2826
924.988	53.3792
928.362	54.5224
931.737	55.8293
935.112	58.6313
938.487	59.5019
941.862	58.3908
945.237	52.8513
948.611	35.065
951.986	21.1833
955.361	4.69711
958.736	11.1871
962.111	14.5961
965.486	5.29205
968.86	23.3797
972.235	57.9387
975.61	97.5175
978.985	124.589
982.36	136.89
985.734	141.943
989.109	142.106
992.484	145.886
995.859	149.789
999.234	157.666
1002.61	163.728
1005.98	154.819
1009.36	118.384
1012.73	75.8358
1016.11	49.1447
1019.48	36.3656
1022.86	33.2307
1026.23	43.2253
1029.61	57.4901
1032.98	50.4855
1036.36	34.0629
1039.73	16.9091
1043.11	8.0134
1046.48	4.35338
1049.86	5.48836
1053.23	2.43669
1056.61	1.40875
1059.98	2.58795
1063.36	1.49283
1066.73	1.86058
1070.11	1.25957
1073.48	0.104126
1076.85	1.22272
1080.23	0.419724
1083.6	1.72389
1086.98	2.95149
1090.35	5.44229
1093.73	3.84309
1097.1	5.33049
1100.48	5.40555
1103.85	5.26726
1107.23	5.79248
1110.6	6.75232
1113.98	4.83249
1117.35	5.86873
1120.73	5.44687
1124.1	6.69684
1127.48	7.01636
1130.85	8.69476
1134.23	9.57349
1137.6	10.1069
1140.98	12.582
1144.35	10.7689
1147.73	13.3579
1151.1	13.2301
1154.47	11.7124
1157.85	13.2954
1161.22	10.5646
1164.6	10.4649
1167.97	9.4536
1171.35	6.64903
1174.72	5.44417
1178.1	3.4902
1181.47	3.14885
1184.85	1.71962
1188.22	0.434692
1191.6	1.54947
1194.97	0.151825
1198.35	0.108337
1201.72	0.382874
1205.1	1.72778
1208.47	0.261795
1211.85	1.59029
1215.22	2.23125
1218.6	2.83238
1221.97	3.73823
1225.35	3.1378
1228.72	3.82852
1232.1	6.18547
1235.47	5.60837
1238.85	4.60626
1242.22	5.19904
1245.6	8.67639
1248.97	7.93857
1252.35	7.81256
1255.72	6.72348
1259.09	5.95154
1262.47	5.6373
1265.84	5.01309
1269.22	7.24149
1272.59	3.06775
1275.97	3.54242
1279.34	4.39722
1282.72	0.646637
1286.09	2.42261
1289.47	3.41919
1292.84	2.36764
1296.22	4.50311
1299.59	1.4408
1302.97	0.702057
