Measurement: Raman, 532 nm, unoriented, Raman Data Processed
Mineral: Grossular
Rruff sample: R050036
Ideal chemistry: Ca_3_Al_2_(SiO_4_)_3_
Locality: Wah Wah Mountains, Utah, USA
Source: Eugene Schlepp
Description: Colorless single crystal in rhyolite matrix
Measured chemistry: (Ca_2.95_Mg_0.05_)_Σ=3_(Al_1.70_Fe^3+^_0.30_)_Σ=2_(Si_1.00_O_4_)_3_; trace amounts of P
Raman shift (cm-1)	intensity
140.502	0
143.876	7.20618
147.251	2.50067
150.626	11.6893
154.001	49.6095
157.376	63.0633
160.75	105.643
164.125	175.68
167.5	267.227
170.875	441.658
174.25	727.933
177.625	1358.35
180.999	2311.13
184.374	371.621
187.749	167.882
191.124	87.2752
194.499	63.8696
197.874	59.8396
201.248	26.0652
204.623	16.2881
207.998	11.7205
211.373	11.9801
214.748	40.4228
218.122	27.5487
221.497	78.0587
224.872	231.994
228.247	505.836
231.622	1034.34
234.996	1822.6
238.371	2572.79
241.746	2547.56
245.121	3595.88
248.496	1968.92
251.871	548.206
255.245	271.811
258.62	247.675
261.995	399.584
265.37	540.346
268.745	872.864
272.12	1562.88
275.494	2945.16
278.869	2099.86
282.244	707.323
285.619	389.517
288.994	260.921
292.368	51.3093
295.743	70.2284
299.118	105.854
302.493	1.50269
305.868	41.0891
309.243	167.104
312.617	293.377
315.992	368.129
319.367	584.685
322.742	935.429
326.117	1291.34
329.491	1251.67
332.866	682.062
336.241	629.473
339.616	780.622
342.991	1040.87
346.365	1145.6
349.74	1308.78
353.115	2026.77
356.49	3249.01
359.865	5507.85
363.24	9026.45
366.614	13709.1
369.989	15259.6
373.364	17658.5
376.739	15385.6
380.114	8005.87
383.488	4139.87
386.863	2433.47
390.238	1601.08
393.613	1193.95
396.988	1032.27
400.363	1037.7
403.737	1148.55
407.112	1409.46
410.487	1828.75
413.862	1776.07
417.237	630.827
420.611	185.235
423.986	6.65186
427.361	43.1094
430.736	68.8346
434.111	40.7108
437.486	2.77502
440.86	7.91968
444.235	10.0067
447.61	112.358
450.985	212.679
454.36	218.584
457.735	185.825
461.109	141.07
464.484	161.4
467.859	212.046
471.234	299.769
474.609	381.646
477.983	305.6
481.358	196.72
484.733	174.919
488.108	203.979
491.483	305.171
494.858	401.31
498.232	433.363
501.607	454.537
504.982	532.388
508.357	545.132
511.732	309.947
515.106	184.069
518.481	106.323
521.856	134.255
525.231	139.575
528.606	175.592
531.981	578.773
535.355	1335.9
538.73	2403.34
542.105	3896.22
545.48	4312.18
548.855	1553.62
552.229	371.565
555.604	56.0564
558.979	15.1589
562.354	115.37
565.729	61.7316
569.104	141.632
572.478	154.425
575.853	157.316
579.228	130.983
582.603	96.6682
585.978	66.2838
589.352	11.1128
592.727	47.8391
596.102	20.3903
599.477	91.1501
602.852	196.314
606.227	323.324
609.601	403.787
612.976	521.641
616.351	715.273
619.726	875.196
623.101	1104.57
626.476	1151.78
629.85	797.477
633.225	374.904
636.6	244.252
639.975	106.469
643.35	34.7679
646.724	11.09
650.099	2.79309
653.474	8.60742
656.849	4.89581
660.224	10.683
663.598	39.2394
666.973	37.1298
670.348	57.2953
673.723	84.3686
677.098	74.5233
680.472	91.4602
683.847	112.87
687.222	138.625
690.597	141.484
693.972	166.807
697.347	183.869
700.721	175.531
704.096	199.705
707.471	190.142
710.846	173.481
714.221	152.855
717.596	156.423
720.97	152.038
724.345	179.504
727.72	182.769
731.095	127.115
734.47	115.199
737.844	103.66
741.219	88.5377
744.594	52.3441
747.969	58.9619
751.344	30.1692
754.719	43.9514
758.093	6.66003
761.468	17.275
764.843	5.71008
768.218	21.8676
771.593	12.1982
774.967	59.1865
778.342	68.8458
781.717	44.8752
785.092	12.032
788.467	23.2924
791.842	111.325
795.216	322.325
798.591	678.203
801.966	1220.89
805.341	2114.3
808.716	3472.76
812.091	5211.92
815.465	7344.85
818.84	9846.82
822.215	11240.9
825.59	9925.53
828.965	7583.77
832.339	5835.48
835.714	4624.54
839.089	3922.49
842.464	3590.29
845.839	3296.81
849.213	3013.64
852.588	2846.71
855.963	2875.47
859.338	3261.89
862.713	4251.82
866.087	6246.77
869.462	9297.21
872.837	13122.8
876.212	15979.9
879.587	15153.6
882.962	10672.2
886.337	6544.49
889.711	3951.02
893.086	2464.12
896.461	1651.24
899.836	1200.47
903.211	955.216
906.585	736.109
909.96	476.675
913.335	288.012
916.71	150.755
920.085	71.1014
923.46	18.7682
926.834	57.9951
930.209	72.106
933.584	75.4578
936.959	3.17127
940.334	102.823
943.708	136.691
947.083	157.926
950.458	99.4535
953.833	35.2572
957.208	26.564
960.582	74.1313
963.957	5.34766
967.332	61.6924
970.707	228.734
974.082	389.296
977.457	555.619
980.831	654.27
984.206	795.436
987.581	867.031
990.956	1005.03
994.331	1169.62
997.705	1446.88
1001.08	1759.3
1004.46	1838.95
1007.83	1458.92
1011.21	935.511
1014.58	600.874
1017.95	386.781
1021.33	225.042
1024.7	152.438
1028.08	113.166
1031.45	122.052
1034.83	100.047
1038.2	55.3805
1041.58	58.8875
1044.95	57.2968
1048.33	40.2865
1051.7	18.4464
1055.08	45.227
1058.45	28.9641
1061.83	8.15991
1065.2	26.8374
1068.58	15.125
1071.95	3.92383
1075.33	26.8888
1078.7	11.387
1082.08	15.2734
1085.45	25.5752
1088.83	5.72375
1092.2	2.00623
1095.58	32.356
1098.95	11.4106
1102.33	16.3472
1105.7	27.0303
1109.07	8.42798
1112.45	16.4778
1115.82	13.5136
1119.2	3.42102
1122.57	44.2537
1125.95	15.5712
1129.32	24.8832
1132.7	62.7904
1136.07	65.96
1139.45	76.1501
1142.82	86.8289
1146.2	64.7466
1149.57	81.1161
1152.95	61.0382
1156.32	67.6377
1159.7	73.2583
1163.07	74.3711
1166.45	58.6867
1169.82	37.3054
1173.2	47.3373
1176.57	52.5459
1179.95	1.55286
1183.32	11.7427
1186.69	1.61035
1190.07	29.2878
1193.44	12.5956
1196.82	12.3457
1200.19	25.0569
1203.57	18.6315
1206.94	31.9553
1210.32	23.8927
1213.69	33.249
1217.07	62.5332
1220.44	41.1902
1223.82	35.5411
1227.19	47.1013
1230.57	58.6439
1233.94	76.2394
1237.32	84.0879
1240.69	74.7087
1244.07	68.8125
1247.44	58.4047
1250.82	67.7687
1254.19	52.9437
1257.57	48.184
1260.94	72.038
1264.32	46.3861
1267.69	51.2461
1271.07	37.904
1274.44	18.9573
1277.82	27.8016
1281.19	17.4692
1284.57	19.4506
1287.94	4.59375
1291.32	61.9168
1294.69	13.5994
1298.06	8.40576
1301.44	3.73083
