Measurement: Raman, 532 nm, unoriented, Raman Data Processed
Mineral: Grossular
Rruff sample: R100160
Ideal chemistry: Ca_3_Al_2_(SiO_4_)_3_
Locality: Kataragama, Sri Lanka
Source: William W. Pinch
Description: Orange-red cut gemstone
Raman shift (cm-1)	intensity
131.533	0
134.908	0.703372
138.283	0.889081
141.657	0.099388
145.032	1.68225
148.407	0.787143
151.782	1.68135
155.157	5.83887
158.532	9.86936
161.906	12.1452
165.281	15.2765
168.656	20.8071
172.031	27.9233
175.406	37.6585
178.78	53.7935
182.155	41.0001
185.53	19.7148
188.905	13.5461
192.28	8.68078
195.655	6.36159
199.029	4.15076
202.404	2.70296
205.779	2.67007
209.154	1.7385
212.529	0.8452
215.904	2.38981
219.278	3.44905
222.653	7.57525
226.028	10.1972
229.403	16.5977
232.778	25.6237
236.152	34.5078
239.527	45.6885
242.902	48.137
246.277	60.2484
249.652	42.4693
253.026	12.8572
256.401	6.93537
259.776	7.30892
263.151	10.5292
266.526	13.639
269.901	19.8111
273.276	29.3221
276.65	46.1084
280.025	44.4647
283.4	17.7027
286.775	7.53181
290.15	3.83846
293.524	0.519726
296.899	1.31171
300.274	1.84422
303.649	1.39949
307.024	0.075115
310.399	2.23265
313.773	5.24728
317.148	6.69889
320.523	6.80398
323.898	7.77119
327.273	13.0581
330.647	15.0816
334.022	12.7648
337.397	11.637
340.772	14.9576
344.147	19.5749
347.522	30.6634
350.896	42.5673
354.271	61.0633
357.646	97.534
361.021	147.944
364.396	220.009
367.77	315.828
371.145	401.263
374.52	449.386
377.895	318.716
381.27	150.994
384.644	79.7244
388.019	49.7441
391.394	34.1971
394.769	25.0445
398.144	22.151
401.519	21.9776
404.894	23.7531
408.268	25.0858
411.643	31.4645
415.018	42.5063
418.393	31.7397
421.767	12.0374
425.142	3.67928
428.517	0.222095
431.892	0.911913
435.267	0.688782
438.642	0.440809
442.017	1.44026
445.391	0.498692
448.766	1.12728
452.141	1.47672
455.516	2.23364
458.891	3.01509
462.265	1.4822
465.64	2.98925
469.015	2.97923
472.39	4.96539
475.765	8.04112
479.139	8.8734
482.514	5.26849
485.889	3.12519
489.264	2.81138
492.639	3.99636
496.014	6.7023
499.388	9.60697
502.763	11.1646
506.138	16.3043
509.513	20.6938
512.888	11.705
516.263	4.28446
519.637	3.13415
523.012	4.9473
526.387	5.87542
529.762	5.50451
533.137	9.58557
536.511	22.1293
539.886	39.3049
543.261	69.3525
546.636	119.408
550.011	118.956
553.386	44.507
556.76	13.9454
560.135	4.74121
563.51	2.08278
566.885	1.38548
570.26	0.596359
573.635	0.295448
577.009	0.266888
580.384	0.557751
583.759	0.391197
587.134	0.360054
590.509	2.96149
593.883	1.44463
597.258	1.33326
600.633	0.024012
604.008	0.922012
607.383	1.62726
610.758	4.01739
614.132	6.17443
617.507	8.47846
620.882	10.8116
624.257	15.0843
627.632	18.2488
631.006	17.2846
634.381	10.3846
637.756	5.7515
641.131	2.97023
644.506	2.20439
647.881	0.451632
651.255	1.20264
654.63	0.048355
658.005	1.06532
661.38	0.312109
664.755	1.38165
668.13	1.13904
671.504	0.698698
674.879	1.20977
678.254	1.99527
681.629	2.53447
685.004	3.08377
688.378	2.95821
691.753	3.66231
695.128	3.4459
698.503	3.19122
701.878	3.76837
705.253	4.67549
708.627	5.40126
712.002	4.69034
715.377	4.0274
718.752	5.08849
722.127	4.11182
725.501	2.82423
728.876	2.45206
732.251	2.63398
735.626	2.66124
739.001	1.55635
742.375	1.23374
745.75	1.25727
749.125	1.36159
752.5	0.68881
755.875	0.472956
759.25	0.688026
762.625	0.044117
765.999	0.531567
769.374	0.581554
772.749	0.462219
776.124	0.1134
779.499	0.299103
782.873	0.452305
786.248	0.256443
789.623	0.245304
792.998	0.909256
796.373	0.096592
799.747	2.15353
803.122	7.61235
806.497	14.1959
809.872	26.6612
813.247	41.2959
816.621	60.377
819.996	86.5731
823.371	111.462
826.746	117.793
830.121	92.8193
833.496	66.954
836.87	51.8315
840.245	45.4978
843.62	44.7812
846.995	49.8385
850.37	52.7326
853.745	54.9563
857.119	60.0495
860.494	73.3573
863.869	102.975
867.244	154.495
870.619	241.887
873.994	363.069
877.368	510.564
880.743	601.306
884.118	508.632
887.493	325.947
890.868	188.246
894.242	107.801
897.617	64.0231
900.992	39.9029
904.367	27.4297
907.742	21.0616
911.116	15.7787
914.491	12.1444
917.866	8.06131
921.241	5.54888
924.616	2.92164
927.991	1.03136
931.365	0.353451
934.74	0.469734
938.115	0.519104
941.49	0.670971
944.865	0.95649
948.24	1.95382
951.614	2.36974
954.989	0.808304
958.364	0.260834
961.739	1.05738
965.114	1.05227
968.489	0.1367
971.863	2.93852
975.238	5.14531
978.613	7.73919
981.988	9.53245
985.362	13.3451
988.737	15.0293
992.112	17.4697
995.487	20.0676
998.862	25.3202
1002.24	30.9817
1005.61	37.4129
1008.99	37.5999
1012.36	26.8766
1015.74	15.724
1019.11	9.19556
1022.49	5.20462
1025.86	2.83058
1029.23	2.34388
1032.61	1.65203
1035.98	2.18329
1039.36	1.94131
1042.73	1.54653
1046.11	1.89434
1049.48	1.37113
1052.86	0.671295
1056.23	1.50971
1059.61	0.36718
1062.98	0.628189
1066.36	1.25138
1069.73	0.812
1073.11	0.914753
1076.48	0.219334
1079.86	1.26643
1083.23	1.24053
1086.61	1.01403
1089.98	1.35662
1093.36	0.331387
1096.73	0.173672
1100.11	0.767307
1103.48	0.434692
1106.86	0.637897
1110.23	0.091469
1113.61	0.286819
1116.98	0.262321
1120.36	0.225174
1123.73	0.103218
1127.11	0.005352
1130.48	0.024376
1133.86	1.7746
1137.23	1.3157
1140.6	1.95324
1143.98	2.38317
1147.35	3.65529
1150.73	3.22965
1154.1	3.11625
1157.48	2.90938
1160.85	2.58864
1164.23	2.32669
1167.6	2.44507
1170.98	3.04146
1174.35	2.6317
1177.73	1.55375
1181.1	2.48243
1184.48	1.34452
1187.85	1.01395
1191.23	0.613701
1194.6	0.007885
1197.98	0.229172
1201.35	0.781517
1204.73	0.087284
1208.1	0.227306
1211.48	0.485703
1214.85	0.602131
1218.22	1.65041
1221.6	0.418613
1224.97	1.32681
1228.35	1.57928
1231.72	1.17293
1235.1	0.555714
1238.47	1.56417
1241.85	1.51385
1245.22	2.62179
1248.6	1.99836
1251.97	2.3682
1255.35	2.55574
1258.72	2.76889
1262.1	2.9636
1265.47	1.50439
1268.85	2.8748
1272.22	2.09007
1275.6	1.97666
1278.97	0.171154
1282.35	0.049358
1285.72	0.923298
1289.1	0.812523
1292.47	0.093689
1295.85	0.446861
1299.22	0.02018
1302.6	0
