Measurement: Raman, 785 nm, unoriented, Raman Data Processed
Mineral: Grossular
Rruff sample: R050036
Ideal chemistry: Ca_3_Al_2_(SiO_4_)_3_
Locality: Wah Wah Mountains, Utah, USA
Source: Eugene Schlepp
Description: Colorless single crystal in rhyolite matrix
Measured chemistry: (Ca_2.95_Mg_0.05_)_Σ=3_(Al_1.70_Fe^3+^_0.30_)_Σ=2_(Si_1.00_O_4_)_3_; trace amounts of P
Raman shift (cm-1)	intensity
138.376	0
141.268	2.08731
144.161	20.6684
147.054	58.4023
149.946	131.398
152.839	225.213
155.732	266.714
158.625	280.441
161.517	380.267
164.41	510.373
167.303	558.243
170.195	522.587
173.088	562.747
175.981	703.953
178.873	1249.91
181.766	1351.8
184.659	317.55
187.552	106.996
190.444	74.1123
193.337	36.8563
196.23	31.9006
199.122	5.32977
202.015	2.23895
204.908	12.1889
207.8	4.92017
210.693	26.9449
213.586	44.093
216.478	82.0456
219.371	117.802
222.264	237.929
225.157	353.676
228.049	519.257
230.942	782.149
233.835	1068.91
236.727	1468.3
239.62	1595.6
242.513	1691.21
245.405	2132.25
248.298	1789.38
251.191	1125.67
254.084	1015.75
256.976	1072.8
259.869	1284.51
262.762	1291.53
265.654	1071.12
268.547	867.002
271.44	800.829
274.332	1116.63
277.225	1437.83
280.118	630.275
283.011	122.058
285.903	2.63184
288.796	56.468
291.689	70.7625
294.581	95.3718
297.474	38.1749
300.367	49.4419
303.26	216.065
306.152	343.236
309.045	527.157
311.938	685.23
314.83	948.492
317.723	1206.39
320.616	1520.96
323.508	1940.61
326.401	2429.59
329.294	2879.71
332.187	3112.45
335.079	3686.91
337.972	4505.23
340.865	5621.13
343.757	6994.26
346.65	8096.18
349.543	8488.89
352.435	8106.18
355.328	6855.82
358.221	5782.8
361.113	5831.71
364.006	7142.21
366.899	9109.97
369.792	9740.78
372.684	10789.6
375.577	11048.1
378.47	7267.82
381.362	3607.46
384.255	1626.72
387.148	637.244
390.041	192.312
392.933	23.7883
395.826	23.1396
398.719	156.945
401.611	380.498
404.504	605.768
407.397	894.175
410.289	1385.5
413.182	1650.37
416.075	1140.46
418.967	726.3
421.86	526.064
424.753	474.501
427.646	507.518
430.538	659.487
433.431	699.75
436.324	665.553
439.216	513.245
442.109	416.395
445.002	339.413
447.894	223.398
450.787	142.326
453.68	42.2263
456.573	21.8933
459.465	78.4143
462.358	88.3093
465.251	62.2247
468.143	39.8541
471.036	6.40564
473.929	46.4661
476.822	75.0238
479.714	29.46
482.607	101.429
485.5	219.794
488.392	435.49
491.285	706.441
494.178	1027.75
497.07	1303.99
499.963	1529.21
502.856	1799.7
505.748	2057.23
508.641	2458.78
511.534	2733.88
514.427	3172.71
517.319	3466.63
520.212	3702.03
523.105	3732.5
525.997	3464.11
528.89	2949.12
531.783	2452.82
534.676	2197.04
537.568	2199.68
540.461	2623.01
543.354	3355.5
546.246	2959.77
549.139	1367.12
552.032	493.462
554.924	142.812
557.817	18.2269
560.71	15.205
563.602	32.5425
566.495	76.4662
569.388	146.576
572.281	277.992
575.173	378.997
578.066	472.599
580.959	547.407
583.851	593.72
586.744	613.638
589.637	573.792
592.529	522.863
595.422	538.73
598.315	638.782
601.208	741.561
604.1	796.859
606.993	712.049
609.886	613.438
612.778	522.433
615.671	433.834
618.564	428.197
621.457	427.65
624.349	489.973
627.242	446.271
630.135	312.529
633.027	178.504
635.92	75.0413
638.813	26.7703
641.705	2.17908
644.598	0.843079
647.491	25.4829
650.384	24.0132
653.276	16.0541
656.169	5.82019
659.062	8.4931
661.954	21.0599
664.847	30.681
667.74	48.9844
670.632	56.7328
673.525	76.0019
676.418	83.8332
679.311	97.7766
682.203	119.105
685.096	115.866
687.989	139.197
690.881	184.871
693.774	206.716
696.667	216.156
699.559	260.315
702.452	287.79
705.345	274.609
708.237	275.134
711.13	264.585
714.023	247.197
716.916	219.029
719.808	208.051
722.701	160.642
725.594	122.285
728.486	123.698
731.379	97.2713
734.272	63.5444
737.164	42.8668
740.057	45.8174
742.95	30.2831
745.843	22.2191
748.735	6.24744
751.628	18.6902
754.521	11.6983
757.413	12.5182
760.306	29.8758
763.199	18.545
766.091	13.1841
768.984	4.81525
771.877	9.4809
774.77	3.63013
777.662	29.9689
780.555	26.2002
783.448	4.5108
786.34	18.79
789.233	11.8074
792.126	26.6034
795.019	82.6605
797.911	107.947
800.804	200.093
803.697	392.532
806.589	590.244
809.482	927.647
812.375	1383.93
815.267	1841.1
818.16	2457.51
821.053	2987.12
823.946	3078.74
826.838	2538.45
829.731	1956.42
832.624	1540.31
835.516	1284.13
838.409	1079.47
841.302	989.175
844.194	930.816
847.087	918.967
849.98	904.328
852.872	904.799
855.765	1085.63
858.658	1328.58
861.551	1780.44
864.443	2637.39
867.336	3897.63
870.229	5780.03
873.121	8065.34
876.014	10061.6
878.907	10409.5
881.799	8455.65
884.692	5801.21
887.585	3683.26
890.478	2291.04
893.37	1505.43
896.263	995.26
899.156	721.36
902.048	567.289
904.941	360.231
907.834	274.492
910.726	189.28
913.619	111.953
916.512	53.5198
919.405	24.7716
922.297	55.5601
925.19	45.6525
928.083	54.0377
930.975	48.66
933.868	2.43884
936.761	48.5122
939.654	45.9085
942.546	151.17
945.439	176.464
948.332	247.227
951.224	259.995
954.117	312.462
957.01	347.292
959.902	410.392
962.795	493.835
965.688	619.567
968.581	772.955
971.473	864.558
974.366	933.19
977.259	916.916
980.151	928.276
983.044	922.826
985.937	995.454
988.829	1056.17
991.722	1188.72
994.615	1255.08
997.508	1234.69
1000.4	1258.62
1003.29	1277.03
1006.19	1176.67
1009.08	992.239
1011.97	813.55
1014.86	684.45
1017.76	638.967
1020.65	555.947
1023.54	527.635
1026.43	453.504
1029.33	442.216
1032.22	415.621
1035.11	371.44
1038.01	299.532
1040.9	210.441
1043.79	18.0461
1046.68	24.4482
1049.58	32.0223
1052.47	25.824
1055.36	42.9399
1058.25	120.035
1061.15	136.934
1064.04	215.167
1066.93	259.986
1069.83	308.722
1072.72	359.76
1075.61	305.141
1078.5	278.106
1081.4	222.58
1084.29	106.66
1087.18	67.8491
1090.07	0.644043
1092.97	90.2056
1095.86	136.529
1098.75	94.54
1101.64	1.80664
