Measurement: Raman, 532 nm, unoriented, Raman Data Processed
Mineral: Grossular
Rruff sample: R060452
Ideal chemistry: Ca_3_Al_2_(SiO_4_)_3_
Locality: unknown
Source: Gemological Institute of America
Description: Yellowish-brown colored fragment
Measured chemistry: (Ca_2.94_Mn_0.03_Mg_0.03_)_Σ=3_(Al_1.91_Fe^3+^_0.06_Ti_0.03_)_Σ=2_((Si_0.99_Al_0.01_)_Σ=1_O_4_)_3_
Raman shift (cm-1)	intensity
136.163	0
139.537	170.824
142.912	68.9567
146.287	1.72388
149.662	111.178
153.037	305.635
156.411	385.096
159.786	328.858
163.161	264.143
166.536	297.246
169.911	324.947
173.286	382.08
176.66	445.66
180.035	764.486
183.41	603.156
186.785	260.283
190.16	238.727
193.535	247.486
196.909	174.424
200.284	185.605
203.659	154.629
207.034	105.773
210.409	101.308
213.783	77.9126
217.158	51.6975
220.533	86.9141
223.908	61.1787
227.283	85.2273
230.657	196.112
234.032	354.872
237.407	597.339
240.782	793.7
244.157	860.849
247.532	1378.65
250.906	615.336
254.281	374.903
257.656	251.671
261.031	223.763
264.406	136.428
267.781	141.484
271.155	348.31
274.53	646.943
277.905	1201.03
281.28	738.856
284.655	250.988
288.029	152.642
291.404	31.5605
294.779	15.9795
298.154	8.78271
301.529	56.0181
304.904	32.7637
308.278	31.9546
311.653	17.9766
315.028	68.8447
318.403	50.1728
321.778	30.418
325.152	112.367
328.527	194.196
331.902	210.48
335.277	104.684
338.652	120.134
342.026	155.295
345.401	118.075
348.776	319.588
352.151	305.265
355.526	378.991
358.901	630.939
362.275	1112.24
365.65	2170.31
369.025	3444.1
372.4	4410.9
375.775	4993.12
379.149	2442.65
382.524	1120.34
385.899	641.259
389.274	354.618
392.649	247.856
396.024	199.561
399.398	158.719
402.773	175.435
406.148	160.309
409.523	320.301
412.898	566.104
416.272	822.249
419.647	468.054
423.022	140.499
426.397	44.8994
429.772	23.8916
433.147	78.208
436.521	63.4102
439.896	0.132813
443.271	0.745117
446.646	36.2324
450.021	21.0215
453.396	76.707
456.77	27.2051
460.145	25.8613
463.52	46.29
466.895	28.0898
470.27	91.3799
473.644	44.2217
477.019	205.567
480.394	213.353
483.769	75.46
487.144	65.0977
490.519	85.9932
493.893	51.6123
497.268	177.601
500.643	242.06
504.018	419.097
507.393	601.506
510.767	630.357
514.142	314.62
517.517	225.477
520.892	182.58
524.267	162.597
527.641	222.337
531.016	124.117
534.391	62.7959
537.766	225.803
541.141	295.348
544.516	702.016
547.89	1428.81
551.265	1047.94
554.64	362.281
558.015	128.136
561.39	99.5908
564.764	30.9561
568.139	86.2188
571.514	22.6592
574.889	5.7666
578.264	76.4932
581.639	59.4502
585.013	47.3887
588.388	61.9902
591.763	116.859
595.138	55.8281
598.513	30.3359
601.888	0.240234
605.262	45.5645
608.637	198.4
612.012	200.611
615.387	91.7715
618.762	133.551
622.136	296.225
625.511	379.67
628.886	595.096
632.261	417.066
635.636	272.117
639.01	237.199
642.385	110.09
645.76	98.8496
649.135	165.096
652.51	151.668
655.885	46.7402
659.259	66.5332
662.634	54.4492
666.009	37.168
669.384	117.508
672.759	26.5938
676.134	127.225
679.508	131.246
682.883	152.637
686.258	150.014
689.633	72.6719
693.008	172.619
696.382	229.902
699.757	182.381
703.132	318.326
706.507	310.943
709.882	198.279
713.256	154.482
716.631	210.791
720.006	99.5918
723.381	113.902
726.756	98.4512
730.131	26.7305
733.505	61.7031
736.88	72.9199
740.255	81.4062
743.63	77.9141
747.005	14.9668
750.38	190.818
753.754	50.5938
757.129	46.9766
760.504	61.4668
763.879	16.7461
767.254	77.8652
770.628	157.477
774.003	90.2481
777.378	120.775
780.753	172.338
784.128	89.0078
787.503	54.7207
790.877	69.1406
794.252	39.0684
797.627	59.1172
801.002	116.338
804.377	351.523
807.751	515.242
811.126	620.486
814.501	943.203
817.876	1650.9
821.251	2481.93
824.625	2916.27
828	2583.77
831.375	1649.98
834.75	1144.71
838.125	802.606
841.5	675.504
844.874	826.055
848.249	812.375
851.624	674.539
854.999	751.562
858.374	598.539
861.749	469.953
865.123	823.934
868.498	1463.36
871.873	2317.41
875.248	4037.36
878.623	5831.9
881.997	5814.48
885.372	3843.61
888.747	2229.48
892.122	1266.85
895.497	812.894
898.871	512.875
902.246	220.144
905.621	71.0273
908.996	98.6094
912.371	100.738
915.746	21.9922
919.12	230.402
922.495	38.2891
925.87	93.5078
929.245	133.832
932.62	79.1836
935.995	141.266
939.369	75.1758
942.744	208.727
946.119	107.742
949.494	90.9727
952.869	105.199
956.243	69.7734
959.618	120.809
962.993	192.981
966.368	183.699
969.743	195.117
973.117	79.9102
976.492	181.523
979.867	139.363
983.242	336.484
986.617	405.191
989.992	435.328
993.366	630.547
996.741	453.289
1000.12	612.887
1003.49	930.125
1006.87	843.914
1010.24	810.527
1013.62	691.367
1016.99	379.082
1020.37	300.406
1023.74	218.234
1027.12	50.6758
1030.49	249.894
1033.86	239.93
1037.24	255.93
1040.61	137.246
1043.99	14.5898
1047.36	120.609
1050.74	192.977
1054.11	160.922
1057.49	70.9336
1060.86	414.773
1064.24	193.856
1067.61	280.719
1070.99	271.402
1074.36	188.508
1077.74	209.281
1081.11	223.824
1084.49	174.731
1087.86	152.797
1091.24	47.6211
1094.61	279.711
1097.99	172.715
1101.36	104.789
1104.73	106.305
1108.11	158.086
1111.48	42.8438
1114.86	281.531
1118.23	2.375
1121.61	37.0547
1124.98	109.391
1128.36	152.781
1131.73	273.516
1135.11	24.9297
1138.48	223.164
1141.86	109.484
1145.23	191.633
1148.61	240.461
1151.98	251.32
1155.36	4.75781
1158.73	250.227
1162.11	35.9375
1165.48	147.789
1168.86	260.945
1172.23	336.07
1175.61	147.828
1178.98	140.242
1182.36	313.531
1185.73	257.406
1189.11	398.93
1192.48	17.7969
1195.86	268.898
1199.23	105.352
1202.61	64.6953
1205.98	10.2031
1209.36	279.555
1212.73	164.617
1216.1	180.266
1219.48	174.266
1222.85	263.266
1226.23	157.922
1229.6	276.586
1232.98	46.4453
1236.35	263.594
1239.73	205.195
1243.1	173.359
1246.48	473.336
1249.85	332.641
1253.23	376.688
1256.6	401.203
1259.98	418.344
1263.35	294.344
1266.73	339.508
1270.1	137.484
1273.48	330.227
1276.85	501.695
1280.23	204.133
1283.6	306.664
1286.98	242.898
1290.35	364.953
1293.72	294.766
1297.1	391.82
1300.47	402.547
1303.85	233.672
1307.22	459.547
1310.6	477.758
1313.97	275.031
