Measurement: Raman, 532 nm, unoriented, Raman Data Processed
Mineral: Grossular
Rruff sample: R060278
Ideal chemistry: Ca_3_Al_2_(SiO_4_)_3_
Locality: Diakon, Kayes Region, Mali
Source: Herb Obodda
Description: Dark brown dodecahedral single crystal
Measured chemistry: (Ca_2.93_Mg_0.05_Mn_0.02_)_Σ=3_(Al_1.19_Fe^3+^_0.78_Ti_0.03_)_Σ=2_((Si_0.99_Al_0.01_)_Σ=1_O_4_)_3_
Raman shift (cm-1)	intensity
115.514	0
118.889	0.288277
122.264	0.332052
125.638	4.4967
129.013	8.99456
132.388	12.8745
135.763	13.4147
139.138	18.0518
142.513	21.1781
145.887	20.8679
149.262	21.2928
152.637	19.2574
156.012	20.5338
159.387	24.0012
162.762	30.64
166.136	35.1447
169.511	40.9008
172.886	52.4637
176.261	75.3586
179.636	56.7557
183.01	23.4046
186.385	14.1393
189.76	8.88392
193.135	7.02085
196.51	3.73781
199.884	2.2268
203.259	1.15456
206.634	0.044327
210.009	1.85386
213.384	0.873077
216.758	4.21964
220.133	11.7579
223.508	26.7671
226.883	45.2647
230.258	64.2419
233.633	82.9191
237.007	96.2875
240.382	113.564
243.757	95.0831
247.132	27.015
250.507	6.32184
253.881	3.46938
257.256	4.02016
260.631	8.80875
264.006	13.5399
267.381	25.9611
270.756	42.2752
274.13	40.1679
277.505	23.1659
280.88	18.3881
284.255	9.71001
287.63	0.256966
291.005	4.18321
294.379	4.13924
297.754	1.42313
301.129	5.07941
304.504	12.343
307.878	19.5499
311.253	31.4352
314.628	48.9421
318.003	71.4309
321.378	88.3602
324.753	70.9253
328.127	52.3669
331.502	56.1561
334.877	65.5767
338.252	72.2516
341.627	86.638
345.002	121.332
348.376	174.188
351.751	255.592
355.126	391.596
358.501	582.707
361.876	750.284
365.25	879.511
368.625	1106.57
372	1283.98
375.375	1028.23
378.75	593.098
382.125	342.515
385.499	220.595
388.874	154.154
392.249	112.147
395.624	84.2949
398.999	65.5086
402.373	49.2064
405.748	28.0202
409.123	12.7736
412.498	2.76691
415.873	1.76733
419.248	3.76427
422.622	5.27773
425.997	1.7001
429.372	0.156693
432.747	3.19256
436.122	8.1152
439.496	14.2219
442.871	17.9006
446.246	19.4232
449.621	22.4612
452.996	23.1623
456.37	21.9652
459.745	19.3479
463.12	18.3158
466.495	15.18
469.87	11.9992
473.245	12.5888
476.619	15.3167
479.994	22.4043
483.369	33.2989
486.744	42.7377
490.119	48.4276
493.493	47.7791
496.868	43.8297
500.243	35.3879
503.618	26.2835
506.993	21.9516
510.368	22.8002
513.742	33.9914
517.117	60.9772
520.492	106.844
523.867	162.819
527.242	232.598
530.616	312.931
533.991	351.779
537.366	237.56
540.741	100.824
544.116	45.447
547.49	26.721
550.865	22.9038
554.24	23.4329
557.615	22.4626
560.99	20.2607
564.365	17.0782
567.739	10.1824
571.114	2.69862
574.489	1.14442
577.864	5.13287
581.239	4.41782
584.613	1.73341
587.988	3.26625
591.363	12.3077
594.738	19.8369
598.113	28.5322
601.487	33.174
604.862	36.0884
608.237	40.8627
611.612	41.6245
614.987	40.9885
618.362	39.3147
621.736	33.8277
625.111	24.6761
628.486	16.855
631.861	11.8903
635.236	7.98787
638.611	7.65987
641.985	7.93819
645.36	12.1605
648.735	15.4373
652.11	16.9103
655.485	17.0201
658.859	16.6985
662.234	17.1155
665.609	18.7697
668.984	20.9807
672.359	22.5909
675.734	22.0693
679.108	18.1551
682.483	14.1192
685.858	10.3392
689.233	7.31093
692.607	5.1522
695.982	4.30751
699.357	3.20387
702.732	2.21557
706.107	1.46122
709.482	0.760464
712.856	0.007504
716.231	0.354572
719.606	1.58754
722.981	0.952118
726.356	1.27182
729.731	0.169346
733.105	0.609287
736.48	2.06968
739.855	4.36836
743.23	5.92039
746.605	8.45212
749.979	12.3205
753.354	14.7399
756.729	20.6425
760.104	26.3979
763.479	31.4101
766.854	30.0776
770.228	21.9187
773.603	10.7774
776.978	3.37516
780.353	1.72484
783.727	3.36566
787.102	0.39772
790.477	4.04237
793.852	15.0391
797.227	30.5171
800.602	52.0893
803.976	84.5205
807.351	121.956
810.726	161.247
814.101	205.602
817.476	235.756
820.851	238.154
824.225	211.71
827.6	171.685
830.975	132.236
834.35	105.045
837.725	88.5966
841.099	81.2882
844.474	82.1982
847.849	82.5951
851.224	84.3603
854.599	94.1899
857.973	111.571
861.348	142.835
864.723	191.209
868.098	242.375
871.473	292.334
874.848	315.896
878.222	290.132
881.597	217.575
884.972	144.656
888.347	90.4587
891.722	56.8311
895.096	32.2633
898.471	16.7822
901.846	6.3197
905.221	0.540627
908.596	4.24727
911.971	4.16419
915.345	1.6157
918.72	0.882782
922.095	4.3555
925.47	8.09197
928.845	12.7302
932.22	19.0676
935.594	26.2538
938.969	29.7799
942.344	25.654
945.719	19.5755
949.094	9.02232
952.468	1.48791
955.843	0.85128
959.218	6.05013
962.593	17.2705
965.968	26.4752
969.342	36.1422
972.717	43.8903
976.092	52.5335
979.467	57.3571
982.842	61.6846
986.216	62.7228
989.591	64.3735
992.966	65.0435
996.341	66.101
999.716	62.5467
1003.09	54.025
1006.47	39.406
1009.84	23.3627
1013.22	11.5345
1016.59	9.17806
1019.97	12.8304
1023.34	16.8181
1026.71	13.2251
1030.09	6.31703
1033.46	1.40267
1036.84	0.470192
1040.21	0.188364
1043.59	0.627621
1046.96	1.01426
1050.34	0.087057
1053.71	0.847551
1057.09	1.32831
1060.46	2.05051
1063.84	2.21832
1067.21	2.2527
1070.59	3.17773
1073.96	3.1641
1077.34	3.74626
1080.71	4.0028
1084.09	4.47856
1087.46	5.42974
1090.84	5.45375
1094.21	6.12483
1097.59	6.05889
1100.96	5.59936
1104.34	5.70888
1107.71	6.49653
1111.09	6.0347
1114.46	5.88611
1117.83	6.48929
1121.21	6.76523
1124.58	6.43428
1127.96	5.94004
1131.33	6.02203
1134.71	5.79059
1138.08	4.83839
1141.46	4.33143
1144.83	4.37362
1148.21	3.74919
1151.58	2.80035
1154.96	1.75886
1158.33	1.55395
1161.71	1.0193
1165.08	0.077562
1168.46	0.19614
1171.83	0.236349
1175.21	0.371983
1178.58	0.035572
1181.96	0.040682
1185.33	0.624172
1188.7	0.126141
1192.08	0.788996
1195.45	1.30367
1198.83	1.34709
1202.2	1.26844
1205.58	2.1999
1208.95	2.28172
1212.33	1.93524
1215.7	2.59548
1219.08	2.86395
1222.45	2.90897
1225.83	3.12697
1229.2	3.11998
1232.58	3.07558
1235.95	2.99701
1239.33	2.50617
1242.7	1.92237
1246.08	1.19334
1249.45	1.41368
1252.83	1.20448
1256.2	0.676291
1259.58	0.707371
1262.95	0.032108
1266.33	0.202665
1269.7	0.109917
1273.08	0.253273
1276.45	0.24831
1279.83	0.500742
1283.2	0.680411
1286.58	0.736491
1289.95	1.08522
1293.33	0.799144
1296.7	0.596459
1300.07	0.578506
1303.45	0
