Measurement: Raman, 514 nm, unoriented, Raman Data Processed
Mineral: Grossular
Rruff sample: R040065
Ideal chemistry: Ca_3_Al_2_(SiO_4_)_3_
Locality: Feng Tien mine, Taiwan
Source: University of Arizona Mineral Museum
Description: Orange-brown trapezohedral crystals
Measured chemistry: (Ca_2.90_Fe^2+^_0.05_Mn_0.05_)_Σ=3_(Al_1.95_Fe^3+^_0.03_Ti_0.02_)_Σ=2_((Si_0.99_Al_0.01_)_Σ=1_O_4_)_3_
Raman shift (cm-1)	intensity
140.63	0
144.787	14.917
148.942	60.767
153.096	6.75
157.247	9.723
161.396	81.445
165.544	146
169.689	193.124
173.833	746.299
177.974	2088.15
182.114	2479.31
186.251	833.821
190.387	281.106
194.52	116.055
198.652	197.597
202.782	146.693
206.909	225.308
211.035	85.429
215.159	18.951
219.281	23.332
223.4	51.72
227.518	109.5
231.634	273.806
235.748	722.248
239.86	1300.88
243.97	1751.73
248.079	1858.79
252.185	530.101
256.289	249.682
260.391	130.554
264.492	193.649
268.59	373.961
272.687	974.605
276.781	1856.58
280.874	1465.87
284.964	649.475
289.053	335.366
293.14	279.524
297.225	119.449
301.308	88.341
305.389	259.219
309.468	232.176
313.545	430.702
317.62	603.686
321.693	428.527
325.765	689.797
329.834	847.233
333.902	788.953
337.967	601.881
342.031	735.188
346.093	1092.28
350.153	1475.69
354.21	2046.5
358.267	3271.69
362.321	6337.26
366.373	13358.1
370.423	21617.4
374.471	27216.9
378.518	17195.1
382.563	7236.08
386.605	3626.6
390.646	2081.26
394.685	1444.15
398.722	1347.29
402.757	1139.59
406.79	1285.12
410.821	2066.8
414.851	3725.59
418.878	2696.48
422.904	969.451
426.927	441.498
430.949	149.605
434.969	166.763
438.987	7.04
443.003	57.814
447.018	59.4
451.03	17.206
455.041	117.973
459.049	18.087
463.056	93.172
467.061	114.245
471.064	120.32
475.065	326.409
479.064	335.511
483.062	160.632
487.057	100.911
491.051	161.988
495.043	233.888
499.032	291.07
503.02	459.906
507.007	1028.44
510.991	1000.42
514.973	395.044
518.954	468.578
522.933	580.976
526.91	804.743
530.885	468.619
534.858	422.676
538.829	956.754
542.799	2845.3
546.766	7592.29
550.732	6770.85
554.696	2435.82
558.658	1205.58
562.618	740.399
566.576	718.59
570.533	648.119
574.488	522.68
578.44	523.313
582.391	547.83
586.341	548.918
590.288	888.959
594.233	522.299
598.177	303.3
602.119	289.353
606.059	273.834
609.997	351.854
613.933	422.89
617.868	530.265
621.801	656.766
625.731	998.997
629.66	1074.71
633.588	842.641
637.513	410.05
641.437	336.181
645.358	162.031
649.278	184.581
653.196	166.875
657.113	71.765
661.027	120.298
664.94	40.556
668.851	88.035
672.76	48.045
676.667	25.835
680.572	31.718
684.476	112.665
688.378	7.956
692.278	33.117
696.176	81.121
700.072	79.265
703.967	170.216
707.86	99.129
711.751	77.026
715.64	10.587
719.527	35.647
723.413	16.784
727.297	86.866
731.179	141.634
735.059	92.109
738.937	200.294
742.814	153.219
746.689	234.89
750.562	211.329
754.433	411.548
758.303	551.552
762.17	832.173
766.036	1112.83
769.901	1408.28
773.763	1480.54
777.624	1433.62
781.482	1245.5
785.339	1170.22
789.195	981.847
793.048	1023.31
796.9	1295.63
800.75	1636.35
804.598	2317.56
808.445	3129.72
812.289	4054.23
816.132	5131.73
819.973	6729.62
823.813	8846.17
827.65	8302.3
831.486	6314.76
835.32	4903.85
839.152	4507.97
842.983	4511.73
846.812	4787.98
850.639	4938.31
854.464	4870.61
858.288	5355.21
862.11	6094.92
865.93	8135.63
869.748	12124.6
873.564	20651.6
877.379	34969.5
881.192	42239.2
885.004	30766.8
888.813	17953.5
892.621	10724.6
896.427	6788.62
900.232	4476.35
904.034	3255.67
907.835	2611.38
911.634	2080.06
915.432	1754.46
919.227	1469.22
923.021	1386.08
926.813	1106.36
930.604	876.206
934.393	664.069
938.18	528.754
941.965	686.231
945.749	578.623
949.53	776.259
953.311	552.961
957.089	322.537
960.866	242.11
964.641	234.249
968.414	320.808
972.185	351.688
975.955	451.485
979.723	673.299
983.49	804.877
987.254	918.957
991.017	1100.49
994.779	1035.89
998.538	1285.61
1002.3	1861.72
1006.05	2264.34
1009.81	2273.94
1013.56	1347.84
1017.31	879.061
1021.06	505.037
1024.81	194.721
1028.55	231.33
1032.3	207.226
1036.04	264.945
1039.78	262.897
1043.52	90.402
1047.26	144.776
1050.99	246.739
1054.73	178.974
1058.46	136.515
1062.19	123.417
1065.92	55.656
1069.65	58.519
1073.37	49.598
1077.1	98.386
1080.82	124.188
1084.54	15.352
1088.26	62.735
1091.97	106.535
1095.69	18.522
1099.4	22.899
1103.12	59.119
1106.83	42.096
1110.54	85.593
1114.24	100.03
1117.95	33.473
1121.65	100.615
1125.35	218.917
1129.06	57.107
1132.75	81.371
1136.45	183.463
1140.15	279.94
1143.84	227.776
1147.53	283.094
1151.22	152.541
1154.91	259.679
1158.6	192.721
1162.28	346.534
1165.97	215.818
1169.65	281.464
1173.33	225.015
1177.01	367.164
1180.69	278.694
1184.36	281.819
1188.04	188.599
1191.71	206.251
1195.38	131.779
1199.05	171.265
1202.71	166.871
1206.38	333.328
1210.04	25.241
1213.71	312.554
1217.37	296.784
1221.03	308.805
1224.68	148.905
1228.34	297.479
1231.99	303.454
1235.65	329.165
1239.3	342.009
1242.95	443.436
1246.59	421.24
1250.24	281.007
1253.88	436.687
1257.53	384.786
1261.17	415.599
1264.81	357.23
1268.45	245.142
1272.08	149.932
1275.72	286.442
1279.35	124.579
1282.98	125.036
1286.61	90.099
1290.24	153.9
1293.87	7.742
1297.49	33.181
1301.11	86.579
1304.73	14.782
1308.36	69.699
1311.97	65.24
1315.59	102.202
1319.2	50.085
1322.82	108.326
1326.43	7.759
1330.04	68.264
1333.65	129.571
1337.26	21.3
1340.86	230.921
1344.47	289.152
1348.07	221.04
1351.67	226.324
1355.27	274.209
1358.87	175.41
1362.46	87.729
1366.06	147.04
1369.65	81.021
1373.24	157.289
1376.83	129.889
1380.42	88.225
1384	138.516
1387.59	140.508
1391.17	72.957
1394.75	163.473
1398.33	113.504
1401.91	113.896
1405.49	202.92
1409.06	98.705
1412.64	146.867
1416.21	323.104
1419.78	202.424
1423.35	196.109
1426.91	147.568
1430.48	267.527
1434.05	27.223
1437.61	363.289
1441.17	159.752
1444.73	158.682
1448.29	213.973
1451.84	99.027
1455.4	287.191
1458.95	318.053
1462.5	476.645
1466.05	600.467
1469.6	385.387
1473.15	548.092
1476.69	483.027
1480.24	453.848
1483.78	197.037
1487.32	51.406
1490.86	138.363
1494.39	284.135
1497.93	331.037
1501.46	65.951
1505	124.943
1508.53	166.16
1512.06	4.711
1515.59	151.889
