Measurement: Raman, 780 nm, unoriented, Raman Data Processed
Mineral: Grossular
Rruff sample: R060446
Ideal chemistry: Ca_3_Al_2_(SiO_4_)_3_
Locality: Africa
Source: Gemological Institute of America
Description: Orange fragment
Measured chemistry: (Ca_2.97_Mn_0.03_)_Σ=3_(Al_1.96_Fe^3+^_0.04_)_Σ=2_(Si_1.00_O_4_)_2.71_(OH)_1.16_ (x=0.29); OH estimated by charge balance
Raman shift (cm-1)	intensity
136.732	0
139.624	0.398132
142.517	1.71271
145.41	0.74263
148.303	0.608772
151.195	0.05381
154.088	0.657776
156.981	0.057045
159.873	1.11869
162.766	1.54033
165.659	2.21148
168.551	4.48565
171.444	4.54749
174.337	6.72085
177.23	7.13195
180.122	5.69326
183.015	2.6497
185.908	0.971977
188.8	0.999893
191.693	0.439255
194.586	0.006813
197.478	0.675171
200.371	0.815685
203.264	0.76907
206.156	2.01022
209.049	1.64175
211.942	2.56925
214.835	2.46738
217.727	3.75586
220.62	4.21389
223.513	4.31268
226.405	4.77177
229.298	6.06448
232.191	6.62085
235.083	7.21543
237.976	8.42067
240.869	8.78604
243.762	10.1106
246.654	9.86352
249.547	3.93982
252.44	2.0524
255.332	1.29595
258.225	1.4282
261.118	1.05312
264.01	1.48741
266.903	3.23693
269.796	4.74535
272.689	5.72166
275.581	6.34148
278.474	5.08459
281.367	2.20457
284.259	1.70959
287.152	0.94006
290.045	0.234383
292.938	0.263969
295.83	0.469772
298.723	0.638401
301.616	0.587688
304.508	0.739689
307.401	0.007141
310.294	0.307819
313.186	1.41442
316.079	1.57996
318.972	2.47583
321.865	2.64335
324.757	3.15496
327.65	4.86939
330.543	5.57022
333.435	6.29581
336.328	7.70747
339.221	9.94157
342.113	12.0998
345.006	15.6884
347.899	20.1435
350.791	23.5762
353.684	28.4774
356.577	33.6579
359.469	39.679
362.362	45.1186
365.255	49.4154
368.148	49.1665
371.04	45.1876
373.933	34.9887
376.826	24.2701
379.718	17.9803
382.611	15.1769
385.504	12.3385
388.397	12.2341
391.289	11.7882
394.182	11.0661
397.075	11.8283
399.967	11.2848
402.86	10.3151
405.753	11.4122
408.645	11.0979
411.538	10.0028
414.431	8.35798
417.324	4.98445
420.216	3.11661
423.109	2.53271
426.002	0.875919
428.894	1.21233
431.787	0.462032
434.68	0.9039
437.572	0.375225
440.465	0.067211
443.358	0.922554
446.25	0.139519
449.143	0.016018
452.036	0.403362
454.929	0.386589
457.821	0.267651
460.714	0.066288
463.607	0.474052
466.5	0.719151
469.392	0.872227
472.285	0.522518
475.178	0.378796
478.07	0.939259
480.963	0.341599
483.856	0.201046
486.748	0.394947
489.641	1.35651
492.534	0.937561
495.426	1.34482
498.319	2.31646
501.212	3.648
504.104	4.88877
506.997	4.68595
509.89	5.68519
512.783	6.09098
515.675	6.10296
518.568	7.48885
521.461	8.72529
524.354	9.8213
527.246	11.4096
530.139	12.1172
533.032	13.5552
535.924	14.2413
538.817	15.0754
541.71	16.2052
544.602	14.5747
547.495	9.97694
550.388	5.63138
553.28	2.7341
556.173	1.73541
559.066	0.082493
561.959	0.162971
564.851	0.262516
567.744	0.18679
570.637	0.025452
573.529	0.571735
576.422	0.757347
579.315	0.547585
582.207	0.076073
585.1	0.649555
587.993	0.832893
590.885	0.695908
593.778	0.89888
596.671	0.703533
599.564	0.156231
602.456	0.120762
605.349	0.163357
608.242	0.159447
611.134	1.41063
614.027	1.3224
616.92	2.0432
619.812	2.54627
622.705	3.83995
625.598	4.11286
628.491	4.37463
631.383	4.2664
634.276	3.86186
637.169	3.39986
640.061	3.10939
642.954	2.77021
645.847	1.83726
648.74	1.65867
651.632	1.00432
654.525	1.82078
657.418	1.14531
660.31	1.10857
663.203	0.390446
666.096	1.44924
668.988	1.18833
671.881	0.09679
674.774	0.523457
677.667	0.907284
680.559	0.113586
683.452	1.37234
686.345	1.188
689.237	0.114223
692.13	0.440353
695.023	0.091648
697.915	0.891376
700.808	1.19782
703.701	1.09895
706.593	1.23124
709.486	0.968697
712.379	0.642517
715.272	1.67193
718.164	1.49744
721.057	1.66832
723.95	1.63971
726.842	1.48833
729.735	1.45148
732.628	1.12597
735.52	2.32201
738.413	1.59072
741.306	0.579479
744.199	1.01868
747.091	0.568596
749.984	0.467331
752.877	0.796322
755.769	0.030907
758.662	0.267574
761.555	0.417587
764.447	0.396187
767.34	0.551426
770.233	0.813934
773.126	0.615368
776.018	0.136356
778.911	0.401409
781.804	0.056347
784.696	0.112812
787.589	0.307755
790.482	0.532085
793.375	2.02272
796.267	2.98139
799.16	3.68191
802.053	6.36426
804.945	9.7137
807.838	12.4756
810.731	17.2506
813.623	20.9881
816.516	24.3103
819.409	25.8688
822.302	25.4944
825.194	22.8971
828.087	19.106
830.98	17.9325
833.872	17.1506
836.765	17.3548
839.658	18.6699
842.55	20.2799
845.443	21.4337
848.336	24.5192
851.229	26.4598
854.121	31.8845
857.014	38.4681
859.907	45.7348
862.799	54.1964
865.692	64.1158
868.585	74.725
871.477	82.329
874.37	85.5225
877.263	78.2257
880.155	61.4558
883.048	45.0579
885.941	32.789
888.834	23.6646
891.726	17.8239
894.619	13.3967
897.512	9.92431
900.404	8.49848
903.297	6.49294
906.19	4.93691
909.082	2.93199
911.975	2.73095
914.868	1.85819
917.761	1.28427
920.653	0.36702
923.546	0.610573
926.439	0.246174
929.331	0.201496
932.224	0.316921
935.117	0.175137
938.01	0.658287
940.902	0.074898
943.795	0.640099
946.688	0.188313
949.58	0.122021
952.473	0.105204
955.366	0.179346
958.258	0.143471
961.151	0.121962
964.044	0.962713
966.937	1.11014
969.829	1.30955
972.722	3.16272
975.615	4.39484
978.507	4.47947
981.4	5.50344
984.293	5.97952
987.185	6.66551
990.078	7.70622
992.971	7.47204
995.864	7.62637
998.756	7.98038
1001.65	7.15241
1004.54	5.90474
1007.43	4.22249
1010.33	3.30118
1013.22	2.09613
1016.11	1.0215
1019	1.01555
1021.9	0.592436
1024.79	1.00846
1027.68	0.626532
1030.58	0.293369
1033.47	0.946768
1036.36	0.90835
1039.25	1.00471
1042.15	1.20159
1045.04	0.464565
1047.93	1.02225
1050.83	0.121059
1053.72	0.278931
1056.61	1.16364
1059.5	0.735569
1062.4	0.873728
1065.29	1.62282
1068.18	1.07538
1071.07	1.48078
1073.97	1.03144
1076.86	1.50135
1079.75	0.3232
1082.64	0.919199
1085.54	0.476871
1088.43	0.826141
1091.32	0.106073
1094.21	0.600393
1097.11	0.318153
1100	0.444324
1102.89	0.741493
1105.79	0.492582
1108.68	0.850422
1111.57	0.553442
1114.46	1.2991
1117.36	1.01907
1120.25	0.358805
1123.14	1.15436
1126.04	0.872976
1128.93	1.13993
1131.82	1.11726
1134.71	0.585758
1137.61	0.918745
1140.5	0.516787
1143.39	0.045067
1146.28	0.070688
1149.18	0.614645
1152.07	0.466904
1154.96	0.047665
1157.86	0.494793
1160.75	0.199951
1163.64	1.63275
1166.53	0.59705
1169.42	0.37307
1172.32	0.022331
1175.21	0.393036
1178.1	0.784367
1181	1.19538
1183.89	1.26704
1186.78	0.501629
1189.67	1.12065
1192.57	1.29114
1195.46	0.931496
1198.35	1.11937
1201.24	0.512482
1204.14	0.1171
1207.03	0.820942
1209.92	1.17096
1212.82	0.818878
1215.71	0.667633
1218.6	0.652073
1221.49	1.02863
1224.39	1.14305
1227.28	1.05085
1230.17	0.940311
1233.07	0.728157
1235.96	1.04623
1238.85	1.15467
1241.74	0.569935
1244.64	0.744152
1247.53	0.74865
1250.42	0.11195
1253.31	1.12883
1256.21	0.866108
1259.1	1.38413
1261.99	1.44497
1264.88	0.931145
1267.78	1.04149
1270.67	0.375912
1273.56	0.756798
1276.45	0.157825
1279.35	0.624844
1282.24	0.512108
1285.13	0.178532
