Measurement: Raman, 785 nm, unoriented, Raman Data Processed
Mineral: Grossular
Rruff sample: R060452
Ideal chemistry: Ca_3_Al_2_(SiO_4_)_3_
Locality: unknown
Source: Gemological Institute of America
Description: Yellowish-brown colored fragment
Measured chemistry: (Ca_2.94_Mn_0.03_Mg_0.03_)_Σ=3_(Al_1.91_Fe^3+^_0.06_Ti_0.03_)_Σ=2_((Si_0.99_Al_0.01_)_Σ=1_O_4_)_3_
Raman shift (cm-1)	intensity
119.573	0
122.466	7.70136
125.359	11.4626
128.251	0.86459
131.144	5.72586
134.037	3.19482
136.929	8.71646
139.822	3.51083
142.715	10.0237
145.607	33.9466
148.5	62.6456
151.393	100.928
154.286	125.209
157.178	139.911
160.071	167.38
162.964	226.946
165.856	307.525
168.749	307.916
171.642	262.698
174.534	239.306
177.427	290.214
180.32	467.033
183.212	289.864
186.105	93.0664
188.998	52.3715
191.891	47.8957
194.783	25.5764
197.676	25.0546
200.569	12.1054
203.461	12.0946
206.354	12.5642
209.247	17.189
212.139	9.75772
215.032	2.0163
217.925	34.2157
220.818	44.3195
223.71	71.263
226.603	123.842
229.496	209.054
232.388	284.968
235.281	382.811
238.174	515.076
241.066	528.049
243.959	543.922
246.852	726.135
249.745	567.203
252.637	422.853
255.53	464.842
258.423	574.549
261.315	691.716
264.208	693.898
267.101	569.365
269.993	380.747
272.886	318.779
275.779	414.925
278.672	460.487
281.564	186.733
284.457	12.5795
287.35	16.7977
290.242	45.1769
293.135	22.2994
296.028	6.16657
298.921	55.3291
301.813	100.039
304.706	152.645
307.599	200.248
310.491	281.673
313.384	378.96
316.277	510.478
319.169	598.025
322.062	768.634
324.955	993.582
327.847	1122.59
330.74	1407.43
333.633	1651.43
336.526	2015.83
339.418	2517.57
342.311	3053.72
345.204	3625.3
348.096	4135.91
350.989	4186.11
353.882	3638.73
356.774	2752.91
359.667	2011.74
362.56	1728.24
365.452	1900.2
368.345	2372.92
371.238	2712.83
374.131	3112.02
377.023	2278.66
379.916	993.135
382.809	356.446
385.701	129.82
388.594	9.74841
391.487	44.2585
394.38	18.3543
397.272	40.709
400.165	99.5955
403.058	196.047
405.95	235.924
408.843	304.203
411.736	378.129
414.628	588.767
417.521	616.756
420.414	410.815
423.307	265.487
426.199	244.039
429.092	258.538
431.985	361.842
434.877	438.567
437.77	481.156
440.663	463.895
443.555	386.999
446.448	337.481
449.341	252.864
452.234	174.728
455.126	95.5537
458.019	57.8738
460.912	10.5187
463.804	2.04871
466.697	14.4698
469.59	8.22998
472.483	37.1346
475.375	9.1377
478.268	19.5754
481.161	32.8746
484.053	35.2239
486.946	103.187
489.839	168.083
492.731	277.926
495.624	407.195
498.517	529.991
501.409	608.017
504.302	733.876
507.195	882.391
510.088	1098.67
512.98	1194.71
515.873	1335.43
518.766	1500.17
521.658	1685.25
524.551	1796.17
527.444	1742.06
530.337	1501.55
533.229	1156.01
536.122	873.815
539.015	666.42
541.907	589.62
544.8	730.081
547.693	997.784
550.585	764.698
553.478	312.253
556.371	110.216
559.263	45.9645
562.156	24.7366
565.049	41.1562
567.942	80.6867
570.834	101.851
573.727	157.798
576.62	219.86
579.512	254.43
582.405	268.521
585.298	253.083
588.19	256.817
591.083	279.147
593.976	224.786
596.869	250.861
599.761	300.274
602.654	300.559
605.547	322.008
608.439	264.912
611.332	178.248
614.225	129.948
617.117	74.937
620.01	54.654
622.903	78.1392
625.795	72.7093
628.688	121.233
631.581	73.4068
634.474	26.7112
637.366	24.7073
640.259	8.79187
643.152	8.02972
646.044	12.8916
648.937	15.5923
651.83	7.13315
654.722	0.908813
657.615	2.91934
660.508	3.43378
663.401	20.5316
666.293	28.8108
669.186	22.3213
672.079	31.5006
674.971	31.7559
677.864	45.4878
680.757	59.5299
683.649	63.5141
686.542	77.8818
689.435	77.7032
692.328	100.533
695.22	120.235
698.113	123.946
701.006	148.43
703.898	144.174
706.791	125.951
709.684	114.688
712.577	113.631
715.469	104.868
718.362	88.7599
721.255	74.3668
724.147	77.4167
727.04	43.7439
729.933	24.4987
732.825	30.7359
735.718	11.0435
738.611	4.89496
741.504	2.14224
744.396	12.997
747.289	13.6158
750.182	1.58157
753.074	13.274
755.967	14.6869
758.86	3.49744
761.752	14.5979
764.645	17.0398
767.538	28.2649
770.431	67.7392
773.323	84.8396
776.216	99.9613
779.109	77.2656
782.001	84.6068
784.894	73.1776
787.787	54.2852
790.679	46.6902
793.572	30.3848
796.465	26.1231
799.357	40.6945
802.25	36.7532
805.143	84.9462
808.036	136.305
810.928	167.888
813.821	245.172
816.714	363.09
819.606	488.981
822.499	662.355
825.392	692.841
828.284	513.809
831.177	327.469
834.07	205.285
836.963	152.752
839.855	129.266
842.748	154.097
845.641	197.197
848.533	191.557
851.426	187.867
854.319	189.401
857.212	206.58
860.104	276.356
862.997	420.301
865.89	614.112
868.782	969.461
871.675	1534.6
874.568	2436.15
877.46	3338.94
880.353	3713.12
883.246	3027.84
886.139	2000.64
889.031	1263.52
891.924	778.764
894.817	448.294
897.709	258.026
900.602	167.009
903.495	99.1675
906.388	50.239
909.28	34.9793
912.173	6.87372
915.066	11.7238
917.958	3.70026
920.851	1.34601
923.744	4.68994
926.636	26.9945
929.529	7.91119
932.422	31.2291
935.314	3.13153
938.207	20.4288
941.1	18.5013
943.993	48.4304
946.885	53.6017
949.778	57.8206
952.671	67.7747
955.563	108.885
958.456	122.84
961.349	144.646
964.241	197.848
967.134	217.141
970.027	286.526
972.92	363.786
975.812	416.104
978.705	472.56
981.598	504.043
984.49	464.626
987.383	449.645
990.276	443.61
993.168	468.025
996.061	492.964
998.954	545.972
1001.85	534.052
1004.74	540.403
1007.63	485.673
1010.52	370.55
1013.42	281.88
1016.31	231.361
1019.2	157.883
1022.1	92.4993
1024.99	80.9016
1027.88	30.2931
1030.77	7.9964
1033.67	15.8456
1036.56	8.25305
1039.45	12.1806
1042.34	4.48254
1045.24	10.6956
1048.13	34.7413
1051.02	54.0429
1053.91	53.5272
1056.81	63.7236
1059.7	127.223
1062.59	128.916
1065.49	76.7689
1068.38	70.2575
1071.27	80.9646
1074.16	76.7015
1077.06	69.0748
1079.95	33.4226
1082.84	23.7932
1085.73	17.6763
1088.63	1.65918
