Measurement: Raman, 532 nm, unoriented, Raman Data Processed
Mineral: Grossular
Rruff sample: R050312
Ideal chemistry: Ca_3_Al_2_(SiO_4_)_3_
Locality: Eden Mills mine, Vermont, USA
Source: Eugene Schlepp
Description: Red crystal
Measured chemistry: Ca_3.00_(Al_1.75_Fe^3+^_0.23_Ti_0.02_)_Σ=2_((Si_0.99_Al_0.01_)_Σ=1_O_4_)_3_
Raman shift (cm-1)	intensity
99.5853	0
102.96	0.169254
106.335	2.87248
109.71	0.681189
113.085	0.975124
116.459	9.3895
119.834	16.8768
123.209	26.1532
126.584	26.484
129.959	29.5711
133.333	35.3521
136.708	37.1418
140.083	37.5556
143.458	32.7244
146.833	29.0868
150.208	27.699
153.582	32.576
156.957	35.1072
160.332	40.0018
163.707	45.3789
167.082	48.1552
170.456	60.6644
173.831	89.4864
177.206	158.498
180.581	160.515
183.956	62.2429
187.331	29.4195
190.705	17.037
194.08	8.33569
197.455	4.05942
200.83	2.87383
204.205	1.33772
207.579	4.95171
210.954	1.86818
214.329	4.43799
217.704	13.1219
221.079	21.4702
224.453	42.589
227.828	75.0696
231.203	124.082
234.578	188.011
237.953	244.923
241.328	260.342
244.702	338.274
248.077	246.639
251.452	81.1919
254.827	40.2794
258.202	36.5471
261.577	45.4794
264.951	62.8824
268.326	89.46
271.701	143.262
275.076	227.155
278.451	217.072
281.825	104.5
285.2	51.7247
288.575	28.5119
291.95	7.48611
295.325	5.24159
298.7	8.74766
302.074	6.46338
305.449	2.47408
308.824	13.2358
312.199	24.4891
315.574	33.6145
318.948	43.5171
322.323	65.7203
325.698	100.868
329.073	114.518
332.448	80.2504
335.822	65.4454
339.197	76.3213
342.572	105.514
345.947	152.393
349.322	196.892
352.697	267.719
356.071	400.656
359.446	596.414
362.821	883.385
366.196	1248.88
369.571	1593.43
372.945	1869.65
376.32	1432.15
379.695	770.549
383.07	439.309
386.445	276.116
389.82	195.593
393.194	149.603
396.569	129.365
399.944	122.836
403.319	119.78
406.694	127.376
410.068	149.839
413.443	163.653
416.818	93.349
420.193	36.4242
423.568	11.3615
426.942	0.935745
430.317	3.11066
433.692	4.33708
437.067	3.80084
440.442	0.653549
443.817	2.77318
447.191	0.690567
450.566	9.38083
453.941	13.2574
457.316	14.5364
460.691	14.8637
464.065	13.049
467.44	16.0492
470.815	22.6286
474.19	33.2837
477.565	36.3159
480.94	22.0039
484.314	17.7475
487.689	18.9444
491.064	27.7262
494.439	37.4212
497.814	43.3754
501.188	48.4447
504.563	60.0345
507.938	68.1916
511.313	42.916
514.688	21.6923
518.063	14.5674
521.437	13.7742
524.812	17.6761
528.187	29.871
531.562	62.359
534.937	110.845
538.312	205.85
541.686	366.306
545.061	531.931
548.436	342.953
551.811	114.393
555.186	40.3689
558.56	17.3885
561.935	12.5094
565.31	14.861
568.685	15.4855
572.06	14.715
575.434	11.7389
578.809	5.06395
582.184	3.01932
585.559	0.285904
588.934	0.165039
592.308	3.85039
595.683	3.90881
599.058	0.656586
602.433	8.8226
605.808	24.4291
609.183	31.1373
612.557	43.0222
615.932	55.1994
619.307	70.1678
622.682	90.3229
626.057	107.375
629.432	91.6563
632.806	57.8215
636.181	30.7479
639.556	17.7313
642.931	9.32582
646.306	5.72363
649.68	3.8263
653.055	4.84617
656.43	1.20233
659.805	2.09045
663.18	5.06545
666.554	3.33111
669.929	6.70506
673.304	7.26537
676.679	8.07178
680.054	11.4057
683.428	13.3555
686.803	14.9408
690.178	17.4629
693.553	21.2663
696.928	23.8723
700.303	27.0221
703.677	25.8284
707.052	25.2081
710.427	21.9604
713.802	23.0676
717.177	19.8039
720.552	16.5261
723.926	13.4654
727.301	11.0617
730.676	9.00125
734.051	6.55633
737.426	2.65909
740.8	0.244888
744.175	3.19419
747.55	3.85792
750.925	4.97249
754.3	7.63466
757.674	6.8539
761.049	4.40311
764.424	0.011292
767.799	3.5179
771.174	9.32919
774.549	17.0609
777.923	20.8747
781.298	27.6023
784.673	24.0068
788.048	16.1845
791.423	11.9167
794.798	19.1814
798.172	42.0252
801.547	78.843
804.922	145.016
808.297	233.296
811.672	333.922
815.046	454.605
818.421	600.659
821.796	750.168
825.171	763.44
828.546	609.882
831.92	459.47
835.295	358.746
838.67	295.186
842.045	265.877
845.42	251.612
848.795	242.826
852.169	237.48
855.544	243.768
858.919	287.863
862.294	382.775
865.669	558.969
869.043	841.498
872.418	1240.79
875.793	1713.02
879.168	1963.82
882.543	1694.49
885.918	1122.05
889.292	650.463
892.667	372.324
896.042	221.096
899.417	133.727
902.792	93.9018
906.166	63.4274
909.541	46.1514
912.916	23.5552
916.291	10.341
919.666	0.784912
923.04	6.10349
926.415	6.63556
929.79	8.06914
933.165	8.75865
936.54	2.49896
939.915	7.64772
943.289	19.3602
946.664	23.5068
950.039	22.8879
953.414	11.8688
956.789	4.11554
960.163	0.927338
963.538	0.977997
966.913	9.76572
970.288	21.3535
973.663	37.28
977.038	54.7611
980.412	72.6222
983.787	86.6852
987.162	98.0516
990.537	103.067
993.912	120.502
997.287	137.933
1000.66	160.286
1004.04	186.33
1007.41	183.383
1010.79	131.283
1014.16	79.0262
1017.53	44.647
1020.91	24.4968
1024.29	14.2492
1027.66	10.6698
1031.04	10.3177
1034.41	7.79647
1037.78	6.02194
1041.16	5.56633
1044.53	4.83287
1047.91	3.26551
1051.28	2.58516
1054.66	0.560715
1058.03	0.916435
1061.41	1.91019
1064.78	0.59716
1068.16	1.75782
1071.53	0.49691
1074.91	1.7061
1078.28	1.00963
1081.66	2.43855
1085.03	1.34164
1088.41	0.083298
1091.78	0.348625
1095.16	2.44941
1098.53	1.99608
1101.91	0.17601
1105.28	0.011482
1108.65	0.685387
1112.03	0.013695
1115.4	0.341766
1118.78	0.406464
1122.15	2.35355
1125.53	1.59454
1128.9	3.68158
1132.28	5.19623
1135.65	6.20715
1139.03	7.09885
1142.4	6.63349
1145.78	9.95705
1149.15	8.43939
1152.53	9.46433
1155.9	8.30862
1159.28	9.78748
1162.65	9.25153
1166.03	8.38414
1169.4	7.10094
1172.78	5.44629
1176.15	6.81426
1179.53	2.65382
1182.9	4.25908
1186.28	1.16653
1189.65	1.1928
1193.03	0.43251
1196.4	0.318359
1199.78	0.164215
1203.15	0.633881
1206.53	1.70871
1209.9	3.81355
1213.28	1.7552
1216.65	3.4808
1220.02	2.62799
1223.4	4.05952
1226.77	3.07468
1230.15	4.18466
1233.52	3.68776
1236.9	4.70508
1240.27	5.04942
1243.65	5.38693
1247.02	6.27336
1250.4	7.91333
1253.77	7.17577
1257.15	6.88371
1260.52	6.60983
1263.9	6.76564
1267.27	3.52025
1270.65	3.8746
1274.02	4.01663
1277.4	1.86113
1280.77	0.644943
