Measurement: Raman, 514 nm, unoriented, Raman Data Processed
Mineral: Grossular
Rruff sample: R050312
Ideal chemistry: Ca_3_Al_2_(SiO_4_)_3_
Locality: Eden Mills mine, Vermont, USA
Source: Eugene Schlepp
Description: Red crystal
Measured chemistry: Ca_3.00_(Al_1.75_Fe^3+^_0.23_Ti_0.02_)_Σ=2_((Si_0.99_Al_0.01_)_Σ=1_O_4_)_3_
Raman shift (cm-1)	intensity
52.866	0
57.065	37.822
61.262	75.519
65.458	0.148
69.651	4.164
73.842	33.426
78.031	49.804
82.218	88.744
86.404	54.911
90.587	217.03
94.768	98.874
98.947	103.968
103.124	27.72
107.3	138.782
111.473	3.007
115.644	118.338
119.813	151.816
123.981	89.131
128.146	82.225
132.309	55.06
136.47	78.576
140.63	107.854
144.787	120.505
148.942	106.739
153.096	116.767
157.247	125.465
161.396	131.577
165.544	112.886
169.689	320.367
173.833	724.838
177.974	1037.48
182.114	606.836
186.251	393.234
190.387	287.651
194.52	250.086
198.652	211.543
202.782	230.035
206.909	294.586
211.035	210.219
215.159	250.948
219.281	280.822
223.4	481.275
227.518	861.795
231.634	1770.39
235.748	3002.61
239.86	3945.08
243.97	4860.76
248.079	2915.58
252.185	1137.47
256.289	592.386
260.391	477.279
264.492	696.111
268.59	1497.3
272.687	2916.18
276.781	3417.27
280.874	1990.16
284.964	1155.26
289.053	610.147
293.14	254.799
297.225	16.197
301.308	26.684
305.389	35.135
309.468	175.667
313.545	229.916
317.62	502.852
321.693	1013.55
325.765	1639.91
329.834	1474.96
333.902	1104.69
337.967	1160.16
342.031	1638.45
346.093	2070.59
350.153	2366.64
354.21	3520.64
358.267	5810.58
362.321	10716.4
366.373	20790.2
370.423	36552.8
374.471	37644.2
378.518	21920.3
382.563	10909.2
386.605	5961
390.646	3808.62
394.685	2727.05
398.722	2140.25
402.757	1862.15
406.79	1760.7
410.821	1653.37
414.851	1220.63
418.878	557.976
422.904	149.87
426.927	7.698
430.949	106.791
434.969	97.48
438.987	34.993
443.003	19.002
447.018	212.467
451.03	451.387
455.041	552.75
459.049	530.882
463.056	556.449
467.061	621.984
471.064	840.99
475.065	1006.38
479.064	797.128
483.062	652.235
487.057	639.682
491.051	867.457
495.043	1227.85
499.032	1373.27
503.02	1671.78
507.007	1926.72
510.991	1418.72
514.973	1013.17
518.954	842.003
522.933	882.93
526.91	807.088
530.885	1314.62
534.858	2403.59
538.829	5513.77
542.799	12368.6
546.766	11906.2
550.732	4898.25
554.696	2127.47
558.658	1289.87
562.618	1170.88
566.576	1131.12
570.533	1061
574.488	934.389
578.44	795.223
582.391	643.948
586.341	604.439
590.288	496.26
594.233	357.569
598.177	452.633
602.119	622.676
606.059	846.558
609.997	974.268
613.933	1102.05
617.868	1393.14
621.801	1811.3
625.731	2374.27
629.66	1905.03
633.588	1153.57
637.513	639.883
641.437	378.96
645.358	139.798
649.278	44.392
653.196	1.691
657.113	28.496
661.027	50.348
664.94	79.964
668.851	91.456
672.76	75.886
676.667	86.243
680.572	71.53
684.476	52.679
688.378	36.604
692.278	37.264
696.176	40.658
700.072	32.743
703.967	1.488
707.86	11.17
711.751	60.305
715.64	69.007
719.527	80.315
723.413	112.278
727.297	129.927
731.179	141.272
735.059	161.333
738.937	211.119
742.814	268.633
746.689	343.927
750.562	422.053
754.433	522.983
758.303	691.665
762.17	790.098
766.036	1030.28
769.901	1327.24
773.763	1648.96
777.624	1907.48
781.482	2285.84
785.339	2294.02
789.195	2185
793.048	2226.84
796.9	2596.62
800.75	3291.35
804.598	4606.66
808.445	6140.98
812.289	8206.55
816.132	11070.7
819.973	15443.1
823.813	18935.7
827.65	16479.6
831.486	12968.7
835.32	10576.3
839.152	9121.01
842.983	8429.25
846.812	8408.06
850.639	8180.56
854.464	8330.35
858.288	8757.54
862.11	10261.2
865.93	13360.6
869.748	20313.4
873.564	32449.6
877.379	46963.8
881.192	48494
885.004	34265.5
888.813	20702.6
892.621	12323.7
896.427	7992.89
900.232	5893.17
904.034	4738.54
907.835	3924.1
911.634	3246.89
915.432	2759.53
919.227	2372.68
923.021	2069.57
926.813	1899.53
930.604	1668.55
934.393	1565.5
938.18	1652.35
941.965	1954.3
945.749	2154.02
949.53	2000.71
953.311	1613.84
957.089	1224.24
960.866	912.302
964.641	807.171
968.414	952.981
972.185	1244.55
975.955	1656.78
979.723	2095.48
983.49	2376.55
987.254	2550.01
991.017	2710.85
994.779	2973.01
998.538	3383.5
1002.3	4109.3
1006.05	4846.39
1009.81	4025.77
1013.56	2300.41
1017.31	1290.24
1021.06	714.253
1024.81	483.431
1028.55	404.756
1032.3	303.216
1036.04	211.773
1039.78	185.416
1043.52	114.164
1047.26	103.014
1050.99	110.97
1054.73	43.937
1058.46	40.95
1062.19	36.004
1065.92	41.095
1069.65	24.782
1073.37	1.342
1077.1	22.535
1080.82	58.469
1084.54	42.535
1088.26	13.333
1091.97	24.857
1095.69	70.653
1099.4	62.947
1103.12	40.985
1106.83	57.32
1110.54	69.963
1114.24	1.914
1117.95	2.924
1121.65	147.636
1125.35	111.315
1129.06	68.952
1132.75	92.618
1136.45	164.226
1140.15	201.325
1143.84	257.588
1147.53	283.386
1151.22	297.356
1154.91	292.712
1158.6	285.712
1162.28	272.022
1165.97	299.217
1169.65	269.754
1173.33	226.38
1177.01	258.713
1180.69	220.099
1184.36	198.903
1188.04	184.439
1191.71	133.038
1195.38	116.464
1199.05	162.146
1202.71	183.263
1206.38	215.763
1210.04	240.052
1213.71	250.549
1217.37	266.936
1221.03	236.786
1224.68	265.728
1228.34	293.873
1231.99	296.868
1235.65	315.836
1239.3	294.613
1242.95	280.88
1246.59	333.165
1250.24	303.343
1253.88	318.798
1257.53	287.858
1261.17	265.323
1264.81	236.079
1268.45	170.647
1272.08	115.372
1275.72	81.772
1279.35	98.032
1282.98	30.035
1286.61	41.821
1290.24	41.376
1293.87	16.736
1297.49	15.927
1301.11	15.943
1304.73	47.774
1308.36	6.427
1311.97	7.897
1315.59	0.806
1319.2	21.701
1322.82	5.797
1326.43	12.923
1330.04	5.474
1333.65	2.849
1337.26	4.955
1340.86	16.015
1344.47	20.922
1348.07	55.698
1351.67	45.361
1355.27	27.914
1358.87	2.361
1362.46	0.232
1366.06	51.051
1369.65	0.716
1373.24	6.518
1376.83	21.778
1380.42	50.082
1384	37.652
1387.59	27.739
1391.17	52.815
1394.75	71.315
1398.33	73.065
1401.91	79.72
1405.49	95.049
1409.06	122.023
1412.64	98.296
1416.21	145.982
1419.78	127.778
1423.35	102.236
1426.91	135.53
1430.48	158.703
1434.05	126.856
1437.61	152.065
1441.17	147.628
1444.73	182.212
1448.29	149.098
1451.84	146.265
1455.4	131.848
1458.95	160.73
1462.5	173.181
1466.05	142.181
1469.6	117.666
1473.15	82.923
1476.69	85.524
1480.24	92.836
1483.78	87.578
1487.32	87.436
1490.86	72.491
1494.39	37.697
1497.93	38.111
1501.46	64.025
1505	18.535
1508.53	39.627
1512.06	60.528
1515.59	6.011
1519.11	72.585
1522.64	1.289
1526.16	0
