Measurement: Raman, 532 nm, unoriented, Raman Data Processed
Mineral: Grossular
Rruff sample: R050081
Ideal chemistry: Ca_3_Al_2_(SiO_4_)_3_
Locality: Kayes Region, Mali
Source: Rock Currier
Description: Dark brown dodecahedron
Measured chemistry: (Ca_2.92_Mg_0.07_Mn_0.01_)_Σ=3_(Al_1.04_Fe^3+^_0.89_Ti_0.07_)_Σ=2_((Si_0.98_Al_0.02_)_Σ=1_O_4_)_3_; trace amounts of Y
Raman shift (cm-1)	intensity
140.502	0
143.876	12.037
147.251	6.53601
150.626	6.30341
154.001	46.1644
157.376	44.037
160.75	60.0121
164.125	102.576
167.5	148.096
170.875	226.893
174.25	382.699
177.625	415.404
180.999	184.167
184.374	92.5336
187.749	55.0283
191.124	37.3456
194.499	30.958
197.874	7.41074
201.248	13.4776
204.623	0.126282
207.998	6.30078
211.373	13.563
214.748	12.4567
218.122	24.1256
221.497	111.196
224.872	213.436
228.247	385.819
231.622	604.446
234.996	754.756
238.371	883.665
241.746	948.558
245.121	341.829
248.496	83.9707
251.871	12.2697
255.245	7.3324
258.62	34.3863
261.995	50.3557
265.37	121.834
268.745	273.669
272.12	345.514
275.494	181.472
278.869	126.785
282.244	64.2562
285.619	2.46155
288.994	13.4292
292.368	23.3817
295.743	3.01446
299.118	22.2062
302.493	71.8392
305.868	136.375
309.243	231.921
312.617	392.223
315.992	604.551
319.367	756.124
322.742	696.005
326.117	444.895
329.491	408.766
332.866	435.242
336.241	441.321
339.616	404.339
342.991	467.076
346.365	680.413
349.74	1067.85
353.115	1653.92
356.49	2507.88
359.865	3448.41
363.24	3887.73
366.614	4586.11
369.989	5639.18
373.364	5172.15
376.739	3240
380.114	1874.89
383.488	1188.62
386.863	858.47
390.238	661.322
393.613	527.77
396.988	458.253
400.363	384.699
403.737	252.883
407.112	117.812
410.487	23.7507
413.862	17.2472
417.237	14.9332
420.611	10.929
423.986	26.6572
427.361	9.63928
430.736	5.99261
434.111	24.5002
437.486	65.8588
440.86	64.2807
444.235	81.1783
447.61	73.5173
450.985	80.5209
454.36	83.2046
457.735	67.2065
461.109	77.9728
464.484	55.012
467.859	56.1928
471.234	33.1538
474.609	29.8762
477.983	76.7284
481.358	163.244
484.733	209.542
488.108	263.024
491.483	278.585
494.858	292.931
498.232	262.253
501.607	209.079
504.982	143.397
508.357	102.535
511.732	105.4
515.106	118.537
518.481	225.266
521.856	475.133
525.231	839.69
528.606	1257.15
531.981	1645.2
535.355	1368.92
538.73	588.922
542.105	257.92
545.48	168.475
548.855	148.844
552.229	177.136
555.604	215.493
558.979	218.035
562.354	205.104
565.729	164.609
569.104	83.3677
572.478	30.1062
575.853	9.99091
579.228	22.8669
582.603	28.2033
585.978	20.4975
589.352	24.6842
592.727	89.5896
596.102	132.113
599.477	180.583
602.852	208.859
606.227	246.186
609.601	251.526
612.976	274.254
616.351	276.47
619.726	227.616
623.101	179.732
626.476	128.231
629.85	68.8818
633.225	57.6456
636.6	74.4289
639.975	59.2059
643.35	77.8417
646.724	98.9638
650.099	106.091
653.474	104.053
656.849	128.889
660.224	119.722
663.598	111.718
666.973	137.905
670.348	150.516
673.723	173.309
677.098	138.918
680.472	120.363
683.847	112.811
687.222	85.8209
690.597	63.2177
693.972	53.237
697.347	52.1583
700.721	42.7233
704.096	40.9229
707.471	22.8241
710.846	33.6439
714.221	2.22607
717.596	7.3114
720.97	9.69479
724.345	21.9027
727.72	12.6419
731.095	19.6089
734.47	0.80896
737.844	13.8462
741.219	25.3268
744.594	43.9507
747.969	71.4549
751.344	124.892
754.719	170.46
758.093	274.24
761.468	327.037
764.843	333.706
768.218	283.266
771.593	156.821
774.967	98.6754
778.342	31.2537
781.717	2.77411
785.092	10.2986
788.467	49.9124
791.842	103.394
795.216	236.213
798.591	416.065
801.966	746.216
805.341	1087.68
808.716	1563.34
812.091	2065.45
815.465	2553.83
818.84	2672.15
822.215	2489.67
825.59	2053.66
828.965	1590.55
832.339	1223.98
835.714	1005.38
839.089	892.084
842.464	894.861
845.839	864.453
849.213	811.443
852.588	765.163
855.963	808.022
859.338	910.309
862.713	1152.88
866.087	1482.57
869.462	1877.57
872.837	2191.05
876.212	2178.46
879.587	1922.67
882.962	1444.52
886.337	988.858
889.711	666.087
893.086	411.351
896.461	275.676
899.836	127.17
903.211	49.5815
906.585	2.22736
909.96	31.8746
913.335	45.6362
916.71	30.8177
920.085	4.72809
923.46	3.00415
926.834	27.4329
930.209	76.3662
933.584	123.958
936.959	137.457
940.334	151.285
943.708	114.635
947.083	47.5633
950.458	18.1067
953.833	1.08295
957.208	40.2305
960.582	102.224
963.957	171.134
967.332	227.665
970.707	297.351
974.082	328.311
977.457	369.172
980.831	390.937
984.206	394.693
987.581	417.073
990.956	423.264
994.331	448.738
997.705	429.117
1001.08	396.613
1004.46	298.109
1007.83	152.292
1011.21	91.6103
1014.58	49.4864
1017.95	62.0963
1021.33	88.7981
1024.7	87.9877
1028.08	48.1602
1031.45	18.0733
1034.83	8.61968
1038.2	0.271576
1041.58	5.83812
1044.95	4.39096
1048.33	3.53862
1051.7	9.35474
1055.08	16.0612
1058.45	25.6599
1061.83	9.91212
1065.2	16.6438
1068.58	12.4686
1071.95	30.8032
1075.33	27.9783
1078.7	28.4986
1082.08	14.9533
1085.45	21.8311
1088.83	33.8818
1092.2	48.2937
1095.58	35.7669
1098.95	31.2541
1102.33	25.414
1105.7	29.389
1109.07	36.6201
1112.45	39.8804
1115.82	36.4635
1119.2	36.3206
1122.57	26.1619
1125.95	33.9478
1129.32	28.4123
1132.7	22.1201
1136.07	30.4268
1139.45	22.4324
1142.82	11.1511
1146.2	27.543
1149.57	8.09135
1152.95	3.5937
1156.32	13.8315
1159.7	11.6013
1163.07	1.92514
1166.45	10.07
1169.82	0.969238
1173.2	7.14636
1176.57	6.87125
1179.95	3.23239
1183.32	7.79025
1186.69	10.1319
1190.07	10.1484
1193.44	11.369
1196.82	18.5289
1200.19	11.4302
1203.57	3.91597
1206.94	18.121
1210.32	20.0035
1213.69	20.9231
1217.07	12.9042
1220.44	22.3187
1223.82	21.5886
1227.19	22.2048
1230.57	13.9386
1233.94	10.1437
1237.32	15.5468
1240.69	12.7723
1244.07	9.95775
1247.44	12.3095
1250.82	7.89314
1254.19	13.0016
1257.57	6.737
1260.94	1.34247
1264.32	13.2985
1267.69	2.03445
1271.07	5.07523
1274.44	10.5875
1277.82	2.91727
1281.19	10.2635
1284.57	6.81441
1287.94	11.1567
1291.32	17.3688
1294.69	10.795
1298.06	7.19571
1301.44	9.04974
1304.81	4.04352
