Measurement: Raman, 785 nm, unoriented, Raman Data Processed
Mineral: Grossular
Rruff sample: R070551
Ideal chemistry: Ca_3_Al_2_(SiO_4_)_3_
Locality: Mali
Source: www.multicolour.com
Description: Green gem fragments
Measured chemistry: (Ca_2.95_Mg_0.04_Mn_0.01_)_Σ=3_(Al_1.63_Fe^3+^_0.37_)_Σ=2_(Si_1.00_O_4_)_3_
Raman shift (cm-1)	intensity
123.715	0
126.608	245.97
129.501	304.417
132.393	37.2412
135.286	146.969
138.179	203.587
141.071	274.574
143.964	40.3909
146.857	305.976
149.75	254.437
152.642	610.982
155.535	632.032
158.428	566.985
161.32	452.277
164.213	477.751
167.106	470.342
169.998	540.349
172.891	713.63
175.784	763.047
178.677	1124.12
181.569	2126.94
184.462	608.305
187.355	167.073
190.247	185.883
193.14	136.324
196.033	78.3058
198.925	11.4497
201.818	29.6974
204.711	105.63
207.603	11.833
210.496	12.5686
213.389	33.7195
216.281	25.4708
219.174	41.3942
222.067	54.7555
224.96	329.386
227.852	393.79
230.745	764.226
233.638	1173.73
236.53	1868.31
239.423	2184.29
242.316	2451.97
245.208	3504.4
248.101	3029.8
250.994	1253.39
253.887	737.05
256.779	568.145
259.672	715.476
262.565	813.267
265.457	970.428
268.35	754.942
271.243	1013.42
274.135	1673.74
277.028	2637.55
279.921	1404.06
282.814	489.834
285.706	220.599
288.599	186.752
291.492	151.971
294.384	5.14246
297.277	148.586
300.17	12.1248
303.062	55.2627
305.955	131.12
308.848	236.443
311.741	179.664
314.633	454.148
317.526	692.839
320.419	747.75
323.311	1386.87
326.204	1814.04
329.097	2064.89
331.989	1765.93
334.882	1850.24
337.775	2341.23
340.668	2970.82
343.56	3564.95
346.453	4261.24
349.346	4320.85
352.238	4361.37
355.131	3972.02
358.024	3892.75
360.916	4488.01
363.809	6461.04
366.702	9094.17
369.594	10518
372.487	13839.2
375.38	16441.2
378.273	11689.3
381.165	6329.29
384.058	3281.26
386.951	1902.47
389.843	1099.08
392.736	628.758
395.629	412.874
398.522	307.839
401.414	406.357
404.307	479.043
407.2	597.557
410.092	1015.54
412.985	1014.81
415.878	442.047
418.77	196.139
421.663	116.363
424.556	67.7911
427.449	125.13
430.341	98.8359
433.234	23.9753
436.127	152.424
439.019	42.9128
441.912	12.3976
444.805	36.8264
447.697	31.1438
450.59	54.5575
453.483	5.05042
456.375	195.676
459.268	2.77808
462.161	80.4998
465.054	46.9725
467.946	116.124
470.839	48.2483
473.732	95.2528
476.624	199.14
479.517	58.0896
482.41	33.0645
485.302	129.331
488.195	198.189
491.088	374.464
493.981	538.842
496.873	672.664
499.766	689.294
502.659	957.358
505.551	1135.44
508.444	1253.91
511.337	1424.99
514.229	1355.83
517.122	1494.91
520.015	1663.81
522.908	1581.86
525.8	1524.8
528.693	1320.88
531.586	1330.66
534.478	1541.62
537.371	1923.89
540.264	2870.79
543.156	4177.53
546.049	3457.51
548.942	1337.94
551.835	305.727
554.727	162.359
557.62	40.2306
560.513	117.723
563.405	5.44958
566.298	77.552
569.191	99.4633
572.083	177.695
574.976	127.028
577.869	154.589
580.761	246.946
583.654	299.506
586.547	111.801
589.44	264.763
592.332	252.55
595.225	118.606
598.118	215.628
601.01	220.293
603.903	400.364
606.796	385.106
609.688	215.213
612.581	313.212
615.474	387.997
618.367	361.606
621.259	537.894
624.152	667.351
627.045	622.269
629.937	473.118
632.83	296.913
635.723	58.2527
638.615	92.8697
641.508	45.3871
644.401	53.1157
647.293	110.455
650.186	42.414
653.079	9.56036
655.972	15.6249
658.864	79.8776
661.757	19.4357
664.65	48.9827
667.542	85.5846
670.435	106.701
673.328	86.2407
676.221	121.606
679.113	73.9745
682.006	111.938
684.899	120.001
687.791	117.746
690.684	37.3936
693.577	135.728
696.469	223.053
699.362	309.055
702.255	250.282
705.148	281.752
708.04	292.492
710.933	248.729
713.826	5.37201
716.718	123.288
719.611	17.6254
722.504	147.869
725.396	113.468
728.289	144.216
731.182	33.755
734.074	128.372
736.967	191.902
739.86	131.957
742.753	184.507
745.645	161.149
748.538	27.7652
751.431	73.8427
754.323	19.4002
757.216	129.727
760.109	25.2706
763.001	61.6395
765.894	4.0354
768.787	22.2473
771.68	32.67
774.572	88.8157
777.465	60.4059
780.358	23.7971
783.25	32.9402
786.143	2.72632
789.036	12.1301
791.928	83.4522
794.821	97.6184
797.714	146.049
800.606	313.548
803.499	530.623
806.392	845.047
809.285	1347.34
812.177	1917.29
815.07	2773.75
817.963	3879.08
820.855	4867.92
823.748	5072.73
826.641	4255.93
829.534	3227.6
832.426	2441.08
835.319	1887.88
838.212	1717.93
841.104	1447.39
843.997	1413.5
846.89	1328.2
849.782	1324.36
852.675	1240.83
855.568	1226.23
858.461	1568.42
861.353	2123.28
864.246	2758.79
867.139	4172.39
870.031	5942.02
872.924	8487.35
875.817	10788.9
878.709	11386.1
881.602	9375.17
884.495	6312.53
887.388	3978.09
890.28	2499.19
893.173	1630.86
896.066	1148.29
898.958	947.471
901.851	612.259
904.744	461.386
907.636	360.987
910.529	245.463
913.422	167.382
916.314	35.3514
919.207	39.8428
922.1	62.8715
924.993	2.5791
927.885	37.2991
930.778	52.6732
933.671	112.909
936.563	157.663
939.456	57.2343
942.349	60.3217
945.241	222.113
948.134	131.605
951.027	4.27832
953.92	69.8756
956.812	130.275
959.705	196.272
962.598	18.7581
965.49	182.52
968.383	293.316
971.276	375.341
974.168	380.139
977.061	553.437
979.954	518.486
982.846	465.072
985.739	698.923
988.632	650.695
991.525	765.9
994.417	851.793
997.31	778.202
1000.2	867.75
1003.1	911.754
1005.99	772.344
1008.88	685.08
1011.77	371.733
1014.67	244.346
1017.56	142.028
1020.45	121.879
1023.34	163.123
1026.24	103.302
1029.13	5.6142
1032.02	70.4662
1034.91	26.4658
1037.81	125.063
1040.7	58.9744
1043.59	19.5962
1046.49	20.7568
1049.38	22.8004
1052.27	2.37244
1055.16	50.4801
1058.06	114.089
1060.95	122.393
1063.84	109.917
1066.73	274.421
1069.63	310.277
1072.52	365.397
1075.41	417.379
1078.31	466.592
1081.2	619.457
1084.09	671.449
1086.98	765.697
1089.88	1071.23
1092.77	1194.01
1095.66	1463.27
1098.55	2085.59
1101.45	2628.7
1104.34	3777.21
1107.23	5182.98
1110.12	6952.89
1113.02	9781.44
1115.91	13076.9
1118.8	16662.4
1121.7	19048.5
1124.59	18879.5
1127.48	16400.1
1130.37	12586.7
1133.27	8571.86
1136.16	6009.17
1139.05	4278.29
1141.94	3035.12
1144.84	2218.21
1147.73	1711.06
1150.62	1281.46
1153.52	1045.57
1156.41	803.608
1159.3	676.441
1162.19	582.669
1165.09	397.281
1167.98	450.641
1170.87	242.33
1173.77	288.066
1176.66	193.29
1179.55	234.492
1182.44	102.675
1185.34	149.215
1188.23	109.4
1191.12	133.114
1194.01	155.375
1196.91	96.0809
1199.8	23.774
1202.69	9.81567
1205.58	52.6536
1208.48	66.9877
1211.37	79.5034
1214.26	46.373
1217.15	88.7831
1220.05	76.0642
1222.94	58.3687
1225.83	74.4227
1228.73	109.019
1231.62	152.595
1234.51	175.664
1237.4	328.635
1240.3	442.566
1243.19	585.649
1246.08	614.122
1248.97	589.63
1251.87	476.098
1254.76	219.053
1257.65	192.207
1260.55	128.118
1263.44	90.01
1266.33	52.7361
1269.22	176.378
1272.12	82.9363
1275.01	99.5798
