Measurement: Raman, 532 nm, unoriented, Raman Data Processed
Mineral: Grossular
Rruff sample: R060444
Ideal chemistry: Ca_3_Al_2_(SiO_4_)_3_
Locality: Pakistan (?)
Source: Gemological Institute of America
Description: Tan colored crystals coating a surface
Measured chemistry: (Ca_2.98_Mn_0.02_)_Σ=3_(Al_1.84_Fe^3+^_0.13_Ti_0.03_)_Σ=2_((Si_0.99_Al_0.01_)_Σ=1_O_4_)_3_
Raman shift (cm-1)	intensity
133.352	0
136.245	0.988731
139.138	6.80515
142.03	12.8601
144.923	16.8946
147.816	18.5758
150.708	17.7208
153.601	13.5092
156.494	14.0931
159.387	15.3021
162.279	25.4167
165.172	30.2081
168.065	34.1883
170.957	43.9228
173.85	57.9546
176.743	87.7617
179.636	126.643
182.528	76.7173
185.421	31.1344
188.314	19.7037
191.206	18.1998
194.099	5.7953
196.992	2.86084
199.884	1.39504
202.777	0.621536
205.67	1.5694
208.562	1.53821
211.455	1.50444
214.348	2.6248
217.241	6.56741
220.133	13.6213
223.026	22.5226
225.919	32.4016
228.811	52.1926
231.704	76.3434
234.597	99.2771
237.489	128.273
240.382	141.455
243.275	145.261
246.168	176.259
249.06	139.94
251.953	52.5261
254.846	27.2314
257.738	26.9765
260.631	37.6214
263.524	43.9329
266.416	55.6867
269.309	73.1769
272.202	95.1292
275.095	129.43
277.987	152.621
280.88	106.09
283.773	46.8134
286.665	24.115
289.558	12.4174
292.451	4.20895
295.344	2.45236
298.236	3.87636
301.129	4.01901
304.022	0.434891
306.914	1.12938
309.807	7.42015
312.7	11.6476
315.592	18.0077
318.485	20.9367
321.378	17.4393
324.271	23.3944
327.163	35.2578
330.056	43.5762
332.949	38.5418
335.841	32.1451
338.734	36.9058
341.627	47.5559
344.519	64.5335
347.412	91.8054
350.305	129.118
353.197	174.995
356.09	254.482
358.983	375.922
361.876	517.053
364.768	699.899
367.661	909.125
370.554	1090.2
373.446	1224.09
376.339	1077.56
379.232	616.234
382.125	329.65
385.017	201.373
387.91	138.466
390.803	100.416
393.695	79.4864
396.588	70.6887
399.481	68.849
402.373	69.1458
405.266	75.7964
408.159	79.4607
411.051	96.2079
413.944	116.554
416.837	115.36
419.73	62.4425
422.622	26.1323
425.515	9.72846
428.408	4.27866
431.3	0.941299
434.193	1.82814
437.086	2.13478
439.978	2.71503
442.871	3.03566
445.764	4.24405
448.657	1.52466
451.549	0.317535
454.442	4.84975
457.335	3.05406
460.227	4.91148
463.12	5.74831
466.013	7.09701
468.906	9.22376
471.798	10.9398
474.691	20.2166
477.584	26.1206
480.476	24.1151
483.369	9.37048
486.262	6.83685
489.154	7.11002
492.047	13.0511
494.94	20.2657
497.832	26.433
500.725	29.8286
503.618	39.8444
506.511	58.2414
509.403	71.5473
512.296	40.1814
515.189	16.5076
518.081	7.81699
520.974	6.17661
523.867	11.9783
526.76	15.7474
529.652	14.8536
532.545	24.1758
535.438	54.9222
538.33	86.1263
541.223	140.297
544.116	219.193
547.008	320.197
549.901	326.997
552.794	161.374
555.687	65.8777
558.579	34.1362
561.472	17.5918
564.365	16.0487
567.257	12.1022
570.15	10.6291
573.043	9.95987
575.935	8.24628
578.828	4.75604
581.721	1.63068
584.614	1.95499
587.506	8.19608
590.399	7.37036
593.292	5.13342
596.184	2.02356
599.077	3.77054
601.97	3.89002
604.862	2.3476
607.755	6.71814
610.648	11.6529
613.54	16.3772
616.433	21.469
619.326	35.2305
622.218	36.5844
625.111	45.7663
628.004	57.6883
630.897	50.0333
633.789	34.2865
636.682	20.909
639.575	12.1866
642.467	11.9389
645.36	8.43558
648.253	6.28378
651.145	2.64972
654.038	2.63712
656.931	4.393
659.824	1.84994
662.716	0.021576
665.609	0.73999
668.502	4.06909
671.394	3.0144
674.287	3.5463
677.18	2.57071
680.072	6.93344
682.965	8.54654
685.858	11.5817
688.751	12.576
691.643	11.4959
694.536	9.57541
697.429	11.9136
700.321	13.0754
703.214	12.9637
706.107	8.65701
709	11.5642
711.892	8.88739
714.785	7.64062
717.678	7.12747
720.57	6.87079
723.463	4.40655
726.356	0.216736
729.248	1.01886
732.141	1.70737
735.034	0.616638
737.927	0.247406
740.819	0.006989
743.712	2.87442
746.605	0.423004
749.497	1.49701
752.39	3.05878
755.283	4.19067
758.175	9.28479
761.068	15.2727
763.961	23.7161
766.854	30.5131
769.746	34.3018
772.639	34.0371
775.532	29.9252
778.424	18.4266
781.317	9.27087
784.21	0.817627
787.102	2.73425
789.995	6.75934
792.888	3.73999
795.78	0.679321
798.673	10.8242
801.566	26.0631
804.459	44.0694
807.351	79.2142
810.244	120.077
813.137	169.556
816.029	223.083
818.922	276.147
821.815	342.335
824.707	377.504
827.6	343.806
830.493	260.238
833.386	193.63
836.278	150.432
839.171	128.784
842.064	131.26
844.956	129.795
847.849	138.392
850.742	146.527
853.635	153.125
856.527	160.496
859.42	186.193
862.313	241.643
865.205	351.169
868.098	513.683
870.991	750.148
873.883	1042.94
876.776	1384.3
879.669	1660.61
882.562	1595.51
885.454	1205.16
888.347	784.366
891.24	486.353
894.132	293.12
897.025	183.167
899.918	114.009
902.81	76.9883
905.703	58.556
908.596	40.7487
911.489	31.0402
914.381	21.5283
917.274	20.3103
920.167	9.58612
923.059	1.77081
925.952	1.83868
928.845	0.079529
931.737	2.07117
934.63	3.80255
937.523	3.883
940.415	0.226868
943.308	10.5367
946.201	4.74377
949.094	5.4436
951.986	0.50354
954.879	3.28723
957.772	1.90234
960.664	1.34528
963.557	1.70447
966.45	2.76416
969.342	4.60754
972.235	10.2479
975.128	21.6675
978.021	32.1964
980.913	36.3698
983.806	40.697
986.699	49.5939
989.591	49.7024
992.484	55.8039
995.377	65.3206
998.269	79.8953
1001.16	94.4362
1004.05	114.872
1006.95	122.076
1009.84	113.087
1012.73	78.5532
1015.63	49.1663
1018.52	30.3292
1021.41	21.4922
1024.3	15.7111
1027.2	13.497
1030.09	11.7195
1032.98	12.3467
1035.88	8.58063
1038.77	7.58032
1041.66	6.70856
1044.55	7.12134
1047.44	7.57703
1050.34	2.8667
1053.23	1.98938
1056.12	2.54663
1059.02	3.16699
1061.91	1.91992
1064.8	3.34399
1067.69	2.02393
1070.59	1.19885
1073.48	3.39233
1076.37	3.4718
1079.27	1.99597
1082.16	1.87976
1085.05	3.797
1087.94	3.06653
1090.84	2.40942
1093.73	1.88635
1096.62	2.67163
1099.51	2.73962
1102.41	0.958252
1105.3	6.28589
1108.19	4.19311
1111.09	3.01697
1113.98	1.01502
1116.87	2.35181
1119.76	1.97876
1122.66	1.3396
1125.55	1.8219
1128.44	1.1084
1131.33	2.77893
1134.23	3.56604
1137.12	4.6543
1140.01	6.65979
1142.9	7.19873
1145.8	8.10938
1148.69	5.37207
1151.58	13.4766
1154.47	11.7861
1157.37	8.44934
1160.26	7.57263
1163.15	10.7163
1166.05	9.7373
1168.94	6.90393
1171.83	9.75623
1174.72	9.66834
1177.62	7.98193
1180.51	8.95166
1183.4	4.1665
1186.3	5.3197
1189.19	1.30603
1192.08	5.2522
1194.97	7.75549
1197.87	3.64722
1200.76	5.56519
1203.65	1.0896
1206.54	4.89185
1209.44	1.66589
1212.33	1.11853
1215.22	7.2666
1218.12	0.477539
1221.01	6.51318
1223.9	6.56104
1226.79	7.94946
1229.68	0.878052
1232.58	7.65393
1235.47	4.65479
1238.36	3.6106
1241.26	6.72058
1244.15	7.73279
1247.04	13.0793
1249.93	6.30042
1252.83	7.1969
1255.72	1.19214
1258.61	7.34558
1261.51	4.72449
1264.4	7.3811
1267.29	8.35742
1270.18	7.85168
1273.08	2.69031
1275.97	2.7406
1278.86	4.6709
1281.75	5.01709
