Measurement: Raman, 785 nm, unoriented, Raman Data Processed
Mineral: Grossular
Rruff sample: R040066
Ideal chemistry: Ca_3_Al_2_(SiO_4_)_3_
Locality: Redding, Connecticut, USA
Source: University of Arizona Mineral Museum
Description: Reddish orange coarsely crystalline
Measured chemistry: (Ca_2.90_Fe^2+^_0.08_Mn_0.02_)_Σ=3_(Al_1.87_Fe^3+^_0.13_)_Σ=2_(Si_1.00_O_4_)_3_
Raman shift (cm-1)	intensity
108.029	0
110.922	1.7788
113.814	26.9699
116.707	46.3371
119.6	4.52099
122.492	10.4052
125.385	34.7682
128.278	113.035
131.171	199.665
134.063	156.329
136.956	31.2102
139.849	50.4273
142.741	76.0746
145.634	167.373
148.527	179.844
151.419	131.095
154.312	96.7873
157.205	78.9429
160.097	77.4764
162.99	80.2284
165.883	87.4443
168.776	114.825
171.668	204.143
174.561	330.402
177.454	559.984
180.346	498.281
183.239	212.082
186.132	101.671
189.024	72.1776
191.917	38.2536
194.81	35.9358
197.703	34.731
200.595	13.3311
203.488	9.06584
206.381	10.6836
209.273	0.194275
212.166	5.7804
215.059	9.40225
217.952	5.98309
220.844	16.316
223.737	17.3692
226.63	28.2698
229.522	86.2686
232.415	166.973
235.308	278
238.2	375.8
241.093	426.441
243.986	559.529
246.879	565.304
249.771	200.218
252.664	83.051
255.557	55.2144
258.449	50.3832
261.342	56.114
264.235	84.3708
267.127	111.841
270.02	188.269
272.913	309.868
275.805	463.542
278.698	392.61
281.591	178.15
284.484	90.3727
287.376	45.252
290.269	17.4231
293.162	1.18573
296.054	5.70224
298.947	15.5886
301.84	10.8036
304.733	10.7935
307.625	23.5524
310.518	46.4261
313.411	65.9561
316.303	68.4269
319.196	65.7538
322.089	110.541
324.981	158.071
327.874	243.274
330.767	176.938
333.659	123.337
336.552	142.277
339.445	170.776
342.338	212.1
345.23	286.328
348.123	322.633
351.016	371.32
353.908	508.987
356.801	777.601
359.694	1273.15
362.587	2063.72
365.479	3283.07
368.372	4249.4
371.265	4873.3
374.157	5225.67
377.05	3581.03
379.943	1866.01
382.835	1051.31
385.728	649.255
388.621	429.344
391.514	318.294
394.406	241.525
397.299	217.954
400.192	205.943
403.084	225.611
405.977	293.551
408.87	435.82
411.762	618.802
414.655	601.759
417.548	281.473
420.44	134.882
423.333	60.4204
426.226	11.7509
429.119	0.468994
432.011	1.18338
434.904	12.6146
437.797	5.49771
440.689	24.7786
443.582	7.42557
446.475	7.23318
449.368	15.3039
452.26	23.2939
455.153	17.3995
458.046	13.0295
460.938	5.9628
463.831	5.32706
466.724	6.46115
469.616	17.4915
472.509	30.8417
475.402	59.3538
478.294	32.2882
481.187	0.806488
484.08	11.2705
486.973	12.6847
489.865	34.4689
492.758	48.6295
495.651	50.8882
498.543	50.1945
501.436	64.4987
504.329	113.252
507.221	129.657
510.114	106.326
513.007	40.4122
515.899	19.8694
518.792	27.1743
521.685	44.1325
524.578	62.2291
527.47	34.937
530.363	29.7616
533.256	76.3427
536.148	204.687
539.041	464.014
541.934	847.195
544.827	1357.05
547.719	1112.95
550.612	468.795
553.505	158.695
556.397	67.6268
559.29	29.5549
562.183	12.7045
565.075	4.51996
567.968	10.5571
570.861	11.083
573.754	25.3972
576.646	21.2188
579.539	15.2221
582.432	12.3273
585.324	28.1361
588.217	50.0262
591.11	27.2468
594.002	0.183655
596.895	1.46999
599.788	1.83797
602.681	15.8704
605.573	29.5763
608.466	41.3212
611.359	52.8241
614.251	63.5013
617.144	84.8842
620.037	116.757
622.929	154.674
625.822	196.929
628.715	171.711
631.607	134.453
634.5	69.0742
637.393	33.5618
640.286	15.0008
643.178	9.70856
646.071	10.5495
648.964	1.6342
651.856	12.0362
654.749	14.8497
657.642	1.32181
660.534	2.41751
663.427	1.79563
666.32	9.60094
669.213	2.36674
672.105	9.45537
674.998	15.3743
677.891	17.6608
680.783	12.5013
683.676	23.4108
686.569	30.8774
689.462	24.1989
692.354	29.092
695.247	45.0107
698.14	32.9253
701.032	35.2304
703.925	24.6662
706.818	39.5901
709.71	45.765
712.603	48.5326
715.496	51.7183
718.389	36.8612
721.281	37.3352
724.174	35.1404
727.067	16.4227
729.959	22.5721
732.852	25.2217
735.745	22.8794
738.638	15.0988
741.53	15.7044
744.423	8.99712
747.316	13.7918
750.208	1.76504
753.101	3.76967
755.994	5.48482
758.886	7.11881
761.779	6.10869
764.672	10.3577
767.564	3.54918
770.457	1.07234
773.35	2.03461
776.243	11.1029
779.135	9.98769
782.028	14.7463
784.921	12.3369
787.813	10.5157
790.706	13.7308
793.599	5.85272
796.491	1.11316
799.384	32.9235
802.277	82.1856
805.17	171.226
808.062	260.044
810.955	392.082
813.848	557.237
816.74	791.671
819.633	1067.99
822.526	1316.18
825.418	1356.54
828.311	1132.65
831.204	866.387
834.096	702.347
836.989	608.635
839.882	502.064
842.775	481.963
845.667	477.477
848.56	490.095
851.453	469.131
854.345	450.606
857.238	492.743
860.131	560.256
863.024	678.521
865.916	958.531
868.809	1421.9
871.702	2152.03
874.594	3193.9
877.487	4178.01
880.38	4393.23
883.272	3584.49
886.165	2412.89
889.058	1514.21
891.951	915.945
894.843	598.585
897.736	406.365
900.629	279.076
903.521	228.057
906.414	172.546
909.307	148.557
912.199	111.767
915.092	63.7985
917.985	41.6056
920.878	25.9247
923.77	16.8053
926.663	4.43072
929.556	13.2921
932.448	13.5063
935.341	8.69313
938.234	1.13408
941.126	2.57924
944.019	2.04776
946.912	17.4831
949.804	9.40981
952.697	15.4942
955.59	7.03558
958.483	2.81081
961.375	2.75679
964.268	7.81561
967.161	6.69469
970.053	23.4706
972.946	44.3325
975.839	53.5972
978.731	84.2659
981.624	106.71
984.517	119.43
987.41	126.642
990.302	120.921
993.195	128.667
996.088	161.604
998.98	196.952
1001.87	248.323
1004.77	286.847
1007.66	281.188
1010.55	216.707
1013.44	129.22
1016.34	84.9007
1019.23	59.2153
1022.12	35.1046
1025.02	20.3384
1027.91	15.298
1030.8	20.01
1033.69	13.7274
1036.59	13.2704
1039.48	17.5921
1042.37	24.1013
1045.26	13.0845
1048.16	16.3357
1051.05	14.1075
1053.94	6.56279
1056.83	9.16963
1059.73	9.08914
1062.62	6.73911
1065.51	0.433357
1068.4	9.28751
1071.3	2.1745
1074.19	0.336067
1077.08	1.21834
1079.98	7.46629
1082.87	14.1269
1085.76	12.6362
1088.65	3.05645
1091.55	16.4466
1094.44	9.94312
1097.33	24.2783
1100.22	16.0433
1103.12	29.9881
1106.01	35.543
1108.9	33.1399
1111.8	52.6962
1114.69	79.9463
1117.58	113.109
1120.47	144.812
1123.37	171.202
1126.26	189.179
1129.15	154.442
1132.05	117.653
1134.94	85.0273
1137.83	56.1531
1140.72	46.716
1143.62	39.8966
1146.51	22.9468
1149.4	46.4611
1152.29	35.8178
1155.19	34.4793
1158.08	19.5451
1160.97	17.6129
1163.86	11.9256
1166.76	22.6713
1169.65	24.4006
1172.54	8.52668
1175.43	8.80381
1178.33	9.05265
1181.22	12.5128
1184.11	5.9604
1187.01	0.001007
1189.9	2.16125
1192.79	3.42105
1195.68	0.631699
1198.58	10.3236
1201.47	7.05799
1204.36	2.46663
1207.26	2.29141
1210.15	7.66926
1213.04	7.40608
1215.93	8.68276
1218.83	19.2153
1221.72	16.5468
1224.61	14.9791
1227.5	12.9156
1230.4	15.2577
1233.29	12.5411
1236.18	4.40411
1239.07	6.25268
1241.97	13.5654
1244.86	15.4188
1247.75	11.0208
1250.64	19.7359
1253.54	0.181679
1256.43	6.32474
1259.32	0.048973
