Measurement: Raman, 532 nm, unoriented, Raman Data Processed
Mineral: Grossular
Rruff sample: R100146
Ideal chemistry: Ca_3_Al_2_(SiO_4_)_3_
Locality: Sri Lanka
Source: William W. Pinch
Description: Red cut gemstone
Raman shift (cm-1)	intensity
91.0352	0
94.41	2.6884
97.7848	2.57128
101.16	3.43315
104.534	8.46614
107.909	9.83515
111.284	9.72697
114.659	14.663
118.034	15.8783
121.409	9.59477
124.783	7.81677
128.158	2.44143
131.533	0.573269
134.908	0.141154
138.283	1.98286
141.657	0.754818
145.032	0.328304
148.407	5.5699
151.782	9.05982
155.157	19.8361
158.532	28.4609
161.906	42.7307
165.281	56.563
168.656	76.8155
172.031	100.956
175.406	146.38
178.78	215.107
182.155	162.484
185.53	71.4683
188.905	43.62
192.28	30.699
195.655	21.2866
199.029	14.0474
202.404	9.5895
205.779	5.60949
209.154	6.07742
212.529	5.31454
215.904	7.50142
219.278	8.79032
222.653	17.0103
226.028	24.3008
229.403	42.027
232.778	63.5568
236.152	92.5901
239.527	119.279
242.902	127.663
246.277	157.545
249.652	110.784
253.026	33.7773
256.401	20.2701
259.776	21.1672
263.151	27.9248
266.526	38.1609
269.901	55.1655
273.276	81.2639
276.65	124.032
280.025	117.307
283.4	51.314
286.775	20.0637
290.15	10.8112
293.524	0.335007
296.899	6.18348
300.274	6.97804
303.649	1.91762
307.024	1.47958
310.399	9.72387
313.773	20.2906
317.148	24.1358
320.523	19.5698
323.898	23.123
327.273	36.2447
330.647	43.9795
334.022	39.4642
337.397	36.3695
340.772	47.6011
344.147	65.9953
347.522	101.361
350.896	150.518
354.271	223.989
357.646	347.113
361.021	529.048
364.396	776.963
367.77	1105.51
371.145	1341.07
374.52	1431.53
377.895	1003.73
381.27	477.127
384.644	248.734
388.019	151.669
391.394	104.902
394.769	80.0481
398.144	68.8875
401.519	78.0363
404.894	83.5553
408.268	100.219
411.643	132.482
415.018	172.779
418.393	138.13
421.767	49.8947
425.142	18.2652
428.517	4.70782
431.892	0.216209
435.267	3.58374
438.642	3.27528
442.017	4.23498
445.391	2.5922
448.766	1.14552
452.141	0.860703
455.516	5.62492
458.891	8.24974
462.265	6.43255
465.64	7.80684
469.015	10.6861
472.39	12.6632
475.765	21.6215
479.139	22.4477
482.514	11.9904
485.889	7.85259
489.264	8.36562
492.639	13.6269
496.014	21.4265
499.388	25.3718
502.763	33.0343
506.138	47.877
509.513	55.097
512.888	30.5755
516.263	14.1635
519.637	11.5843
523.012	15.8859
526.387	25.6885
529.762	22.9689
533.137	36.4657
536.511	68.2043
539.886	117.541
543.261	214.19
546.636	360.497
550.011	367.09
553.386	141.92
556.76	41.8088
560.135	12.8578
563.51	1.17306
566.885	0.664612
570.26	0.20771
573.635	0.013428
577.009	1.97629
580.384	2.09115
583.759	3.71285
587.134	9.4634
590.509	12.8507
593.883	6.46781
597.258	1.81458
600.633	1.37866
604.008	0.013767
607.383	6.02163
610.758	12.4062
614.132	18.3367
617.507	23.4907
620.882	31.796
624.257	42.3909
627.632	53.2913
631.006	49.3425
634.381	30.236
637.756	14.8622
641.131	8.28307
644.506	4.60459
647.881	0.976048
651.255	0.178246
654.63	1.1266
658.005	0.810246
661.38	0.266914
664.755	0.454216
668.13	1.93001
671.504	1.85111
674.879	3.74725
678.254	5.21583
681.629	7.5844
685.004	7.32684
688.378	7.3247
691.753	8.62082
695.128	9.33776
698.503	10.5635
701.878	10.5987
705.253	13.5898
708.627	13.5163
712.002	12.8216
715.377	12.4425
718.752	10.4974
722.127	9.77036
725.501	10.1125
728.876	8.15928
732.251	7.43684
735.626	8.03336
739.001	6.4365
742.375	5.31625
745.75	5.63632
749.125	3.53592
752.5	2.95962
755.875	1.56159
759.25	1.21182
762.625	0.938251
765.999	1.44697
769.374	1.5831
772.749	2.7152
776.124	0.894035
779.499	0.560677
782.873	0.576622
786.248	3.70918
789.623	1.98138
792.998	1.6105
796.373	1.45503
799.747	9.20895
803.122	23.6364
806.497	45.2082
809.872	78.1352
813.247	122.704
816.621	178.991
819.996	243.646
823.371	313.069
826.746	326.44
830.121	260.847
833.496	196.278
836.87	156.232
840.245	142.187
843.62	145.042
846.995	152.141
850.37	167.358
853.745	175.789
857.119	195.606
860.494	242.344
863.869	339.8
867.244	513.718
870.619	784.909
873.994	1169.63
877.368	1631.1
880.743	1916.77
884.118	1613.71
887.493	1039.43
890.868	604.529
894.242	349.028
897.617	206.95
900.992	133.41
904.367	94.2762
907.742	70.8325
911.116	55.9649
914.491	40.7758
917.866	27.5569
921.241	17.7323
924.616	10.031
927.991	4.05676
931.365	1.58952
934.74	1.80689
938.115	3.5759
941.49	1.88871
944.865	1.3393
948.24	4.09666
951.614	5.59791
954.989	1.83187
958.364	0.858017
961.739	5.62857
965.114	2.72165
968.489	0.160553
971.863	7.78745
975.238	12.6197
978.613	23.6292
981.988	33.0884
985.362	37.3056
988.737	44.5989
992.112	53.2176
995.487	61.742
998.862	72.8795
1002.24	89.6202
1005.61	106.866
1008.99	107.348
1012.36	79.4388
1015.74	46.7825
1019.11	25.6759
1022.49	15.2038
1025.86	9.1139
1029.23	5.89299
1032.61	5.5452
1035.98	5.6436
1039.36	7.38174
1042.73	5.10147
1046.11	5.33125
1049.48	3.81059
1052.86	3.4642
1056.23	1.55623
1059.61	4.69142
1062.98	3.81471
1066.36	1.9425
1069.73	2.82693
1073.11	1.24036
1076.48	1.16397
1079.86	0.57106
1083.23	1.08941
1086.61	2.31708
1089.98	1.82639
1093.36	1.32729
1096.73	0.715584
1100.11	0.762566
1103.48	2.43129
1106.86	0.934204
1110.23	1.78493
1113.61	0.884392
1116.98	0.914917
1120.36	0.966919
1123.73	2.8974
1127.11	0.431641
1130.48	1.1289
1133.86	3.30009
1137.23	3.53247
1140.6	4.7674
1143.98	6.39116
1147.35	7.73892
1150.73	9.13658
1154.1	10.7123
1157.48	7.6738
1160.85	8.25204
1164.23	8.84727
1167.6	7.82779
1170.98	6.77423
1174.35	7.14721
1177.73	5.42721
1181.1	5.59407
1184.48	2.6838
1187.85	1.83072
1191.23	2.59713
1194.6	0.192871
1197.98	0.252808
1201.35	0.609138
1204.73	0.238777
1208.1	1.70435
1211.48	1.83104
1214.85	2.42508
1218.22	2.4039
1221.6	2.60792
1224.97	4.26908
1228.35	4.43721
1231.72	4.70334
1235.1	6.13748
1238.47	5.07591
1241.85	5.73926
1245.22	6.11391
1248.6	5.41046
1251.97	6.23492
1255.35	7.16628
1258.72	8.55742
1262.1	8.72575
1265.47	5.25594
1268.85	6.7934
1272.22	7.05885
1275.6	3.73219
1278.97	3.33293
1282.35	2.69581
1285.72	1.47935
1289.1	3.40805
1292.47	0.519043
1295.85	2.25474
1299.22	0.141373
1302.6	0
