Measurement: Raman, 785 nm, unoriented, Raman Data Processed
Mineral: Grossular
Rruff sample: R040065
Ideal chemistry: Ca_3_Al_2_(SiO_4_)_3_
Locality: Feng Tien mine, Taiwan
Source: University of Arizona Mineral Museum
Description: Orange-brown trapezohedral crystals
Measured chemistry: (Ca_2.90_Fe^2+^_0.05_Mn_0.05_)_Σ=3_(Al_1.95_Fe^3+^_0.03_Ti_0.02_)_Σ=2_((Si_0.99_Al_0.01_)_Σ=1_O_4_)_3_
Raman shift (cm-1)	intensity
119.6	0
122.492	4.50903
125.385	1.99704
128.278	49.5498
131.171	135.594
134.063	56.5031
136.956	3.05838
139.849	2.15576
142.741	34.2006
145.634	125.128
148.527	153.391
151.419	150.299
154.312	138.085
157.205	102.486
160.097	96.951
162.99	139.266
165.883	162.96
168.776	198.034
171.668	289.665
174.561	512.395
177.454	926.154
180.346	1236.55
183.239	532.036
186.132	188.977
189.024	111.687
191.917	50.741
194.81	73.0433
197.703	41.1711
200.595	33.1557
203.488	4.65064
206.381	4.22668
209.273	5.21387
212.166	17.2304
215.059	11.2597
217.951	0.528687
220.844	13.3272
223.737	58.8782
226.63	107.587
229.522	219.84
232.415	434.981
235.308	776.319
238.2	1234.82
241.093	1291.63
243.986	1656
246.878	2054.89
249.771	771.198
252.664	266.519
255.556	112.395
258.449	110.334
261.342	114.682
264.235	152.152
267.127	249.057
270.02	538.218
272.913	1043.51
275.805	1772.52
278.698	1860.64
281.591	727.023
284.484	280.493
287.376	131.727
290.269	63.7325
293.162	0.879211
296.054	35.7657
298.947	37.8721
301.84	30.1165
304.733	7.38818
307.625	28.7623
310.518	77.6343
313.411	128.768
316.303	156.622
319.196	112.616
322.089	131.544
324.981	284.82
327.874	442.82
330.767	443.391
333.659	256.179
336.552	179.685
339.445	245.709
342.337	347.555
345.23	529.727
348.123	696.137
351.016	659.551
353.908	841.679
356.801	1227.61
359.694	1948.38
362.586	3271.97
365.479	5544.04
368.372	8302.02
371.264	10192.5
374.157	11617.2
377.05	8049.98
379.943	3871.69
382.835	2122.16
385.728	1315.23
388.621	846.358
391.513	614.872
394.406	488.512
397.299	400.292
400.192	382.363
403.084	384.865
405.977	465.393
408.87	676.857
411.762	1004.81
414.655	1533.7
417.548	1175.92
420.44	478.091
423.333	198.913
426.226	108.349
429.118	56.2063
432.011	30.0654
434.904	9.85913
437.797	13.7294
440.689	12.7592
443.582	10.0353
446.475	15.6581
449.367	11.9241
452.26	4.36981
455.153	2.099
458.046	1.29022
460.938	15.2001
463.831	22.436
466.724	3.76355
469.616	45.5067
472.509	106.026
475.402	235.32
478.294	287.544
481.187	152.932
484.08	88.1876
486.973	66.5316
489.865	73.0043
492.758	62.1263
495.651	108.526
498.543	145.89
501.436	235.01
504.329	432.424
507.221	710.716
510.114	669.81
513.007	278.803
515.899	140.225
518.792	109.023
521.685	105.894
524.578	190.367
527.47	157.051
530.363	64.16
533.256	71.8483
536.148	201.607
539.041	551.259
541.934	1234.46
544.827	2298.85
547.719	3335.88
550.612	2085.58
553.505	827.614
556.397	422.904
559.29	268.306
562.183	222.964
565.075	190.95
567.968	150.417
570.861	120.474
573.754	118.347
576.646	83.2683
579.539	64.0062
582.432	80.2657
585.324	113.402
588.217	151.825
591.11	158.848
594.002	63.9916
596.895	17.2971
599.788	15.8141
602.681	4.73221
605.573	3.24448
608.466	8.63031
611.359	29.1897
614.251	57.4679
617.144	90.8439
620.037	154.504
622.929	287.862
625.822	423.29
628.715	478.366
631.607	320.665
634.5	183.622
637.393	86.3155
640.286	48.9479
643.178	23.7284
646.071	25.8711
648.964	11.6381
651.856	10.9252
654.749	6.45447
657.642	10.4906
660.534	7.20154
663.427	11.0507
666.32	3.56915
669.213	14.2035
672.105	0.553879
674.998	19.8232
677.891	27.6701
680.783	34.4211
683.676	39.941
686.569	47.9442
689.462	68.102
692.354	70.6484
695.247	68.6878
698.14	75.7809
701.032	61.9935
703.925	52.1185
706.818	67.5459
709.71	51.6449
712.603	58.8726
715.496	40.1908
718.389	38.5398
721.281	36.4657
724.174	35.3839
727.067	6.30771
729.959	16.937
732.852	7.95444
735.745	8.07303
738.637	5.55811
741.53	2.10706
744.423	17.4957
747.316	3.05673
750.208	2.72659
753.101	29.3271
755.994	38.4828
758.886	61.4009
761.779	115.38
764.672	146.201
767.564	186.942
770.457	221.916
773.35	206.495
776.242	137.503
779.135	95.241
782.028	43.8384
784.921	19.821
787.813	45.1145
790.706	43.6616
793.599	47.7416
796.491	15.1925
799.384	82.9518
802.277	239.986
805.169	431.6
808.062	687.982
810.955	1003.66
813.848	1426.63
816.74	1971.77
819.633	2768.62
822.526	3569.44
825.418	3681.47
828.311	2816.78
831.204	1932.32
834.096	1454.58
836.989	1178.53
839.882	1069.67
842.775	1079.16
845.667	1174.97
848.56	1233.3
851.453	1166.87
854.345	1109.77
857.238	1130.57
860.131	1306.55
863.024	1689.27
865.916	2374.11
868.809	3588.91
871.702	5664.35
874.594	8644.68
877.487	11863.7
880.38	12559.6
883.272	9866.82
886.165	6519.47
889.058	4014.48
891.951	2502.6
894.843	1553.38
897.736	951.459
900.629	646.719
903.521	453.483
906.414	346.921
909.307	282.636
912.199	196.668
915.092	144.049
917.985	104.364
920.877	43.5969
923.77	18.4748
926.663	6.00238
929.556	14.7001
932.448	24.9869
935.341	49.5594
938.234	22.4253
941.126	23.2924
944.019	11.0353
946.912	35.842
949.804	53.49
952.697	29.3788
955.59	13.4191
958.482	4.55994
961.375	3.40558
964.268	9.05942
967.161	43.7418
970.053	41.1125
972.946	102.453
975.839	124.638
978.731	169.744
981.624	194.514
984.517	256.236
987.409	280.234
990.302	291.187
993.195	323.318
996.088	397.957
998.98	511.44
1001.87	687.443
1004.77	847.817
1007.66	844.742
1010.55	631.06
1013.44	417.633
1016.34	266.262
1019.23	161.329
1022.12	87.7635
1025.02	69.1668
1027.91	54.498
1030.8	58.1448
1033.69	67.3507
1036.59	62.0848
1039.48	40.4724
1042.37	31.2794
1045.26	35.4614
1048.16	31.4995
1051.05	25.5693
1053.94	21.2906
1056.83	19.8046
1059.73	19.0614
1062.62	6.09419
1065.51	13.3581
1068.4	3.25238
1071.3	0.125946
1074.19	8.18398
1077.08	13.5159
1079.98	0.772217
1082.87	1.04427
1085.76	12.227
1088.65	4.51379
1091.55	6.77785
1094.44	7.02837
1097.33	15.6324
1100.22	16.0866
1103.12	30.1916
1106.01	31.0547
1108.9	42.495
1111.8	55.1037
1114.69	70.9332
1117.58	124.622
1120.47	161.282
1123.37	247.567
1126.26	284.999
1129.15	255.55
1132.05	188.465
1134.94	127.433
1137.83	94.3144
1140.72	59.2522
1143.62	60.4503
1146.51	52.4325
1149.4	31.52
1152.29	51.8013
1155.19	52.6402
1158.08	40.1056
1160.97	37.1538
1163.86	49.9888
1166.76	38.1906
1169.65	31.5269
1172.54	33.651
1175.43	23.5004
1178.33	27.301
1181.22	25.4412
1184.11	23.8633
1187.01	19.5515
1189.9	7.08179
1192.79	6.31024
1195.68	0.926895
1198.58	19.5411
1201.47	3.75572
1204.36	6.79112
1207.26	16.3256
1210.15	11.3953
1213.04	15.9906
1215.93	25.108
1218.83	55.404
1221.72	96.2079
1224.61	21.9896
1227.5	30.4271
1230.4	17.1404
1233.29	24.2481
1236.18	20.8176
1239.07	11.0335
1241.97	47.6541
1244.86	22.4009
1247.75	10.1017
1250.64	6.13734
1253.54	10.5886
1256.43	7.74011
1259.32	27.5511
1262.22	14.3573
