Measurement: Raman, 780 nm, unoriented, Raman Data Processed
Mineral: Grossular
Rruff sample: R060444
Ideal chemistry: Ca_3_Al_2_(SiO_4_)_3_
Locality: Pakistan (?)
Source: Gemological Institute of America
Description: Tan colored crystals coating a surface
Measured chemistry: (Ca_2.98_Mn_0.02_)_Σ=3_(Al_1.84_Fe^3+^_0.13_Ti_0.03_)_Σ=2_((Si_0.99_Al_0.01_)_Σ=1_O_4_)_3_
Raman shift (cm-1)	intensity
104.912	0
108.287	0.566296
111.662	0.13699
115.036	0.926605
118.411	0.286026
121.786	2.37131
125.161	1.63234
128.536	2.77388
131.911	0.849659
135.285	0.165573
138.66	0.677975
142.035	1.16069
145.41	0.920235
148.785	0.581303
152.159	0.985306
155.534	1.5944
158.909	2.82019
162.284	3.16756
165.659	3.09739
169.034	4.44311
172.408	9.05212
175.783	21.9933
179.158	35.6113
182.533	15.5799
185.908	4.16847
189.282	3.28507
192.657	0.748238
196.032	1.1621
199.407	0.735107
202.782	0.094406
206.156	0.81142
209.531	0.305515
212.906	0.666332
216.281	2.88182
219.656	5.77526
223.03	8.62037
226.405	14.5889
229.78	20.8623
233.155	33.4053
236.53	46.739
239.905	53.9898
243.279	64.5126
246.654	79.8229
250.029	30.0393
253.404	12.3637
256.779	9.54889
260.154	11.0745
263.528	14.4456
266.903	20.4011
270.278	30.7527
273.653	49.4
277.028	67.3602
280.402	36.9481
283.777	15.0416
287.152	7.58284
290.527	1.77968
293.902	0.046383
297.276	1.51381
300.651	1.61069
304.026	0.327198
307.401	1.13411
310.776	3.56035
314.151	5.15477
317.525	5.30934
320.9	5.67957
324.275	10.9034
327.65	18.0922
331.025	16.9362
334.399	11.4988
337.774	12.773
341.149	16.6693
344.524	24.836
347.899	39.5709
351.274	48.2314
354.648	72.3003
358.023	106.338
361.398	153.241
364.773	231.583
368.148	335.149
371.522	448.505
374.897	453.954
378.272	235.43
381.647	111.861
385.022	64.8636
388.397	41.7524
391.771	29.9399
395.146	23.5364
398.521	22.0094
401.896	18.9206
405.271	21.5289
408.645	23.9789
412.02	32.9524
415.395	39.0534
418.77	19.777
422.145	8.03317
425.519	2.42398
428.894	1.17897
432.269	0.258217
435.644	0.60137
439.019	0.135372
442.394	0.907215
445.768	0.997316
449.143	1.24564
452.518	0.179474
455.893	0.115513
459.268	1.57743
462.642	1.24659
466.017	1.44664
469.392	1.70316
472.767	4.75537
476.142	9.16297
479.517	6.45103
482.891	3.27252
486.266	1.34469
489.641	3.58882
493.016	4.91409
496.391	5.76041
499.765	8.14611
503.14	14.4336
506.515	26.449
509.89	26.0519
513.265	8.91309
516.64	4.11196
520.014	3.15785
523.389	3.70158
526.764	6.29096
530.139	7.81752
533.514	14.4493
536.889	22.9401
540.263	41.6442
543.638	84.0623
547.013	139.939
550.388	93.7665
553.763	32.4062
557.137	15.4215
560.512	8.60733
563.887	6.84638
567.262	5.80464
570.637	4.17209
574.011	2.25397
577.386	1.27711
580.761	1.48885
584.136	1.63768
587.511	2.53941
590.885	3.92305
594.26	0.038111
597.635	0.433336
601.01	0.03002
604.385	0.354321
607.76	2.01397
611.134	3.23204
614.509	4.47859
617.884	5.90096
621.259	11.46
624.634	17.2004
628.009	20.7241
631.383	15.8835
634.758	7.88729
638.133	5.10443
641.508	2.70251
644.883	2.33
648.257	2.18881
651.632	2.70248
655.007	2.06175
658.382	0.634534
661.757	1.3231
665.131	0.17712
668.506	0.580804
671.881	0.978931
675.256	1.7294
678.631	2.3814
682.006	2.37573
685.38	2.52677
688.755	2.44758
692.13	3.04408
695.505	2.60596
698.88	2.77484
702.255	2.28305
705.629	2.43202
709.004	2.32566
712.379	1.73551
715.754	1.79451
719.129	0.549401
722.503	1.50766
725.878	1.102
729.253	0.374075
732.628	0.172417
736.003	0.134178
739.377	0.024225
742.752	0.838146
746.127	0.13044
749.502	0.078945
752.877	0.461233
756.251	1.01234
759.626	2.94961
763.001	5.75801
766.376	7.54894
769.751	9.1457
773.126	9.54964
776.5	7.33658
779.875	4.01011
783.25	1.82612
786.625	0.74361
790	1.71089
793.375	1.05253
796.749	0.343742
800.124	5.92482
803.499	13.5037
806.874	24.5286
810.249	38.9034
813.623	56.1043
816.998	77.1935
820.373	104.503
823.748	127.244
827.123	112.678
830.497	77.2008
833.872	55.3878
837.247	43.7857
840.622	39.7519
843.997	41.717
847.372	46.9262
850.746	49.4859
854.121	46.976
857.496	51.98
860.871	66.9898
864.246	96.4854
867.62	148.88
870.995	223.267
874.37	336.098
877.745	468.381
881.12	493.109
884.495	365.508
887.869	218.526
891.244	122.749
894.619	69.7058
897.994	40.6283
901.369	25.0596
904.744	18.1197
908.118	12.2769
911.493	8.59931
914.868	6.47683
918.243	4.36202
921.617	2.96139
924.992	0.674116
928.367	0.56127
931.742	1.42011
935.117	1.20784
938.492	0.619009
941.866	0.686272
945.241	0.534452
948.616	1.14453
951.991	0.155094
955.366	0.661917
958.74	0.496883
962.115	0.558933
965.49	0.59485
968.865	2.45391
972.24	2.74802
975.615	5.55144
978.989	7.97911
982.364	9.44765
985.739	12.0971
989.114	12.348
992.489	15.4803
995.864	19.2685
999.238	23.6093
1002.61	29.0872
1005.99	36.7136
1009.36	32.9118
1012.74	20.9854
1016.11	12.144
1019.49	7.50622
1022.86	4.56945
1026.24	3.70174
1029.61	3.6262
1032.99	2.51932
1036.36	1.76759
1039.74	2.02109
1043.11	2.57707
1046.49	1.96612
1049.86	1.12011
1053.23	2.61828
1056.61	1.58253
1059.98	1.12409
1063.36	1.16282
1066.73	1.00277
1070.11	0.874928
1073.48	1.69974
1076.86	1.3442
1080.23	0.723132
1083.61	0.750045
1086.98	1.04922
1090.36	0.188426
1093.73	0.430915
1097.11	0.057645
1100.48	0.801827
1103.86	0.828815
1107.23	0.940526
1110.61	0.303231
1113.98	0.262677
1117.36	1.23934
1120.73	0.577538
1124.11	0.376839
1127.48	0.77404
1130.86	0.328023
1134.23	1.39135
1137.61	1.70691
1140.98	1.87475
1144.36	0.831613
1147.73	1.6097
1151.11	2.81535
1154.48	1.80233
1157.86	2.52113
1161.23	2.41852
1164.6	2.1562
1167.98	2.32259
1171.35	1.87836
1174.73	0.963792
1178.1	1.81647
1181.48	2.05283
1184.85	1.48953
1188.23	1.02793
1191.6	2.02087
1194.98	3.05534
1198.35	2.78702
1201.73	3.16937
1205.1	2.417
1208.48	1.81707
1211.85	1.01108
1215.23	1.43318
1218.6	1.50007
1221.98	0.103244
1225.35	0.5832
1228.73	0.2013
1232.1	1.89357
1235.47	1.19168
1238.85	0.724711
1242.22	0.596497
1245.6	1.56019
1248.97	1.3713
1252.35	1.55597
1255.72	1.44979
1259.1	1.55407
1262.47	1.53796
1265.85	1.21462
1269.22	0.808348
1272.6	1.45188
1275.97	1.3279
1279.35	0.719481
1282.72	0.48091
1286.1	0
