Measurement: Raman, 514 nm, unoriented, Raman Data Processed
Mineral: Grossular
Rruff sample: R050081
Ideal chemistry: Ca_3_Al_2_(SiO_4_)_3_
Locality: Kayes Region, Mali
Source: Rock Currier
Description: Dark brown dodecahedron
Measured chemistry: (Ca_2.92_Mg_0.07_Mn_0.01_)_Σ=3_(Al_1.04_Fe^3+^_0.89_Ti_0.07_)_Σ=2_((Si_0.98_Al_0.02_)_Σ=1_O_4_)_3_; trace amounts of Y
Raman shift (cm-1)	intensity
94.768	0
98.947	80.41
103.124	172.945
107.3	300.66
111.473	266.601
115.644	660.65
119.813	158.537
123.981	51.69
128.146	94.357
132.309	23.288
136.47	80.04
140.63	118.689
144.787	0.113
148.942	1.898
153.096	31.204
157.247	61.853
161.396	57.449
165.544	296.299
169.689	898.681
173.833	1647.6
177.974	1243.1
182.114	516.882
186.251	272.629
190.387	129.142
194.52	124.218
198.652	39.717
202.782	68.875
206.909	181.919
211.035	50.196
215.159	76.371
219.281	123.458
223.4	561.3
227.518	1259.16
231.634	2107.06
235.748	3128.98
239.86	3298.8
243.97	1446.71
248.079	534.789
252.185	238.079
256.289	216.676
260.391	396.008
264.492	893.528
268.59	1513.92
272.687	1287.92
276.781	1111.38
280.874	723.359
284.964	482.218
289.053	407.411
293.14	537.176
297.225	775.385
301.308	980.446
305.389	1339.89
309.468	1994.69
313.545	3075.75
317.62	3626.74
321.693	2909.39
325.765	2574.75
329.834	2641.99
333.902	2368.04
337.967	2491.88
342.031	3051.48
346.093	4342.85
350.153	6892.96
354.21	10593.5
358.267	14384.4
362.321	20483.8
366.373	32522.8
370.423	41112.7
374.471	32075.7
378.518	19513
382.563	11150.9
386.605	6818.86
390.646	4467.05
394.685	2876.42
398.722	1788.08
402.757	927.911
406.79	419.878
410.821	265.708
414.851	162.367
418.878	72.455
422.904	67.519
426.927	233.772
430.949	419.642
434.969	499.134
438.987	612.253
443.003	628.008
447.018	801.399
451.03	792.425
455.041	731.15
459.049	748.51
463.056	786.554
467.061	72.197
471.064	69.422
475.065	224.208
479.064	704.542
483.062	1191.43
487.057	1632.62
491.051	1818.84
495.043	1961.3
499.032	1687.25
503.02	1259.68
507.007	1110.57
510.991	1649.91
514.973	3233.7
518.954	6962.92
522.933	12123.6
526.91	14705.6
530.885	9508.31
534.858	4559.64
538.829	2271.91
542.799	1514.24
546.766	1239
550.732	1280.64
554.696	1207.79
558.658	1142.05
562.618	777.107
566.576	376.937
570.533	40.1
574.488	173.132
578.44	112.641
582.391	48.571
586.341	202.846
590.288	556.179
594.233	700.562
598.177	818.983
602.119	897.438
606.059	1025.92
609.997	919.412
613.933	817.915
617.868	702.417
621.801	413.91
625.731	275.386
629.66	136.593
633.588	357.014
637.513	654.395
641.437	792.726
645.358	856.999
649.278	799.205
653.196	786.337
657.113	687.387
661.027	656.347
664.94	623.369
668.851	629.427
672.76	550.612
676.667	424.138
680.572	252.539
684.476	132.808
688.378	7.112
692.278	49.541
696.176	108.844
700.072	133.146
703.967	163.602
707.86	132.203
711.751	167.063
715.64	120.256
719.527	94.458
723.413	45.968
727.297	275.039
731.179	449.07
735.059	765.633
738.937	1166.04
742.814	1609.6
746.689	2008.07
750.562	2492.45
754.433	2989.83
758.303	3365.26
762.17	3415.73
766.036	3166.18
769.901	2721.65
773.763	2398.15
777.624	2238.71
781.482	2278.31
785.339	2353.83
789.195	2658.29
793.048	2957.63
796.9	3487.86
800.75	4393.97
804.598	5545.97
808.445	6827.86
812.289	8571.65
816.132	10264.3
819.973	10670.9
823.813	9723.41
827.65	8047.8
831.486	7101.11
835.32	6796.33
839.152	7020.46
842.983	7343.05
846.812	7490.8
850.639	7184.77
854.464	6742.22
858.288	6786.19
862.11	7549.5
865.93	8267.47
869.748	9323.77
873.564	10397.3
877.379	10431.9
881.192	9365.81
885.004	7476.55
888.813	5686.72
892.621	4217.27
896.427	3277.14
900.232	2681.99
904.034	2415.87
907.835	2366.57
911.634	2289.88
915.432	2444.15
919.227	2529.19
923.021	2671.09
926.813	3014.28
930.604	3275.98
934.393	3453.47
938.18	3425.04
941.965	3024.99
945.749	2606.09
949.53	2283.3
953.311	2137.62
957.089	2403.05
960.866	2776.6
964.641	2958.26
968.414	3229.06
972.185	3438.01
975.955	3641.09
979.723	3654.33
983.49	3669.69
987.254	3503.2
991.017	3498.84
994.779	3550.69
998.538	3310.06
1002.3	2714.88
1006.05	1668.78
1009.81	1167.64
1013.56	1142.41
1017.31	1866.1
1021.06	1626.92
1024.81	1188.16
1028.55	539.328
1032.3	214.509
1036.04	86.808
1039.78	19.169
1043.52	15.241
1047.26	8.972
1050.99	50.561
1054.73	86.283
1058.46	103.303
1062.19	60.683
1065.92	77.342
1069.65	23.298
1073.37	95.502
1077.1	76.082
1080.82	68.062
1084.54	5.675
1088.26	7.563
1091.97	56.048
1095.69	108.101
1099.4	109.349
1103.12	165.913
1106.83	735.152
1110.54	966.825
1114.24	231.577
1117.95	186.143
1121.65	402.308
1125.35	412.219
1129.06	191.554
1132.75	190.335
1136.45	144.654
1140.15	112.454
1143.84	91.356
1147.53	114.712
1151.22	106.9
1154.91	31.334
1158.6	113.65
1162.28	38.067
1165.97	73.944
1169.65	115.244
1173.33	167.891
1177.01	211.526
1180.69	182.996
1184.36	200.924
1188.04	249.416
1191.71	290.104
1195.38	256.525
1199.05	287.548
1202.71	365.717
1206.38	271.927
1210.04	265.906
1213.71	275.873
1217.37	214.231
1221.03	222.031
1224.68	181.669
1228.34	174.949
1231.99	168.171
1235.65	196.743
1239.3	110.478
1242.95	88.845
1246.59	102.804
1250.24	118.402
1253.88	59.625
1257.53	26.446
1261.17	9.769
1264.81	21.598
1268.45	10.019
1272.08	2.94
1275.72	22.49
1279.35	28.647
1282.98	1.601
1286.61	23.85
1290.24	23.734
1293.87	24.153
1297.49	9.827
1301.11	8.281
1304.73	24.32
1308.36	23.35
1311.97	14.2
1315.59	2.374
1319.2	11.098
1322.82	13.673
1326.43	10.432
1330.04	29.063
1333.65	2.864
1337.26	4.22
1340.86	31.52
1344.47	37.155
1348.07	61.143
1351.67	80.118
1355.27	107.635
1358.87	118.853
1362.46	78.705
1366.06	139.552
1369.65	178.213
1373.24	145.294
1376.83	143.012
1380.42	146.44
1384	150.198
1387.59	150.085
1391.17	173.622
1394.75	141.071
1398.33	120.637
1401.91	140.193
1405.49	211.811
1409.06	117.973
1412.64	179.327
1416.21	84.619
1419.78	167.599
1423.35	107.795
1426.91	122.533
1430.48	55.52
1434.05	87.192
1437.61	91.599
1441.17	73.037
1444.73	36.686
1448.29	74.27
1451.84	57.018
1455.4	76.982
1458.95	30.894
1462.5	68.024
1466.05	3.815
1469.6	65.546
1473.15	12.337
1476.69	0.076
