Measurement: Raman, 780 nm, unoriented, Raman Data Processed
Mineral: Grossular
Rruff sample: R100146
Ideal chemistry: Ca_3_Al_2_(SiO_4_)_3_
Locality: Sri Lanka
Source: William W. Pinch
Description: Red cut gemstone
Raman shift (cm-1)	intensity
118.568	0
121.943	2.42971
125.318	1.34327
128.693	1.93799
132.067	2.3365
135.442	2.54199
138.817	1.31066
142.192	1.34185
145.567	0.711399
148.941	3.48544
152.316	2.15674
155.691	2.70548
159.066	6.58426
162.441	7.67595
165.816	10.0249
169.19	13.6966
172.565	30.0827
175.94	91.258
179.315	162.701
182.69	73.5544
186.065	26.4023
189.439	13.7769
192.814	7.98262
196.189	4.0111
199.564	1.82979
202.939	1.31546
206.313	0.906765
209.688	0.511902
213.063	0.637283
216.438	3.5603
219.813	2.78567
223.188	7.96805
226.562	10.5509
229.937	21.4086
233.312	36.7044
236.687	61.5191
240.061	77.0177
243.436	94.5894
246.811	123.929
250.186	47.9347
253.561	16.163
256.936	10.9649
260.31	12.021
263.685	12.3215
267.06	17.5811
270.435	32.7927
273.81	62.9226
277.185	99.6091
280.559	64.3737
283.934	24.0524
287.309	11.0526
290.684	3.50322
294.059	1.23512
297.433	4.49859
300.808	3.82322
304.183	0.972149
307.558	2.93887
310.933	12.4397
314.308	20.276
317.682	19.4199
321.057	13.2071
324.432	17.5807
327.807	30.1199
331.182	29.8762
334.556	24.119
337.931	26.6917
341.306	31.7947
344.681	45.4609
348.056	69.759
351.43	91.1096
354.805	133.139
358.18	201.969
361.555	328.716
364.93	569.822
368.305	875.92
371.679	1077.97
375.054	1074.35
378.429	562.7
381.804	260.914
385.179	141.49
388.553	89.1138
391.928	64.5959
395.303	53.8564
398.678	50.7468
402.053	52.1029
405.427	60.4993
408.802	79.313
412.177	135.731
415.552	194.681
418.927	114.446
422.301	51.6084
425.676	28.4761
429.051	15.1214
432.426	6.01492
435.801	1.78686
439.176	0.360088
442.55	1.84176
445.925	3.05088
449.3	3.01499
452.675	0.386761
456.05	1.05914
459.425	1.4714
462.799	0.599751
466.174	1.59168
469.549	2.68484
472.924	6.61644
476.299	13.8295
479.673	13.3003
483.048	3.84641
486.423	1.84919
489.798	1.32571
493.173	4.67656
496.547	7.07242
499.922	10.1524
503.297	17.742
506.672	35.3782
510.047	32.4808
513.422	11.9065
516.796	6.12257
520.171	8.90864
523.546	20.3555
526.921	24.7051
530.296	12.0257
533.67	16.1068
537.045	27.2084
540.42	62.0271
543.795	154.049
547.17	296.947
550.544	197.764
553.919	60.0503
557.294	18.117
560.669	4.50047
564.044	0.987907
567.418	0.379467
570.793	0.513824
574.168	2.3833
577.543	1.79773
580.918	1.39449
584.293	2.41268
587.667	11.4919
591.042	17.5038
594.417	7.7845
597.792	3.13869
601.167	1.51003
604.542	4.63663
607.916	5.45495
611.291	4.86095
614.666	5.81448
618.041	7.8221
621.416	13.7713
624.79	23.0753
628.165	30.51
631.54	23.0315
634.915	9.12722
638.29	4.56213
641.664	1.40824
645.039	0.06673
648.414	0.40049
651.789	0.47583
655.164	1.73613
658.538	0.342119
661.913	0.138849
665.288	0.357252
668.663	0.282295
672.038	0.181858
675.413	0.702658
678.787	1.72009
682.162	1.94874
685.537	2.80845
688.912	2.895
692.287	2.27448
695.662	1.77862
699.036	2.6149
702.411	3.93293
705.786	4.39742
709.161	5.36098
712.535	4.56302
715.91	4.49235
719.285	4.94244
722.66	5.84783
726.035	4.58921
729.41	4.21992
732.784	3.8393
736.159	3.57184
739.534	2.57976
742.909	2.29755
746.284	2.1133
749.659	1.87174
753.033	1.79074
756.408	1.52259
759.783	0.182322
763.158	0.241655
766.533	0.504253
769.907	0.840824
773.282	1.23393
776.657	1.66271
780.032	0.30022
783.407	0.628914
786.782	0.994949
790.156	1.02437
793.531	1.42321
796.906	0.193779
800.281	5.4473
803.655	11.5499
807.03	24.8729
810.405	44.4644
813.78	67.8127
817.155	99.7465
820.53	148.184
823.904	193.64
827.279	191.198
830.654	140.408
834.029	104.609
837.404	85.9828
840.779	79.7389
844.153	83.0449
847.528	89.7512
850.903	99.4759
854.278	100.336
857.653	111.11
861.027	136.502
864.402	184.507
867.777	270.025
871.152	407.014
874.527	646.799
877.901	967.799
881.276	1095.45
884.651	831.749
888.026	503.948
891.401	291.206
894.775	170.352
898.15	104.781
901.525	68.772
904.9	51.0974
908.275	40.2381
911.65	30.0986
915.024	23.0717
918.399	14.4585
921.774	9.26189
925.149	5.41653
928.524	2.92989
931.899	0.058945
935.273	2.80643
938.648	3.02338
942.023	0.273003
945.398	0.429295
948.773	1.37437
952.147	1.14528
955.522	0.064201
958.897	0.963699
962.272	1.91462
965.647	0.741587
969.021	1.44783
972.396	4.08411
975.771	7.32113
979.146	11.1777
982.521	14.6974
985.895	17.2782
989.27	20.1009
992.645	22.2059
996.02	26.9888
999.395	34.1979
1002.77	44.6554
1006.14	57.7366
1009.52	52.8866
1012.89	34.1496
1016.27	20.4253
1019.64	11.1281
1023.02	7.16762
1026.39	4.84327
1029.77	3.65995
1033.14	3.2433
1036.52	3.5472
1039.89	3.64549
1043.27	3.30005
1046.64	2.92156
1050.02	3.19309
1053.39	3.72154
1056.77	3.66088
1060.14	3.07279
1063.52	4.38708
1066.89	3.38389
1070.27	4.09691
1073.64	5.14139
1077.02	4.03704
1080.39	2.27824
1083.77	1.50779
1087.14	2.16887
1090.52	2.19328
1093.89	0.753038
1097.26	1.12968
1100.64	0.363796
1104.01	0.165798
1107.39	1.27879
1110.76	0.015562
1114.14	0.485355
1117.51	0.797304
1120.89	0.068136
1124.26	0.629749
1127.64	0.971016
1131.01	0.638395
1134.39	0.67432
1137.76	3.04933
1141.14	3.90638
1144.51	3.9499
1147.89	5.21096
1151.26	5.06348
1154.64	5.77897
1158.01	5.67743
1161.39	5.30341
1164.76	8.01206
1168.13	8.57678
1171.51	9.57758
1174.88	11.6242
1178.26	15.159
1181.63	20.2963
1185.01	32.9885
1188.38	48.9922
1191.76	76.668
1195.13	114.876
1198.51	153.494
1201.88	163.395
1205.26	129.784
1208.63	83.2924
1212.01	50.7449
1215.38	33.1579
1218.76	24.5308
1222.13	16.4255
1225.51	11.5303
1228.88	9.79624
1232.26	6.39449
1235.63	5.07256
1239.01	3.01966
1242.38	1.92285
1245.76	1.82007
1249.13	2.22941
1252.51	1.98049
1255.88	2.2822
1259.26	2.13662
1262.63	1.62949
1266.01	2.05022
1269.38	0.815426
1272.76	1.51874
1276.13	0.658743
1279.5	3.86235
1282.88	1.79625
