Measurement: Raman, 532 nm, unoriented, Raman Data Processed
Mineral: Grossular
Rruff sample: R100152
Ideal chemistry: Ca_3_Al_2_(SiO_4_)_3_
Locality: Matara, Sri Lanka
Source: William W. Pinch
Description: Pale brown cut gemstones
Raman shift (cm-1)	intensity
153.71	0
156.603	22.7183
159.496	70.0919
162.388	105.938
165.281	222.594
168.174	399.656
171.067	544.925
173.959	604.328
176.852	724.561
179.745	988.339
182.637	981.392
185.53	407.794
188.423	251.384
191.315	205.55
194.208	162.298
197.101	121.262
199.994	114.076
202.886	104.709
205.779	90.6514
208.672	79.2217
211.565	70.6291
214.457	37.6304
217.35	48.4844
220.243	45.2734
223.135	76.6497
226.028	78.2234
228.921	127.653
231.813	207.333
234.706	318.336
237.599	481.048
240.492	603.733
243.384	575.406
246.277	748.363
249.17	675.249
252.062	213.786
254.955	74.6572
257.848	48.2566
260.74	58.5137
263.633	93.104
266.526	135.942
269.418	195.733
272.311	291.713
275.204	497.747
278.097	781.348
280.989	619.882
283.882	200.327
286.775	75.094
289.667	27.8752
292.56	7.0437
295.453	14.7368
298.346	29.2964
301.238	25.1257
304.131	29.0037
307.024	5.45923
309.916	16.2512
312.809	57.0442
315.702	108.638
318.594	109.14
321.487	77.529
324.38	87.0542
327.273	133.815
330.165	196.72
333.058	165.196
335.951	121.115
338.843	127.315
341.736	154.604
344.629	217.725
347.522	337.606
350.414	459.044
353.307	616.751
356.2	888.116
359.092	1321.02
361.985	1929.91
364.878	2779.35
367.77	3940.2
370.663	5011.91
373.556	5828.96
376.449	5401.13
379.341	2989.54
382.234	1452.43
385.127	832.218
388.019	545.161
390.912	376.597
393.805	283.999
396.697	252.37
399.59	242.283
402.483	270.716
405.376	296.107
408.268	321.911
411.161	401.469
414.054	616.401
416.946	799.178
419.839	445.039
422.732	162.875
425.625	63.5198
428.517	23.0796
431.41	15.189
434.303	6.95972
437.195	3.10156
440.088	3.80396
442.981	3.29785
445.873	19.3752
448.766	7.87524
451.659	5.35693
454.551	7.34082
457.444	1.11108
460.337	6.2417
463.23	4.08154
466.122	17.1699
469.015	33.3857
471.908	60.5225
474.8	87.3164
477.693	132.909
480.586	105.797
483.479	51.7368
486.371	11.3726
489.264	14.8852
492.157	37.5303
495.049	71.2974
497.942	95.7993
500.835	124.292
503.728	157.535
506.62	219.422
509.513	291.727
512.406	199.262
515.298	110.785
518.191	69.4722
521.084	72.0815
523.976	106.478
526.869	136.935
529.762	106.738
532.654	127.062
535.547	211.723
538.44	340.723
541.333	562.626
544.225	946.292
547.118	1560.2
550.011	1710.35
552.903	791.085
555.796	280.161
558.689	113.998
561.582	46.0947
564.474	14.6387
567.367	15.7412
570.26	13.5381
573.152	17.2637
576.045	7.86426
578.938	1.12451
581.83	3.54443
584.723	13.7959
587.616	44.9985
590.509	69.6245
593.401	29.4517
596.294	5.39258
599.187	1.84668
602.079	5.5083
604.972	8.19775
607.865	2.15576
610.758	9.94287
613.65	35.9585
616.543	53.1958
619.436	80.3403
622.328	119.698
625.221	181.098
628.114	215.443
631.006	199.416
633.899	117.528
636.792	53.6265
639.684	45.0317
642.577	47.252
645.47	30.6289
648.363	11.2002
651.255	12.0688
654.148	10.0757
657.041	18.4927
659.933	28.875
662.826	24.4395
665.719	6.87891
668.612	7.22021
671.504	18.834
674.397	30.0879
677.29	32.3149
680.182	41.104
683.075	54.102
685.968	72.0288
688.861	89.563
691.753	63.8086
694.646	71.8418
697.539	70.5923
700.431	70.5952
703.324	86.853
706.217	104.991
709.109	99.79
712.002	82.8618
714.895	80.3394
717.788	93.8716
720.68	62.1807
723.573	45.7441
726.466	43.7002
729.358	40.8452
732.251	38.9722
735.144	64.0625
738.036	51.2764
740.929	56.0918
743.822	31.5337
746.715	28.8892
749.607	6.65576
752.5	31.6553
755.393	20.356
758.285	27.9053
761.178	24.041
764.071	15.9697
766.963	18.8955
769.856	1.16992
772.749	0.654297
775.642	1.11816
778.534	15.7412
781.427	2.43262
784.32	2.06055
787.212	20.0322
790.105	31.3135
792.998	20.7803
795.89	18.4922
798.783	17.7891
801.676	70.0088
804.569	89.3311
807.461	171.567
810.354	292.389
813.247	459.928
816.139	675.598
819.032	955.827
821.925	1303.45
824.818	1465.46
827.71	1285.34
830.603	916.731
833.496	656.47
836.388	509.299
839.281	464.578
842.174	491.974
845.067	541.566
847.959	582.285
850.852	649.207
853.745	679.451
856.637	750.023
859.53	894.019
862.423	1212.01
865.315	1766.59
868.208	2645.46
871.101	3867.03
873.994	5479.18
876.886	7393.26
879.779	8596.12
882.672	7451.29
885.564	5112.98
888.457	3256.02
891.35	2070.75
894.242	1352.35
897.135	897.535
900.028	649.913
902.92	469.822
905.813	391.853
908.706	333.263
911.599	263.495
914.491	230.759
917.384	201.931
920.277	170.873
923.169	138.326
926.062	149.736
928.955	143.507
931.847	120.905
934.74	128.335
937.633	66.5664
940.526	36.7764
943.418	118.762
946.311	30.3066
949.204	37.6406
952.096	48.4736
954.989	48.7852
957.882	58.3232
960.775	78.209
963.667	99.957
966.56	101.144
969.453	125.356
972.345	112.297
975.238	131.635
978.131	170.178
981.024	156.365
983.916	171.651
986.809	172.197
989.702	185.777
992.594	238.65
995.487	284.78
998.38	337.347
1001.27	390.754
1004.16	417.743
1007.06	428.886
1009.95	381.179
1012.84	250.098
1015.74	177.251
1018.63	112.356
1021.52	90.2705
1024.41	57.4541
1027.31	36.1279
1030.2	39.4023
1033.09	31.2266
1035.98	59.0176
1038.88	46.0059
1041.77	17.3379
1044.66	30.6748
1047.56	3.70801
1050.45	6.92969
1053.34	18.3066
1056.23	30.8164
1059.13	30.9336
1062.02	16.0176
1064.91	18.0693
1067.81	19.2119
1070.7	51.2285
1073.59	55.1982
1076.48	35.9492
1079.38	37.9971
1082.27	47.8018
1085.16	51.5762
1088.05	47.3789
1090.95	40.7305
1093.84	39.0996
1096.73	10.4668
1099.62	17.9688
1102.52	15.6289
1105.41	17.2031
1108.3	58.6777
1111.19	64.582
1114.09	28.5586
1116.98	16.5527
1119.87	25.334
1122.77	73.1641
1125.66	12.5312
1128.55	55.9941
1131.44	33.1484
1134.34	40.3516
1137.23	15.3105
1140.12	2.12891
1143.02	3.61914
1145.91	53.9414
1148.8	68.125
1151.69	26.5664
1154.59	11.6289
1157.48	6.1582
1160.37	39.2324
1163.26	86.1387
1166.16	75.0234
1169.05	59.1152
1171.94	43.6855
1174.84	58.5781
1177.73	51.0801
1180.62	10.6641
1183.51	19.0957
1186.4	19.4414
1189.3	33.1992
1192.19	95.4316
1195.08	28.4336
1197.98	64.9961
1200.87	52.2363
1203.76	25.2441
1206.65	5.78711
1209.55	36.5332
1212.44	86.3301
1215.33	73.4941
1218.22	33.582
1221.12	60.0352
1224.01	63.4375
1226.9	57.9609
1229.8	38.1445
1232.69	47.3047
1235.58	23.9746
1238.47	22.1211
1241.37	12.6992
1244.26	38.4844
1247.15	68.9707
1250.05	52.6777
1252.94	34.0059
1255.83	22
1258.72	46.6289
1261.62	78.2754
1264.51	79.3691
1267.4	78.7012
1270.29	70.8106
1273.19	103.654
1276.08	56.7754
1278.97	64.1894
1281.87	0.007813
1284.76	48.791
1287.65	65.9902
1290.54	50.3809
1293.43	49.2676
1296.33	52.5801
1299.22	61.8047
1302.11	0.5
