Measurement: Raman, 780 nm, unoriented, Raman Data Processed
Mineral: Grossular
Rruff sample: R060443
Ideal chemistry: Ca_3_Al_2_(SiO_4_)_3_
Locality: unknown
Source: Gemological Institute of America
Description: Yellowish tan colored single crystal
Measured chemistry: (Ca_2.92_Mn_0.03_Mg_0.03_Fe^2+^_0.02_)_Σ=3_(Al_1.86_Fe^3+^_0.14_)_Σ=2_(Si_1.00_O_4_)_3_; trace amounts of Ti
Raman shift (cm-1)	intensity
112.626	0
115.519	3.20709
118.411	0.331551
121.304	3.58593
124.197	5.05866
127.089	3.68441
129.982	3.36089
132.875	3.27402
135.767	6.93878
138.66	11.6889
141.553	13.591
144.446	16.7189
147.338	22.101
150.231	29.4625
153.124	35.5025
156.016	41.1439
158.909	45.4308
161.802	46.4671
164.694	40.6288
167.587	32.526
170.48	26.6787
173.373	25.394
176.265	35.3779
179.158	61.7032
182.051	36.3137
184.943	10.6698
187.836	4.70385
190.729	3.52422
193.621	1.54911
196.514	1.02663
199.407	0.817894
202.299	0.576965
205.192	0.426647
208.085	1.61901
210.978	0.443859
213.87	2.05552
216.763	4.57964
219.656	11.0695
222.548	16.5061
225.441	25.5979
228.334	43.6716
231.226	57.7736
234.119	87.741
237.012	131.327
239.905	139.203
242.797	146.402
245.69	202.861
248.583	99.9812
251.475	31.4385
254.368	20.1991
257.261	18.7108
260.154	23.2463
263.046	23.9367
265.939	28.9135
268.832	42.8602
271.724	63.3586
274.617	113.345
277.51	145.41
280.402	60.0076
283.295	20.1546
286.188	10.3113
289.08	4.59448
291.973	1.53337
294.866	4.56422
297.759	6.07045
300.651	6.7448
303.544	0.821815
306.437	1.81539
309.329	5.3335
312.222	12.7496
315.115	15.7379
318.007	18.3845
320.9	22.9088
323.793	37.7476
326.686	58.2273
329.578	68.3965
332.471	57.3461
335.364	60.1631
338.256	63.4002
341.149	57.448
344.042	53.3215
346.935	53.7839
349.827	48.4338
352.72	60.11
355.613	98.304
358.505	148.303
361.398	212.917
364.291	312.233
367.183	453.605
370.076	592.977
372.969	797.685
375.861	758.053
378.754	393.299
381.647	200.721
384.54	118.787
387.432	78.7225
390.325	66.2817
393.218	66.3097
396.11	75.4496
399.003	90.6347
401.896	106.554
404.788	131.131
407.681	163.107
410.574	202.357
413.467	250.739
416.359	278.711
419.252	297.226
422.145	310.023
425.037	295.823
427.93	247.471
430.823	177.387
433.716	108.939
436.608	63.6502
439.501	38.4751
442.394	20.4232
445.286	9.61566
448.179	2.06057
451.072	1.03268
453.964	3.50929
456.857	5.79079
459.75	4.93226
462.642	3.42492
465.535	1.62543
468.428	3.58612
471.321	15.4855
474.213	27.978
477.106	35.7801
479.999	27.445
482.891	21.2904
485.784	17.3094
488.677	17.2379
491.57	19.7153
494.462	21.1583
497.355	21.3822
500.248	27.1615
503.14	36.0851
506.033	53.6341
508.926	62.6641
511.818	47.6871
514.711	37.8827
517.604	30.4886
520.496	27.5378
523.389	22.2181
526.282	19.8756
529.175	16.6186
532.067	19.7648
534.96	28.5353
537.853	44.0013
540.745	79.2729
543.638	145.092
546.531	205.347
549.423	122.115
552.316	34.3887
555.209	3.49451
558.102	2.42047
560.994	4.17137
563.887	3.3857
566.78	12.104
569.672	21.1518
572.565	31.2728
575.458	36.0742
578.351	38.6544
581.243	41.8937
584.136	48.8095
587.029	62.2243
589.921	77.1362
592.814	84.6862
595.707	93.779
598.599	102.712
601.492	104.873
604.385	100.455
607.278	83.3236
610.17	60.1619
613.063	42.5473
615.956	30.2236
618.848	20.798
621.741	19.746
624.634	21.8813
627.526	23.8816
630.419	12.4148
633.312	4.2527
636.205	1.71419
639.097	1.6081
641.99	1.97912
644.883	7.22547
647.775	13.6401
650.668	21.5407
653.561	24.5301
656.453	27.5423
659.346	27.9434
662.239	23.513
665.131	18.5649
668.024	15.96
670.917	14.1487
673.81	14.2075
676.702	16.3761
679.595	18.2304
682.488	14.054
685.38	12.6177
688.273	5.72656
691.166	3.57722
694.058	1.77088
696.951	0.054062
699.844	0.309433
702.737	0.523613
705.629	0.187855
708.522	0.490925
711.415	0.107674
714.307	0.072548
717.2	0.368778
720.093	1.22167
722.986	0.209637
725.878	1.30839
728.771	0.371002
731.664	1.40317
734.556	2.81215
737.449	1.57151
740.342	2.29627
743.234	1.01255
746.127	1.93195
749.02	1.11947
751.913	1.87419
754.805	2.25856
757.698	1.38264
760.591	1.83243
763.483	1.89935
766.376	2.33496
769.269	2.30568
772.161	4.01168
775.054	4.66386
777.947	2.3478
780.84	0.674339
783.732	0.949451
786.625	1.93058
789.518	2.84789
792.41	2.69808
795.303	0.463791
798.196	2.50367
801.088	9.62227
803.981	18.9464
806.874	34.8148
809.766	56.4961
812.659	85.2257
815.552	117.115
818.445	161.968
821.337	203.623
824.23	220.586
827.123	180.292
830.015	129.777
832.908	100.979
835.801	83.7378
838.693	75.4629
841.586	71.1712
844.479	76.5242
847.372	76.7289
850.264	77.9946
853.157	77.682
856.05	83.7623
858.942	104.528
861.835	136.659
864.728	187.116
867.62	261.414
870.513	359.895
873.406	493.601
876.299	645.499
879.191	699.976
882.084	581.457
884.977	386.995
887.869	238.255
890.762	146.904
893.655	91.9513
896.548	58.3951
899.44	41.9302
902.333	30.5938
905.226	25.9659
908.118	17.5137
911.011	12.7398
913.904	9.68406
916.796	7.00953
919.689	4.6975
922.582	2.18702
925.474	0.521656
928.367	1.50565
931.26	2.34427
934.153	1.97326
937.045	1.28444
939.938	0.336674
942.831	0.642448
945.723	0.73558
948.616	1.73853
951.509	0.052586
954.401	0.43898
957.294	0.779572
960.187	0.261181
963.08	0.995117
965.972	0.50626
968.865	3.85243
971.758	5.61397
974.65	9.45279
977.543	12.755
980.436	14.0018
983.328	15.8448
986.221	19.7356
989.114	20.6448
992.006	24.7067
994.899	27.0642
997.792	32.537
1000.68	38.0156
1003.58	44.6891
1006.47	48.8851
1009.36	40.2277
1012.25	27.003
1015.15	18.2813
1018.04	11.8794
1020.93	11.4529
1023.83	8.18912
1026.72	8.29653
1029.61	11.8697
1032.5	11.7822
1035.4	12.4524
1038.29	12.6036
1041.18	15.3547
1044.08	19.0987
1046.97	21.7007
1049.86	23.0712
1052.75	27.4373
1055.65	27.8716
1058.54	29.1632
1061.43	28.9394
1064.32	30.9519
1067.22	35.1656
1070.11	37.8957
1073	38.821
1075.89	35.7409
1078.79	31.5031
1081.68	26.8225
1084.57	21.2171
1087.47	17.2803
1090.36	13.0401
1093.25	13.0874
1096.14	8.97882
1099.04	7.14195
1101.93	6.10831
1104.82	4.12406
1107.71	1.74755
1110.61	2.94085
1113.5	1.60476
1116.39	0.624367
1119.29	0.101974
1122.18	0.927231
1125.07	1.29684
1127.96	4.30508
1130.86	4.43039
1133.75	7.54132
1136.64	8.67659
1139.53	9.8433
1142.43	8.98277
1145.32	8.95166
1148.21	6.72527
1151.11	7.17124
1154	3.8759
1156.89	3.85731
1159.78	0.770889
1162.68	1.26054
1165.57	1.13281
1168.46	0
