Measurement: Raman, 532 nm, unoriented, Raman Data Processed
Mineral: Grossular
Rruff sample: R040065
Ideal chemistry: Ca_3_Al_2_(SiO_4_)_3_
Locality: Feng Tien mine, Taiwan
Source: University of Arizona Mineral Museum
Description: Orange-brown trapezohedral crystals
Measured chemistry: (Ca_2.90_Fe^2+^_0.05_Mn_0.05_)_Σ=3_(Al_1.95_Fe^3+^_0.03_Ti_0.02_)_Σ=2_((Si_0.99_Al_0.01_)_Σ=1_O_4_)_3_
Raman shift (cm-1)	intensity
146.592	0
149.485	6.56043
152.378	41.844
155.27	131.222
158.163	55.7515
161.056	36.5455
163.948	41.4791
166.841	62.5625
169.734	203.713
172.626	517.314
175.519	872.343
178.412	1680.9
181.305	1809.22
184.197	598.896
187.09	185.622
189.983	122.789
192.875	55.9341
195.768	41.3992
198.661	67.305
201.553	87.571
204.446	40.5804
207.339	18.7468
210.232	6.15137
213.124	12.2412
216.017	2.48767
218.91	4.72913
221.802	2.78577
224.695	34.0474
227.588	169.478
230.48	369.545
233.373	711.484
236.266	1241.24
239.159	1843.44
242.051	1845.64
244.944	2301.94
247.837	2522.8
250.729	932.234
253.622	640.461
256.515	649.034
259.407	525.182
262.3	339.413
265.193	344.575
268.086	563.764
270.978	966.761
273.871	1453.4
276.764	2364.49
279.656	2116.9
282.549	739.955
285.442	360.3
288.334	204.992
291.227	121.415
294.12	30.8108
297.012	58.4918
299.905	65.5748
302.798	15.0676
305.691	6.06592
308.583	42.3794
311.476	102.441
314.369	222.07
317.261	263.207
320.154	234.891
323.047	299.016
325.94	443.716
328.832	629.342
331.725	579.628
334.618	422.532
337.51	449.23
340.403	498.616
343.296	622.556
346.188	857.032
349.081	1145.71
351.974	1306.5
354.866	1868.98
357.759	2904.45
360.652	4662.62
363.545	7659.31
366.437	11991.4
369.33	15992.2
372.223	18900.1
375.115	20883.4
378.008	13181.8
380.901	6350.01
383.793	3639.55
386.686	2326.77
389.579	1686.42
392.471	1304.62
395.364	1075.5
398.257	911.259
401.15	869.332
404.042	954.668
406.935	1189.51
409.828	1500.55
412.72	2171.53
415.613	3011.25
418.506	1954.44
421.399	819.722
424.291	443.466
427.184	234.836
430.077	108.85
432.969	82.657
435.862	54.978
438.755	9.4956
441.647	24.2222
444.54	57.6794
447.433	88.7656
450.325	35.2412
453.218	30.5391
456.111	12.9744
459.004	10.093
461.896	8.25732
464.789	6.07886
467.682	27.6489
470.574	71.7512
473.467	201.253
476.36	299.236
479.252	381.568
482.145	135.972
485.038	39.7227
487.93	35.4873
490.823	80.6724
493.716	158.675
496.609	271.327
499.501	449.848
502.394	638.141
505.287	855.767
508.179	1135.83
511.072	897.781
513.965	443.334
516.857	251.831
519.75	240.871
522.643	293.094
525.536	417.071
528.428	296.086
531.321	151.093
534.214	252.129
537.106	602.212
539.999	1273.66
542.892	2471.07
545.784	4594.07
548.677	5984.77
551.57	3064.94
554.463	1128.84
557.355	425.548
560.248	264.498
563.141	158.386
566.033	186.793
568.926	128.828
571.819	102.612
574.712	17.3909
577.604	123.471
580.497	33.27
583.39	62.2842
586.282	137.421
589.175	205.265
592.068	194.116
594.96	49.3623
597.853	22.2832
600.746	10.6467
603.639	93.012
606.531	155.806
609.424	204.552
612.317	289.711
615.209	440.487
618.102	582
620.995	706.649
623.887	1016.4
626.78	1314.6
629.673	1327.44
632.565	1036.86
635.458	719.586
638.351	465.871
641.244	312.622
644.136	197.145
647.029	155.841
649.922	57.1736
652.814	44.6758
655.707	23.9399
658.6	13.709
661.492	12.5591
664.385	0.981445
667.278	31.5381
670.17	33.9175
673.063	29.4556
675.956	8.92627
678.849	11.8574
681.741	72.5508
684.634	155.008
687.527	180.532
690.419	207.357
693.312	228.509
696.205	269.264
699.097	360.214
701.99	367.476
704.883	381.714
707.776	345.925
710.668	362.729
713.561	297.347
716.454	296.044
719.346	226.546
722.239	170.235
725.132	130.349
728.024	121.895
730.917	106.712
733.81	92.6924
736.703	60.4497
739.595	19.457
742.488	18.0327
745.381	14.2944
748.273	53.9038
751.166	49.832
754.059	2.32471
756.952	60.1318
759.844	154.4
762.737	230.46
765.63	393.484
768.522	460.169
771.415	502.707
774.308	484.505
777.2	365.971
780.093	198.911
782.986	88.0444
785.878	16.4956
788.771	123.359
791.664	82.6587
794.557	36.1177
797.449	101.343
800.342	317.238
803.235	673.103
806.127	1120.62
809.02	1750.38
811.913	2605.86
814.805	3624.87
817.698	5004.09
820.591	6665.26
823.484	8035.44
826.376	7800.67
829.269	6121.4
832.162	4431.43
835.054	3398.57
837.947	3009.63
840.84	2764.8
843.732	2722.41
846.625	2809.22
849.518	2825.42
852.41	2642.35
855.303	2598.47
858.196	2892.91
861.089	3508.37
863.981	4532.07
866.874	6445.4
869.767	9564.58
872.659	14385.4
875.552	20837.6
878.445	26883.5
881.337	26958.7
884.23	20040.5
887.123	12938.8
890.016	8073.93
892.908	4900.09
895.801	2958.3
898.694	1808.88
901.586	1125.04
904.479	753.704
907.372	561.437
910.264	499.991
913.157	317.767
916.05	219.644
918.943	131.924
921.835	117.189
924.728	129.557
927.621	95.7334
930.513	44.916
933.406	46.1562
936.299	89.3818
939.192	96.5557
942.084	51.3935
944.977	104.509
947.87	104.338
950.762	129.92
953.655	69.7402
956.548	41.1065
959.44	55.7793
962.333	89.3428
965.226	94.583
968.118	36.3057
971.011	23.9404
973.904	216.769
976.797	356.058
979.689	484.952
982.582	553.028
985.475	638.127
988.367	781.746
991.26	811.935
994.153	928.85
997.045	1104.72
999.938	1480.51
1002.83	1800.38
1005.72	2189.77
1008.62	2096.31
1011.51	1500.12
1014.4	1000.33
1017.29	606.074
1020.19	389.883
1023.08	289.254
1025.97	341.661
1028.87	291.478
1031.76	289.783
1034.65	337.582
1037.54	400.851
1040.44	331.947
1043.33	244.368
1046.22	181.27
1049.11	198.389
1052.01	141.927
1054.9	192.273
1057.79	47.2236
1060.68	43.4258
1063.58	96.7227
1066.47	54.0127
1069.36	49.044
1072.26	125.15
1075.15	1.54199
1078.04	1.30273
1080.93	46.1768
1083.83	47.5957
1086.72	118.856
1089.61	99.6816
1092.5	115.214
1095.4	117.1
1098.29	156.158
1101.18	160.947
1104.08	78.0215
1106.97	110.239
1109.86	139.639
1112.75	26.1855
1115.65	73.2764
1118.54	35.7803
1121.43	9.60547
1124.32	26.834
1127.22	94.3711
1130.11	186.283
1133	214.365
1135.89	117.56
1138.79	159.691
1141.68	125.537
1144.57	76.6103
1147.47	83.2549
1150.36	150.728
1153.25	215.295
1156.14	265.342
1159.04	162.587
1161.93	199.465
1164.82	99.1035
1167.71	128.402
1170.61	121.91
1173.5	263.481
1176.39	143.33
1179.29	94.3691
1182.18	104.549
1185.07	129.756
1187.96	124.668
1190.86	80.8691
1193.75	32.6016
1196.64	19.377
1199.53	61.1543
1202.43	15.5918
1205.32	41.834
1208.21	79.1875
1211.11	5.2207
1214	54.5801
1216.89	87.8867
1219.78	33.2656
1222.68	67.4414
1225.57	46.7246
1228.46	51.7148
1231.35	170.629
1234.25	147.451
1237.14	230.879
1240.03	157.769
1242.92	139.082
1245.82	206.08
1248.71	233.475
1251.6	95.8769
1254.49	125.299
1257.39	141.555
1260.28	169.512
1263.17	2.67578
1266.07	10.2109
1268.96	182.219
1271.85	234.424
1274.74	118.699
1277.64	121.057
1280.53	9.22266
1283.42	21.918
1286.32	48.4746
1289.21	150.268
