Measurement: Raman, 780 nm, unoriented, Raman Data Processed
Mineral: Grossular
Rruff sample: R060442
Ideal chemistry: Ca_3_Al_2_(SiO_4_)_3_
Locality: Pakistan(?)
Source: Gemological Institute of America
Description: Orange crystals
Measured chemistry: (Ca_2.85_Fe^2+^_0.15_)_Σ=3_(Al_1.85_Fe^3+^_0.15_)_Σ=2_(Si_1.00_O_4_)_3_; trace amounts of Ti, Mg
Raman shift (cm-1)	intensity
107.805	0
111.18	0.375954
114.554	0.717644
117.929	0.576218
121.304	2.0171
124.679	1.8202
128.054	2.59906
131.428	2.78678
134.803	1.88413
138.178	1.8894
141.553	0.867859
144.928	0.036404
148.303	0.605846
151.677	0.263466
155.052	0.450176
158.427	1.56961
161.802	2.85739
165.177	4.05026
168.551	4.72451
171.926	9.21189
175.301	17.821
178.676	28.5994
182.051	13.8961
185.425	5.79265
188.8	3.65695
192.175	2.87259
195.55	1.88061
198.925	0.380768
202.299	1.24417
205.674	1.02115
209.049	0.809048
212.424	1.45455
215.799	4.23644
219.174	6.74463
222.548	9.75095
225.923	15.6183
229.298	24.9633
232.673	36.3404
236.048	52.4557
239.423	61.0198
242.797	69.0534
246.172	99.4659
249.547	43.7305
252.922	14.1553
256.297	10.3579
259.671	11.6829
263.046	14.8535
266.421	19.126
269.796	29.0096
273.171	48.5913
276.546	72.6684
279.92	45.7822
283.295	19.4091
286.67	8.49749
290.045	4.46999
293.42	0.543228
296.794	0.91489
300.169	1.29714
303.544	0.757622
306.919	1.24311
310.294	1.76356
313.668	4.39759
317.043	5.34304
320.418	8.23909
323.793	13.9008
327.168	22.6334
330.543	20.4394
333.917	11.7546
337.292	11.4012
340.667	15.151
344.042	20.7876
347.417	33.0327
350.791	36.7424
354.166	51.7276
357.541	76.6938
360.916	107.702
364.291	158.547
367.666	224.538
371.04	290.638
374.415	322.974
377.79	196.889
381.165	97.0828
384.54	54.5419
387.914	34.5747
391.289	22.3418
394.664	18.2637
398.039	16.5006
401.414	14.0039
404.788	16.2419
408.163	16.5927
411.538	20.5523
414.913	21.4198
418.288	9.5446
421.663	3.63898
425.037	0.682903
428.412	0.21627
431.787	0.508747
435.162	0.069283
438.537	0.163925
441.911	0.171158
445.286	0.570065
448.661	0.472374
452.036	0.366436
455.411	2.28985
458.786	2.40958
462.16	2.69995
465.535	2.54709
468.91	3.60013
472.285	6.13895
475.66	9.97667
479.034	8.90188
482.409	4.1912
485.784	2.17726
489.159	3.2113
492.534	4.8057
495.909	5.46345
499.283	7.60776
502.658	12.7206
506.033	22.1395
509.408	21.5638
512.783	8.749
516.158	4.72773
519.532	4.05256
522.907	2.73576
526.282	4.18137
529.657	6.36273
533.032	11.7309
536.406	17.7916
539.781	31.1601
543.156	57.9379
546.531	87.281
549.906	52.9714
553.28	16.7067
556.655	6.27407
560.03	2.69097
563.405	2.86085
566.78	2.51972
570.154	1.58383
573.529	1.99144
576.904	2.02196
580.279	1.58198
583.654	1.13505
587.029	1.50419
590.403	1.82563
593.778	0.430187
597.153	0.203697
600.528	0.79734
603.903	1.25405
607.278	2.51142
610.652	3.13968
614.027	4.38589
617.402	6.29528
620.777	10.1213
624.152	14.7276
627.526	18.0524
630.901	13.835
634.276	7.29597
637.651	4.01973
641.026	1.66454
644.4	1.23527
647.775	1.14814
651.15	0.80946
654.525	0.480972
657.9	0.536385
661.274	0.366814
664.649	0.53532
668.024	0.621622
671.399	0.211346
674.774	1.09573
678.149	1.46471
681.523	1.98493
684.898	1.30821
688.273	0.591516
691.648	1.85638
695.023	2.09581
698.398	1.78861
701.772	1.73359
705.147	2.27465
708.522	1.8399
711.897	1.88218
715.272	0.83547
718.646	1.66503
722.021	1.30276
725.396	1.18075
728.771	0.58407
732.146	0.444319
735.52	0.194227
738.895	0.37726
742.27	0.145922
745.645	0.992208
749.02	0.110817
752.395	0.692276
755.769	0.156693
759.144	0.600266
762.519	0.151268
765.894	0.662331
769.269	0.608238
772.644	1.21711
776.018	1.21909
779.393	0.707542
782.768	0.152634
786.143	1.28015
789.518	1.14173
792.892	0.313419
796.267	2.43351
799.642	4.29765
803.017	10.1619
806.392	18.2801
809.766	32.154
813.141	51.4114
816.516	73.1593
819.891	101.464
823.266	132.545
826.641	126.674
830.015	93.9087
833.39	69.1768
836.765	54.2191
840.14	45.9691
843.515	42.2093
846.889	41.7984
850.264	43.995
853.639	40.8868
857.014	42.8754
860.389	49.8199
863.764	70.6485
867.138	103.28
870.513	150.265
873.888	210.268
877.263	290.518
880.638	317.983
884.013	250.422
887.387	153.613
890.762	87.0682
894.137	49.023
897.512	29.3758
900.886	18.8733
904.261	13.7136
907.636	9.74861
911.011	7.53859
914.386	3.75838
917.761	3.03912
921.135	1.61004
924.51	1.24299
927.885	0.235703
931.26	1.22934
934.635	1.19771
938.01	0.778351
941.384	0.401445
944.759	0.553537
948.134	0.617426
951.509	0.233368
954.884	1.15112
958.258	0.025848
961.633	0.107031
965.008	0.018114
968.383	1.90141
971.758	2.32758
975.132	4.23767
978.507	5.68127
981.882	7.76074
985.257	8.67956
988.632	10.2395
992.006	13.67
995.381	15.5443
998.756	19.5421
1002.13	24.0586
1005.51	29.1593
1008.88	28.1253
1012.25	18.4828
1015.63	11.2898
1019	6.68218
1022.38	3.37714
1025.76	2.182
1029.13	2.45588
1032.5	2.00561
1035.88	1.5511
1039.25	1.89432
1042.63	1.89227
1046	1.53906
1049.38	0.422598
1052.75	1.338
1056.13	0.968546
1059.5	0.576748
1062.88	0.47648
1066.25	0.93083
1069.63	0.079926
1073	1.06513
1076.38	0.868507
1079.75	0.958717
1083.13	1.40534
1086.5	1.53124
1089.88	0.18302
1093.25	0.511957
1096.63	0.443954
1100	0.217064
1103.38	0.012215
1106.75	0.485909
1110.12	0.191669
1113.5	0.25008
1116.88	1.05378
1120.25	1.00369
1123.62	0.245575
1127	1.05014
1130.37	0.103563
1133.75	1.83484
1137.12	0.928741
1140.5	1.31999
1143.87	1.53072
1147.25	1.66629
1150.62	1.88636
1154	1.49715
1157.37	2.23497
1160.75	1.6211
1164.12	1.69932
1167.5	1.94365
1170.87	1.80761
1174.25	1.1185
1177.62	1.46687
1181	1.57593
1184.37	1.23548
1187.75	1.01487
1191.12	0.936979
1194.49	0.712561
1197.87	1.19797
1201.24	1.81533
1204.62	1.95413
1207.99	1.62359
1211.37	0.640312
1214.74	0.237803
1218.12	0.749804
1221.49	0.051271
1224.87	0.168901
1228.24	0.775362
1231.62	1.23032
1234.99	0.110996
1238.37	1.41763
1241.74	1.07191
1245.12	1.16145
1248.49	1.20787
1251.87	1.23915
1255.24	1.79027
1258.62	1.53512
1261.99	1.01014
1265.37	0.471739
1268.74	0.877304
1272.12	0.334383
1275.49	0.508837
1278.87	0.249477
1282.24	0.142097
1285.62	0.024141
