Measurement: Raman, 514 nm, unoriented, Raman Data Processed
Mineral: Grossular
Rruff sample: R040066
Ideal chemistry: Ca_3_Al_2_(SiO_4_)_3_
Locality: Redding, Connecticut, USA
Source: University of Arizona Mineral Museum
Description: Reddish orange coarsely crystalline
Measured chemistry: (Ca_2.90_Fe^2+^_0.08_Mn_0.02_)_Σ=3_(Al_1.87_Fe^3+^_0.13_)_Σ=2_(Si_1.00_O_4_)_3_
Raman shift (cm-1)	intensity
140.63	0
144.787	58.331
148.942	13.17
153.096	74.272
157.247	21.958
161.396	6.611
165.544	32.41
169.689	135.375
173.833	679.671
177.974	1429
182.114	1164.39
186.251	446.363
190.387	185.459
194.52	90.399
198.652	32.036
202.782	23.288
206.909	9.9
211.035	47.548
215.159	23.307
219.281	98.631
223.4	122.355
227.518	474.783
231.634	1360.62
235.748	2513.3
239.86	3794.71
243.97	4956.24
248.079	4068.53
252.185	1390.66
256.289	546.671
260.391	425.529
264.492	594.278
268.59	1199.97
272.687	2735.61
276.781	3786.16
280.874	2548.62
284.964	1413.95
289.053	868.218
293.14	389.22
297.225	109.464
301.308	26.584
305.389	66.31
309.468	162.511
313.545	390.196
317.62	527.826
321.693	943.33
325.765	1737.96
329.834	1894.06
333.902	1355.13
337.967	1259
342.031	1739.61
346.093	2247.13
350.153	2504.6
354.21	3417
358.267	5589.33
362.321	10371.6
366.373	20095.7
370.423	34947.7
374.471	44449
378.518	30794.6
382.563	14972.8
386.605	7695.71
390.646	4392.13
394.685	2964.12
398.722	2467.61
402.757	2085.61
406.79	2046.09
410.821	2349.03
414.851	2209.4
418.878	1056.18
422.904	397.341
426.927	178.879
430.949	12.224
434.969	135.015
438.987	24.583
443.003	55.464
447.018	270.646
451.03	542.111
455.041	749.847
459.049	821.841
463.056	775.079
467.061	804.561
471.064	1041.37
475.065	1336.51
479.064	1077.99
483.062	846.79
487.057	809.91
491.051	1073.33
495.043	1412.83
499.032	1584.35
503.02	1909.57
507.007	2178.25
510.991	1830.74
514.973	1275.57
518.954	1131.95
522.933	1075.72
526.91	1057.58
530.885	1223.01
534.858	1934.48
538.829	4473.53
542.799	10596.9
546.766	14952.2
550.732	7562
554.696	2949.4
558.658	1499.04
562.618	1054.03
566.576	1085.92
570.533	1046.4
574.488	966.453
578.44	885.264
582.391	772.991
586.341	631.566
590.288	560.935
594.233	414.243
598.177	448.405
602.119	673.415
606.059	900.263
609.997	985.945
613.933	1147.45
617.868	1414.78
621.801	1870.92
625.731	2384.87
629.66	2251.62
633.588	1400.17
637.513	708.501
641.437	362.62
645.358	171.517
649.278	87.187
653.196	2.396
657.113	60.348
661.027	80.946
664.94	50.35
668.851	74.523
672.76	107.516
676.667	131.379
680.572	79.137
684.476	69.805
688.378	3.342
692.278	29.538
696.176	7.426
700.072	8.934
703.967	1.915
707.86	49.643
711.751	67.801
715.64	19.595
719.527	14.036
723.413	45.135
727.297	78.925
731.179	133.61
735.059	137.723
738.937	208.76
742.814	176.559
746.689	293.124
750.562	348.46
754.433	369.57
758.303	459.458
762.17	490.126
766.036	611.244
769.901	817.829
773.763	987.886
777.624	1155.77
781.482	1311.47
785.339	1471.04
789.195	1510.45
793.048	1575.76
796.9	1825
800.75	2244.23
804.598	3205.39
808.445	4789.1
812.289	6619.87
816.132	9809.05
819.973	14614
823.813	19699.1
827.65	18767.9
831.486	14428.9
835.32	11228.3
839.152	9636.98
842.983	8942.78
846.812	8643.79
850.639	8335.32
854.464	8284.07
858.288	8724.5
862.11	9966.01
865.93	12930.1
869.748	19364.8
873.564	31420.9
877.379	48781.2
881.192	55644.4
885.004	41861.7
888.813	25153.2
892.621	14958.7
896.427	9708.41
900.232	6970.18
904.034	5538.07
907.835	4421.07
911.634	3627.19
915.432	2965.44
919.227	2573.85
923.021	2132.88
926.813	1922.4
930.604	1725.03
934.393	1515.69
938.18	1587.9
941.965	1754.02
945.749	1953.54
949.53	1983.23
953.311	1731.15
957.089	1249.93
960.866	923.981
964.641	810.052
968.414	835.505
972.185	1101.93
975.955	1478.1
979.723	1901.68
983.49	2194.68
987.254	2565.11
991.017	2751
994.779	2972.26
998.538	3378.85
1002.3	4371.78
1006.05	5262.01
1009.81	4725.48
1013.56	2902.24
1017.31	1648.28
1021.06	945.569
1024.81	548.067
1028.55	424.755
1032.3	365.585
1036.04	290.514
1039.78	233.53
1043.52	206.619
1047.26	170.778
1050.99	106.429
1054.73	83.89
1058.46	64.391
1062.19	81.781
1065.92	55.217
1069.65	27.694
1073.37	11.806
1077.1	17.682
1080.82	8.162
1084.54	27.392
1088.26	17.023
1091.97	20.711
1095.69	31.571
1099.4	27.657
1103.12	18.043
1106.83	40.648
1110.54	89.571
1114.24	99.87
1117.95	27.649
1121.65	150.367
1125.35	176.353
1129.06	84.306
1132.75	123.569
1136.45	161.064
1140.15	324.786
1143.84	338.481
1147.53	394.59
1151.22	393.162
1154.91	393.358
1158.6	341.939
1162.28	337.577
1165.97	325.029
1169.65	325.305
1173.33	291.934
1177.01	311.173
1180.69	316.671
1184.36	203.19
1188.04	216.722
1191.71	178.843
1195.38	149.909
1199.05	143.658
1202.71	160.234
1206.38	255.643
1210.04	174.88
1213.71	229.948
1217.37	246.795
1221.03	200.701
1224.68	247.733
1228.34	281.546
1231.99	309.956
1235.65	323.642
1239.3	349.985
1242.95	352.122
1246.59	374.778
1250.24	318.305
1253.88	378.116
1257.53	385.878
1261.17	349.206
1264.81	265.524
1268.45	204.286
1272.08	126.742
1275.72	81.212
1279.35	72.135
1282.98	58.726
1286.61	58.094
1290.24	32.292
1293.87	32.919
1297.49	48.194
1301.11	37.883
1304.73	40.632
1308.36	91.39
1311.97	42.559
1315.59	46.723
1319.2	52.745
1322.82	40.013
1326.43	44.101
1330.04	56.016
1333.65	101.775
1337.26	85.411
1340.86	177.915
1344.47	190.863
1348.07	258.213
1351.67	170.101
1355.27	198.224
1358.87	187.27
1362.46	103.257
1366.06	95.214
1369.65	80.172
1373.24	73.15
1376.83	46.708
1380.42	22.026
1384	37.679
1387.59	61.646
1391.17	123.777
1394.75	108.213
1398.33	99.812
1401.91	99.444
1405.49	414.268
1409.06	158.246
1412.64	124.032
1416.21	151.444
1419.78	150.622
1423.35	145.341
1426.91	132.592
1430.48	208.955
1434.05	185.242
1437.61	240.489
1441.17	193.754
1444.73	211.915
1448.29	244.968
1451.84	219.047
1455.4	265.537
1458.95	271.235
1462.5	370.14
1466.05	476.972
1469.6	409.667
1473.15	359.4
1476.69	345.85
1480.24	264.469
1483.78	220.169
1487.32	230.419
1490.86	131.681
1494.39	111.977
1497.93	165.911
1501.46	92.853
1505	96.112
1508.53	70.662
1512.06	28.036
1515.59	42.45
1519.11	53.666
1522.64	27.121
1526.16	0.078
