Measurement: Raman, 532 nm, unoriented, Raman Data Processed
Mineral: Grossular
Rruff sample: R060442
Ideal chemistry: Ca_3_Al_2_(SiO_4_)_3_
Locality: Pakistan(?)
Source: Gemological Institute of America
Description: Orange crystals
Measured chemistry: (Ca_2.85_Fe^2+^_0.15_)_Σ=3_(Al_1.85_Fe^3+^_0.15_)_Σ=2_(Si_1.00_O_4_)_3_; trace amounts of Ti, Mg
Raman shift (cm-1)	intensity
126.121	0
129.495	3.91548
132.87	4.71789
136.245	7.19002
139.62	16.0844
142.995	25.8966
146.369	28.8237
149.744	25.4968
153.119	22.8465
156.494	20.7133
159.869	22.4008
163.244	31.5282
166.618	33.9807
169.993	41.9828
173.368	52.9514
176.743	80.7134
180.118	103.202
183.493	51.63
186.867	25.1989
190.242	15.3585
193.617	9.5238
196.992	4.7702
200.367	2.75977
203.741	1.49887
207.116	2.70151
210.491	1.85085
213.866	0.099335
217.241	4.91101
220.615	11.1758
223.99	21.8428
227.365	35.1955
230.74	60.7658
234.115	85.5713
237.489	120.022
240.864	131.466
244.239	148.197
247.614	181.355
250.989	62.1562
254.364	22.8888
257.738	19.8937
261.113	29.3169
264.488	39.5179
267.863	54.09
271.238	73.5334
274.613	109.592
277.987	142.146
281.362	80.4474
284.737	31.6969
288.112	18.9039
291.487	9.78925
294.861	1.73166
298.236	3.76967
301.611	3.74681
304.986	2.65132
308.361	4.63553
311.736	12.467
315.11	18.4963
318.485	21.3171
321.86	23.0702
325.235	35.8379
328.61	50.465
331.984	42.923
335.359	30.9997
338.734	32.2381
342.109	43.8402
345.484	63.5856
348.858	84.562
352.233	105.932
355.608	163.077
358.983	247.024
362.358	367.991
365.733	522.495
369.107	664.802
372.482	733.318
375.857	701.536
379.232	401.428
382.607	204.557
385.981	122.415
389.356	76.7837
392.731	58.9371
396.106	49.5134
399.481	51.1945
402.856	52.2472
406.23	59.7796
409.605	69.6464
412.98	82.7704
416.355	77.0039
419.73	31.8648
423.104	9.56996
426.479	1.48695
429.854	0.514893
433.229	1.14038
436.604	1.716
439.978	1.55797
443.353	1.67432
446.728	1.799
450.103	3.42816
453.478	6.31624
456.853	4.80885
460.227	5.53787
463.602	7.40038
466.977	6.31457
470.352	11.1326
473.727	21.4467
477.101	28.85
480.476	17.2175
483.851	9.79466
487.226	8.71196
490.601	10.7012
493.976	17.1499
497.35	21.4767
500.725	25.8357
504.1	32.4091
507.475	44.5037
510.85	34.8582
514.224	14.8698
517.599	7.91908
520.974	7.48064
524.349	9.54805
527.724	7.37643
531.098	10.117
534.473	22.498
537.848	42.3894
541.223	83.1615
544.598	142.206
547.973	170.398
551.347	75.4645
554.722	19.7522
558.097	2.30931
561.472	0.07074
564.847	0.231888
568.221	1.88167
571.596	6.20299
574.971	5.89923
578.346	5.61826
581.721	3.8986
585.096	3.14644
588.47	5.13512
591.845	3.4693
595.22	1.80792
598.595	1.78638
601.97	0.596558
605.344	4.49887
608.719	8.14975
612.094	12.354
615.469	16.4583
618.844	22.5078
622.218	32.0639
625.593	39.926
628.968	41.2547
632.343	26.8449
635.718	11.4798
639.093	5.75285
642.467	0.607773
645.842	0.764679
649.217	0.131683
652.592	0.243546
655.967	1.50165
659.341	1.30731
662.716	0.088837
666.091	0.552429
669.466	1.55844
672.841	2.62033
676.216	2.23663
679.59	3.03751
682.965	4.83818
686.34	6.87164
689.715	3.74425
693.09	5.59122
696.465	6.8831
699.839	6.08351
703.214	6.40585
706.589	6.78566
709.964	5.96692
713.339	5.00563
716.713	3.61282
720.088	4.42911
723.463	3.72676
726.838	2.56349
730.213	2.42683
733.587	3.87045
736.962	2.03006
740.337	2.59473
743.712	2.039
747.087	1.82196
750.462	0.794098
753.836	1.20076
757.211	0.174423
760.586	1.54543
763.961	3.14244
767.336	3.08708
770.71	5.41997
774.085	5.18102
777.46	4.35704
780.835	1.47179
784.21	0.476425
787.585	3.32234
790.959	2.61102
794.334	1.46709
797.709	9.2493
801.084	20.6943
804.459	43.8068
807.833	75.5897
811.208	125.29
814.583	190.758
817.958	261.424
821.333	351.139
824.707	410.969
828.082	366.915
831.457	271.002
834.832	204.927
838.207	166.797
841.582	146.532
844.956	136.254
848.331	132.975
851.706	124.684
855.081	118.692
858.456	118.963
861.83	133.652
865.205	180.979
868.58	263.538
871.955	389.353
875.33	558.652
878.705	717.177
882.079	710.62
885.454	513.867
888.829	306.012
892.204	171.547
895.579	100.609
898.953	64.1216
902.328	43.6027
905.703	33.5237
909.078	24.9853
912.453	17.3535
915.827	12.2115
919.202	6.07451
922.577	3.52808
925.952	0.768997
929.327	0.950958
932.702	3.31874
936.076	1.11368
939.451	2.01238
942.826	0.93512
946.201	5.26663
949.576	6.74164
952.951	4.63382
956.325	0.908951
959.7	2.44617
963.075	0.372772
966.45	0.955627
969.825	2.12007
973.199	9.09264
976.574	14.9117
979.949	23.5487
983.324	27.157
986.699	31.2991
990.073	37.7721
993.448	42.5435
996.823	50.8978
1000.2	66.1317
1003.57	80.0207
1006.95	88.7274
1010.32	75.7843
1013.7	46.8832
1017.07	26.1722
1020.45	14.6602
1023.82	8.22115
1027.2	6.34462
1030.57	7.04201
1033.95	3.99097
1037.32	3.20442
1040.7	2.8913
1044.07	1.71327
1047.44	0.609894
1050.82	1.49339
1054.19	1.75264
1057.57	2.68561
1060.94	1.67853
1064.32	0.933212
1067.69	1.73949
1071.07	0.893356
1074.44	0.375763
1077.82	1.76132
1081.19	0.909668
1084.57	0.955322
1087.94	1.38525
1091.32	0.501083
1094.69	2.39697
1098.07	1.30537
1101.44	0.195084
1104.82	1.60059
1108.19	1.65634
1111.57	2.37375
1114.94	1.92316
1118.32	0.278488
1121.69	0.454376
1125.07	0.484222
1128.44	2.69849
1131.82	3.34709
1135.19	1.61675
1138.57	3.14629
1141.94	2.41414
1145.32	2.26157
1148.69	2.83751
1152.07	4.86639
1155.44	3.8235
1158.81	4.07864
1162.19	4.00313
1165.56	4.42693
1168.94	3.32063
1172.31	1.87782
1175.69	2.94031
1179.06	3.1255
1182.44	1.49011
1185.81	0.578079
1189.19	0.095978
1192.56	0.824295
1195.94	1.08632
1199.31	0.437851
1202.69	1.5206
1206.06	1.10962
1209.44	1.24725
1212.81	1.30514
1216.19	2.12564
1219.56	0.650848
1222.94	1.88553
1226.31	0.509491
1229.68	0.136017
1233.06	1.42862
1236.43	1.21823
1239.81	2.02322
1243.18	3.84579
1246.56	6.06946
1249.93	2.65204
1253.31	3.18256
1256.68	2.00467
1260.06	4.25525
1263.43	2.92206
1266.81	0.559998
1270.18	2.27451
1273.56	2.42923
1276.93	0.556427
1280.31	1.69376
1283.68	1.75131
1287.06	1.17053
1290.43	1.62137
1293.81	3.31912
1297.18	2.81653
1300.56	2.776
