Measurement: Raman, 514 nm, unoriented, Raman Data Processed
Mineral: Grossular
Rruff sample: R060278
Ideal chemistry: Ca_3_Al_2_(SiO_4_)_3_
Locality: Diakon, Kayes Region, Mali
Source: Herb Obodda
Description: Dark brown dodecahedral single crystal
Measured chemistry: (Ca_2.93_Mg_0.05_Mn_0.02_)_Σ=3_(Al_1.19_Fe^3+^_0.78_Ti_0.03_)_Σ=2_((Si_0.99_Al_0.01_)_Σ=1_O_4_)_3_
Raman shift (cm-1)	intensity
102.428	0
106.604	56.364
110.777	68.694
114.949	191.298
119.119	100.749
123.286	8.91
127.452	21.48
131.615	22.493
135.777	2.131
139.937	65.958
144.094	59.882
148.25	28.533
152.403	175.641
156.555	81.973
160.705	33.597
164.853	74.854
168.998	224.277
173.142	563.635
177.284	997.91
181.424	1089.1
185.562	559.431
189.698	250.675
193.831	152.233
197.963	127.055
202.093	165.096
206.221	157.529
210.347	219.419
214.472	23.776
218.594	45.6
222.714	186.942
226.832	459.811
230.948	1011.21
235.063	1734.14
239.175	2498.61
243.286	2991.62
247.394	1875.2
251.501	719.403
255.605	376.246
259.708	302.743
263.808	359.86
267.907	734.156
272.004	1149.52
276.099	1140.11
280.192	925.377
284.283	642.705
288.372	479.084
292.459	430.866
296.544	413.394
300.627	535.37
304.709	664.461
308.788	770.071
312.865	1135.18
316.941	1695.77
321.015	2366.56
325.086	2470.24
329.156	1889.96
333.224	1801.35
337.29	1856.17
341.354	1768.4
345.416	1697.04
349.476	2149.08
353.534	3224.49
357.591	4882.29
361.645	6972.47
365.698	9356.03
369.748	13234
373.797	16541.3
377.844	13510.1
381.889	7953.62
385.932	4707.85
389.973	3039.83
394.012	2126.5
398.049	1498.84
402.084	1098.83
406.118	678.39
410.15	290.41
414.179	140.8
418.207	36.504
422.233	18.5
426.257	78.268
430.279	57.924
434.299	24.334
438.318	5.564
442.334	121.803
446.349	133.384
450.361	167.303
454.372	155.561
458.381	220.168
462.388	240.098
466.394	199.876
470.397	129.868
474.398	129.691
478.398	113.795
482.396	399.178
486.391	656.833
490.385	852.759
494.377	1075.94
498.368	1174.37
502.356	1044.14
506.342	816.942
510.327	535.073
514.31	446.426
518.291	705.994
522.27	1200.77
526.247	2405.75
530.222	4022.93
534.196	5026.98
538.167	3129.33
542.137	1267.85
546.105	762.536
550.071	634.555
554.035	730.936
557.998	856.926
561.958	880.15
565.917	841.836
569.874	578.858
573.829	378.571
577.782	208.884
581.733	72.263
585.683	61.528
589.63	100.52
593.576	284.041
597.52	366.223
601.462	521.531
605.402	540.822
609.341	593.091
613.277	653.335
617.212	660.548
621.145	618.725
625.076	397.864
629.006	301.957
632.933	141.002
636.859	144.994
640.783	159.928
644.705	238.8
648.625	308.604
652.543	316.337
656.46	245.993
660.375	231.568
664.288	152.057
668.199	161.457
672.108	145.763
676.016	190.971
679.921	206.077
683.825	143.076
687.727	43.966
691.628	42.352
695.526	53.188
699.423	123.749
703.318	116.256
707.211	109.611
711.102	52.79
714.992	59.722
718.879	2.62
722.765	25.443
726.649	91.922
730.532	166.21
734.412	235.366
738.291	379.413
742.168	523.395
746.043	713.323
749.916	915.19
753.788	1085
757.658	1232.73
761.526	1490.4
765.392	1607.05
769.257	1670.68
773.119	1700.3
776.98	1493.9
780.839	1306.44
784.697	1278.91
788.552	1418.33
792.406	1607.67
796.258	1957.91
800.108	2471.07
803.957	3375.13
807.804	4616.08
811.649	6031.92
815.492	7893.65
819.333	9710.28
823.173	10637.8
827.011	9931.24
830.847	8257.57
834.681	6955.8
838.514	5966.93
842.345	5581.48
846.174	5594.98
850.001	5608.25
853.827	5317.7
857.651	4895.01
861.473	4779.04
865.293	5153.95
869.112	5544.36
872.928	6418.98
876.744	7243.46
880.557	7405.09
884.369	6592.55
888.178	5201.41
891.987	4142.31
895.793	3104.31
899.598	2477.52
903.401	1986.65
907.202	1659.43
911.001	1457.39
914.799	1314.85
918.595	1293.16
922.389	1317.85
926.182	1330.99
929.972	1401.63
933.761	1445.11
937.549	1624.88
941.334	1734.15
945.118	1639.66
948.9	1422.86
952.681	1164.99
956.459	968.581
960.236	989.096
964.012	1156.64
967.785	1318.22
971.557	1537.84
975.327	1667.49
979.095	1862.18
982.862	1924.91
986.627	1906.7
990.39	1877.54
994.152	1859.44
997.912	1903.49
1001.67	1950.82
1005.43	1788.55
1009.18	1338.75
1012.93	759.348
1016.68	529.467
1020.43	474.016
1024.18	606.697
1027.93	600.595
1031.67	439.575
1035.42	169.6
1039.16	79.659
1042.9	16.755
1046.63	18.87
1050.37	30.99
1054.11	35.926
1057.84	51.948
1061.57	39.074
1065.3	58.322
1069.03	40.782
1072.75	52.453
1076.47	20.338
1080.2	6.369
1083.92	17.411
1087.64	8.869
1091.36	3.721
1095.07	11.233
1098.79	9.689
1102.5	44.138
1106.21	34.515
1109.92	38.034
1113.62	107.707
1117.33	100.299
1121.04	126.584
1124.74	70.181
1128.44	117.125
1132.14	67.997
1135.83	139.078
1139.53	108.443
1143.22	84.187
1146.92	117.249
1150.61	125.419
1154.3	83.145
1157.98	94.954
1161.67	91.052
1165.35	59.703
1169.04	82.496
1172.72	69.962
1176.4	95.249
1180.07	104.9
1183.75	107.871
1187.42	119.029
1191.1	122.691
1194.77	113.183
1198.44	122.275
1202.1	169.902
1205.77	143.793
1209.43	105.469
1213.1	121.556
1216.76	120.908
1220.42	118.877
1224.07	127.877
1227.73	108.18
1231.38	99.718
1235.04	94.876
1238.69	91.883
1242.34	58.494
1245.99	61.016
1249.63	81.65
1253.28	54.012
1256.92	44.735
1260.56	40.676
1264.2	1.522
1267.84	27.135
1271.48	31.584
1275.11	15.048
1278.74	9.702
1282.38	1.388
1286.01	7.69
1289.63	1.937
1293.26	4.345
1296.89	8.109
1300.51	9.433
1304.13	16.625
1307.75	31.68
1311.37	28.415
1314.99	15.154
1318.6	7.059
1322.22	7.738
1325.83	13.268
1329.44	10.37
1333.05	0.844
1336.66	6.294
1340.26	5.291
1343.87	30.219
1347.47	42.086
1351.07	20.076
1354.67	8.682
1358.27	29.436
1361.86	18.157
1365.46	39.853
1369.05	49.558
1372.64	23.245
1376.23	66.887
1379.82	71.521
1383.41	50.194
1386.99	61.141
1390.57	50.597
1394.16	72.436
1397.74	86.26
1401.32	94.132
1404.89	116.012
1408.47	98.021
1412.04	65.725
1415.61	93.181
1419.18	46.183
1422.75	53.421
1426.32	76.193
1429.89	54.725
1433.45	67.243
1437.01	48.822
1440.58	65.553
1444.13	27.954
1447.69	46.09
1451.25	36.978
1454.81	41.285
1458.36	46.359
1461.91	23.109
1465.46	7.612
1469.01	6.132
1472.56	22.716
1476.1	21.598
1479.64	12.355
1483.19	1.635
1486.73	45.005
1490.27	41.46
1493.81	49.01
1497.34	59.047
1500.88	49.492
1504.41	74.522
1507.94	53.491
1511.47	45.146
1515	51.896
1518.53	20.172
1522.05	0.527
1525.57	0
