Measurement: Raman, 514 nm, unoriented, Raman Data Processed
Mineral: Grossular
Rruff sample: R050036
Ideal chemistry: Ca_3_Al_2_(SiO_4_)_3_
Locality: Wah Wah Mountains, Utah, USA
Source: Eugene Schlepp
Description: Colorless single crystal in rhyolite matrix
Measured chemistry: (Ca_2.95_Mg_0.05_)_Σ=3_(Al_1.70_Fe^3+^_0.30_)_Σ=2_(Si_1.00_O_4_)_3_; trace amounts of P
Raman shift (cm-1)	intensity
135.083	0
139.243	245.334
143.401	315.838
147.557	295.408
151.711	93.731
155.863	11.171
160.013	5.021
164.161	68.071
168.308	16.075
172.452	385.265
176.594	1203.33
180.734	1474.85
184.872	656.668
189.008	237.513
193.143	41.461
197.275	1.379
201.405	22.524
205.534	6.796
209.66	3.179
213.784	1.646
217.907	27.147
222.027	116.65
226.146	131.631
230.263	614.089
234.377	1648.16
238.49	2966.05
242.601	3553.81
246.709	3696.5
250.816	1444.16
254.921	494.828
259.024	466.486
263.125	372.185
267.224	639.921
271.321	1662.69
275.416	3247.47
279.51	2553.26
283.601	1402.19
287.69	950.111
291.778	563.732
295.863	274.158
299.947	619.338
304.029	267.944
308.108	527.624
312.186	443.79
316.262	555.918
320.336	730.083
324.408	1628.62
328.478	1929
332.546	1471.29
336.612	1309.52
340.677	1508.65
344.739	1990.76
348.799	2000.74
352.858	2664.7
356.915	3758.54
360.969	6892.24
365.022	13166.8
369.073	23118.4
373.122	36958.7
377.169	35228.8
381.215	19074.7
385.258	9164.51
389.299	4680.87
393.339	3080.86
397.376	2378.59
401.412	1847.89
405.446	1855.8
409.478	2126.27
413.508	1973.21
417.536	897.721
421.562	262.681
425.586	34.05
429.609	22.196
433.629	50.916
437.648	22.635
441.665	8.861
445.68	159.225
449.693	469.592
453.704	865.235
457.713	681.146
461.721	728.33
465.726	764.897
469.73	690.845
473.731	976.157
477.731	857.824
481.729	741.829
485.725	652.204
489.72	934.904
493.712	1245.35
497.703	1434.76
501.691	1541.17
505.678	1643.71
509.663	1441.85
513.646	1137.59
517.627	1180.27
521.607	1152.5
525.584	1205.58
529.56	1515.02
533.534	2117.91
537.506	4429.44
541.476	9895.39
545.444	11837.2
549.41	5648.21
553.375	2275.39
557.337	1310.88
561.298	971.876
565.257	952.967
569.214	780.448
573.17	917.023
577.123	790.051
581.075	687.768
585.024	562.771
588.972	638.063
592.918	366.91
596.863	601.186
600.805	683.966
604.746	774.178
608.685	960.015
612.621	1062.2
616.557	1352.16
620.49	1666.89
624.421	1932.36
628.351	2011.58
632.279	1268.53
636.205	492.208
640.129	420.606
644.051	49.718
647.972	161.533
651.89	65.959
655.807	102.003
659.722	17.302
663.636	11.95
667.547	151
671.457	29.89
675.365	87.421
679.271	11.21
683.175	53.036
687.077	28.214
690.978	33.812
694.877	10.075
698.774	103.695
702.669	66.743
706.562	83.736
710.454	58.075
714.344	7.312
718.232	4.244
722.118	171.239
726.002	39.271
729.885	127.835
733.766	156.872
737.645	201.533
741.522	159.862
745.397	185.877
749.271	305.592
753.143	262.019
757.013	208.172
760.881	236.055
764.748	459.651
768.613	325.965
772.476	524.002
776.337	632.776
780.196	710.281
784.054	705.525
787.91	862.516
791.764	930.264
795.616	1199.81
799.467	1497.24
803.316	2235.53
807.163	3584.98
811.008	5077.16
814.851	7200.86
818.693	10637.6
822.533	13898
826.371	12958.7
830.208	10392.3
834.042	8120.15
837.875	7380.01
841.706	6983.12
845.536	6710.73
849.363	6470.1
853.189	6597.03
857.013	7532.32
860.836	8573.52
864.656	11405.8
868.475	16688.3
872.292	26198.4
876.108	37226.4
879.922	38650.3
883.733	27414.5
887.544	16684.2
891.352	10338.1
895.159	7091.49
898.964	5420.47
902.767	4217.55
906.568	3640.25
910.368	2909.79
914.166	2436.22
917.962	2012.76
921.757	1842.6
925.55	1822.76
929.341	1535.71
933.13	1535.75
936.918	1424.01
940.703	1666.89
944.488	1891.69
948.27	1749.82
952.051	1496.39
955.83	1229.62
959.607	818.801
963.383	770.6
967.156	1037.41
970.928	1333.79
974.699	1776.33
978.468	1955.9
982.234	2231.41
986	2474.65
989.763	2355.06
993.525	2441.82
997.285	2836.63
1001.04	3307.19
1004.8	3546.06
1008.55	2933.78
1012.31	1849.68
1016.06	1099.46
1019.81	711.48
1023.56	698.654
1027.31	539.814
1031.05	421.857
1034.79	446.992
1038.53	254.539
1042.27	259.734
1046.01	267.258
1049.75	326.619
1053.48	237.93
1057.22	292.406
1060.95	222.691
1064.68	184.812
1068.4	244.131
1072.13	145.398
1075.86	140.027
1079.58	304.686
1083.3	12.1
1087.02	222.83
1090.74	10.896
1094.45	33.637
1098.17	176.291
1101.88	39.385
1105.59	94.68
1109.3	99.131
1113.01	178.836
1116.71	92.029
1120.42	118.08
1124.12	296.033
1127.82	83.688
1131.52	52.102
1135.22	4.66
1138.91	147.301
1142.61	34.105
1146.3	245.961
1149.99	225.307
1153.68	200.471
1157.37	376.014
1161.06	265.74
1164.74	229.271
1168.42	323.43
1172.1	341.982
1175.78	299.438
1179.46	385.254
1183.14	478.592
1186.81	73.57
1190.48	334.111
1194.15	187.375
1197.83	314.699
1201.49	289.785
1205.16	397.162
1208.82	252.525
1212.49	375.312
1216.15	373.232
1219.81	346.131
1223.46	265.363
1227.12	338.092
1230.78	538.705
1234.43	533.861
1238.08	590.42
1241.73	604.885
1245.38	399.043
1249.03	292.811
1252.67	483.551
1256.31	444.811
1259.95	512.869
1263.6	326.324
1267.23	290.637
1270.87	287.82
1274.51	257.889
1278.14	270.396
1281.77	213.238
1285.4	10.266
1289.03	304.564
1292.66	116.158
1296.28	133.584
1299.91	184.258
1303.53	30.686
1307.15	90.787
1310.77	344.096
1314.38	46.002
1318	218.34
1321.61	96.289
1325.23	96.123
1328.84	5.061
1332.45	104.73
1336.06	3.818
1339.66	72.219
1343.27	222.266
1346.87	140.025
1350.47	256.143
1354.07	324.777
1357.67	482.83
1361.26	526.047
1364.86	505.467
1368.45	403.07
1372.04	491.592
1375.63	570.338
1379.22	320.992
1382.81	438.164
1386.39	353.977
1389.98	270.982
1393.56	295.301
1397.14	175.186
1400.72	320.584
1404.3	216.775
1407.87	9.48
1411.45	67.439
1415.02	153.48
1418.59	142.488
1422.16	173.469
1425.73	108.965
1429.29	76.396
1432.86	91.965
1436.42	232.252
1439.98	7.066
1443.54	33.146
1447.1	0.139
