Measurement: Raman, 532 nm, unoriented, Raman Data Processed
Mineral: Grossular
Rruff sample: R060443
Ideal chemistry: Ca_3_Al_2_(SiO_4_)_3_
Locality: unknown
Source: Gemological Institute of America
Description: Yellowish tan colored single crystal
Measured chemistry: (Ca_2.92_Mn_0.03_Mg_0.03_Fe^2+^_0.02_)_Σ=3_(Al_1.86_Fe^3+^_0.14_)_Σ=2_(Si_1.00_O_4_)_3_; trace amounts of Ti
Raman shift (cm-1)	intensity
91.4082	0
94.783	2.82519
98.1578	2.88122
101.533	6.22405
104.907	3.79005
108.282	1.86058
111.657	1.47808
115.032	1.36612
118.407	3.2505
121.781	5.82349
125.156	12.4201
128.531	16.7457
131.906	22.8933
135.281	23.7158
138.656	26.4049
142.03	30.1341
145.405	32.6574
148.78	30.9322
152.155	28.9619
155.53	28.9358
158.905	26.5587
162.279	36.5318
165.654	48.6232
169.029	52.7734
172.404	64.2831
175.779	88.5304
179.153	162.346
182.528	165.382
185.903	32.8566
189.278	16.589
192.653	9.5787
196.028	6.95435
199.402	3.33195
202.777	0.998566
206.152	0.137596
209.527	1.24871
212.902	1.09464
216.276	1.67165
219.651	4.42466
223.026	12.6824
226.401	20.6881
229.776	40.1269
233.15	64.3096
236.525	101.674
239.9	128.264
243.275	123.106
246.65	173.673
250.025	72.476
253.399	24.426
256.774	16.8259
260.149	24.2696
263.524	34.8398
266.899	43.3123
270.273	59.5943
273.648	91.1959
277.023	145.284
280.398	102.188
283.773	35.5352
287.147	24.6672
290.522	13.2261
293.897	3.35948
297.272	4.49766
300.647	6.05568
304.022	2.32953
307.396	2.77183
310.771	11.261
314.146	21.6949
317.521	23.8676
320.896	23.2987
324.271	31.7089
327.645	50.1404
331.02	55.4055
334.395	35.3418
337.77	38.6018
341.145	51.4928
344.519	74.3725
347.894	108.024
351.269	142.551
354.644	224.898
358.019	364.199
361.394	580.563
364.768	858.614
368.143	1208.67
371.518	1450.57
374.893	1716.91
378.267	1168.5
381.642	511.936
385.017	262.518
388.392	152.589
391.767	101.375
395.142	72.7077
398.516	65.0142
401.891	69.245
405.266	74.6747
408.641	90.6596
412.016	124.83
415.39	147.813
418.765	64.7909
422.14	20.0974
425.515	5.06708
428.89	2.33664
432.265	4.09576
435.639	3.76717
439.014	2.17369
442.389	1.25087
445.764	0.960648
449.139	6.05714
452.514	12.2645
455.888	16.7783
459.263	16.7858
462.638	16.9847
466.013	16.5036
469.388	17.5637
472.762	23.5598
476.137	30.6374
479.512	24.4287
482.887	15.4085
486.262	11.3256
489.637	13.2039
493.011	20.7716
496.386	29.6622
499.761	32.1228
503.136	30.3577
506.511	37.227
509.885	35.0661
513.26	16.591
516.635	6.63577
520.01	7.87378
523.385	12.6812
526.76	17.6329
530.134	25.6071
533.509	61.3068
536.884	110.747
540.259	191.751
543.634	328.515
547.008	470.157
550.383	283.055
553.758	80.9827
557.133	20.8306
560.508	4.46611
563.882	1.28265
567.257	0.324677
570.632	0.756287
574.007	1.37605
577.382	0.675522
580.756	0.623932
584.131	1.03403
587.506	4.91901
590.881	4.5372
594.256	2.38567
597.631	2.27628
601.005	1.61302
604.38	8.78242
607.755	15.6304
611.13	21.7029
614.505	28.0416
617.88	35.4037
621.254	42.4413
624.629	54.0122
628.004	57.2741
631.379	42.4697
634.754	24.6907
638.128	12.7248
641.503	5.56731
644.878	2.80858
648.253	0.084854
651.628	0.13591
655.002	0.048538
658.377	0.580765
661.752	1.40361
665.127	0.23233
668.502	2.23229
671.876	2.57309
675.251	4.26595
678.626	4.57452
682.001	7.92081
685.376	6.27975
688.751	10.2354
692.125	8.51889
695.5	7.22247
698.875	9.77051
702.25	11.2435
705.625	11.0336
709	9.14595
712.374	7.88188
715.749	8.45842
719.124	6.13957
722.499	4.42328
725.874	3.79219
729.248	4.90355
732.623	4.80649
735.998	7.2328
739.373	5.6656
742.748	5.10181
746.122	4.85178
749.497	4.05093
752.872	3.49853
756.247	0.500488
759.622	0.140427
762.997	4.15021
766.371	4.59225
769.746	6.69363
773.121	7.7012
776.496	6.75241
779.871	0.494019
783.245	1.75806
786.62	3.80158
789.995	6.15433
793.37	4.24335
796.745	0.814392
800.12	10.2519
803.494	27.0078
806.869	56.7819
810.244	98.4899
813.619	154.191
816.994	217.019
820.368	289.397
823.743	342.42
827.118	307.622
830.493	228.536
833.868	174.507
837.242	149.468
840.617	139.472
843.992	137.556
847.367	143.19
850.742	147.819
854.117	163.385
857.491	197.045
860.866	266
864.241	397.526
867.616	619.687
870.991	944.03
874.365	1360.51
877.74	1750.73
881.115	1689.53
884.49	1160.52
887.865	665.176
891.24	373.059
894.614	215.606
897.989	130.945
901.364	92.4137
904.739	67.7576
908.114	52.4904
911.489	40.6303
914.863	28.5087
918.238	21.3073
921.613	12.4162
924.988	6.85632
928.362	1.70358
931.737	2.18842
935.112	0.908752
938.487	0.812744
941.862	5.25018
945.237	8.98498
948.611	9.99591
951.986	4.77588
955.361	0.932159
958.736	5.06314
962.111	3.53824
965.486	3.42084
968.86	3.9628
972.235	13.1943
975.61	26.0847
978.985	36.1481
982.36	43.2227
985.734	50.6215
989.109	56.7608
992.484	61.9933
995.859	75.9539
999.234	84.9904
1002.61	96.703
1005.98	107.957
1009.36	93.348
1012.73	57.4513
1016.11	32.8861
1019.48	21.712
1022.86	10.1301
1026.23	9.25632
1029.61	8.63062
1032.98	8.21939
1036.36	7.47961
1039.73	6.03036
1043.11	2.93582
1046.48	2.59311
1049.86	2.40814
1053.23	5.487
1056.61	2.54578
1059.98	3.1958
1063.36	1.78323
1066.73	3.34753
1070.11	0.173309
1073.48	0.408875
1076.85	0.435944
1080.23	3.84058
1083.6	3.32169
1086.98	4.41098
1090.35	2.33725
1093.73	0.333099
1097.1	0.524384
1100.48	1.44888
1103.85	1.16116
1107.23	0.913696
1110.6	0.949005
1113.98	0.886444
1117.35	0.162109
1120.73	2.10342
1124.1	2.44214
1127.48	5.30237
1130.85	3.6994
1134.23	2.80716
1137.6	8.59045
1140.98	6.35968
1144.35	8.67047
1147.73	11.1291
1151.1	9.42731
1154.47	13.9238
1157.85	10.2327
1161.22	10.3488
1164.6	8.57196
1167.97	8.76953
1171.35	8.39819
1174.72	8.0686
1178.1	5.52258
1181.47	5.85535
1184.85	1.09766
1188.22	1.70526
1191.6	3.36737
1194.97	2.37103
1198.35	1.60211
1201.72	0.224426
1205.1	1.33923
1208.47	1.65875
1211.85	2.56476
1215.22	2.46625
1218.6	2.61121
1221.97	4.80804
1225.35	4.67639
1228.72	2.84033
1232.1	4.08234
1235.47	4.86108
1238.85	4.96991
1242.22	3.66431
1245.6	8.71332
1248.97	7.64893
1252.35	5.9519
1255.72	8.14069
1259.09	7.17993
1262.47	6.75958
1265.84	4.64825
1269.22	5.17181
1272.59	4.16321
1275.97	4.09613
1279.34	1.74768
1282.72	1.6579
1286.09	3.77435
1289.47	3.6795
1292.84	2.25854
1296.22	2.27295
1299.59	1.81537
1302.97	0.481812
