Measurement: Raman, 780 nm, unoriented, Raman Data Processed
Mineral: Grossular
Rruff sample: R100152
Ideal chemistry: Ca_3_Al_2_(SiO_4_)_3_
Locality: Matara, Sri Lanka
Source: William W. Pinch
Description: Pale brown cut gemstones
Raman shift (cm-1)	intensity
147.013	0
149.906	0.89756
152.798	2.0059
155.691	0.118088
158.584	2.03254
161.477	4.05279
164.369	3.59539
167.262	4.99983
170.155	8.0008
173.047	18.8152
175.94	38.4459
178.833	95.337
181.726	110.335
184.618	30.4559
187.511	8.26699
190.404	3.38387
193.296	1.50982
196.189	0.462852
199.082	0.038345
201.974	0.764061
204.867	2.22669
207.76	1.71759
210.652	2.16791
213.545	0.326622
216.438	2.54021
219.331	5.43083
222.223	9.55288
225.116	14.1777
228.009	26.8931
230.901	46.7093
233.794	82.3639
236.687	151.363
239.579	200.518
242.472	186.722
245.365	288.88
248.257	294.421
251.15	96.4719
254.043	31.215
256.936	16.8267
259.828	15.9796
262.721	17.1346
265.614	20.9985
268.506	35.1329
271.399	64.7658
274.292	149.551
277.185	316.161
280.077	281.004
282.97	98.2088
285.863	39.8337
288.755	21.0716
291.648	9.48959
294.541	1.80614
297.433	2.26148
300.326	4.13714
303.219	4.04528
306.111	1.97721
309.004	2.28198
311.897	6.572
314.79	12.3372
317.682	15.2804
320.575	15.5037
323.468	19.6948
326.36	37.3939
329.253	64.8893
332.146	58.6423
335.038	34.699
337.931	30.5562
340.824	32.2938
343.717	46.9887
346.609	68.8522
349.502	96.2852
352.395	101.72
355.287	132.802
358.18	188.373
361.073	274.152
363.965	416.563
366.858	662.734
369.751	1010.15
372.644	1490.72
375.536	1582.14
378.429	879.571
381.322	410.664
384.214	239.256
387.107	150.661
390	102.908
392.892	76.8099
395.785	64.5133
398.678	60.0204
401.57	55.5236
404.463	54.6416
407.356	57.4083
410.249	67.6262
413.141	104.454
416.034	144.09
418.927	93.9146
421.819	44.8844
424.712	27.3126
427.605	16.3341
430.498	10.3582
433.39	4.99132
436.283	1.03189
439.176	0.779945
442.068	3.12479
444.961	3.12831
447.854	3.77949
450.746	1.07673
453.639	1.21773
456.532	0.553528
459.425	3.00915
462.317	1.7918
465.21	2.85625
468.103	5.52255
470.995	11.8622
473.888	24.7817
476.781	45.6342
479.673	43.0871
482.566	24.9899
485.459	11.6425
488.351	8.23489
491.244	5.87544
494.137	9.32896
497.029	12.2894
499.922	20.2922
502.815	35.7913
505.708	74.5462
508.6	118.531
511.493	83.0867
514.386	36.4674
517.278	19.0944
520.171	15.1357
523.064	17.5997
525.957	21.877
528.849	16.8701
531.742	15.311
534.635	26.8167
537.527	41.8817
540.42	81.1569
543.313	178.11
546.205	387.923
549.098	493.158
551.991	241.918
554.884	86.1836
557.776	34.6488
560.669	15.8731
563.562	3.51475
566.454	2.55405
569.347	2.09029
572.24	3.16891
575.132	1.83408
578.025	1.64619
580.918	0.221573
583.811	0.621803
586.703	1.00053
589.596	6.46668
592.489	4.80983
595.381	1.4734
598.274	1.59573
601.167	0.716774
604.059	3.59831
606.952	4.28884
609.845	4.6609
612.737	7.00984
615.63	7.64145
618.523	12.9396
621.416	22.6892
624.308	42.1155
627.201	68.35
630.094	67.0588
632.986	40.4299
635.879	18.9829
638.772	9.36446
641.664	5.67687
644.557	2.18349
647.45	2.95306
650.342	0.227844
653.235	3.02359
656.128	1.27515
659.021	1.93425
661.913	1.955
664.806	0.413872
667.699	0.443405
670.591	1.3138
673.484	2.2355
676.377	1.88973
679.269	0.474571
682.162	2.95958
685.055	4.86988
687.948	3.18719
690.84	4.58462
693.733	2.87529
696.626	2.41668
699.518	4.44685
702.411	5.89359
705.304	7.08138
708.197	6.28761
711.089	7.89457
713.982	7.36734
716.875	6.69864
719.767	4.30891
722.66	7.69706
725.553	7.95319
728.445	5.75957
731.338	6.79237
734.231	7.64993
737.124	5.11043
740.016	5.68968
742.909	4.80537
745.802	4.23946
748.694	5.51678
751.587	2.92686
754.48	2.65375
757.372	1.107
760.265	0.570511
763.158	0.747795
766.051	0.20211
768.943	1.39195
771.836	2.36604
774.729	0.769211
777.621	1.27271
780.514	1.00321
783.407	1.58369
786.299	3.14014
789.192	4.18613
792.085	2.26235
794.977	0.961304
797.87	4.26981
800.763	9.54284
803.655	22.3106
806.548	39.7134
809.441	67.5776
812.334	103.595
815.226	153.284
818.119	237.087
821.012	362.769
823.904	474.023
826.797	438.537
829.69	309.837
832.582	210.112
835.475	160.005
838.368	137.554
841.261	136.27
844.153	151.147
847.046	174.981
849.939	182.128
852.831	175.692
855.724	171.808
858.617	188.478
861.51	233.705
864.402	311.073
867.295	435.428
870.188	623.022
873.08	930.492
875.973	1390.39
878.866	1823.25
881.758	1720.94
884.651	1209.25
887.544	757.208
890.437	473.095
893.329	304.651
896.222	193.832
899.115	128.284
902.007	91.1455
904.9	67.0324
907.793	55.8524
910.685	45.0017
913.578	34.532
916.471	27.3993
919.364	22.2036
922.256	16.292
925.149	9.64481
928.042	3.31784
930.934	1.93703
933.827	0.300041
936.72	2.29608
939.612	3.42597
942.505	2.66717
945.398	0.641235
948.29	0.670593
951.183	0.776489
954.076	2.22009
956.968	1.64117
959.861	0.728943
962.754	1.70916
965.647	0.940815
968.539	3.35575
971.432	4.43585
974.325	7.35457
977.217	10.163
980.11	15.6663
983.003	19.7458
985.895	24.2514
988.788	27.5474
991.681	36.0709
994.574	43.0584
997.466	53.473
1000.36	71.7404
1003.25	100.008
1006.14	128.598
1009.04	118.401
1011.93	73.8465
1014.82	44.463
1017.72	27.2789
1020.61	16.8585
1023.5	10.874
1026.39	9.32933
1029.29	8.23133
1032.18	6.87312
1035.07	7.70954
1037.96	8.32674
1040.86	7.43885
1043.75	6.54639
1046.64	8.00664
1049.54	4.59356
1052.43	6.08347
1055.32	4.49037
1058.21	4.22252
1061.11	5.122
1064	3.7123
1066.89	3.95909
1069.78	4.59373
1072.68	5.1809
1075.57	5.47865
1078.46	4.34322
1081.35	2.50827
1084.25	4.50178
1087.14	2.81598
1090.03	1.47468
1092.92	1.69439
1095.82	0.85215
1098.71	1.78636
1101.6	0.346027
1104.5	0.663662
1107.39	1.21362
1110.28	1.40086
1113.17	0.150192
1116.07	0.890617
1118.96	0.606117
1121.85	0.28643
1124.74	0.460033
1127.64	1.40064
1130.53	2.26099
1133.42	2.35353
1136.32	3.56361
1139.21	1.42106
1142.1	3.23722
1144.99	3.45849
1147.89	7.20713
1150.78	7.29387
1153.67	6.52387
1156.57	9.03892
1159.46	7.8912
1162.35	6.64801
1165.24	4.40311
1168.13	6.35023
1171.03	6.90152
1173.92	8.37566
1176.81	9.64764
1179.71	11.6187
1182.6	16.1832
1185.49	21.1468
1188.38	33.3856
1191.28	47.1029
1194.17	71.31
1197.06	99.2076
1199.95	116.475
1202.85	115.146
1205.74	87.3342
1208.63	58.2206
1211.53	35.7054
1214.42	23.1919
1217.31	13.5061
1220.2	10.2573
1223.1	5.61447
1225.99	2.92624
1228.88	3.22697
1231.78	0.362061
1234.67	2.12323
1237.56	1.54136
1240.45	2.06385
1243.35	1.91609
1246.24	0.124878
1249.13	2.10937
1252.02	1.34866
1254.92	2.23103
1257.81	3.48212
1260.7	5.73077
1263.59	4.90585
1266.49	3.50686
1269.38	3.72411
1272.27	1.3119
1275.16	2.44027
1278.06	0.262039
1280.95	2.03802
1283.84	1.41611
