Measurement: Raman, 785 nm, unoriented, Raman Data Processed
Mineral: Grossular
Rruff sample: R050081
Ideal chemistry: Ca_3_Al_2_(SiO_4_)_3_
Locality: Kayes Region, Mali
Source: Rock Currier
Description: Dark brown dodecahedron
Measured chemistry: (Ca_2.92_Mg_0.07_Mn_0.01_)_Σ=3_(Al_1.04_Fe^3+^_0.89_Ti_0.07_)_Σ=2_((Si_0.98_Al_0.02_)_Σ=1_O_4_)_3_; trace amounts of Y
Raman shift (cm-1)	intensity
146.089	0
148.982	21.3247
151.875	50.6082
154.768	69.7462
157.66	22.7574
160.553	70.3048
163.446	88.5828
166.338	153.868
169.231	248.949
172.124	372.103
175.017	570.33
177.909	626.077
180.802	339.064
183.695	175.653
186.587	109.46
189.48	63.4273
192.373	56.978
195.265	25.1484
198.158	25.1968
201.051	32.5519
203.944	29.2825
206.836	2.35168
209.729	24.7906
212.622	23.8392
215.514	4.20337
218.407	40.192
221.3	42.9065
224.192	178.662
227.085	292.568
229.978	396.809
232.87	590.074
235.763	705.837
238.656	860.245
241.549	1026.11
244.441	627.67
247.334	187.508
250.227	46.2427
253.119	11.2211
256.012	9.68518
258.905	30.8932
261.798	16.3923
264.69	99.3933
267.583	204.131
270.476	387.026
273.368	382.947
276.261	177.941
279.154	123.582
282.046	85.7567
284.939	33.7094
287.832	44.4811
290.724	23.8462
293.617	28.3163
296.51	13.0444
299.403	57.0786
302.295	71.2373
305.188	130.268
308.081	169.306
310.973	258.151
313.866	377.924
316.759	619.561
319.651	818.799
322.544	803.726
325.437	564.847
328.33	471.618
331.222	480.593
334.115	540.298
337.008	573.893
339.9	579.504
342.793	732.253
345.686	1041.91
348.579	1483.98
351.471	2169.7
354.364	3111.92
357.257	4632.92
360.149	6110.99
363.042	6475.81
365.935	6781.38
368.827	8094.5
371.72	9162.25
374.613	7890.11
377.505	5105.64
380.398	3095.75
383.291	2006.09
386.184	1396.33
389.076	1114.32
391.969	918.591
394.862	828.4
397.754	836.75
400.647	819.706
403.54	646.852
406.433	371.822
409.325	179.083
412.218	85.1356
415.111	31.8454
418.003	11.9094
420.896	7.89756
423.789	3.28533
426.681	3.16465
429.574	4.11298
432.467	14.5923
435.36	24.5552
438.252	51.3826
441.145	85.9983
444.038	117.377
446.93	105.092
449.823	107.271
452.716	97.445
455.608	116.504
458.501	107.491
461.394	81.9104
464.286	66.6797
467.179	57.0632
470.072	29.6538
472.965	37.8073
475.857	53.634
478.75	90.1774
481.643	129.672
484.535	208.21
487.428	248.516
490.321	277.084
493.214	285.063
496.106	259.826
498.999	234.71
501.892	215.254
504.784	162.118
507.677	147.701
510.57	155.884
513.462	208.684
516.355	226.105
519.248	411.683
522.14	699.818
525.033	1051.89
527.926	1612.08
530.819	2309.07
533.711	2723.49
536.604	1992.44
539.497	993.462
542.389	464.652
545.282	295.485
548.175	233.507
551.067	191.319
553.96	247.173
556.853	229.763
559.745	267.263
562.638	221.661
565.531	177.168
568.424	132.178
571.316	53.9058
574.209	30.4243
577.102	12.137
579.994	2.97531
582.887	4.50245
585.78	19.2447
588.673	38.4109
591.565	96.2467
594.458	160.538
597.351	204.737
600.243	242.99
603.136	276.859
606.029	287.602
608.921	306.123
611.814	331.229
614.707	333.278
617.6	330.056
620.492	298.503
623.385	229.596
626.278	181.513
629.17	130.521
632.063	87.3138
634.956	68.6724
637.848	75.1042
640.741	83.5261
643.634	85.9162
646.527	121.159
649.419	112.1
652.312	124.179
655.205	128.911
658.097	150.241
660.99	157.81
663.883	163.793
666.775	189.95
669.668	198.252
672.561	209.887
675.454	186.184
678.346	167.26
681.239	147.179
684.132	121.007
687.024	103.464
689.917	78.7215
692.81	69.9493
695.702	46.5308
698.595	42.579
701.488	29.8223
704.381	16.478
707.273	20.6207
710.166	19.1319
713.059	6.61078
715.951	19.6951
718.844	16.4991
721.737	21.6934
724.63	11.551
727.522	31.2093
730.415	2.48132
733.308	46.4926
736.2	62.9714
739.093	136.687
741.986	186.494
744.878	270.67
747.771	355.518
750.664	442.951
753.557	539.962
756.449	664.402
759.342	775.029
762.235	861.368
765.127	834.088
768.02	748.939
770.913	559.208
773.805	403.649
776.698	258.094
779.591	162.783
782.484	84.2623
785.376	33.1108
788.269	8.36462
791.162	30.196
794.054	76.0029
796.947	144.84
799.84	263.034
802.732	463.976
805.625	655.629
808.518	926.824
811.41	1205.38
814.303	1511.91
817.196	1716.79
820.089	1744.66
822.981	1594.76
825.874	1328.84
828.767	1067.23
831.659	793.047
834.552	639.259
837.445	564.432
840.337	510.159
843.23	511.754
846.123	480.274
849.016	522.038
851.908	584.445
854.801	721.252
857.694	914.914
860.586	1285.21
863.479	1699.9
866.372	2320.85
869.264	3029.42
872.157	3733.35
875.05	4107.5
877.943	3958.08
880.835	3247.44
883.728	2384.72
886.621	1714.34
889.513	1135.04
892.406	760.668
895.299	487.451
898.192	338.58
901.084	179.804
903.977	50.1066
906.87	28.7633
909.762	14.6149
912.655	5.25993
915.548	1.32674
918.44	0.233086
921.333	10.2648
924.226	27.984
927.119	49.7438
930.011	82.2812
932.904	107.591
935.797	151.824
938.689	171.366
941.582	142.235
944.475	114.062
947.367	79.7061
950.26	35.1844
953.153	9.33685
956.045	26.8909
958.938	69.0325
961.831	120.772
964.724	181.109
967.616	230.515
970.509	265.087
973.402	311.374
976.294	303.172
979.187	356.281
982.08	352.885
984.972	365.896
987.865	347.977
990.758	368.726
993.651	382.861
996.543	363.508
999.436	361.507
1002.33	310.935
1005.22	232.882
1008.11	148.934
1011.01	90.6649
1013.9	62.9537
1016.79	61.3887
1019.68	86.2353
1022.58	111.759
1025.47	124.268
1028.36	74.9697
1031.26	31.0454
1034.15	3.27042
1037.04	1.52365
1039.93	4.51608
1042.83	1.69705
1045.72	7.36978
1048.61	13.3549
1051.51	2.19913
1054.4	7.33957
1057.29	10.1253
1060.18	5.2634
1063.08	9.37491
1065.97	9.33411
1068.86	22.0112
1071.75	28.8002
1074.65	35.1044
1077.54	20.8123
1080.43	31.8065
1083.32	39.0872
1086.22	47.8711
1089.11	40.3315
1092	40.1573
1094.89	55.7769
1097.79	70.3559
1100.68	64.9115
1103.57	69.4833
1106.47	80.6131
1109.36	75.6388
1112.25	89.2618
1115.14	91.7245
1118.04	97.6755
1120.93	94.886
1123.82	102.516
1126.71	86.2994
1129.61	83.3583
1132.5	70.2924
1135.39	57.5853
1138.29	57.9418
1141.18	77.978
1144.07	56.2144
1146.96	41.9115
1149.86	39.0191
1152.75	28.819
1155.64	35.0478
1158.53	28.1991
1161.43	7.55792
1164.32	8.14865
1167.21	12.21
1170.11	5.26858
1173	4.53787
1175.89	11.5894
1178.78	0.513763
1181.68	9.93091
1184.57	1.38055
1187.46	15.3899
1190.35	1.2355
1193.25	7.83533
1196.14	7.25485
1199.03	16.7874
1201.92	2.99033
1204.82	13.7405
1207.71	3.47812
1210.6	12.6271
1213.5	4.46497
1216.39	28.69
1219.28	12.9338
1222.17	5.18201
1225.07	7.57523
1227.96	7.35403
1230.85	5.68368
1233.74	12.6494
