Measurement: Raman, 785 nm, unoriented, Raman Data Processed
Mineral: Grossular
Rruff sample: R060446
Ideal chemistry: Ca_3_Al_2_(SiO_4_)_3_
Locality: Africa
Source: Gemological Institute of America
Description: Orange fragment
Measured chemistry: (Ca_2.97_Mn_0.03_)_Σ=3_(Al_1.96_Fe^3+^_0.04_)_Σ=2_(Si_1.00_O_4_)_2.71_(OH)_1.16_ (x=0.29); OH estimated by charge balance
Raman shift (cm-1)	intensity
99.832	0
103.207	7.86
106.582	27.208
109.957	44.298
113.331	77.851
116.706	48.635
120.081	10.443
123.456	15.33
126.831	54.728
130.206	175.65
133.58	281.509
136.955	230.014
140.33	168.487
143.705	207.128
147.08	420.841
150.454	567.53
153.829	606.298
157.204	525.261
160.579	449.478
163.954	478.223
167.329	586.47
170.703	652.146
174.078	666.235
177.453	616.925
180.828	580.205
184.203	424.603
187.577	348.517
190.952	328.574
194.327	240.287
197.702	259.086
201.077	251.932
204.452	232.651
207.826	246.777
211.201	232.502
214.576	219.977
217.951	226.856
221.326	217.004
224.7	219.052
228.075	188.916
231.45	210.328
234.825	239.877
238.2	265.418
241.574	264.703
244.949	286.254
248.324	215.491
251.699	142.026
255.074	67.382
258.449	64.064
261.823	45.992
265.198	34.749
268.573	109.157
271.948	139.074
275.323	189.187
278.698	131.057
282.072	93.603
285.447	22.655
288.822	17.571
292.197	14.618
295.572	35.165
298.946	14.48
302.321	27.097
305.696	1.514
309.071	3.486
312.446	38.507
315.82	28.545
319.195	25.941
322.57	1.092
325.945	53.699
329.32	96.786
332.695	100.951
336.069	133.073
339.444	217.852
342.819	260.179
346.194	367.094
349.569	500.777
352.944	691.323
356.318	881.645
359.693	1202.62
363.068	1589.79
366.443	1926.59
369.818	2048.35
373.193	1778.76
376.567	1163.16
379.942	706.866
383.317	482.744
386.692	399.158
390.067	311.408
393.441	333.009
396.816	353.397
400.191	390.087
403.566	388.167
406.941	404.398
410.315	429.138
413.69	381.217
417.065	256.359
420.44	115.998
423.815	93.162
427.19	32.282
430.564	13.521
433.939	23.799
437.314	1.056
440.689	3.899
444.064	0.715
447.439	6.866
450.813	7.81
454.188	10.079
457.563	17.72
460.938	5.382
464.313	0.193
467.687	10.329
471.062	31.247
474.437	25.387
477.812	51.478
481.187	39.416
484.561	9.422
487.936	37
491.311	17.786
494.686	12.526
498.061	64.903
501.436	84.379
504.81	125.174
508.185	178.506
511.56	149.124
514.935	143.542
518.31	171.485
521.685	188.994
525.059	252.313
528.434	293.664
531.809	405.889
535.184	490.272
538.559	604.267
541.933	702.158
545.308	656.237
548.683	417.064
552.058	176.178
555.433	87.001
558.808	44.031
562.182	37.996
565.557	19.801
568.932	15.546
572.307	7.2
575.682	33.715
579.057	14.209
582.431	46.51
585.806	69.08
589.181	63.015
592.556	46.904
595.93	28.835
599.305	27.536
602.68	36.034
606.055	24.557
609.43	27.607
612.805	51.468
616.179	64.766
619.554	106.777
622.929	133.648
626.304	162.453
629.679	158.182
633.054	162.464
636.428	185.596
639.803	173.454
643.178	182.141
646.553	145.578
649.928	94.168
653.302	46.833
656.677	36.243
660.052	17.092
663.427	31.349
666.802	5.348
670.177	2.831
673.551	25.778
676.926	28.291
680.301	12.33
683.676	24.383
687.051	46.894
690.425	48.874
693.8	79.761
697.175	57.591
700.55	72.654
703.925	23.618
707.3	22.042
710.674	24.566
714.049	29.437
717.424	41.821
720.799	37.771
724.174	57.865
727.549	38.284
730.923	45.477
734.298	50.747
737.673	38.285
741.048	44.824
744.423	46.98
747.797	1.764
751.172	12.423
754.547	20.008
757.922	26.8
761.297	23.216
764.672	22.533
768.046	20.192
771.421	23.974
774.796	13.097
778.171	13.455
781.546	7.573
784.92	2.504
788.295	5.942
791.67	2.956
795.045	32.14
798.42	40.984
801.795	45.484
805.169	121.953
808.544	244.182
811.919	391.693
815.294	552.155
818.669	652.301
822.044	723.481
825.418	586.103
828.793	417.747
832.168	386.946
835.543	373.208
838.917	337.063
842.292	417.508
845.667	506.731
849.042	554.32
852.417	667.491
855.792	810.357
859.166	1015.48
862.541	1307.58
865.916	1763.53
869.291	2341.72
872.666	2904.75
876.041	3052.97
879.415	2519.18
882.79	1737.94
886.165	1118.06
889.54	743.129
892.915	525.367
896.289	340.499
899.664	241.761
903.039	195.4
906.414	130.694
909.789	120.297
913.164	71.599
916.538	62.436
919.913	59.077
923.288	66.283
926.663	32.198
930.038	53.678
933.412	20.528
936.787	8.706
940.162	5.582
943.537	3.537
946.912	6.159
950.287	3.469
953.661	13.683
957.036	37.931
960.411	19.785
963.786	15.06
967.161	2.75
970.536	67.054
973.91	78.079
977.285	102.338
980.66	112.921
984.035	131.238
987.41	138.091
990.784	134.348
994.159	145.617
997.534	219.132
1000.91	237.006
1004.28	236.393
1007.66	157.759
1011.03	131.697
1014.41	60.736
1017.78	49.717
1021.16	18.912
1024.53	5.533
1027.91	9.509
1031.28	48.235
1034.66	21.457
1038.03	30.313
1041.41	33.724
1044.78	27.334
1048.16	23.512
1051.53	4.004
1054.91	47.253
1058.28	26.973
1061.66	33.187
1065.03	22.244
1068.4	17.029
1071.78	32.636
1075.15	23.201
1078.53	10.674
1081.9	34.369
1085.28	12.382
1088.65	14.203
1092.03	19.042
1095.4	30.566
1098.78	17.646
1102.15	8.706
1105.53	41.395
1108.9	2.676
1112.28	23.623
1115.65	33.764
1119.03	33.807
1122.4	36.841
1125.78	44.021
1129.15	72.302
1132.53	5.688
1135.9	13.294
1139.28	38.263
1142.65	31.805
1146.03	51.455
1149.4	25.499
1152.78	49.053
1156.15	43.031
1159.53	54.942
1162.9	8.397
1166.28	16.659
1169.65	31.491
1173.03	52.443
1176.4	20.297
1179.77	41.059
1183.15	49.191
1186.52	8.439
1189.9	25.38
1193.27	27.217
1196.65	27.251
1200.02	11.847
1203.4	18.448
1206.77	19.882
1210.15	38.523
1213.52	26.09
1216.9	7.218
1220.27	7.984
1223.65	12.501
1227.02	62.253
1230.4	4.209
1233.77	31.502
1237.15	20.259
1240.52	15.575
1243.9	32.121
1247.27	12.213
1250.65	45.626
1254.02	8.888
1257.39	41.671
1260.77	21.888
1264.14	27.294
1267.52	23.514
1270.89	21.275
