Measurement: Raman, 780 nm, unoriented, Raman Data Processed
Mineral: Grossular
Rruff sample: R100160
Ideal chemistry: Ca_3_Al_2_(SiO_4_)_3_
Locality: Kataragama, Sri Lanka
Source: William W. Pinch
Description: Orange-red cut gemstone
Raman shift (cm-1)	intensity
150.388	0
153.281	0.405563
156.173	1.61292
159.066	5.96486
161.959	9.22234
164.851	11.7209
167.744	20.3644
170.637	37.535
173.53	95.5134
176.422	249.265
179.315	382.451
182.208	211.055
185.1	89.4674
187.993	47.3271
190.886	29.7111
193.778	14.5818
196.671	7.92995
199.564	4.46403
202.457	2.15713
205.349	2.99127
208.242	1.56172
211.135	2.79085
214.027	1.43155
216.92	4.09552
219.813	3.68132
222.705	7.08775
225.598	11.5855
228.491	18.1608
231.383	31.2252
234.276	55.212
237.169	77.7984
240.061	88.8321
242.954	97.3973
245.847	138.312
248.74	91.7444
251.632	35.4819
254.525	17.512
257.418	15.7319
260.31	15.543
263.203	19.4347
266.096	21.6834
268.988	30.1118
271.881	50.5649
274.774	86.3872
277.667	109.129
280.559	72.5562
283.452	29.1496
286.345	17.6343
289.237	10.4439
292.13	1.55563
295.023	1.21791
297.916	8.64072
300.808	5.80536
303.701	2.70013
306.594	2.95723
309.486	17.7142
312.379	32.2462
315.272	44.1387
318.164	35.0055
321.057	26.5796
323.95	28.2646
326.842	40.8267
329.735	48.8621
332.628	43.5813
335.521	42.724
338.413	49.3173
341.306	60.2755
344.199	78.35
347.091	112.827
349.984	147.879
352.877	202.349
355.769	288.82
358.662	419.789
361.555	649.579
364.447	1055.18
367.34	1583.14
370.233	1923.91
373.126	2151.73
376.018	1776.72
378.911	961.074
381.804	500.683
384.696	294.287
387.589	190.01
390.482	131.293
393.375	104.693
396.267	88.8372
399.16	91.4453
402.053	90.9342
404.945	106.997
407.838	137.516
410.731	212.517
413.623	343.226
416.516	353.017
419.409	188.077
422.301	97.9587
425.194	57.6045
428.087	30.1821
430.98	18.1042
433.872	7.38057
436.765	2.26241
439.658	0.44043
442.55	4.92561
445.443	6.23442
448.336	5.68837
451.228	3.44988
454.121	2.6256
457.014	1.7323
459.907	1.38516
462.799	2.47499
465.692	0.163528
468.585	3.91533
471.477	7.73646
474.37	15.8429
477.263	24.3395
480.156	17.553
483.048	6.1927
485.941	2.8389
488.834	1.33371
491.726	6.25783
494.619	11.2677
497.512	14.0861
500.404	18.5107
503.297	27.1942
506.19	45.7105
509.082	51.4299
511.975	25.5588
514.868	9.92644
517.761	9.56294
520.653	18.1861
523.546	40.4693
526.439	48.5443
529.331	31.4627
532.224	23.4882
535.117	32.1412
538.01	62.3891
540.902	131.398
543.795	293.28
546.688	529.511
549.58	471.395
552.473	193.317
555.366	67.6995
558.258	26.1179
561.151	5.2959
564.044	4.19981
566.936	1.52226
569.829	2.4287
572.722	2.56656
575.615	6.40796
578.507	3.9776
581.4	5.09677
584.293	9.07561
587.185	23.7093
590.078	39.387
592.971	29.2578
595.863	11.6591
598.756	6.85459
601.649	7.64491
604.542	7.21297
607.434	10.8333
610.327	12.1581
613.22	11.1694
616.112	13.3804
619.005	18.2662
621.898	26.1571
624.79	38.256
627.683	48.9458
630.576	41.9355
633.468	24.213
636.361	11.2635
639.254	5.68807
642.146	1.23436
645.039	2.10669
647.932	1.13867
650.825	2.56268
653.717	1.34116
656.61	3.76034
659.503	1.12885
662.395	0.151794
665.288	1.60574
668.181	0.283463
671.073	0.26329
673.966	2.71283
676.859	3.68086
679.752	2.73049
682.644	2.18623
685.537	7.07391
688.43	5.93675
691.322	6.52906
694.215	8.12006
697.108	8.17479
700	7.85657
702.893	9.85895
705.786	11.8344
708.679	9.8952
711.571	9.75957
714.464	12.5285
717.357	10.3267
720.249	10.5871
723.142	8.93188
726.035	6.7185
728.928	7.70744
731.82	6.7348
734.713	5.80344
737.606	3.90894
740.498	4.4695
743.391	3.17915
746.284	4.22568
749.176	3.67199
752.069	1.32366
754.962	0.729134
757.855	0.785019
760.747	1.30517
763.64	0.473358
766.533	1.30679
769.425	2.45512
772.318	3.37322
775.211	3.11143
778.103	3.56132
780.996	0.863029
783.889	0.310501
786.782	1.50048
789.674	3.26195
792.567	5.4375
795.46	1.12077
798.352	2.64728
801.245	8.5387
804.138	22.5194
807.03	42.5589
809.923	71.9305
812.816	104.044
815.708	146.45
818.601	198.91
821.494	268.893
824.386	329.402
827.279	315.031
830.172	247.789
833.065	192.874
835.957	159.274
838.85	141.494
841.743	137.701
844.635	143.218
847.528	159.91
850.421	166.55
853.313	177.304
856.206	184.95
859.099	215.679
861.992	265.132
864.884	353.399
867.777	489.486
870.67	702.579
873.562	1039.63
876.455	1522.37
879.348	1957.95
882.24	1911.3
885.133	1434.15
888.026	928.999
890.919	581.731
893.811	365.35
896.704	232.784
899.597	155.286
902.489	111.354
905.382	85.4779
908.275	72.6972
911.168	58.6352
914.06	44.7162
916.953	33.4867
919.846	23.0855
922.738	16.4751
925.631	8.39721
928.524	2.46139
931.416	0.18084
934.309	2.69556
937.202	3.10149
940.095	2.38598
942.987	0.466934
945.88	1.71629
948.773	3.89098
951.665	3.9405
954.558	0.107895
957.451	0.32605
960.343	3.74323
963.236	1.20882
966.129	2.93288
969.021	3.36607
971.914	7.77274
974.807	12.3004
977.699	17.4354
980.592	22.9607
983.485	30.3483
986.378	34.2514
989.27	40.6965
992.163	43.2928
995.056	50.3121
997.948	56.94
1000.84	71.0991
1003.73	88.1774
1006.63	105.206
1009.52	96.0369
1012.41	67.6077
1015.3	42.9702
1018.2	26.8452
1021.09	16.9371
1023.98	13.6593
1026.88	11.2559
1029.77	5.47395
1032.66	7.61057
1035.55	7.26524
1038.45	8.45403
1041.34	4.9798
1044.23	8.45507
1047.12	7.83512
1050.02	8.50768
1052.91	5.41789
1055.8	8.41663
1058.69	6.3209
1061.59	5.35614
1064.48	5.4076
1067.37	8.25253
1070.27	8.18376
1073.16	6.39838
1076.05	5.52657
1078.94	4.51087
1081.84	3.98706
1084.73	4.09558
1087.62	3.29512
1090.52	2.79331
1093.41	1.28493
1096.3	0.586334
1099.19	0.846447
1102.09	0.885159
1104.98	0.837223
1107.87	0.806004
1110.76	0.731285
1113.66	0.158997
1116.55	1.0745
1119.44	1.81286
1122.33	0.698166
1125.23	0.371628
1128.12	0.428207
1131.01	0.623299
1133.9	2.26852
1136.8	2.93095
1139.69	4.42344
1142.58	5.03886
1145.48	7.73849
1148.37	8.89404
1151.26	9.40228
1154.15	7.91413
1157.05	13.179
1159.94	8.65932
1162.83	9.04219
1165.72	10.9803
1168.62	10.8365
1171.51	15.1069
1174.4	17.6745
1177.3	21.962
1180.19	29.4337
1183.08	42.0415
1185.97	60.382
1188.87	85.9288
1191.76	123.874
1194.65	175.149
1197.55	223.387
1200.44	252.301
1203.33	233.058
1206.22	180.979
1209.12	123.173
1212.01	80.9326
1214.9	53.4808
1217.79	39.5591
1220.69	27.6601
1223.58	22.407
1226.47	15.2611
1229.36	13.0623
1232.26	10.2379
1235.15	7.95084
1238.04	5.59571
1240.93	3.82179
1243.83	2.90351
1246.72	2.70773
1249.61	3.22588
1252.51	3.81157
1255.4	3.61754
1258.29	3.08345
1261.18	0.449677
1264.08	3.17895
1266.97	3.04369
1269.86	2.14609
1272.76	3.7123
1275.65	2.64014
1278.54	0.66143
1281.43	2.2477
1284.33	0.447289
