Measurement: Raman, 532 nm, unoriented, Raman Data Processed
Mineral: Grossular
Rruff sample: R070551
Ideal chemistry: Ca_3_Al_2_(SiO_4_)_3_
Locality: Mali
Source: www.multicolour.com
Description: Green gem fragments
Measured chemistry: (Ca_2.95_Mg_0.04_Mn_0.01_)_Σ=3_(Al_1.63_Fe^3+^_0.37_)_Σ=2_(Si_1.00_O_4_)_3_
Raman shift (cm-1)	intensity
156.868	0
159.761	11.3749
162.653	249.877
165.546	411.165
168.439	449.48
171.332	715.344
174.224	1106.17
177.117	2025.59
180.01	5723.27
182.902	1606.37
185.795	446.187
188.688	249.827
191.58	130.515
194.473	109.02
197.366	110.103
200.258	41.175
203.151	19.0207
206.044	9.61011
208.937	42.6577
211.829	27.8938
214.722	1.37134
217.615	57.7239
220.507	142.716
223.4	389.698
226.293	628.338
229.185	1131.62
232.078	1988.15
234.971	3342.08
237.864	4608.2
240.756	4215.08
243.649	5881.61
246.542	6869.48
249.434	2290.14
252.327	902.406
255.22	542.813
258.113	530.744
261.005	732.296
263.898	898.252
266.791	1122.17
269.683	1519
272.576	2529.55
275.469	5277.91
278.361	3675.84
281.254	1538.85
284.147	1030.3
287.04	807.213
289.932	419.109
292.825	153.407
295.718	91.2471
298.61	183.175
301.503	107.064
304.396	60.5557
307.288	198.153
310.181	359.389
313.074	501.971
315.967	588.672
318.859	835.568
321.752	1291.69
324.645	2073.85
327.537	2692.23
330.43	1627.96
333.323	1088.04
336.216	1215.15
339.108	1364.55
342.001	1907.8
344.894	2213.86
347.786	2274.25
350.679	2948.45
353.572	4308.15
356.464	6379.8
359.357	9762.05
362.25	15015.6
365.142	23082.3
368.035	27894.1
370.928	33394.3
373.821	45407.1
376.713	39594.9
379.606	22351.8
382.499	12553.1
385.391	6575.83
388.284	4889.72
391.177	3494.5
394.07	2659.14
396.962	2325.81
399.855	2140.2
402.748	1986.99
405.64	2071.91
408.533	2616.92
411.426	3137.92
414.318	1919.35
417.211	781.807
420.104	277.3
422.997	17.8123
425.889	91.8901
428.782	175.56
431.675	160.233
434.567	26.209
437.46	21.0513
440.353	18.0322
443.245	72.3948
446.138	312.312
449.031	542.828
451.923	683.122
454.816	641.972
457.709	636.817
460.602	619.984
463.494	659.532
466.387	598.033
469.28	661.42
472.172	761.484
475.065	853.995
477.958	695.282
480.851	481.019
483.743	460.473
486.636	497.452
489.529	677.165
492.421	939.992
495.314	1044.46
498.207	1033.72
501.099	888.078
503.992	954.373
506.885	896.738
509.777	648.256
512.67	438.053
515.563	256.833
518.456	203.475
521.348	314.557
524.241	399.783
527.134	534.626
530.026	1112.04
532.919	2037.99
535.812	3389.14
538.705	5770.64
541.597	9527.65
544.49	10332.1
547.383	4541.28
550.275	1453.33
553.168	415.897
556.061	135.244
558.953	74.0618
561.846	147.276
564.739	162.063
567.631	217.463
570.524	297.73
573.417	204.893
576.31	190.693
579.202	54.1296
582.095	44.9265
584.988	2.32935
587.88	44.2344
590.773	70.6426
593.666	91.2787
596.558	1.49829
599.451	211.601
602.344	452.306
605.237	613.35
608.129	766.847
611.022	895.793
613.915	1111.5
616.807	1308.22
619.7	1540.57
622.593	1786.47
625.486	1875.82
628.378	1588.46
631.271	1024.15
634.164	596.804
637.056	384.555
639.949	189.911
642.842	158.447
645.734	60.1364
648.627	38.5366
651.52	26.3837
654.413	8.47253
657.305	19.3166
660.198	23.3444
663.091	27.2985
665.983	44.4971
668.876	50.5846
671.769	83.2587
674.661	146.133
677.554	121.472
680.447	193.051
683.34	167.961
686.232	193.611
689.125	213.754
692.018	235.571
694.91	243.491
697.803	273.808
700.696	272.825
703.588	332.981
706.481	300.834
709.374	278.282
712.267	226.439
715.159	254.639
718.052	356.7
720.945	220.866
723.837	185.273
726.73	148.071
729.623	177
732.515	191.788
735.408	151.01
738.301	122.748
741.194	80.5089
744.086	70.9187
746.979	67.5109
749.872	72.5464
752.764	27.7601
755.657	15.1796
758.55	14.4982
761.442	0.744629
764.335	62.9298
767.228	58.8428
770.121	143.203
773.013	94.9144
775.906	3.39539
778.799	70.9501
781.691	121.148
784.584	107.332
787.477	89.9661
790.37	18.4224
793.262	176.418
796.155	430.226
799.048	945.043
801.94	1633.89
804.833	2755.79
807.726	4171.31
810.618	5943.98
813.511	8082.54
816.404	10711
819.297	13464
822.189	14553.1
825.082	13153.4
827.975	10578.1
830.867	8484.52
833.76	7041.8
836.653	5956.88
839.545	5244.92
842.438	4796.31
845.331	4506.51
848.223	4387.95
851.116	4353.48
854.009	4556.89
856.902	5035.16
859.794	6168.14
862.687	8194.49
865.58	11414.8
868.472	15955.5
871.365	21517.8
874.258	26689.5
877.15	28822.5
880.043	24146.6
882.936	16870.5
885.829	10704.7
888.721	6799.53
891.614	4426.31
894.507	3020.75
897.399	2253.53
900.292	1719.9
903.185	1379.45
906.077	1106.5
908.97	740.561
911.863	477.074
914.756	265.425
917.648	143.864
920.541	42.4451
923.434	16.0727
926.326	76.5557
929.219	92.5586
932.112	39.1614
935.005	60.5996
937.897	189.814
940.79	374.585
943.683	399.415
946.575	385.897
949.468	330.347
952.361	135.842
955.254	32.0656
958.146	107.875
961.039	125.501
963.932	10.4712
966.824	204.3
969.717	477.959
972.61	775.865
975.502	1024.81
978.395	1259.77
981.288	1470.31
984.181	1581.62
987.073	1686.61
989.966	1866.39
992.859	2092.94
995.751	2343.41
998.644	2627.58
1001.54	2863.17
1004.43	2754.22
1007.32	2244.64
1010.22	1541.91
1013.11	991.872
1016	675.81
1018.89	437.784
1021.79	261.852
1024.68	235.31
1027.57	217.501
1030.46	178.702
1033.36	168.291
1036.25	127.451
1039.14	127.018
1042.03	112.133
1044.93	25.7665
1047.82	60.6168
1050.71	34.1913
1053.61	46.3286
1056.5	17.2056
1059.39	14.8962
1062.28	1.36169
1065.18	20.7787
1068.07	28.1559
1070.96	21.293
1073.85	5.18677
1076.75	29.6001
1079.64	14.842
1082.53	42.6227
1085.42	7.25183
1088.32	2.82568
1091.21	54.9708
1094.1	23.7766
1097	14.433
1099.89	21.3223
1102.78	9.91394
1105.67	25.9869
1108.57	38.6283
1111.46	48.687
1114.35	44.5597
1117.24	91.8364
1120.14	43.4263
1123.03	79.0685
1125.92	87.3667
1128.82	94.7141
1131.71	75.8887
1134.6	140.333
1137.49	143.842
1140.39	169.415
1143.28	183.829
1146.17	194.302
1149.06	136.023
1151.96	176.074
1154.85	192.532
1157.74	161.795
1160.63	164.115
1163.53	104.818
1166.42	80.2867
1169.31	102.096
1172.21	54.6794
1175.1	56.5139
1177.99	37.4916
1180.88	17.2527
1183.78	11.9624
1186.67	16.6349
1189.56	17.7577
1192.45	29.8053
1195.35	1.52185
1198.24	14.9364
1201.13	18.8286
1204.03	37.8156
1206.92	73.5682
1209.81	59.4641
1212.7	62.7189
1215.6	54.4096
1218.49	68.6669
1221.38	47.1792
1224.28	76.6521
1227.17	80.9751
1230.06	82.7565
1232.95	141.273
1235.85	172.092
1238.74	155.136
1241.63	128.717
1244.52	143.199
1247.42	126.121
1250.31	118.568
1253.2	137.503
1256.09	92.3842
1258.99	83.9532
1261.88	63.376
1264.77	33.6381
1267.66	60.7068
1270.56	73.0521
1273.45	48.4062
1276.34	15.3545
1279.24	6.84692
1282.13	47.3739
1285.02	12.7293
1287.91	4.26166
1290.81	31.124
1293.7	7.47717
1296.59	3.63245
1299.48	3.79388
1302.38	0
