Measurement: Raman, 780 nm, unoriented, Raman Data Processed
Mineral: Grossular
Rruff sample: R060499
Ideal chemistry: Ca_3_Al_2_(SiO_4_)_3_
Locality: Lake Jaco, Chihuahua, Mexico
Source: Michael Scott
Description: Tan colored single dodecahedral crystal
Measured chemistry: (Ca_2.90_Mg_0.10_)_Σ=3_(Al_1.78_Fe^3+^_0.19_Ti_0.03_)_Σ=2_(Si_1.00_O_4_)_3_
Raman shift (cm-1)	intensity
112.626	0
115.519	1.60515
118.411	0.111492
121.304	1.07191
124.197	0.465137
127.089	0.83728
129.982	0.851261
132.875	1.33457
135.767	2.38604
138.66	4.17033
141.553	6.19758
144.446	7.64788
147.338	7.50638
150.231	9.38424
153.124	11.0892
156.016	12.0303
158.909	14.3634
161.802	17.6023
164.694	15.1049
167.587	16.6811
170.48	20.1779
173.373	29.0407
176.265	53.7521
179.158	134.99
182.051	46.4192
184.943	8.11162
187.836	2.23
190.729	2.3718
193.621	0.510826
196.514	0.171009
199.407	0.241962
202.299	0.395145
205.192	1.23168
208.085	0.003757
210.978	1.73227
213.87	1.77354
216.763	1.13878
219.656	2.33209
222.548	2.63322
225.441	3.7063
228.334	6.1415
231.226	10.9049
234.119	18.3544
237.012	27.4942
239.905	26.4368
242.797	30.1334
245.69	34.888
248.583	18.0908
251.475	9.38761
254.368	8.42786
257.261	7.26888
260.154	6.98672
263.046	8.1078
265.939	7.71299
268.832	10.09
271.724	12.3932
274.617	24.0756
277.51	21.8808
280.402	7.80352
283.295	7.14502
286.188	4.35355
289.08	2.56977
291.973	0.959221
294.866	3.5336
297.759	4.25912
300.651	1.45593
303.544	1.78721
306.437	3.11255
309.329	4.16555
312.222	5.65263
315.115	5.54613
318.007	5.34483
320.9	5.03065
323.793	10.223
326.686	13.3031
329.578	12.0822
332.471	11.0454
335.364	12.8234
338.256	13.2934
341.149	16.6455
344.042	20.4682
346.935	27.3179
349.827	38.6607
352.72	56.8546
355.613	83.76
358.505	126.887
361.398	197.122
364.291	308.525
367.183	388.365
370.076	384.759
372.969	442.804
375.861	383.219
378.754	224.392
381.647	121.935
384.54	71.3486
387.432	46.5771
390.325	32.9121
393.218	28.882
396.11	27.7808
399.003	31.2878
401.896	37.2226
404.788	49.6138
407.681	69.7462
410.574	100.068
413.467	106.46
416.359	85.194
419.252	81.9029
422.145	86.7047
425.037	85.655
427.93	72.0325
430.823	51.1838
433.716	30.5987
436.608	19.1498
439.501	10.8613
442.394	6.63657
445.286	3.42777
448.179	2.17293
451.072	1.80533
453.964	0.017609
456.857	0.894402
459.75	2.6039
462.642	2.93544
465.535	2.81894
468.428	2.73187
471.321	0.556805
474.213	3.13879
477.106	4.46115
479.999	4.66052
482.891	5.80127
485.784	8.72883
488.677	11.4071
491.57	14.9885
494.462	16.0472
497.355	15.7887
500.248	16.3219
503.14	15.401
506.033	14.9036
508.926	13.9813
511.818	9.71021
514.711	6.73448
517.604	4.14118
520.496	2.78561
523.389	1.98743
526.282	0.537865
529.175	2.73838
532.067	7.75644
534.96	17.8845
537.853	35.8076
540.745	71.716
543.638	110.947
546.531	79.9907
549.423	27.1605
552.316	7.05558
555.209	1.98341
558.102	1.24086
560.994	1.8673
563.887	4.62484
566.78	5.77888
569.672	8.32853
572.565	10.9607
575.458	13.9221
578.351	15.9176
581.243	19.0301
584.136	23.7619
587.029	30.8106
589.921	33.2516
592.814	35.147
595.707	36.0669
598.599	33.4087
601.492	33.2697
604.385	27.4974
607.278	22.7221
610.17	19.8425
613.063	17.3857
615.956	15.4288
618.848	14.0738
621.741	14.2879
624.634	16.0123
627.526	15.7592
630.419	12.8631
633.312	7.95699
636.205	3.96276
639.097	0.934937
641.99	0.11628
644.883	0.874489
647.775	1.34431
650.668	0.888084
653.561	0.175999
656.453	1.38419
659.346	2.84134
662.239	4.23846
665.131	6.26993
668.024	7.93743
670.917	9.37885
673.81	11.2677
676.702	12.2409
679.595	12.9744
682.488	11.3616
685.38	9.33143
688.273	8.17151
691.166	6.91662
694.058	5.42152
696.951	4.84468
699.844	4.80863
702.737	2.80813
705.629	3.68249
708.522	2.5987
711.415	1.30867
714.307	0.313683
717.2	0.639116
720.093	0.136568
722.986	0.711985
725.878	0.222668
728.771	0.73321
731.664	0.630447
734.556	2.05242
737.449	2.55708
740.342	4.31048
743.234	5.54052
746.127	6.64546
749.02	8.40866
751.913	8.35326
754.805	9.57427
757.698	10.9883
760.591	15.4492
763.483	21.7895
766.376	29.1995
769.269	35.2867
772.161	37.2649
775.054	32.8451
777.947	22.7343
780.84	12.6813
783.732	6.96738
786.625	2.10114
789.518	0.984501
792.41	1.35083
795.303	1.61056
798.196	0.37632
801.088	1.18594
803.981	4.81722
806.874	9.48657
809.766	16.1602
812.659	23.3068
815.552	31.7185
818.445	40.8307
821.337	43.8647
824.23	40.5804
827.123	32.0578
830.015	24.4091
832.908	20.0151
835.801	15.9896
838.693	15.2416
841.586	13.5492
844.479	14.7212
847.372	16.0482
850.264	17.9171
853.157	21.0294
856.05	28.2845
858.942	39.3133
861.835	57.0118
864.728	85.377
867.62	124.312
870.513	171.458
873.406	229.996
876.299	268.274
879.191	252.49
882.084	190.35
884.977	121.327
887.869	71.342
890.762	40.9679
893.655	23.5953
896.548	12.5408
899.44	6.08869
902.333	5.0048
905.226	2.88059
908.118	1.8447
911.011	1.44684
913.904	1.11324
916.796	1.64446
919.689	2.84301
922.582	2.78117
925.474	2.82901
928.367	3.6346
931.26	2.87104
934.153	4.0179
937.045	4.06973
939.938	3.72479
942.831	3.54317
945.723	3.41692
948.616	2.58641
951.509	1.09975
954.401	0.131863
957.294	2.15152
960.187	1.44514
963.08	0.827831
965.972	0.87421
968.865	3.54866
971.758	6.71073
974.65	9.94153
977.543	12.825
980.436	14.3159
983.328	15.3542
986.221	16.348
989.114	15.4956
992.006	17.0209
994.899	16.7703
997.792	17.8187
1000.68	18.6009
1003.58	18.0855
1006.47	17.6516
1009.36	14.6035
1012.25	10.0038
1015.15	8.29369
1018.04	6.45423
1020.93	5.9382
1023.83	6.85604
1026.72	8.38998
1029.61	9.52667
1032.5	9.62256
1035.4	9.64971
1038.29	5.90225
1041.18	6.41949
1044.08	6.83474
1046.97	6.95223
1049.86	6.72065
1052.75	5.65131
1055.65	5.29637
1058.54	3.61168
1061.43	3.91995
1064.32	2.98913
1067.22	2.37195
1070.11	2.70169
1073	2.07083
1075.89	1.6611
1078.79	1.62678
1081.68	1.77073
1084.57	1.28966
1087.47	0.290989
1090.36	0.169641
1093.25	0.633831
1096.14	0.988476
1099.04	0.814026
1101.93	0.003912
1104.82	0.554399
1107.71	0.342394
1110.61	1.91065
1113.5	1.39865
1116.39	2.72141
1119.29	1.96212
1122.18	2.22623
1125.07	1.65879
1127.96	1.27296
1130.86	1.13864
1133.75	1.87777
1136.64	1.402
1139.53	1.53567
1142.43	1.1309
1145.32	1.96618
1148.21	0.330292
1151.11	0
