Measurement: Raman, 532 nm, unoriented, Raman Data Processed
Mineral: Grossular
Rruff sample: R040066
Ideal chemistry: Ca_3_Al_2_(SiO_4_)_3_
Locality: Redding, Connecticut, USA
Source: University of Arizona Mineral Museum
Description: Reddish orange coarsely crystalline
Measured chemistry: (Ca_2.90_Fe^2+^_0.08_Mn_0.02_)_Σ=3_(Al_1.87_Fe^3+^_0.13_)_Σ=2_(Si_1.00_O_4_)_3_
Raman shift (cm-1)	intensity
126.343	0
129.718	25.391
133.093	2.34738
136.468	8.85317
139.843	19.6681
143.217	28.1706
146.592	34.9166
149.967	45.1251
153.342	60.7742
156.717	38.8062
160.091	32.5808
163.466	35.4595
166.841	66.504
170.216	139.266
173.591	242.62
176.965	379.292
180.34	379.026
183.715	148.223
187.09	49.8696
190.465	31.326
193.84	21.1776
197.214	14.7809
200.589	12.1322
203.964	8.32437
207.339	8.75925
210.714	1.72125
214.089	6.47238
217.463	5.05515
220.838	37.2626
224.213	57.0755
227.588	147.583
230.963	316.125
234.337	519.063
237.712	903.838
241.087	959.72
244.462	1176.28
247.837	1015.13
251.211	316.961
254.586	195.466
257.961	178.186
261.336	152.966
264.711	193.605
268.086	346.28
271.46	506.419
274.835	756.595
278.21	823.276
281.585	381.668
284.96	179.844
288.334	99.308
291.709	44.8075
295.084	4.65497
298.459	28.9272
301.834	12.9826
305.209	6.31677
308.583	42.0209
311.958	49.6508
315.333	81.3367
318.708	123.502
322.082	213.683
325.457	332.001
328.832	429.806
332.207	269.58
335.582	225.56
338.957	241.969
342.331	313.757
345.706	402.234
349.081	442.43
352.456	571.638
355.831	898.548
359.205	1512.34
362.58	2561.21
365.955	4051.4
369.33	4956.17
372.705	5515.08
376.08	4736.66
379.454	2483.2
382.829	1343.56
386.204	802.711
389.579	545.829
392.954	418.037
396.328	343.334
399.703	321.872
403.078	354.505
406.453	436.728
409.828	508.828
413.202	597.649
416.577	408.734
419.952	144.86
423.327	41.9155
426.702	22.3985
430.077	2.25717
433.451	11.6289
436.826	14.7343
440.201	7.36282
443.576	6.5506
446.951	5.54077
450.325	25.3188
453.7	28.585
457.075	40.035
460.45	25.7198
463.825	20.9627
467.2	20.2683
470.574	53.6325
473.949	126.293
477.324	133.911
480.699	69.5995
484.074	56.6688
487.448	53.9718
490.823	94.6231
494.198	127.181
497.573	164.47
500.948	226.788
504.322	265.977
507.697	333.985
511.072	232.376
514.447	136.006
517.822	88.0104
521.197	91.7275
524.571	90.7222
527.946	88.9379
531.321	135.754
534.696	283.031
538.071	509.701
541.445	961.154
544.82	1507.82
548.195	1249.76
551.57	363.259
554.945	83.8664
558.319	36.6176
561.694	18.7854
565.069	27.8782
568.444	32.8441
571.819	40.1001
575.194	37.9936
578.568	38.1341
581.943	19.0104
585.318	3.30896
588.693	1.16031
592.068	13.0859
595.442	23.4943
598.817	6.54581
602.192	31.898
605.567	61.9707
608.942	103.743
612.317	169.921
615.691	210.289
619.066	286.443
622.441	343.469
625.816	440.074
629.191	430.263
632.565	286.7
635.94	169.646
639.315	96.2249
642.69	37.9086
646.065	19.6995
649.439	11.8306
652.814	4.90006
656.189	0.921204
659.564	0.71756
662.939	5.94952
666.314	25.3145
669.688	20.7057
673.063	24.1209
676.438	14.4934
679.813	43.3545
683.188	46.6066
686.562	36.1753
689.937	56.4659
693.312	74.345
696.687	98.5748
700.062	92.9977
703.437	99.4997
706.811	102.93
710.186	87.2004
713.561	97.0453
716.936	82.056
720.311	84.5989
723.685	74.2137
727.06	56.4258
730.435	46.4119
733.81	44.0731
737.185	45.214
740.559	6.61087
743.934	17.6862
747.309	1.5159
750.684	0.815216
754.059	2.61704
757.434	1.16821
760.808	1.39246
764.183	5.82339
767.558	2.21521
770.933	0.138092
774.308	4.69937
777.683	9.75378
781.057	11.3445
784.432	3.60989
787.807	4.74957
791.182	1.17456
794.557	19.4052
797.931	96.8339
801.306	197.97
804.681	379.474
808.056	694.878
811.431	1152.08
814.805	1738.36
818.18	2553.76
821.555	3469.82
824.93	3857.14
828.305	3237.5
831.679	2414.36
835.054	1838.59
838.429	1477.27
841.804	1302.87
845.179	1179.04
848.554	1106.6
851.928	1012.76
855.303	968.149
858.678	1031.13
862.053	1217.63
865.428	1604.94
868.802	2427.19
872.177	3608.88
875.552	5040.35
878.927	6019.52
882.302	5384.2
885.677	3550.83
889.051	2038.1
892.426	1164.77
895.801	702.552
899.176	430.838
902.551	296.822
905.925	244.433
909.3	167.836
912.675	103.257
916.05	54.6939
919.425	18.356
922.799	23.8405
926.174	4.40735
929.549	10.3843
932.924	22.0552
936.299	15.2709
939.674	3.54138
943.048	35.2983
946.423	55.1962
949.798	65.5809
953.173	24.9566
956.548	11.9597
959.922	22.6303
963.297	5.83038
966.672	9.20404
970.047	47.3989
973.422	105.881
976.797	166.694
980.171	204.98
983.546	261.054
986.921	287.289
990.296	343.106
993.671	386.287
997.045	483.663
1000.42	604.363
1003.79	715.549
1007.17	743.693
1010.54	560.13
1013.92	324.725
1017.29	171.147
1020.67	84.7643
1024.04	67.6572
1027.42	59.7458
1030.79	64.0704
1034.17	53.6313
1037.54	66.8654
1040.92	44.8057
1044.29	35.8929
1047.67	27.7096
1051.04	33.2883
1054.42	24.0089
1057.79	5.78378
1061.17	5.20087
1064.54	17.0427
1067.92	14.1752
1071.29	14.5548
1074.67	7.82852
1078.04	4.39178
1081.42	5.73624
1084.79	10.1716
1088.16	6.66843
1091.54	6.96069
1094.91	14.0013
1098.29	1.57663
1101.66	2.90033
1105.04	10.7839
1108.41	3.70682
1111.79	13.0366
1115.16	22.2383
1118.54	2.41559
1121.91	4.81384
1125.29	13.9963
1128.66	13.251
1132.04	20.7752
1135.41	31.7787
1138.79	29.1565
1142.16	33.7474
1145.54	30.0807
1148.91	28.106
1152.29	53.3307
1155.66	39.8596
1159.04	51.4826
1162.41	40.2605
1165.79	24.4459
1169.16	35.4324
1172.54	30.5227
1175.91	14.9234
1179.29	5.31543
1182.66	20.7052
1186.04	3.88547
1189.41	4.04221
1192.79	15.723
1196.16	3.2713
1199.53	7.46573
1202.91	13.4001
1206.28	7.24512
1209.66	12.4385
1213.03	15.8854
1216.41	23.7628
1219.78	14.7496
1223.16	21.1689
1226.53	18.3085
1229.91	9.41486
1233.28	2.80917
1236.66	24.1502
1240.03	30.9579
1243.41	37.7667
1246.78	26.0768
1250.16	33.9979
1253.53	29.9489
1256.91	36.459
1260.28	38.6628
1263.66	22.3177
1267.03	20.3393
1270.4	13.1089
1273.78	17.6562
1277.15	19.6177
1280.53	11.8654
1283.9	32.3099
1287.28	8.34344
