Measurement: Raman, 780 nm, unoriented, Raman Data Processed
Mineral: Grossular
Rruff sample: R060278
Ideal chemistry: Ca_3_Al_2_(SiO_4_)_3_
Locality: Diakon, Kayes Region, Mali
Source: Herb Obodda
Description: Dark brown dodecahedral single crystal
Measured chemistry: (Ca_2.93_Mg_0.05_Mn_0.02_)_Σ=3_(Al_1.19_Fe^3+^_0.78_Ti_0.03_)_Σ=2_((Si_0.99_Al_0.01_)_Σ=1_O_4_)_3_
Raman shift (cm-1)	intensity
113.59	0
116.965	0.193771
120.34	4.6818
123.715	5.11599
127.089	3.24684
130.464	1.697
133.839	3.96561
137.214	1.56344
140.589	1.47684
143.963	1.96521
147.338	0.412651
150.713	1.91312
154.088	1.18881
157.463	3.32394
160.838	6.79419
164.212	11.2826
167.587	16.9614
170.962	30.6113
174.337	59.0286
177.712	65.2246
181.086	28.353
184.461	13.0617
187.836	6.02557
191.211	2.29034
194.586	0.976974
197.96	0.484489
201.335	0.245529
204.71	0.244926
208.085	0.309265
211.46	0.052315
214.835	1.80171
218.209	6.86864
221.584	15.0782
224.959	27.6987
228.334	43.3226
231.709	65.285
235.083	82.8633
238.458	111.162
241.833	132.674
245.208	50.6439
248.583	14.3142
251.958	4.38561
255.332	2.5663
258.707	3.92447
262.082	8.11482
265.457	15.2044
268.832	42.7219
272.207	51.118
275.581	26.3671
278.956	15.2576
282.331	10.8336
285.706	2.41096
289.08	2.62431
292.455	3.16014
295.83	1.67718
299.205	4.41335
302.58	8.47633
305.955	12.4378
309.329	20.2881
312.704	38.0914
316.079	58.0734
319.454	88.8543
322.829	82
326.204	53.1572
329.578	45.8742
332.953	55.7614
336.328	64.7699
339.703	63.6072
343.078	79.6043
346.452	111.484
349.827	163.077
353.202	256.984
356.577	386.197
359.952	529.063
363.327	624.116
366.701	803.004
370.076	1084.73
373.451	1038.94
376.826	628.715
380.201	351.431
383.575	213.629
386.95	144.093
390.325	106.175
393.7	82.7087
397.075	71.6867
400.45	65.0768
403.824	46.3887
407.199	22.8329
410.574	9.54507
413.949	2.00025
417.324	1.15471
420.698	3.534
424.073	3.41904
427.448	3.70641
430.823	0.649925
434.198	1.22459
437.572	5.14037
440.947	10.759
444.322	13.3053
447.697	13.7466
451.072	12.0666
454.447	13.8264
457.821	13.5553
461.196	11.6485
464.571	9.1738
467.946	6.96831
471.321	7.78108
474.695	9.6642
478.07	13.3863
481.445	20.7198
484.82	35.2637
488.195	50.2838
491.57	63.5137
494.944	66.0987
498.319	42.997
501.694	26.8156
505.069	19.0953
508.444	16.4121
511.818	20.5041
515.193	28.3702
518.568	47.8503
521.943	73.9455
525.318	120.161
528.692	191.377
532.067	274.107
535.442	254.654
538.817	121.939
542.192	50.0591
545.567	27.3436
548.941	20.9599
552.316	19.7437
555.691	21.1473
559.066	22.7503
562.441	18.4594
565.816	14.5547
569.19	8.31309
572.565	3.26246
575.94	0.470852
579.315	2.2625
582.69	3.61639
586.064	1.25556
589.439	3.52642
592.814	8.32233
596.189	13.6044
599.564	18.1388
602.938	20.8441
606.313	24.4179
609.688	26.5023
613.063	29.537
616.438	32.3508
619.812	32.1643
623.187	24.5354
626.562	16.8062
629.937	10.4352
633.312	7.66687
636.687	4.47984
640.061	4.95384
643.436	7.16636
646.811	8.16181
650.186	9.88994
653.561	9.43032
656.936	10.035
660.31	8.47574
663.685	10.4764
667.06	13.8832
670.435	14.944
673.81	15.1674
677.184	15.0562
680.559	12.286
683.934	8.13769
687.309	6.49981
690.684	4.40245
694.058	3.60803
697.433	2.22904
700.808	1.63212
704.183	0.835182
707.558	0.543385
710.933	0.254227
714.307	0.051426
717.682	0.266823
721.057	1.30791
724.432	1.30591
727.807	0.604897
731.182	0.016972
734.556	2.16896
737.931	2.06253
741.306	3.2263
744.681	4.58425
748.056	6.21944
751.43	9.03316
754.805	11.9274
758.18	14.6035
761.555	22.3436
764.93	24.879
768.304	19.7057
771.679	11.4979
775.054	5.32902
778.429	0.550911
781.804	1.46739
785.178	2.24982
788.553	1.78723
791.928	5.08925
795.303	17.03
798.678	31.0064
802.053	50.8111
805.427	79.1283
808.802	109.114
812.177	146.153
815.552	181.962
818.927	199.474
822.302	183.586
825.676	154.357
829.051	119.993
832.426	92.997
835.801	75.8969
839.176	64.067
842.55	60.7326
845.925	61.8178
849.3	64.6413
852.675	67.1859
856.05	77.4652
859.424	102.124
862.799	139.645
866.174	189.779
869.549	247.58
872.924	305.443
876.299	317.318
879.673	259.844
883.048	179.575
886.423	113.044
889.798	71.4197
893.173	44.767
896.548	28.3524
899.922	15.235
903.297	7.3307
906.672	1.30751
910.047	0.196213
913.422	2.7342
916.796	3.04222
920.171	1.21779
923.546	0.759499
926.921	1.78484
930.296	4.25082
933.67	7.83412
937.045	8.80908
940.42	8.71323
943.795	7.48729
947.17	4.20663
950.544	1.11701
953.919	0.072781
957.294	0.743523
960.669	6.842
964.044	12.0294
967.419	16.5424
970.793	20.4209
974.168	23.9841
977.543	27.554
980.918	29.0219
984.293	30.6477
987.668	32.9346
991.042	33.8688
994.417	35.6459
997.792	40.9362
1001.17	49.684
1004.54	86.41
1007.92	193.955
1011.29	68.588
1014.67	20.5739
1018.04	12.4631
1021.42	12.6772
1024.79	11.3535
1028.16	8.02452
1031.54	3.09083
1034.91	1.35353
1038.29	0.671566
1041.66	1.25656
1045.04	0.342606
1048.41	0.306376
1051.79	0.61824
1055.16	0.928598
1058.54	0.095406
1061.91	0.034101
1065.29	1.21227
1068.66	0.755062
1072.04	1.40571
1075.41	0.736126
1078.79	0.979128
1082.16	1.46188
1085.54	2.19924
1088.91	2.30157
1092.29	1.60799
1095.66	2.83153
1099.04	1.50723
1102.41	2.66442
1105.79	4.70193
1109.16	3.73023
1112.54	5.14847
1115.91	5.38829
1119.29	5.70078
1122.66	4.15241
1126.04	4.66156
1129.41	4.9106
1132.79	5.23783
1136.16	5.18186
1139.53	6.26195
1142.91	4.58869
1146.28	4.42571
1149.66	2.75109
1153.03	2.00874
1156.41	0.769497
1159.78	0.767729
1163.16	0.18709
1166.53	0.354263
1169.91	0.704054
1173.28	0.014658
1176.66	1.25914
1180.03	0.363407
1183.41	0.67861
1186.78	0.988993
1190.16	0.852741
1193.53	1.70736
1196.91	1.95946
1200.28	2.3909
1203.66	1.44743
1207.03	1.78941
1210.4	1.06338
1213.78	1.96808
1217.15	3.02386
1220.53	2.51146
1223.9	1.1404
1227.28	2.1504
1230.65	2.67459
1234.03	1.85776
1237.4	2.37414
1240.78	1.70124
1244.15	1.37725
1247.53	1.60191
1250.9	1.00985
1254.28	0.375326
1257.65	0.897556
1261.03	1.37334
1264.4	0.470177
1267.78	1.30783
1271.15	0.145066
1274.53	3.06828
1277.9	0.370615
1281.28	0.511686
1284.65	1.17094
