Measurement: Raman, 532 nm, unoriented, Raman Data Processed
Mineral: Groutite
Rruff sample: R070583
Ideal chemistry: Mn^3+^O(OH)
Locality: Marble Canyon, Gunnison County, Colorado, USA
Source: James Shigley
Description: Black elongated prismatic
Raman shift (cm-1)	intensity
157.897	0
160.79	2.95628
163.682	4.39526
166.575	0.716362
169.468	2.04446
172.36	3.85795
175.253	2.74689
178.146	4.37629
181.038	2.16159
183.931	2.05217
186.824	2.57229
189.717	0.217426
192.609	0.727016
195.502	0.299873
198.395	0.217464
201.287	2.19472
204.18	3.18216
207.073	4.75216
209.965	3.89048
212.858	4.80699
215.751	8.07517
218.644	16.1065
221.536	7.90723
224.429	2.77137
227.322	2.98096
230.214	3.71349
233.107	3.54855
236	7.16314
238.893	14.0996
241.785	18.1068
244.678	24.3747
247.571	29.8842
250.463	33.5369
253.356	40.2286
256.249	45.0456
259.141	42.1868
262.034	31.1251
264.927	23.031
267.82	18.1437
270.712	15.4508
273.605	8.59909
276.498	10.3334
279.39	10.3629
282.283	12.9276
285.176	14.5596
288.068	5.87021
290.961	2.01876
293.854	0.394737
296.747	0.134064
299.639	0.581661
302.532	0.304714
305.425	1.2016
308.317	1.44079
311.21	1.41895
314.103	1.42607
316.995	0.117714
319.888	2.65668
322.781	2.08369
325.673	5.24729
328.566	6.29002
331.459	12.1225
334.352	15.9324
337.244	23.1506
340.137	35.2617
343.03	47.3628
345.922	62.5775
348.815	76.7411
351.708	95.9635
354.601	119.33
357.493	130.929
360.386	109.534
363.279	71.5704
366.171	52.6402
369.064	58.7505
371.957	79.7692
374.849	90.6725
377.742	110.001
380.635	135.358
383.527	186.232
386.42	238.065
389.313	204.258
392.206	94.0003
395.098	43.5826
397.991	25.802
400.884	15.7131
403.776	10.4477
406.669	8.8214
409.562	8.43649
412.454	6.95075
415.347	5.85726
418.24	3.90096
421.132	3.85301
424.025	2.0016
426.918	3.31529
429.811	3.12334
432.703	2.41885
435.596	1.7968
438.489	0.957703
441.381	1.81673
444.274	0.473606
447.167	0.302025
450.06	2.00206
452.952	0.440678
455.845	1.65861
458.738	0.073971
461.63	1.3016
464.523	2.14386
467.416	0.788754
470.308	1.27116
473.201	0.778183
476.094	0.084568
478.986	3.74471
481.879	5.66497
484.772	9.36863
487.665	13.9548
490.557	20.2908
493.45	21.5569
496.343	21.6493
499.235	29.8507
502.128	40.3037
505.021	60.7074
507.913	91.131
510.806	124.826
513.699	166.546
516.592	215.275
519.484	266.857
522.377	318.642
525.27	368.673
528.162	394.437
531.055	395.204
533.948	366.243
536.841	337.151
539.733	333.253
542.626	357.781
545.519	408.49
548.411	476.527
551.304	548.277
554.197	606.597
557.089	610.193
559.982	541.741
562.875	417.145
565.768	294.499
568.66	203.547
571.553	138.198
574.446	94.542
577.338	65.8928
580.231	47.8096
583.124	30.1058
586.016	22.081
588.909	12.5627
591.802	7.69876
594.694	2.43742
597.587	0.502205
600.48	0.973709
603.373	1.23528
606.265	0.606712
609.158	2.82605
612.051	5.67263
614.943	7.87894
617.836	11.237
620.729	12.2228
623.621	12.2306
626.514	10.883
629.407	5.83312
632.3	3.99294
635.192	2.26419
638.085	0.26786
640.978	1.26771
643.87	1.88167
646.763	1.87407
649.656	1.56963
652.548	0.549206
655.441	0.214951
658.334	1.56659
661.227	0.811615
664.119	1.10861
667.012	3.28014
669.905	1.29664
672.797	2.04242
675.69	2.57265
678.583	4.77766
681.476	3.77594
684.368	6.15247
687.261	5.08297
690.154	5.47
693.046	8.22537
695.939	8.47485
698.832	7.04689
701.724	9.3555
704.617	7.25358
707.51	7.50174
710.403	7.0523
713.295	7.65431
716.188	8.07741
719.081	8.97462
721.973	7.54087
724.866	8.30224
727.759	7.17053
730.651	8.50889
733.544	6.91571
736.437	7.7668
739.33	6.12976
742.222	7.48142
745.115	6.50213
748.008	7.55722
750.9	6.23797
753.793	5.82495
756.686	5.95659
759.578	6.47911
762.471	6.08472
765.364	5.07209
768.256	4.50819
771.149	3.06342
774.042	3.89177
776.935	2.81337
779.827	2.55482
782.72	2.04893
785.613	2.33827
788.505	1.23476
791.398	0.906315
794.291	1.17059
797.183	0.544888
800.076	0.602295
802.969	1.95097
805.862	1.66704
808.754	1.21075
811.647	0.715736
814.54	0.176365
817.432	0.420776
820.325	0.129826
823.218	0.098305
826.111	1.46666
829.003	1.36332
831.896	0.178844
834.789	0.293789
837.681	1.91935
840.574	1.73972
843.467	2.17196
846.359	2.57694
849.252	0.84016
852.145	1.38248
855.038	0.959579
857.93	1.3888
860.823	0.741924
863.716	1.07735
866.608	1.81627
869.501	1.54417
872.394	2.39386
875.286	3.12898
878.179	1.52634
881.072	2.38907
883.965	2.32895
886.857	1.43864
889.75	1.6432
892.643	0.48476
895.535	1.44823
898.428	1.00246
901.321	0.329464
904.213	0.346649
907.106	1.18975
909.999	0.199627
912.891	0.594654
915.784	0.96426
918.677	1.1782
921.57	1.22326
924.462	0.261311
927.355	0.204479
930.248	1.11584
933.14	1.05841
936.033	1.29211
938.926	1.28246
941.818	1.06358
944.711	0.730793
947.604	3.39725
950.497	2.55383
953.389	2.9408
956.282	3.05056
959.175	2.54945
962.067	2.42418
964.96	2.06495
967.853	1.51823
970.745	2.43748
973.638	1.51229
976.531	2.94097
979.423	2.951
982.316	1.58602
985.209	2.78408
988.102	2.31927
990.994	3.28986
993.887	2.04902
996.78	2.34181
999.672	2.76647
1002.57	1.9519
1005.46	2.59666
1008.35	1.72528
1011.24	0.693813
1014.14	0.571533
1017.03	1.30819
1019.92	1.63556
1022.81	0.562321
1025.71	0.661003
1028.6	1.01024
1031.49	0.142822
1034.38	0.941017
1037.28	0.984875
1040.17	1.15205
1043.06	1.69163
1045.96	0.980732
1048.85	1.22795
1051.74	1.82547
1054.63	2.13295
1057.53	0.379986
1060.42	0.523277
1063.31	1.85587
1066.2	0.596294
1069.1	1.15662
1071.99	1.58928
1074.88	1.47303
1077.78	1.67706
1080.67	0.961254
1083.56	1.00941
1086.45	0.794334
1089.35	0.254402
1092.24	1.40045
1095.13	0.128784
1098.02	1.43529
1100.92	0.136162
1103.81	1.82728
1106.7	0.621094
1109.6	0.691761
1112.49	0.713703
1115.38	1.15129
1118.27	0.022392
1121.17	0.894016
1124.06	1.17981
1126.95	1.24445
1129.84	1.78016
1132.74	1.95235
1135.63	3.15111
1138.52	4.30975
1141.41	4.54343
1144.31	3.74625
1147.2	3.71688
1150.09	2.98158
1152.98	1.45978
1155.88	1.30396
1158.77	0.443016
1161.66	0.059486
1164.56	2.4106
1167.45	2.11426
1170.34	1.42047
1173.23	1.33949
1176.13	3.11482
1179.02	2.29021
1181.91	3.87403
1184.81	2.8781
1187.7	1.9828
1190.59	2.79854
1193.48	2.82909
1196.38	3.4725
1199.27	3.2754
1202.16	3.37511
1205.05	2.5856
1207.95	1.07784
1210.84	4.35044
1213.73	1.77449
1216.62	1.36515
1219.52	0.921539
1222.41	0.814606
1225.3	2.01942
1228.2	2.06656
1231.09	1.562
1233.98	2.35302
1236.87	2.73295
1239.77	2.92474
1242.66	2.54953
1245.55	3.13135
1248.44	2.6724
1251.34	3.04263
1254.23	3.57605
1257.12	2.02515
1260.02	1.81901
1262.91	2.87939
1265.8	1.7197
1268.69	1.3635
1271.59	0.010082
1274.48	0.081406
1277.37	1.22104
1280.26	0.790981
1283.16	0.715584
1286.05	0.115765
1288.94	0.548092
1291.84	0.044041
1294.73	1.43992
1297.62	1.31512
1300.51	0.265694
1303.41	1.32393
