Measurement: Raman, 780 nm, unoriented, Raman Data Processed
Mineral: Groutite
Rruff sample: R080004
Ideal chemistry: Mn^3+^O(OH)
Locality: Roberts mine, Crosby, Minnesota, USA
Source: Michael Scott
Description: Black crystalline and in some cases striated.
Raman shift (cm-1)	intensity
148.507	0
151.4	0.517128
154.292	0.262938
157.185	0.407412
160.078	1.0815
162.971	0.931318
165.863	0.318926
168.756	1.31398
171.649	1.31599
174.541	0.59614
177.434	1.02395
180.327	0.649406
183.22	0.463335
186.112	0.303606
189.005	0.204046
191.898	0.232464
194.79	0.044127
197.683	0.434998
200.576	1.52619
203.468	1.0748
206.361	2.68332
209.254	2.62495
212.147	4.20941
215.039	4.2966
217.932	5.26957
220.825	3.51293
223.717	1.90418
226.61	1.54678
229.503	2.1457
232.395	2.91049
235.288	3.56506
238.181	4.6901
241.073	5.00353
243.966	6.17685
246.859	7.0202
249.752	7.41922
252.644	7.96113
255.537	8.84008
258.43	9.08897
261.322	10.6473
264.215	10.196
267.108	11.4169
270	10.8267
272.893	10.9845
275.786	10.7817
278.679	10.2425
281.571	7.91669
284.464	3.24953
287.357	0.578148
290.249	0.360027
293.142	0.422428
296.035	0.578745
298.928	0.263315
301.82	0.089392
304.713	0.74654
307.606	0.60944
310.498	1.56671
313.391	2.16682
316.284	3.21498
319.176	4.46703
322.069	4.88501
324.962	5.99685
327.854	7.17391
330.747	9.36183
333.64	11.2371
336.533	12.5443
339.425	15.2725
342.318	17.8549
345.211	19.8964
348.103	21.7291
350.996	23.4115
353.889	24.3257
356.781	24.9998
359.674	27.0842
362.567	31.1399
365.46	38.2521
368.352	46.1432
371.245	53.6661
374.138	60.3548
377.03	66.2997
379.923	69.6654
382.816	69.2656
385.709	58.9848
388.601	42.4759
391.494	27.2141
394.387	16.7082
397.279	11.1707
400.172	8.16535
403.065	5.99275
405.957	4.59159
408.85	3.60276
411.743	2.9611
414.635	2.02377
417.528	1.43602
420.421	1.17003
423.314	0.921341
426.206	0.768461
429.099	0.651402
431.992	0.285389
434.884	0.41721
437.777	0.050858
440.67	0.007175
443.562	0.368498
446.455	0.276796
449.348	0.509769
452.241	0.215117
455.133	0.520109
458.026	0.770926
460.919	0.192051
463.811	0.041206
466.704	1.07957
469.597	1.9196
472.49	3.79591
475.382	5.39495
478.275	6.79493
481.168	7.95308
484.06	9.12526
486.953	9.72587
489.846	9.26416
492.738	7.44309
495.631	6.89426
498.524	7.159
501.416	10.136
504.309	12.6604
507.202	15.3996
510.095	20.0394
512.987	23.9101
515.88	28.5657
518.773	31.978
521.665	34.9725
524.558	37.3148
527.451	39.0462
530.343	40.7033
533.236	42.1756
536.129	44.8397
539.022	48.0712
541.914	52.285
544.807	54.7868
547.7	55.7669
550.592	55.7683
553.485	52.5404
556.378	46.2361
559.27	37.091
562.163	28.8869
565.056	19.6896
567.949	12.7935
570.841	7.65243
573.734	4.6335
576.627	2.06103
579.519	0.628326
582.412	0.453556
585.305	0.039703
588.197	0.480091
591.09	2.76588
593.983	5.40909
596.875	9.75955
599.768	14.9587
602.661	21.0406
605.554	28.2628
608.446	33.7814
611.339	38.1725
614.232	42.243
617.125	42.545
620.017	38.8045
622.91	32.6359
625.803	25.8641
628.695	19.6987
631.588	14.699
634.481	10.0788
637.373	6.96355
640.266	4.57628
643.159	2.79507
646.052	1.74741
648.944	0.9478
651.837	0.190126
654.73	0.327656
657.622	0.282852
660.515	0.322048
663.408	0.327166
666.3	0.294188
669.193	0.335289
672.086	0.009144
674.979	0.107855
677.871	0.345764
680.764	0.315437
683.657	0.507496
686.549	0.6321
689.442	1.09904
692.335	1.26644
695.227	1.28175
698.12	1.99694
701.013	2.29856
703.905	2.0789
706.798	2.41993
709.691	2.76456
712.584	2.58817
715.476	2.49065
718.369	2.65433
721.262	2.82309
724.154	2.3891
727.047	2.40581
729.94	2.0941
732.832	1.66239
735.725	2.1668
738.618	1.71373
741.511	1.36598
744.403	1.08982
747.296	1.25399
750.189	1.21285
753.081	0.834324
755.974	1.27533
758.867	0.720055
761.76	1.15673
764.652	1.12137
767.545	0.511271
770.438	0.968029
773.33	0.603319
776.223	0.692692
779.116	0.54367
782.008	0.220488
784.901	0.313762
787.794	0.000712
790.687	0.455027
793.579	0.642465
796.472	0.232782
799.365	0.628825
802.257	0.279652
805.15	0.075272
808.043	0.491165
810.935	0.242611
813.828	0.296614
816.721	0.405595
819.614	0.777899
822.506	0.211758
825.399	0.584485
828.292	0.370449
831.184	0.653517
834.077	0.718519
836.97	0.60596
839.862	0.808625
842.755	1.09484
845.648	0.329048
848.54	0.542991
851.433	0.662841
854.326	0.601905
857.219	0.498776
860.111	0.696963
863.004	0.557969
865.897	0.938913
868.789	0.651683
871.682	0.491803
874.575	0.912288
877.467	1.14588
880.36	0.540936
883.253	0.563647
886.146	0.56163
889.038	0.552114
891.931	0.048981
894.824	0.028178
897.716	0.314877
900.609	0.213873
903.502	0.19972
906.394	0.075936
909.287	0.103055
912.18	0.058358
915.073	0.070407
917.965	0.434175
920.858	0.064807
923.751	0.471894
926.643	0.052147
929.536	0.040776
932.429	0.067176
935.321	0.162626
938.214	0.189584
941.107	0.370713
944	0.311186
946.892	0.351306
949.785	0.194051
952.678	0.391614
955.57	0.573054
958.463	0.816582
961.356	0.549993
964.248	0.767375
967.141	0.445045
970.034	0.858082
972.927	0.424214
975.819	0.89979
978.712	0.631785
981.605	0.611028
984.497	0.759302
987.39	0.54479
990.283	0.534397
993.175	0.511922
996.068	0.28114
998.961	0.422241
1001.85	0.320446
1004.75	0.524182
1007.64	0.254257
1010.53	0.196396
1013.42	0.072545
1016.32	0.37712
1019.21	0.278709
1022.1	0.084418
1024.99	0.424654
1027.89	0.116665
1030.78	0.20159
1033.67	0.481158
1036.57	0.416865
1039.46	0.398808
1042.35	0.017254
1045.24	0.318553
1048.14	0.307057
1051.03	0.389839
1053.92	0.401987
1056.82	0.105552
1059.71	0.36828
1062.6	0.466125
1065.49	0.509222
1068.39	0.29601
1071.28	0.160359
1074.17	0.285269
1077.06	0.126324
1079.96	0.299817
1082.85	0.251012
1085.74	0.169333
1088.63	0.209599
1091.53	0.040819
1094.42	0.248693
1097.31	0.417246
1100.2	0.521333
1103.1	0.08791
1105.99	0.206966
1108.88	0.215711
1111.78	0.187515
1114.67	0.211493
1117.56	0.212688
1120.45	0.038412
1123.35	0.221193
1126.24	0.18375
1129.13	0.454112
1132.03	0.062971
1134.92	0.314384
1137.81	0.082054
1140.7	0.389392
1143.6	0.6233
1146.49	0.255211
1149.38	0.137777
1152.27	0.204403
1155.17	0.412539
1158.06	0.252299
1160.95	0.216961
1163.85	0.205502
1166.74	0.134007
1169.63	0.185307
1172.52	0.333694
1175.42	0.379164
1178.31	0.616336
1181.2	0.425133
1184.09	0.498234
1186.99	0.147542
1189.88	0.655838
1192.77	0.42312
1195.66	0.252158
1198.56	0.022547
1201.45	0.171999
1204.34	0.315069
1207.23	0.087422
1210.13	0.174638
1213.02	0.418161
1215.91	0.815736
1218.81	0.478681
1221.7	0.305558
1224.59	0.516976
1227.48	0.368554
1230.38	0.392031
1233.27	0.612444
1236.16	0.278245
1239.06	0.464578
1241.95	0.348429
1244.84	0.616703
1247.73	0.310375
1250.63	0.249867
1253.52	0.438491
1256.41	0.360273
1259.3	0.392681
1262.2	0.060522
1265.09	0.1156
1267.98	0.495952
1270.88	0.187558
1273.77	0.598978
1276.66	0.377314
1279.55	0.239028
1282.44	0.015063
1285.34	0.304813
1288.23	0.265368
