Measurement: Raman, 780 nm, unoriented, Raman Data Processed
Mineral: Groutite
Rruff sample: R070583
Ideal chemistry: Mn^3+^O(OH)
Locality: Marble Canyon, Gunnison County, Colorado, USA
Source: James Shigley
Description: Black elongated prismatic
Raman shift (cm-1)	intensity
157.087	0
159.98	2.43233
162.873	1.50974
165.765	1.31455
168.658	1.02831
171.551	3.34182
174.444	1.5389
177.336	2.37078
180.229	0.462555
183.122	0.932159
186.014	1.03063
188.907	1.22673
191.8	0.577648
194.692	1.71634
197.585	5.13452
200.478	5.39996
203.37	6.52547
206.263	8.8686
209.156	10.0786
212.049	10.9792
214.941	10.9233
217.834	9.7161
220.727	10.0488
223.619	14.5564
226.512	18.4336
229.405	23.0393
232.298	32.7789
235.19	39.4057
238.083	49.0574
240.976	55.899
243.868	57.4195
246.761	59.5577
249.654	54.9493
252.546	49.3197
255.439	38.9317
258.332	32.746
261.224	27.3645
264.117	30.5159
267.01	29.0543
269.903	28.4859
272.795	27.8653
275.688	31.1673
278.581	26.9446
281.473	21.5046
284.366	10.7384
287.259	2.49472
290.151	0.011135
293.044	1.94482
295.937	0.788189
298.83	0.959133
301.722	0.142048
304.615	0.644226
307.508	1.82882
310.4	2.22122
313.293	5.55966
316.186	3.06619
319.079	6.3704
321.971	8.11151
324.864	11.704
327.757	16.1956
330.649	21.9494
333.542	32.0267
336.435	43.9461
339.327	55.2948
342.22	69.1205
345.113	78.6837
348.005	86.7838
350.898	93.1099
353.791	90.0445
356.683	85.1352
359.576	87.1281
362.469	110.275
365.362	176.327
368.254	280.774
371.147	340.794
374.04	382.773
376.932	427.882
379.825	440.937
382.718	397.36
385.611	291.25
388.503	158.673
391.396	80.2982
394.289	43.8725
397.181	27.8443
400.074	19.7777
402.967	12.4345
405.859	9.76807
408.752	7.38336
411.645	5.28587
414.538	4.42903
417.43	1.13891
420.323	2.39202
423.216	1.9356
426.108	2.36569
429.001	1.11235
431.894	1.28621
434.786	0.030567
437.679	0.140331
440.572	0.854576
443.464	0.523178
446.357	0.432621
449.25	2.70551
452.143	1.40577
455.035	1.37273
457.928	0.184078
460.821	0.004425
463.713	0.055355
466.606	4.04299
469.499	7.70655
472.392	20.9081
475.284	27.164
478.177	33.2207
481.07	40.2547
483.962	45.2095
486.855	41.516
489.748	34.4162
492.64	28.4102
495.533	27.3417
498.426	35.9701
501.318	45.3781
504.211	63.6855
507.104	85.7387
509.997	108.293
512.889	134.403
515.782	158.257
518.675	177.674
521.567	186.589
524.46	192.852
527.353	191.725
530.245	193.39
533.138	200.692
536.031	214.89
538.924	247.507
541.816	278.46
544.709	306.535
547.602	322.505
550.494	319.94
553.387	295.965
556.28	252.614
559.173	190.178
562.065	143.319
564.958	99.2035
567.851	67.7669
570.743	46.9009
573.636	31.6225
576.529	20.9521
579.421	12.3947
582.314	5.97496
585.207	1.72054
588.099	0.80669
590.992	0.648132
593.885	2.47625
596.778	1.12045
599.67	0.865406
602.563	3.3512
605.456	5.1119
608.348	8.54828
611.241	11.2942
614.134	12.1862
617.026	10.6896
619.919	9.15935
622.812	8.23081
625.705	4.77103
628.597	2.31662
631.49	1.60855
634.383	0.800541
637.275	0.487083
640.168	0.079605
643.061	0.80328
645.953	0.041508
648.846	0.265209
651.739	0.385674
654.631	1.74626
657.524	0.760693
660.417	1.63433
663.31	1.54193
666.202	0.774784
669.095	2.28125
671.988	0.43755
674.88	3.44447
677.773	2.46924
680.666	3.72761
683.558	4.36037
686.451	3.71041
689.344	4.93051
692.237	4.34412
695.129	3.93501
698.022	5.62788
700.915	4.07837
703.807	3.8612
706.7	4.34072
709.593	3.70496
712.486	5.10286
715.378	4.88577
718.271	4.24742
721.164	4.04429
724.056	3.67689
726.949	3.44922
729.842	3.00917
732.734	1.31276
735.627	0.378323
738.52	1.91336
741.413	1.35451
744.305	2.30543
747.198	2.29079
750.091	1.52188
752.983	2.18916
755.876	2.71257
758.769	4.24652
761.661	0.589058
764.554	1.67874
767.447	1.00365
770.34	2.01133
773.232	0.753109
776.125	1.12304
779.018	1.00771
781.91	1.19677
784.803	1.61211
787.696	0.330196
790.588	0.776714
793.481	3.39142
796.374	1.09201
799.266	2.59475
802.159	1.89921
805.052	0.709583
807.945	2.06156
810.837	1.22098
813.73	3.31838
816.623	3.44809
819.515	3.30823
822.408	4.38516
825.301	3.87392
828.193	1.69549
831.086	3.54862
833.979	4.33246
836.872	5.29741
839.764	6.49855
842.657	3.97333
845.55	3.77846
848.442	3.98608
851.335	4.22508
854.228	4.58908
857.12	3.4461
860.013	2.93721
862.906	4.86043
865.799	5.31349
868.691	5.61345
871.584	2.93055
874.477	5.13038
877.369	3.29296
880.262	3.64075
883.155	1.90233
886.047	3.88034
888.94	2.36604
891.833	1.41798
894.726	2.78632
897.618	0.829334
900.511	0.586178
903.404	1.15142
906.296	0.707937
909.189	0.733511
912.082	0.109089
914.974	1.03256
917.867	0.546957
920.76	0.410349
923.653	0.294329
926.545	0.037483
929.438	0.800449
932.331	2.26808
935.223	0.027992
938.116	2.55121
941.009	1.66641
943.901	2.52007
946.794	2.29652
949.687	1.11268
952.58	1.56568
955.472	1.47424
958.365	2.0452
961.258	1.48675
964.15	1.55396
967.043	2.33657
969.936	2.67819
972.828	1.19274
975.721	2.48924
978.614	2.34689
981.506	2.62298
984.399	1.52541
987.292	1.28351
990.185	1.33079
993.077	2.25956
995.97	0.799591
998.863	1.20913
1001.75	0.208546
1004.65	1.7753
1007.54	1.1611
1010.43	1.14816
1013.33	1.24202
1016.22	0.726507
1019.11	0.811575
1022	1.48525
1024.9	1.33087
1027.79	0.481882
1030.68	1.38439
1033.58	1.3761
1036.47	0.428314
1039.36	1.76446
1042.25	0.107931
1045.15	0.165775
1048.04	1.81687
1050.93	2.36724
1053.82	0.858376
1056.72	2.11373
1059.61	0.86866
1062.5	2.04449
1065.39	1.14296
1068.29	1.49927
1071.18	1.52085
1074.07	1.77872
1076.97	0.463684
1079.86	1.73896
1082.75	0.510492
1085.64	1.52784
1088.54	0.306395
1091.43	0.587923
1094.32	0.514824
1097.21	2.26848
1100.11	0.317123
1103	0.876547
1105.89	0.108923
1108.79	1.24193
1111.68	2.21673
1114.57	1.59169
1117.46	1.07413
1120.36	1.95655
1123.25	1.24524
1126.14	1.20983
1129.03	3.99016
1131.93	3.24728
1134.82	5.3494
1137.71	3.97008
1140.61	4.39754
1143.5	2.38331
1146.39	1.22494
1149.28	1.92308
1152.18	0.419001
1155.07	0.947821
1157.96	0.528709
1160.85	2.04512
1163.75	0.474091
1166.64	1.62342
1169.53	1.51808
1172.42	0.695194
1175.32	0.932486
1178.21	0.652079
1181.1	1.56777
1183.99	0.928125
1186.89	0.703245
1189.78	0.480106
1192.67	0.445858
1195.57	2.51394
1198.46	2.44827
1201.35	2.21692
1204.24	3.2664
1207.14	1.08093
1210.03	0.520931
1212.92	2.63031
1215.82	1.27874
1218.71	2.22711
1221.6	2.24782
1224.49	1.20848
1227.39	1.16666
1230.28	2.82178
1233.17	0.548944
1236.06	2.96966
1238.96	2.90798
1241.85	1.60852
1244.74	3.54964
1247.63	1.87158
1250.53	1.73575
1253.42	0.045954
1256.31	0.478237
1259.21	2.22813
1262.1	0.772581
1264.99	2.07917
1267.88	0.047131
1270.78	0.939522
1273.67	0.978849
1276.56	1.91765
1279.45	0.443838
1282.35	1.80904
1285.24	1.1535
