Measurement: Raman, 532 nm, unoriented, Raman Data Processed
Mineral: Groutite
Rruff sample: R080004
Ideal chemistry: Mn^3+^O(OH)
Locality: Roberts mine, Crosby, Minnesota, USA
Source: Michael Scott
Description: Black crystalline and in some cases striated.
Raman shift (cm-1)	intensity
148.368	0
151.26	0.949471
154.153	0.732994
157.046	0.442396
159.938	0.123556
162.831	0.94759
165.724	0.62252
168.616	1.09114
171.509	1.75737
174.402	1.79036
177.294	1.2447
180.187	0.764559
183.08	0.745547
185.973	0.76334
188.865	0.254201
191.758	0.311685
194.651	0.171453
197.543	0.186792
200.436	0.617518
203.329	0.406835
206.221	0.60423
209.114	1.13369
212.007	1.68085
214.9	3.23144
217.792	5.63374
220.685	2.96917
223.578	0.267859
226.47	0.46711
229.363	0.039061
232.256	0.910484
235.149	1.41108
238.041	2.77941
240.934	4.1554
243.827	5.28053
246.719	6.87092
249.612	9.70036
252.505	11.2855
255.397	13.4604
258.29	12.562
261.183	11.1134
264.075	9.29167
266.968	7.62548
269.861	6.2436
272.754	5.1537
275.646	5.2288
278.539	5.21321
281.432	5.83465
284.324	4.41483
287.217	1.81914
290.11	0.616917
293.002	0.162655
295.895	0.310217
298.788	0.14999
301.681	0.184198
304.573	0.436577
307.466	0.027746
310.359	0.105085
313.251	0.13973
316.144	0.962351
319.037	1.31239
321.93	2.01546
324.822	2.07586
327.715	2.85415
330.608	4.27891
333.5	5.1241
336.393	7.22143
339.286	9.96948
342.178	12.5348
345.071	16.1129
347.964	20.4955
350.856	25.1104
353.749	29.8475
356.642	31.3335
359.535	26.4996
362.427	20.0162
365.32	16.5257
368.213	17.2961
371.105	19.8404
373.998	24.1309
376.891	29.7256
379.784	36.972
382.676	50.0995
385.569	56.8317
388.462	45.2391
391.354	26.2026
394.247	14.0886
397.14	8.58958
400.032	5.66271
402.925	4.70302
405.818	3.73986
408.711	3.11355
411.603	2.62838
414.496	2.41018
417.389	2.37473
420.281	2.18397
423.174	1.87516
426.067	1.59496
428.959	1.41924
431.852	1.26806
434.745	0.643709
437.637	0.683994
440.53	0.769129
443.423	0.472265
446.316	0.646225
449.208	0.110647
452.101	0.188824
454.994	0.006723
457.886	0.152088
460.779	0.438429
463.672	0.379696
466.565	0.310505
469.457	1.16459
472.35	0.474869
475.243	0.095671
478.135	0.620169
481.028	1.13649
483.921	2.5117
486.813	3.85966
489.706	6.26193
492.599	6.07892
495.491	5.63533
498.384	6.05173
501.277	8.03083
504.17	12.7575
507.062	17.4669
509.955	24.2691
512.848	32.8866
515.74	40.5714
518.633	51.2792
521.526	60.7013
524.418	68.0975
527.311	72.3644
530.204	70.4687
533.097	67.2313
535.989	63.5074
538.882	62.3876
541.775	67.4794
544.667	76.0001
547.56	85.9402
550.453	96.2263
553.346	104.972
556.238	102.171
559.131	89.697
562.024	70.8489
564.916	51.9243
567.809	34.5323
570.702	22.6946
573.594	14.4842
576.487	8.25403
579.38	3.9712
582.273	1.58808
585.165	0.251064
588.058	0.18084
590.951	0.083096
593.843	2.24924
596.736	5.45727
599.629	11.5362
602.521	20.3815
605.414	31.8648
608.307	45.9141
611.199	60.6763
614.092	78.9802
616.985	92.2465
619.878	98.6524
622.77	90.098
625.663	72.7641
628.556	54.8326
631.448	39.5603
634.341	27.9291
637.234	19.9732
640.126	13.3305
643.019	9.16663
645.912	5.91801
648.805	3.52807
651.697	2.03164
654.59	0.955971
657.483	0.430616
660.375	0.091909
663.268	0.37623
666.161	0.352087
669.053	0.397854
671.946	0.498602
674.839	0.29339
677.732	0.15312
680.624	0.030506
683.517	0.35202
686.41	0.948896
689.302	1.12431
692.195	1.32089
695.088	1.30265
697.981	1.84604
700.873	2.24035
703.766	2.29038
706.659	3.0998
709.551	2.79185
712.444	3.47839
715.337	3.34086
718.229	3.67457
721.122	3.85439
724.015	3.69901
726.907	3.66018
729.8	3.03904
732.693	2.88841
735.586	3.09873
738.478	2.51691
741.371	2.42069
744.264	2.0673
747.156	2.19512
750.049	2.32874
752.942	1.6613
755.834	1.89626
758.727	1.87855
761.62	1.74729
764.513	1.93486
767.405	1.78324
770.298	1.27375
773.191	1.48956
776.083	1.75464
778.976	1.34807
781.869	0.926815
784.761	0.849384
787.654	1.14628
790.547	1.22319
793.439	1.18829
796.332	0.683365
799.225	0.285503
802.118	0.439226
805.01	0.540688
807.903	0.607025
810.796	0.57621
813.688	0.450171
816.581	0.172546
819.474	0.184668
822.366	0.054167
825.259	0.645893
828.152	0.092923
831.045	0.159339
833.937	0.22806
836.83	0.272473
839.723	0.191743
842.615	0.331795
845.508	0.551218
848.401	0.06625
851.293	0.054619
854.186	0.272026
857.079	0.072404
859.972	0.133033
862.864	0.051503
865.757	0.442285
868.65	0.625542
871.542	0.231653
874.435	0.700608
877.328	0.515415
880.221	0.642376
883.113	0.693347
886.006	0.403652
888.899	0.503433
891.791	0.079587
894.684	0.247322
897.577	0.013272
900.469	0.087031
903.362	0.11365
906.255	0.170565
909.148	0.045208
912.04	0.212064
914.933	0.063057
917.826	0.114159
920.718	0.262775
923.611	0.307887
926.504	0.1142
929.396	0.132457
932.289	0.014823
935.182	0.254018
938.074	0.125045
940.967	0.41605
943.86	0.374874
946.753	0.675896
949.645	0.26541
952.538	0.599355
955.431	0.646895
958.323	0.493131
961.216	0.097076
964.109	0.530177
967.001	0.583888
969.894	0.823702
972.787	0.870305
975.68	1.11187
978.572	0.838167
981.465	1.00086
984.358	1.27845
987.25	0.9305
990.143	0.778853
993.036	0.86561
995.928	1.09326
998.821	0.843496
1001.71	0.799386
1004.61	0.439429
1007.5	0.86389
1010.39	0.430661
1013.28	0.606422
1016.18	0.45628
1019.07	0.332666
1021.96	0.568956
1024.86	0.330652
1027.75	0.039506
1030.64	0.097288
1033.53	0.229043
1036.43	0.219783
1039.32	0.342152
1042.21	0.21043
1045.1	0.331909
1048	0.472363
1050.89	0.153024
1053.78	0.284833
1056.67	0.437695
1059.57	0.292843
1062.46	0.447853
1065.35	0.071406
1068.25	0.116123
1071.14	0.008666
1074.03	0.063765
1076.92	0.069604
1079.82	0.296024
1082.71	0.115397
1085.6	0.07165
1088.49	0.098485
1091.39	0.177012
1094.28	0.256715
1097.17	0.091063
1100.07	0.073157
1102.96	0.223586
1105.85	0.151881
1108.74	0.250809
1111.64	0.066461
1114.53	0.09063
1117.42	0.106377
1120.32	0.14864
1123.21	0.059288
1126.1	0.231155
1128.99	0.226349
1131.88	0.452909
1134.78	0.343126
1137.67	0.436805
1140.56	0.882971
1143.46	0.862031
1146.35	0.456171
1149.24	0.639813
1152.13	0.571605
1155.03	0.470454
1157.92	0.519065
1160.81	0.579862
1163.7	0.855688
1166.6	0.604587
1169.49	0.13939
1172.38	0.113632
1175.28	0.837304
1178.17	0.427842
1181.06	0.820535
1183.95	0.581795
1186.85	1.18353
1189.74	0.894931
1192.63	0.873451
1195.53	0.785322
1198.42	1.04094
1201.31	0.643105
1204.2	0.735123
1207.1	1.07877
1209.99	0.485305
1212.88	0.861203
1215.77	0.409524
1218.67	0.765649
1221.56	0.612037
1224.45	0.329218
1227.34	0.825827
1230.24	0.664812
1233.13	0.458439
1236.02	0.441478
1238.91	0.681581
1241.81	0.269356
1244.7	0.664509
1247.59	1.0801
1250.49	0.505324
1253.38	0.507702
1256.27	0.656944
1259.16	0.678969
1262.06	0.507079
1264.95	0.539048
1267.84	0.348143
1270.73	0.556784
1273.63	0.094107
1276.52	0.102638
1279.41	0.113578
1282.31	0.073709
1285.2	0.156346
1288.09	0.292751
1290.98	0.071317
1293.88	0.422349
1296.77	0.159321
1299.66	0.001516
1302.56	0.025579
