Measurement: Raman, 532 nm, unoriented, Raman Data Processed
Mineral: Grunerite
Rruff sample: R070186
Ideal chemistry: [box]Fe^2+^_7_Si_8_O_22_(OH)_2_
Locality: Homestake mine, 3800' level, Lead, Lawrence County, South Dakota, USA
Source: California Institute of Technology
Description: Parallel aggregate of brown acicular to fibrous crystals
Measured chemistry: ([box]_0.96_Ca_0.04_)_Σ=1_(Fe_4.34_Mg_2.43_Mn_0.14_Al_0.05_)_Σ=7_(Si_7.95_Al_0.05_)_Σ=8_O_22_(OH)_2_ ; OH estimated by difference
Raman shift (cm-1)	intensity
146.325	0
149.217	11.6058
152.11	241.8
155.003	802.954
157.895	1423.13
160.788	1775.86
163.681	1152.1
166.574	549.767
169.466	509.811
172.359	738.301
175.252	1210.12
178.144	1960.69
181.037	2866.36
183.93	3797.01
186.822	4225.03
189.715	3665.09
192.608	2618.13
195.501	1749.81
198.393	1206.9
201.286	900.24
204.179	756.288
207.071	580.418
209.964	487.414
212.857	426.802
215.75	330.327
218.642	330.822
221.535	216.402
224.428	159.63
227.32	102.541
230.213	96.0582
233.106	106.723
235.998	73.576
238.891	83.4757
241.784	106.884
244.677	58.4893
247.569	32.1049
250.462	12.9303
253.355	11.5906
256.247	32.9074
259.14	14.7821
262.033	27.1444
264.925	49.683
267.818	40.0066
270.711	39.7466
273.603	15.5493
276.496	66.1078
279.389	104.745
282.282	172.092
285.174	208.208
288.067	282.933
290.96	243.81
293.852	263.532
296.745	213.132
299.638	175.548
302.531	174.258
305.423	186.143
308.316	178.755
311.209	166.993
314.101	175.13
316.994	182.681
319.887	141.878
322.779	96.7601
325.672	30.063
328.565	1.29224
331.458	71.4745
334.35	173.141
337.243	317.937
340.136	476.932
343.028	777.487
345.921	1048.59
348.814	1313.98
351.707	1453.81
354.599	1398.9
357.492	1287.32
360.385	1245.41
363.277	1278.24
366.17	1396.92
369.063	1422.88
371.955	1066.54
374.848	629.117
377.741	377.926
380.634	248.642
383.526	193.391
386.419	229.664
389.312	327.393
392.204	482.087
395.097	638.759
397.99	854.853
400.882	1046.36
403.775	1198.3
406.668	1306.6
409.56	1319.41
412.453	1276.59
415.346	1236.43
418.239	1114.71
421.131	1019.96
424.024	890.803
426.917	642.466
429.809	365.84
432.702	181.278
435.595	92.1298
438.488	12.772
441.38	12.6521
444.273	23.6035
447.166	23.2345
450.058	48.1521
452.951	28.9414
455.844	6.68957
458.736	5.14417
461.629	6.2738
464.522	25.602
467.414	18.3385
470.307	53.7728
473.2	33.9888
476.093	66.8971
478.985	71.7931
481.878	110.586
484.771	160.987
487.663	201.76
490.556	244.888
493.449	367.056
496.341	389.536
499.234	481.839
502.127	613.485
505.02	738.024
507.912	888.009
510.805	957.26
513.698	944.755
516.59	904.178
519.483	971.536
522.376	1166.86
525.269	1367.47
528.161	1570.69
531.054	1703.27
533.947	1507.03
536.839	1126.58
539.732	863.27
542.625	676.444
545.517	575.785
548.41	493.77
551.303	434.517
554.196	386.594
557.088	375.67
559.981	350.314
562.874	367.127
565.766	289.62
568.659	225.187
571.552	150.136
574.444	139.191
577.337	81.8895
580.23	39.2645
583.122	37.6068
586.015	3.10718
588.908	9.67688
591.801	16.8592
594.693	27.9871
597.586	11.9983
600.479	9.40857
603.371	3.07446
606.264	14.3697
609.157	21.8165
612.049	62.4283
614.942	97.1848
617.835	175.272
620.728	237.608
623.62	330.344
626.513	469.909
629.406	587.888
632.298	792.619
635.191	1013.3
638.084	1192.75
640.976	1518.69
643.869	1952.5
646.762	2702.79
649.655	3927.47
652.547	5734.97
655.44	7963.86
658.333	10400
661.225	12246.6
664.118	11997.6
667.011	9006.8
669.904	5543.07
672.796	3420.5
675.689	2326.12
678.582	1697.14
681.474	1360.05
684.367	1208.54
687.26	1063.07
690.152	902.077
693.045	785.462
695.938	615.077
698.831	444.481
701.723	303.325
704.616	205.822
707.509	146.407
710.401	107.172
713.294	42.6437
716.187	21.8325
719.079	20.3799
721.972	20.0739
724.865	29.9131
727.758	29.1733
730.65	9.28833
733.543	15.5483
736.436	39.0455
739.328	87.808
742.221	169.887
745.114	229.881
748.006	216.264
750.899	218.245
753.792	219.439
756.684	273.293
759.577	356.226
762.47	413.863
765.363	391.98
768.255	329.404
771.148	321.565
774.041	266.663
776.933	266.503
779.826	288.519
782.719	254.27
785.611	219.512
788.504	213.029
791.397	146.246
794.29	82.3848
797.182	55.5599
800.075	50.2966
802.968	14.6291
805.86	6.56873
808.753	0.593262
811.646	1.67859
814.538	25.3307
817.431	9.76233
820.324	8.39185
823.217	39.7366
826.109	21.6962
829.002	5.26001
831.895	11.3373
834.787	23.849
837.68	6.11267
840.573	33.2854
843.466	2.7854
846.358	0.059326
849.251	25.7864
852.144	25.0594
855.036	15.2684
857.929	41.1932
860.822	11.1053
863.715	53.3793
866.607	39.4017
869.5	76.327
872.393	76.3066
875.285	62.156
878.178	100.122
881.071	106.897
883.963	129.985
886.856	106.177
889.749	115.639
892.641	179.425
895.534	191.471
898.427	218.296
901.32	337.781
904.212	361.713
907.105	440.967
909.998	422.966
912.89	352.999
915.783	306.491
918.676	206.44
921.568	147.55
924.461	66.3897
927.354	39.2422
930.247	0.200073
933.139	13.606
936.032	40.2754
938.925	1.82153
941.817	8.4187
944.71	13.3053
947.603	69.3253
950.495	93.4087
953.388	235.561
956.281	391.387
959.174	602.895
962.066	847.937
964.959	1165.62
967.852	1455.17
970.744	1494.84
973.637	1348.78
976.53	1133.16
979.423	813.598
982.315	577.98
985.208	455.524
988.101	489.793
990.993	503.109
993.886	544.456
996.779	675.065
999.671	711.618
1002.56	620.309
1005.46	704.25
1008.35	834.802
1011.24	1138.88
1014.13	1525.72
1017.03	2195.9
1019.92	2821.17
1022.81	3258.14
1025.71	3239.95
1028.6	2776.87
1031.49	2024.43
1034.38	1401.61
1037.28	1000.5
1040.17	672.259
1043.06	523.379
1045.95	404.005
1048.85	293.805
1051.74	229.981
1054.63	143.093
1057.53	83.426
1060.42	38.0753
1063.31	37.2765
1066.2	15.4595
1069.1	17.2264
1071.99	28.3558
1074.88	28.1709
1077.77	3.11292
1080.67	18.6571
1083.56	8.47412
1086.45	35.7151
1089.35	90.2489
1092.24	153.518
1095.13	275.214
1098.02	303.757
1100.92	298.639
1103.81	210.023
1106.7	143.327
1109.59	96.4713
1112.49	71.0985
1115.38	37.7976
1118.27	48.132
1121.16	33.8571
1124.06	14.4669
1126.95	25.3278
1129.84	13.4337
1132.74	24.1692
1135.63	12.6204
1138.52	24.2236
1141.41	8.56287
1144.31	13.6504
1147.2	8.69251
1150.09	24.3999
1152.98	15.0497
1155.88	2.1615
1158.77	5.0509
1161.66	21.1642
1164.56	6.8971
1167.45	21.2918
1170.34	24.1858
1173.23	51.0292
1176.13	51.0415
1179.02	42.2651
1181.91	69.7687
1184.8	31.5696
1187.7	49.9193
1190.59	25.3494
1193.48	47.3495
1196.38	32.9011
1199.27	26.7365
1202.16	35.1986
1205.05	3.04553
1207.95	23.4016
1210.84	16.5378
1213.73	47.2835
1216.62	28.4855
1219.52	35.1089
1222.41	2.10266
1225.3	44.2869
1228.19	50.8375
1231.09	45.6027
1233.98	37.327
1236.87	62.2281
1239.77	53.9078
1242.66	11.7673
1245.55	33.843
1248.44	62.6169
1251.34	51.7822
1254.23	53.131
1257.12	61.1837
1260.01	44.7594
1262.91	39.537
1265.8	48.1782
1268.69	23.9206
1271.59	38.3188
1274.48	22.1687
1277.37	56.0612
1280.26	43.2012
1283.16	15.6892
1286.05	34.4755
1288.94	4.53394
1291.83	20.0864
