Measurement: Raman, 532 nm, unoriented, Raman Data Processed
Mineral: Grunerite
Rruff sample: R070267
Ideal chemistry: [box]Fe^2+^_7_Si_8_O_22_(OH)_2_
Locality: Långfall mine (Saxberg mine),  Saxberget ore field,  Ludvika,  Dalarna,  Sweden
Source: Michael Scott
Description: Mass of interlocking light to dark brown striated prismatic crystals associated with sphalerite, garnet and arsenopyrite
Measured chemistry: ([box]_0.95_Na_0.05_)_Σ=1_(Fe_4.89_Mg_1.19_Mn_0.86_Ca_0.06_)_Σ=7_(Si_7.95_Al_0.05_)_Σ=8_O_22_((OH)_1.90_F_0.10_)_Σ=2_ ; OH estimated by difference and charge balance
Raman shift (cm-1)	intensity
155.929	0
158.822	106.803
161.715	56.2478
164.607	12.26
167.5	215.606
170.393	690.733
173.286	1354.52
176.178	2246.84
179.071	3080.88
181.964	3247.72
184.856	2672.83
187.749	1873.41
190.642	1338.75
193.535	1049.85
196.427	905.401
199.32	874.443
202.213	914.423
205.105	1046.93
207.998	1189.8
210.891	1462.39
213.783	1664.65
216.676	1643.58
219.569	1318.76
222.462	942.981
225.354	742.082
228.247	608.806
231.14	533.597
234.032	361.051
236.925	285.013
239.818	189.314
242.71	147.715
245.603	116.443
248.496	92.2784
251.388	152.024
254.281	127.327
257.174	91.278
260.067	13.6915
262.959	27.751
265.852	36.2678
268.745	54.0884
271.637	10.7112
274.53	3.43164
277.423	73.1873
280.315	201.132
283.208	248.417
286.101	365.128
288.994	456.912
291.886	571.261
294.779	730.643
297.672	821.587
300.564	734.434
303.457	642.3
306.35	581.461
309.243	612.284
312.135	627.248
315.028	595.912
317.921	432.551
320.813	328.685
323.706	250.627
326.599	302.628
329.491	299.802
332.384	324.027
335.277	376.546
338.17	460.412
341.062	679.903
343.955	854.875
346.848	912.604
349.74	917.993
352.633	732.226
355.526	494.728
358.418	466.336
361.311	502.354
364.204	484.536
367.097	395.862
369.989	239.422
372.882	98.4058
375.775	64.8804
378.667	36.8586
381.56	101.001
384.453	171.272
387.346	326.329
390.238	459.873
393.131	634.421
396.024	703.336
398.916	659.861
401.809	518.078
404.702	379.839
407.594	300.097
410.487	273.039
413.38	269.131
416.272	300.813
419.165	314.715
422.058	356.002
424.951	302.335
427.843	125.92
430.736	42.9298
433.629	7.18713
436.521	18.7276
439.414	12.4252
442.307	27.9168
445.2	1.81921
448.092	22.4831
450.985	2.88458
453.878	8.2049
456.77	4.71985
459.663	7.31824
462.556	9.78796
465.448	4.69537
468.341	13.9452
471.234	32.1667
474.127	62.8196
477.019	84.6534
479.912	102.254
482.805	137.516
485.697	155.239
488.59	169.883
491.483	190.172
494.375	174.312
497.268	219.66
500.161	237.278
503.053	265.605
505.946	280.082
508.839	274.277
511.732	287.213
514.624	293.953
517.517	352.246
520.41	431.393
523.302	478.108
526.195	481.915
529.088	448.785
531.981	325.82
534.873	288.031
537.766	197.795
540.659	187.613
543.551	165.131
546.444	147.653
549.337	168.119
552.229	173.308
555.122	200.399
558.015	160.759
560.908	155.032
563.8	118.151
566.693	73.0908
569.586	21.7107
572.478	2.67658
575.371	19.1415
578.264	9.93256
581.156	25.3754
584.049	7.11975
586.942	15.6438
589.835	2.27356
592.727	0.996948
595.62	15.0275
598.513	64.4757
601.405	74.6351
604.298	81.9786
607.191	115.603
610.083	167.788
612.976	220.164
615.869	287.9
618.762	368.577
621.654	468.999
624.547	583.406
627.44	737.975
630.332	892.35
633.225	1194.89
636.118	1439.65
639.01	1878.3
641.903	2557.6
644.796	3638.36
647.689	5254.88
650.581	7411.6
653.474	10001.2
656.367	12321.4
659.259	12547.1
662.152	9738.6
665.045	6239.87
667.938	3782.31
670.83	2418.61
673.723	1629.85
676.616	1165.88
679.508	884.845
682.401	710.891
685.294	586.705
688.186	464.378
691.079	360.39
693.972	315.721
696.865	226.764
699.757	148.37
702.65	115.389
705.543	41.7134
708.435	45.3245
711.328	27.5432
714.221	16.0736
717.113	10.6544
720.006	7.04443
722.899	18.1993
725.792	6.19922
728.684	15.8009
731.577	17.7351
734.47	36.0789
737.362	74.2268
740.255	127.496
743.148	157.578
746.04	129.945
748.933	65.7764
751.826	42.1195
754.719	90.325
757.611	58.1537
760.504	75.6472
763.397	76.0453
766.289	93.8693
769.182	114.065
772.075	116.575
774.967	68.6182
777.86	83.3901
780.753	55.0478
783.646	40.5714
786.538	18.3539
789.431	28.7386
792.324	1.46704
795.216	42.6862
798.109	16.4735
801.002	4.82556
803.894	11.8762
806.787	15.3852
809.68	31.7954
812.573	25.4968
815.465	13.0985
818.358	30.6685
821.251	27.5536
824.143	26.7655
827.036	8.78821
829.929	21.6449
832.822	31.6257
835.714	28.4714
838.607	44.4105
841.5	36.0413
844.392	16.5002
847.285	27.1183
850.178	1.41467
853.07	11.817
855.963	2.19006
858.856	5.86011
861.749	0.97876
864.641	0.04895
867.534	13.6345
870.427	9.11023
873.319	2.2323
876.212	15.0131
879.105	60.8328
881.997	87.7913
884.89	121.754
887.783	137.433
890.676	188.399
893.568	231.434
896.461	269.059
899.354	312.47
902.246	395.175
905.139	381.795
908.032	340.901
910.924	323.983
913.817	280.157
916.71	214.246
919.602	135.017
922.495	72.0679
925.388	50.3245
928.281	47.2866
931.173	2.56665
934.066	20.0807
936.959	35.8239
939.851	30.0693
942.744	10.5703
945.637	28.8137
948.529	64.1521
951.422	118.435
954.315	148.947
957.208	231.481
960.1	348.505
962.993	429.347
965.886	480.672
968.778	494.034
971.671	472.613
974.564	438.848
977.457	367.798
980.349	321.707
983.242	360.484
986.135	408.181
989.027	506.996
991.92	599.535
994.813	705.319
997.705	780.597
1000.6	977.467
1003.49	1159.3
1006.38	1500.97
1009.28	2016.78
1012.17	2623.9
1015.06	3251.77
1017.95	3740.65
1020.85	3828.6
1023.74	3361.22
1026.63	2606.84
1029.53	1913.37
1032.42	1332.62
1035.31	949.194
1038.2	660.488
1041.1	473.37
1043.99	357.761
1046.88	242.108
1049.77	200.457
1052.67	137.119
1055.56	54.2231
1058.45	18.89
1061.35	13.9377
1064.24	17.4028
1067.13	13.7017
1070.02	11.1602
1072.92	13.3158
1075.81	0.058228
1078.7	20.4944
1081.59	49.0834
1084.49	91.8257
1087.38	178.267
1090.27	269.795
1093.16	296.376
1096.06	262.81
1098.95	170.58
1101.84	101.289
1104.73	82.5538
1107.63	58.866
1110.52	33.8944
1113.41	0.560059
1116.31	25.7094
1119.2	19.1977
1122.09	10.2019
1124.98	15.147
1127.88	4.60522
1130.77	8.57666
1133.66	10.8429
1136.56	4.68457
1139.45	35.3967
1142.34	26.9694
1145.23	5.30359
1148.13	24.9515
1151.02	26.7299
1153.91	21.2814
1156.8	29.7336
1159.7	42.2338
1162.59	39.4236
1165.48	26.8953
1168.38	25.6429
1171.27	35.322
1174.16	53.3768
1177.05	59.6255
1179.95	54.1184
1182.84	44.9011
1185.73	44.3856
1188.62	39.3176
1191.52	20.939
1194.41	42.7731
1197.3	53.0309
1200.19	51.8687
1203.09	32.9701
1205.98	37.9836
1208.87	38.6536
1211.77	40.0826
1214.66	24.7886
1217.55	10.3794
1220.44	41.1838
1223.34	41.3282
1226.23	24.5442
1229.12	43.494
1232.01	42.1781
1234.91	30.0472
1237.8	29.2736
1240.69	64.7018
1243.59	51.3063
1246.48	35.9199
1249.37	46.817
1252.26	10.7114
1255.16	48.2921
1258.05	27.9087
1260.94	15.7257
1263.83	36.7036
1266.73	19.7678
1269.62	27.3906
1272.51	17.4863
1275.4	8.3219
1278.3	40.0448
1281.19	14.5765
1284.08	26.9004
1286.98	5.76331
1289.87	36.9872
1292.76	17.8767
1295.65	5.63989
1298.55	0.695557
1301.44	0.13623
