Measurement: Raman, 785 nm, unoriented, Raman Data Processed
Mineral: Grunerite
Rruff sample: R070267
Ideal chemistry: [box]Fe^2+^_7_Si_8_O_22_(OH)_2_
Locality: Långfall mine (Saxberg mine),  Saxberget ore field,  Ludvika,  Dalarna,  Sweden
Source: Michael Scott
Description: Mass of interlocking light to dark brown striated prismatic crystals associated with sphalerite, garnet and arsenopyrite
Measured chemistry: ([box]_0.95_Na_0.05_)_Σ=1_(Fe_4.89_Mg_1.19_Mn_0.86_Ca_0.06_)_Σ=7_(Si_7.95_Al_0.05_)_Σ=8_O_22_((OH)_1.90_F_0.10_)_Σ=2_ ; OH estimated by difference and charge balance
Raman shift (cm-1)	intensity
156.696	0
159.589	33.7223
162.481	6.57532
165.374	31.9615
168.267	177.604
171.16	434.797
174.052	770.35
176.945	1192.7
179.838	1555.02
182.73	1556.46
185.623	1223.15
188.516	836.119
191.408	595.013
194.301	452.766
197.194	381.828
200.087	344.869
202.979	361.601
205.872	421.455
208.765	476.419
211.657	572.757
214.55	643.308
217.443	631.753
220.335	467.452
223.228	339.509
226.121	236.552
229.013	163.876
231.906	128.106
234.799	87.9635
237.692	45.8575
240.584	21.3917
243.477	0.551758
246.37	18.4264
249.262	40.449
252.155	57.0761
255.048	46.5889
257.941	26.2529
260.833	9.47876
263.726	15.1415
266.619	11.7041
269.511	11.5979
272.404	6.23968
275.297	2.0332
278.19	56.9203
281.082	86.6359
283.975	142.953
286.868	223.281
289.76	272.539
292.653	360.053
295.546	481.427
298.438	502.724
301.331	478.387
304.224	364.108
307.116	356.119
310.009	313.094
312.902	251.316
315.795	184.867
318.687	127.455
321.58	110.442
324.473	103.508
327.365	155.435
330.258	165.105
333.151	138.438
336.043	121.606
338.936	117.752
341.829	149.008
344.722	181.668
347.614	183.646
350.507	216.733
353.4	173.767
356.292	91.6995
359.185	44.618
362.078	42.803
364.971	16.855
367.863	12.4197
370.756	10.4771
373.649	0.866821
376.541	5.89523
379.434	17.1848
382.327	33.2029
385.219	72.0291
388.112	107.855
391.005	163.79
393.897	210.52
396.79	225.131
399.683	219.279
402.576	162.783
405.468	136.407
408.361	113.526
411.254	102.305
414.146	114.712
417.039	127.507
419.932	149.93
422.825	161.785
425.717	139.938
428.61	68.8993
431.503	37.645
434.395	13.4688
437.288	9.2298
440.181	8.36453
443.073	1.67462
445.966	4.28296
448.859	5.66354
451.752	7.44568
454.644	13.4904
457.537	6.75729
460.43	19.661
463.322	2.7442
466.215	0.432831
469.108	9.2561
472	26.5609
474.893	12.4407
477.786	19.238
480.678	25.9718
483.571	31.4087
486.464	31.7337
489.357	46.651
492.249	51.9498
495.142	59.8064
498.035	60.6791
500.927	74.8023
503.82	84.4677
506.713	94.3494
509.606	96.2811
512.498	82.5609
515.391	84.1051
518.284	78.7396
521.176	104.266
524.069	95.0437
526.962	104.133
529.854	92.1256
532.747	70.9105
535.64	38.7052
538.533	29.8922
541.425	28.4722
544.318	18.2564
547.211	12.9708
550.103	16.9565
552.996	29.3504
555.889	38.109
558.781	21.8875
561.674	17.1701
564.567	18.9179
567.46	0.435242
570.352	2.88321
573.245	5.79282
576.138	1.99594
579.03	4.362
581.923	20.3397
584.816	1.39301
587.708	3.81064
590.601	13.5838
593.494	15.2691
596.386	16.0633
599.279	26.4452
602.172	36.4367
605.065	47.7979
607.957	46.6452
610.85	73.6467
613.743	98.2666
616.635	118.964
619.528	128.073
622.421	196.435
625.313	229.183
628.206	300.226
631.099	359.681
633.992	442.856
636.884	521.253
639.777	698.377
642.67	893.843
645.562	1281.6
648.455	1784.18
651.348	2526.22
654.24	3405.8
657.133	4073
660.026	3912.1
662.919	2948.33
665.811	1842.84
668.704	1083.47
671.597	723.659
674.489	482.006
677.382	345.77
680.275	248.836
683.168	224.202
686.06	174.028
688.953	133.572
691.846	118.065
694.738	76.5406
697.631	64.937
700.524	43.4985
703.416	26.3173
706.309	16.2689
709.202	15.9423
712.095	11.8054
714.987	19.9337
717.88	8.60042
720.773	10.4596
723.665	5.53656
726.558	9.7404
729.451	5.43611
732.343	4.39052
735.236	10.7158
738.129	18.3746
741.021	26.044
743.914	22.9882
746.807	22.6449
749.7	28.2816
752.592	21.074
755.485	22.7135
758.378	22.5731
761.27	27.129
764.163	27.8739
767.056	28.6652
769.948	15.6516
772.841	37.1089
775.734	26.9019
778.627	18.2956
781.519	14.3404
784.412	3.89088
787.305	5.7137
790.197	7.94627
793.09	9.63269
795.983	22.7882
798.875	6.79617
801.768	12.2656
804.661	14.5143
807.554	19.664
810.446	3.36931
813.339	16.1664
816.232	39.145
819.124	9.75824
822.017	6.19554
824.91	1.17239
827.803	25.7863
830.695	9.58115
833.588	19.0793
836.481	4.54602
839.373	22.5512
842.266	7.9204
845.159	9.8205
848.051	13.8412
850.944	10.2933
853.837	14.8559
856.73	0.035004
859.622	4.70998
862.515	6.11412
865.408	25.6387
868.3	13.4668
871.193	8.50058
874.086	14.7678
876.978	17.9778
879.871	18.2986
882.764	35.2628
885.657	42.3144
888.549	57.0407
891.442	80.3352
894.335	80.574
897.227	103.427
900.12	134.584
903.013	122.626
905.905	128.268
908.798	118.868
911.691	98.7027
914.583	85.717
917.476	54.3339
920.369	47.3176
923.262	42.9571
926.154	22.8786
929.047	3.39087
931.94	2.44971
934.832	2.353
937.725	5.73276
940.618	6.49466
943.51	2.03482
946.403	0.863953
949.296	5.6947
952.189	12.1945
955.081	43.4601
957.974	47.1442
960.867	59.2144
963.759	77.3662
966.652	81.7471
969.545	92.5576
972.438	90.0331
975.33	71.0136
978.223	67.1209
981.116	88.4146
984.008	97.5264
986.901	123.54
989.794	141.761
992.686	151.046
995.579	190.509
998.472	232.559
1001.37	266.083
1004.26	367.279
1007.15	430.539
1010.04	582.234
1012.93	760.95
1015.83	934.763
1018.72	1046.01
1021.61	1020.91
1024.51	881.904
1027.4	674.029
1030.29	482.115
1033.18	320.079
1036.08	233.232
1038.97	164.139
1041.86	110.792
1044.76	79.4645
1047.65	47.1721
1050.54	30.4994
1053.43	21.9247
1056.33	17.5648
1059.22	4.8114
1062.11	6.34283
1065	12.3913
1067.9	8.55054
1070.79	1.38664
1073.68	1.78581
1076.58	3.00137
1079.47	8.83229
1082.36	5.15672
1085.25	24.6369
1088.15	36.9056
1091.04	51.9222
1093.93	36.8493
1096.82	40.6164
1099.72	31.1533
1102.61	20.2214
1105.5	8.60863
1108.39	1.28009
1111.29	6.1326
1114.18	6.07469
1117.07	1.74786
1119.96	1.0872
1122.86	7.18286
1125.75	10.3692
1128.64	9.83765
1131.54	1.22473
1134.43	9.75955
1137.32	13.1354
1140.21	3.17175
1143.11	20.033
1146	8.98872
1148.89	13.5801
1151.79	0.062408
1154.68	3.14671
1157.57	11.4785
1160.46	12.4353
1163.36	18.2566
1166.25	13.8358
1169.14	19.6245
1172.03	21.4276
1174.93	3.0806
1177.82	21.9015
1180.71	10.5982
1183.61	10.0291
1186.5	10.3861
1189.39	11.4064
1192.28	11.5732
1195.17	11.2144
1198.07	13.7936
1200.96	7.91281
1203.85	17.0849
1206.75	5.04329
1209.64	21.7373
1212.53	5.69852
1215.42	4.09447
1218.32	11.8132
1221.21	4.66382
1224.1	15.3753
1226.99	1.24013
1229.89	6.40733
