Measurement: Raman, 532 nm, unoriented, Raman Data Processed
Mineral: Grunerite
Rruff sample: R040150
Ideal chemistry: [box]Fe^2+^_7_Si_8_O_22_(OH)_2_
Locality: Smallwood mine, Heath Lake, Newfoundland, Canada
Source: University of Arizona Mineral Museum
Description: Brown bladed crystals in parallel aggregate
Measured chemistry: (Fe_0.69_Mg_0.27_Ca_0.02_Mn_0.02_)_7_Si_8.02_O_22_((OH)_0.98_Cl_0.02_)_2_
Raman shift (cm-1)	intensity
150.626	0
154.001	440.345
157.376	880.267
160.75	552.341
164.125	18.7651
167.5	3.9668
170.875	317.945
174.25	639.055
177.625	1098.47
180.999	1556.87
184.374	1930.93
187.749	1604.96
191.124	1094.34
194.499	712.552
197.874	479.061
201.248	443.357
204.623	447.32
207.998	418.147
211.373	491.865
214.748	435.937
218.122	405.156
221.497	419.089
224.872	366.591
228.247	270.188
231.622	302.92
234.996	243.981
238.371	239.829
241.746	220.953
245.121	170.466
248.496	68.5596
251.871	106.645
255.245	61.2007
258.62	12.8433
261.995	3.85693
265.37	57.4639
268.745	40.9248
272.12	12.7315
275.494	14.1802
278.869	93.0933
282.244	111.069
285.619	142.404
288.994	267.16
292.368	146.212
295.743	195.652
299.118	254.533
302.493	267.752
305.868	182.145
309.243	213.894
312.617	164.514
315.992	171.621
319.367	123.281
322.742	148.13
326.117	3.52246
329.491	60.4707
332.866	70.4277
336.241	217.372
339.616	466.334
342.991	699.306
346.365	878.756
349.74	955.113
353.115	853.405
356.49	815.28
359.865	715.438
363.24	684.482
366.614	785.818
369.989	667.587
373.364	518.51
376.739	347.88
380.114	376.094
383.488	446.575
386.863	535.043
390.238	633.375
393.613	793.15
396.988	998.369
400.363	1097.92
403.737	1038.84
407.112	922.307
410.487	855.036
413.862	761.754
417.237	648.203
420.611	629.325
423.986	609.532
427.361	440.548
430.736	235.773
434.111	29.4062
437.486	5.7168
440.86	4.125
444.235	23.0039
447.61	13.4756
450.985	35.9795
454.36	3.40039
457.735	3.29492
461.109	66.457
464.484	83.2734
467.859	6.4375
471.234	35.5762
474.609	104.974
477.983	92.8486
481.358	127.35
484.733	138.708
488.108	129.997
491.483	166.616
494.858	241.637
498.232	299.15
501.607	472.44
504.982	523.032
508.357	575.194
511.732	583.872
515.106	579.763
518.481	606.983
521.856	703.604
525.231	939.585
528.606	1009.02
531.981	854.268
535.355	658.903
538.73	447.717
542.105	292.906
545.48	174.185
548.855	204.061
552.229	218.346
555.604	219.099
558.979	238.254
562.354	147.684
565.729	109.297
569.104	27.4033
572.478	46.415
575.853	60.7871
579.228	10.8174
582.603	21.3613
585.978	36.4092
589.352	43.9111
592.727	0.333984
596.102	8.30566
599.477	6.28223
602.852	2.16602
606.227	16.0166
609.601	155.561
612.976	177.58
616.351	120.599
619.726	132.265
623.101	270.343
626.476	341.386
629.85	375.32
633.225	616.712
636.6	680.179
639.975	1020.83
643.35	1381.6
646.724	2131.46
650.099	3357.8
653.474	5032.38
656.849	6786.75
660.224	7854.12
663.598	6993.83
666.973	4526.61
670.348	2667.92
673.723	1589.09
677.098	1113.68
680.472	809.38
683.847	614.014
687.222	575.456
690.597	457.554
693.972	417.774
697.347	340.675
700.721	183.238
704.096	89.4785
707.471	117.162
710.846	24.3574
714.221	8.1123
717.596	33.7402
720.97	61.6523
724.345	30.6699
727.72	29.3428
731.095	46.6543
734.47	64.3769
737.844	148.9
741.219	174.67
744.594	161.532
747.969	207.658
751.344	168.828
754.719	108.688
758.093	208.519
761.468	232.994
764.843	148.787
768.218	128.892
771.593	168.089
774.967	110.894
778.342	82.5293
781.717	110.043
785.092	132.337
788.467	96.3486
791.842	42.1641
795.216	93.1357
798.591	134.352
801.966	67.1006
805.341	100.465
808.716	149.695
812.091	73.042
815.465	12.9785
818.84	43.335
822.215	75.0615
825.59	1.13379
828.965	67.8496
832.339	126.208
835.714	43.7627
839.089	109.636
842.464	30.0898
845.839	52.6553
849.213	20.8291
852.588	16.6836
855.963	110.136
859.338	23.3047
862.713	59.0615
866.087	82.8779
869.462	79.6416
872.837	69.3818
876.212	65.4981
879.587	0.209961
882.962	97.5889
886.337	118.966
889.711	83.2988
893.086	184.13
896.461	165.648
899.836	157.124
903.211	181.321
906.585	155.066
909.96	137.972
913.335	132.89
916.71	15.7412
920.085	50.335
923.46	7.79297
926.834	15.0049
930.209	47.669
933.584	50.7881
936.959	41.0117
940.334	10.6709
943.708	60.2432
947.083	32.4502
950.458	120.634
953.833	157.201
957.208	378.338
960.582	532.638
963.957	932.564
967.332	773.679
970.707	612.432
974.082	450.493
977.457	319.843
980.831	160.111
984.206	216.73
987.581	128.858
990.956	221.119
994.331	313.94
997.705	222.144
1001.08	333.799
1004.46	376.034
1007.83	666.519
1011.21	908.043
1014.58	1366.08
1017.95	1714.05
1021.33	1978.26
1024.7	1867.08
1028.08	1462.87
1031.45	1160.39
1034.83	723.262
1038.2	524.838
1041.58	331.428
1044.95	258.279
1048.33	216.004
1051.7	121.049
1055.08	170.606
1058.45	157.406
1061.83	145.809
1065.2	67.4961
1068.58	30.5781
1071.95	71.082
1075.33	10.623
1078.7	41.8652
1082.08	66.5723
1085.45	101.846
1088.83	10.1953
1092.2	203.746
1095.58	166.934
1098.95	216.453
1102.33	163.06
1105.7	170.617
1109.07	166.592
1112.45	71.8613
1115.82	120.412
1119.2	53.5488
1122.57	40.1602
1125.95	110.387
1129.32	9.73828
1132.7	159.928
1136.07	150.199
1139.45	84.6797
1142.82	11.2227
1146.2	128.693
1149.57	67.9199
1152.95	84.0332
1156.32	42.6602
1159.7	60.127
1163.07	19.248
1166.45	110.481
1169.82	71.9492
1173.2	124.805
1176.57	41.3516
1179.95	82.6699
1183.32	52.7695
1186.69	121.984
1190.07	91.9141
1193.44	38.457
1196.82	123.256
1200.19	125.912
1203.57	82.0957
1206.94	142.219
1210.32	112.539
1213.69	141.09
1217.07	115.91
1220.44	45.5215
1223.82	119.561
1227.19	89.9394
1230.57	126.688
1233.94	75.5098
1237.32	53.748
1240.69	122.789
1244.07	152.32
1247.44	105.127
1250.82	48.1582
1254.19	92.875
1257.57	65.1152
1260.94	81.0898
1264.32	114.012
1267.69	176.42
1271.07	176.434
1274.44	124.17
1277.82	211.631
1281.19	132.156
1284.57	144.262
1287.94	208.736
1291.32	140.766
1294.69	163.68
1298.06	123.359
1301.44	53.6699
1304.81	30.373
1308.19	92.5098
1311.56	88.4277
1314.94	0
