Measurement: Raman, 785 nm, unoriented, Raman Data Processed
Mineral: Grunerite
Rruff sample: R070204
Ideal chemistry: [box]Fe^2+^_7_Si_8_O_22_(OH)_2_
Locality: Penge mine, Transvaal, South Africa
Source: California Institute of Technology
Description: Aggregate of tan colored parallel fibers
Measured chemistry: ([box]_0.98_Na_0.02_)_Σ=1_(Fe_5.24_Mg_1.59_Mn_0.08_[box]_0.03_Al_0.04_Ca_0.02_)_Σ=7_Si_8.00_O_22_(OH)_2_ ; OH estimated by difference and charge balance
Raman shift (cm-1)	intensity
155.54	0
158.432	28.4785
161.325	1.95337
164.218	23.4784
167.111	73.8229
170.003	110.55
172.896	182.798
175.789	270.097
178.681	371.322
181.574	482.252
184.467	485.501
187.359	381.419
190.252	294.146
193.145	194.728
196.037	190.395
198.93	199.55
201.823	153.046
204.716	144.068
207.608	109.836
210.501	140.713
213.394	155.55
216.286	150.98
219.179	140.357
222.072	67.0399
224.964	72.7639
227.857	29.5831
230.75	21.5092
233.643	1.29456
236.535	18.8508
239.428	39.0509
242.321	25.2006
245.213	11.0481
248.106	30.8727
250.999	38.0626
253.892	29.0714
256.784	16.0474
259.677	9.11707
262.57	7.99524
265.462	16.9032
268.355	36.3027
271.248	12.9194
274.14	30.8503
277.033	42.1619
279.926	41.7175
282.818	17.9396
285.711	40.1154
288.604	49.6195
291.497	42.4332
294.389	39.7987
297.282	55.5461
300.175	47.2159
303.067	84.9139
305.96	75.5785
308.853	69.6272
311.745	76.5824
314.638	79.9408
317.531	48.0981
320.424	5.23218
323.316	21.7247
326.209	4.57947
329.102	5.46094
331.994	38.8822
334.887	56.9145
337.78	97.9813
340.673	112.68
343.565	205.717
346.458	228.353
349.351	236.911
352.243	173.575
355.136	159.728
358.029	164.393
360.921	137.593
363.814	119.033
366.707	130.636
369.599	129.099
372.492	112.721
375.385	80.0885
378.278	73.8944
381.17	66.0985
384.063	62.5509
386.956	98.1819
389.848	91.556
392.741	122.938
395.634	107.047
398.526	127.837
401.419	146.001
404.312	127.654
407.205	132.219
410.097	103.578
412.99	95.5188
415.883	122.985
418.775	93.5347
421.668	103.06
424.561	135.829
427.454	44.2996
430.346	32.656
433.239	21.1136
436.132	10.0158
439.024	26.2318
441.917	5.30176
444.81	15.8148
447.702	8.87073
450.595	2.46497
453.488	4.47913
456.38	12.6163
459.273	5.74207
462.166	6.22668
465.059	10.7749
467.951	25.0129
470.844	31.1438
473.737	13.3369
476.629	25.3361
479.522	29.1182
482.415	50.2214
485.308	56.0949
488.2	67.1648
491.093	103.35
493.986	89.6393
496.878	123.688
499.771	145.484
502.664	181.828
505.556	210.626
508.449	208.959
511.342	176.555
514.235	189.611
517.127	236.687
520.02	236.754
522.913	224.732
525.805	272.566
528.698	294.84
531.591	263.819
534.484	212.525
537.376	189.004
540.269	163.411
543.162	120.499
546.054	112.094
548.947	82.6322
551.84	130.912
554.732	113.732
557.625	103.9
560.518	89.1973
563.41	57.4133
566.303	61.8772
569.196	53.7485
572.088	54.3883
574.981	9.72913
577.874	13.1698
580.767	37.1957
583.659	11.6986
586.552	29.0902
589.445	3.84509
592.337	3.42224
595.23	30.2566
598.123	13.8762
601.015	0.546753
603.908	2.31824
606.801	19.076
609.694	5.15283
612.586	1.50732
615.479	18.6715
618.372	48.0686
621.264	88.6815
624.157	71.9625
627.05	87.4669
629.942	142.815
632.835	174.511
635.728	219.135
638.621	258.111
641.513	312.231
644.406	441.73
647.299	608.996
650.191	828.188
653.084	1044.3
655.977	1292.83
658.87	1408.35
661.762	1320.18
664.655	961.791
667.548	680.119
670.44	436.577
673.333	299.622
676.226	246.822
679.118	166.362
682.011	136.983
684.904	144.566
687.797	111.697
690.689	77.0352
693.582	78.734
696.475	64.9045
699.367	33.7915
702.26	14.8413
705.153	23.959
708.045	13.6539
710.938	2.44849
713.831	11.9904
716.723	3.96008
719.616	27.2115
722.509	8.00342
725.402	10.0287
728.294	17.1031
731.187	0.923462
734.08	37.0706
736.972	7.93481
739.865	26.9894
742.758	23.7895
745.65	11.0623
748.543	51.4083
751.436	15.9011
754.329	40.833
757.221	45.8935
760.114	43.1539
763.007	39.9856
765.899	47.7617
768.792	28.4605
771.685	24.7269
774.577	18.5074
777.47	14.3699
780.363	14.7335
783.256	15.2079
786.148	19.6519
789.041	7.13196
791.934	26.2346
794.826	22.7305
797.719	25.1002
800.612	27.0633
803.505	29.1627
806.397	15.1121
809.29	4.56799
812.183	17.4842
815.075	18.1173
817.968	18.0507
820.861	32.0702
823.753	7.95496
826.646	16.9692
829.539	25.8037
832.432	17.5666
835.324	19.704
838.217	16.308
841.11	7.72742
844.002	14.6415
846.895	28.5542
849.788	29.9103
852.68	23.3595
855.573	30.1425
858.466	22.8486
861.359	23.3258
864.251	36.0585
867.144	11.8983
870.037	29.5049
872.929	34.6427
875.822	38.3123
878.715	39.1077
881.607	41.0195
884.5	39.3987
887.393	44.318
890.285	34.4158
893.178	2.52893
896.071	34.1703
898.964	34.9081
901.856	34.809
904.749	59.0222
907.642	48.3129
910.534	55.1858
913.427	42.4161
916.32	37.1245
919.212	17.4148
922.105	8.10974
924.998	19.5511
927.891	8.38513
930.783	11.4661
933.676	11.2972
936.569	8.33105
939.461	6.78491
942.354	4.73474
945.247	18.1687
948.139	26.8478
951.032	32.853
953.925	37.9076
956.818	41.1174
959.71	63.3219
962.603	59.6959
965.496	73.2606
968.388	70.9717
971.281	89.7231
974.174	69.4648
977.067	74.9233
979.959	82.0974
982.852	67.2704
985.745	54.3135
988.637	63.2996
991.53	81.8916
994.423	67.9836
997.315	77.0065
1000.21	96.3934
1003.1	128.012
1005.99	134.455
1008.89	166.854
1011.78	216.195
1014.67	283.384
1017.56	283.727
1020.46	317.92
1023.35	286.048
1026.24	212.872
1029.13	155.245
1032.03	128.397
1034.92	89.2454
1037.81	48.9349
1040.71	42.9226
1043.6	44.1151
1046.49	29.9852
1049.38	30.1642
1052.28	2.34668
1055.17	3.30493
1058.06	16.7739
1060.95	36.8607
1063.85	13.0729
1066.74	2.45288
1069.63	10.6307
1072.53	0.581421
1075.42	10.3989
1078.31	3.66016
1081.2	16.4229
1084.1	2.96179
1086.99	24.1205
1089.88	32.9258
1092.78	13.4199
1095.67	34.894
1098.56	16.8663
1101.45	24.5207
1104.35	21.255
1107.24	34.2809
1110.13	35.2346
1113.02	28.6006
1115.92	26.5028
1118.81	19.3894
1121.7	17.0364
1124.59	53.1321
1127.49	19.3804
1130.38	18.1124
1133.27	42.1531
1136.16	6.58008
1139.06	51.8762
1141.95	45.3444
1144.84	34.3452
1147.74	39.6475
1150.63	19.4266
1153.52	57.8025
1156.41	33.3301
1159.31	26.8667
1162.2	25.1617
1165.09	19.0175
1167.98	45.6863
1170.88	46.4423
1173.77	17.7682
1176.66	33.0225
1179.56	7.38574
1182.45	39.2966
1185.34	16.2966
1188.23	57.7909
1191.13	32.1669
1194.02	9.70215
1196.91	14.4557
1199.8	33.8308
1202.7	39.7135
1205.59	4.19104
1208.48	27.3151
1211.38	64.9294
1214.27	33.3839
1217.16	45.5885
1220.05	25.694
1222.95	25.6262
1225.84	19.4176
1228.73	2.53088
1231.62	0
