Measurement: Raman, 532 nm, unoriented, Raman Data Processed
Mineral: Grunerite
Rruff sample: R070204
Ideal chemistry: [box]Fe^2+^_7_Si_8_O_22_(OH)_2_
Locality: Penge mine, Transvaal, South Africa
Source: California Institute of Technology
Description: Aggregate of tan colored parallel fibers
Measured chemistry: ([box]_0.98_Na_0.02_)_Σ=1_(Fe_5.24_Mg_1.59_Mn_0.08_[box]_0.03_Al_0.04_Ca_0.02_)_Σ=7_Si_8.00_O_22_(OH)_2_ ; OH estimated by difference and charge balance
Raman shift (cm-1)	intensity
157.413	0
160.306	16.3377
163.199	54.4116
166.091	0.70459
168.984	57.3872
171.877	163.805
174.77	352.448
177.662	551.043
180.555	678.183
183.448	662.813
186.34	569.397
189.233	441.675
192.126	338.833
195.018	263.812
197.911	263.582
200.804	260.25
203.697	262.402
206.589	257.845
209.482	268.896
212.375	282.267
215.267	285.561
218.16	232.413
221.053	188.792
223.946	144.765
226.838	79.1864
229.731	103.685
232.624	54.1591
235.516	51.0519
238.409	62.4775
241.302	25.3276
244.194	57.9489
247.087	56.2489
249.98	53.3721
252.873	49.5035
255.765	6.72595
258.658	8.90356
261.551	8.27417
264.443	29.4132
267.336	4.36694
270.229	20.5367
273.121	3.88354
276.014	40.6935
278.907	77.8987
281.8	90.4322
284.692	106.857
287.585	119.755
290.478	115.041
293.37	128.83
296.263	113.465
299.156	119.98
302.048	149.006
304.941	199.144
307.834	186.844
310.726	238.195
313.619	211.457
316.512	185.844
319.405	130.686
322.297	56.8158
325.19	13.6429
328.083	20.8678
330.975	43.0138
333.868	99.446
336.761	183.782
339.654	285.413
342.546	382.656
345.439	429.856
348.332	428.014
351.224	389.066
354.117	342.964
357.01	305.254
359.902	311.583
362.795	337.638
365.688	351.59
368.58	343.398
371.473	255.385
374.366	213.357
377.259	165.034
380.151	158.878
383.044	168.566
385.937	167.769
388.829	228.927
391.722	268.843
394.615	374.52
397.507	385.464
400.4	378.526
403.293	354.058
406.186	321.661
409.078	284.446
411.971	272.837
414.864	273.757
417.756	282.699
420.649	241.311
423.542	217.703
426.435	136.468
429.327	97.6166
432.22	24.1939
435.113	12.9964
438.005	1.48755
440.898	6.62067
443.791	2.05743
446.683	7.96344
449.576	9.07996
452.469	9.40112
455.361	0.251465
458.254	7.49347
461.147	29.4274
464.04	9.98132
466.932	6.61468
469.825	6.09485
472.718	23.1102
475.611	33.6856
478.503	43.7957
481.396	99.4376
484.289	88.5021
487.181	121.059
490.074	145.152
492.967	168.788
495.859	199.388
498.752	240.067
501.645	256.874
504.538	291.637
507.43	301.384
510.323	324.74
513.216	295.556
516.108	311.237
519.001	378.724
521.894	401.449
524.786	449.908
527.679	423.432
530.572	367.617
533.465	317.225
536.357	228.616
539.25	206.269
542.143	151.871
545.035	146.183
547.928	135.041
550.821	136.245
553.713	145.405
556.606	122.881
559.499	110.86
562.391	74.7194
565.284	72.6148
568.177	49.7692
571.07	21.8048
573.962	32.8099
576.855	50.6839
579.748	25.5505
582.64	0.996155
585.533	3.3147
588.426	13.9082
591.318	5.81513
594.211	2.02704
597.104	8.47284
599.997	18.8943
602.889	1.08807
605.782	14.5905
608.675	31.759
611.567	16.4338
614.46	43.41
617.353	84.7169
620.245	118.153
623.138	156.263
626.031	224.932
628.924	289.112
631.816	377.856
634.709	460.027
637.602	582.694
640.494	800.668
643.387	1054.92
646.28	1505.04
649.173	2139.56
652.065	2827.85
654.958	3454.45
657.851	3813.8
660.743	3640.22
663.636	2894.86
666.529	1976.74
669.421	1321.09
672.314	931.639
675.207	664.472
678.1	513.932
680.992	384.713
683.885	326.773
686.778	276.834
689.67	255.95
692.563	188.343
695.456	119.454
698.348	87.3192
701.241	94.284
704.134	35.4355
707.027	42.7221
709.919	10.7231
712.812	26.5281
715.705	20.3166
718.597	8.85168
721.49	10.3799
724.383	0.806152
727.275	1.33264
730.168	9.91132
733.061	35.6168
735.953	71.2118
738.846	63.5143
741.739	103.37
744.632	85.0991
747.524	65.4355
750.417	79.8295
753.31	118.419
756.202	136.73
759.095	146.817
761.988	130.899
764.88	94.9059
767.773	98.4816
770.666	45.0498
773.559	69.3176
776.451	74.1602
779.344	67.0015
782.237	52.9844
785.129	36.848
788.022	1.26685
790.915	18.2864
793.808	29.3779
796.7	7.04962
799.593	11.9809
802.486	2.56415
805.378	19.5053
808.271	12.6213
811.164	0.900513
814.056	4.70624
816.949	6.60138
819.842	13.0864
822.735	3.39954
825.627	11.9937
828.52	1.72302
831.413	10.2318
834.305	4.18536
837.198	4.83276
840.091	4.48547
842.983	29.7838
845.876	19.6423
848.769	28.2025
851.662	28.327
854.554	7.73627
857.447	28.4084
860.34	31.9974
863.232	15.1038
866.125	40.7411
869.018	14.6089
871.91	24.7886
874.803	44.3627
877.696	51.6102
880.589	47.3748
883.481	49.7609
886.374	51.7968
889.267	49.2492
892.159	88.0251
895.052	73.6849
897.945	64.2473
900.837	84.0031
903.73	94.1343
906.623	63.4511
909.516	84.3624
912.408	60.2567
915.301	10.8326
918.194	26.4077
921.086	17.8248
923.979	10.8381
926.872	2.28198
929.764	3.578
932.657	2.91431
935.55	0.852173
938.443	21.3745
941.335	20.4642
944.228	18.8672
947.121	66.3711
950.013	96.3815
952.906	134.453
955.799	177.173
958.692	248.834
961.584	350.079
964.477	353.216
967.37	357.656
970.262	318.413
973.155	276.01
976.048	235.96
978.94	182.165
981.833	176.46
984.726	171.508
987.619	222.929
990.511	276.097
993.404	295.308
996.297	300.396
999.189	325.01
1002.08	375.783
1004.98	410.781
1007.87	557.322
1010.76	712.202
1013.65	877.536
1016.54	1020.28
1019.44	1056.42
1022.33	917.758
1025.22	731.872
1028.12	546.638
1031.01	391.522
1033.9	280.854
1036.79	192.303
1039.69	136.819
1042.58	113.019
1045.47	82.8046
1048.37	35.5063
1051.26	11.1971
1054.15	18.2918
1057.04	8.24719
1059.94	4.70789
1062.83	2.63562
1065.72	8.56018
1068.61	7.15588
1071.51	5.77087
1074.4	12.4893
1077.29	5.88269
1080.18	4.84131
1083.08	0.141113
1085.97	33.6023
1088.86	61.0144
1091.76	82.8466
1094.65	123.535
1097.54	111.439
1100.43	90.5963
1103.33	74.0636
1106.22	53.2211
1109.11	35.3472
1112.01	28.0977
1114.9	2.95178
1117.79	20.3621
1120.68	24.9828
1123.58	7.90356
1126.47	30.9448
1129.36	19.5008
1132.25	24.4465
1135.15	9.27661
1138.04	18.9625
1140.93	28.1787
1143.82	30.7315
1146.72	4.70123
1149.61	10.9161
1152.5	22.072
1155.39	14.334
1158.29	14.1612
1161.18	11.2597
1164.07	21.6486
1166.97	5.33466
1169.86	32.7377
1172.75	20.7278
1175.64	23.3285
1178.54	48.6171
1181.43	22.2889
1184.32	39.993
1187.21	13.666
1190.11	32.6373
1193	41.0734
1195.89	15.3596
1198.79	13.0114
1201.68	28.9229
1204.57	23.9377
1207.46	28.3766
1210.36	20.172
1213.25	10.4663
1216.14	23.3373
1219.04	38.0716
1221.93	21.5813
1224.82	44.1407
1227.71	28.3061
1230.61	31.0615
1233.5	30.0191
1236.39	20.7972
1239.28	25.4979
1242.18	39.8631
1245.07	23.1368
1247.96	25.4833
1250.85	29.9889
1253.75	32.6591
1256.64	55.2066
1259.53	59.2183
1262.42	8.82507
1265.32	29.722
1268.21	21.5657
1271.1	37.9551
1274	17.5575
1276.89	30.3541
1279.78	39.129
1282.67	16.6483
1285.57	31.1669
1288.46	52.1497
1291.35	40.8289
1294.24	17.6504
1297.14	3.59009
1300.03	11.6638
