Measurement: Raman, 785 nm, unoriented, Raman Data Processed
Mineral: Grunerite
Rruff sample: R070186
Ideal chemistry: [box]Fe^2+^_7_Si_8_O_22_(OH)_2_
Locality: Homestake mine, 3800' level, Lead, Lawrence County, South Dakota, USA
Source: California Institute of Technology
Description: Parallel aggregate of brown acicular to fibrous crystals
Measured chemistry: ([box]_0.96_Ca_0.04_)_Σ=1_(Fe_4.34_Mg_2.43_Mn_0.14_Al_0.05_)_Σ=7_(Si_7.95_Al_0.05_)_Σ=8_O_22_(OH)_2_ ; OH estimated by difference
Raman shift (cm-1)	intensity
152.165	0
155.058	36.4431
157.95	219.267
160.843	459.918
163.736	338.31
166.628	115.144
169.521	91.2073
172.414	201.254
175.306	498.145
178.199	901.473
181.092	1294.27
183.985	1841.17
186.877	2054.39
189.77	1882.16
192.663	1364.44
195.555	910.353
198.448	553.472
201.341	415.21
204.233	339.778
207.126	227.737
210.019	177.166
212.912	94.5727
215.804	96.3579
218.697	66.0211
221.59	64.7443
224.482	6.67517
227.375	13.1583
230.268	37.5692
233.161	27.6193
236.053	8.94006
238.946	9.76184
241.839	8.53479
244.731	5.60059
247.624	14.5205
250.517	2.85657
253.409	13.8041
256.302	34.2832
259.195	9.03357
262.087	3.17969
264.98	21.2965
267.873	11.3243
270.766	8.25793
273.658	66.4972
276.551	105.572
279.444	113.98
282.336	164.106
285.229	202.838
288.122	209.13
291.014	154.126
293.907	121.129
296.8	161.538
299.693	95.1841
302.585	101.928
305.478	105.381
308.371	95.9868
311.263	95.8179
314.156	86.2869
317.049	60.493
319.942	59.9264
322.834	5.07788
325.727	11.2299
328.62	12.1505
331.512	33.3746
334.405	93.4573
337.298	157.008
340.19	266.766
343.083	411.812
345.976	536.507
348.868	666.324
351.761	771.342
354.654	735.014
357.547	589.293
360.439	517.067
363.332	452.249
366.225	457.34
369.117	445.868
372.01	350.142
374.903	174.512
377.796	124.82
380.688	75.5574
383.581	48.7722
386.474	69.9462
389.366	117.905
392.259	181.892
395.152	257.324
398.044	349.828
400.937	436.257
403.83	512.063
406.723	513.505
409.615	558.273
412.508	543.841
415.401	530.256
418.293	489.086
421.186	426.12
424.079	383.308
426.971	275.438
429.864	180.317
432.757	92.6947
435.649	30.792
438.542	0.637573
441.435	7.47778
444.328	15.8014
447.22	21.1708
450.113	13.7157
453.006	26.147
455.898	10.083
458.791	16.5284
461.684	31.5648
464.577	50.1801
467.469	62.5336
470.362	59.7931
473.255	58.8544
476.147	62.1509
479.04	93.7893
481.933	106.236
484.825	119.725
487.718	172.268
490.611	248.74
493.503	314.997
496.396	327.599
499.289	376.404
502.182	444.173
505.074	502.485
507.967	556.19
510.86	642.413
513.752	621.685
516.645	608.122
519.538	662.773
522.431	689.433
525.323	794.786
528.216	950.441
531.109	989.058
534.001	870.045
536.894	694.036
539.787	503.076
542.679	415.718
545.572	319.067
548.465	271.779
551.357	217.768
554.25	181.973
557.143	184.009
560.036	187.067
562.928	161.688
565.821	172.897
568.714	92.4549
571.606	78.3857
574.499	48.6586
577.392	32.4102
580.284	19.9723
583.177	30.946
586.07	28.4444
588.963	10.0171
591.855	11.251
594.748	0.90686
597.641	3.50452
600.533	8.39911
603.426	29.1367
606.319	2.01331
609.212	22.2525
612.104	7.13287
614.997	18.23
617.89	41.6707
620.782	70.0476
623.675	120.316
626.568	160.483
629.46	201.894
632.353	258.375
635.246	300.061
638.139	368.062
641.031	472.273
643.924	575.022
646.817	776.802
649.709	1125.92
652.602	1618
655.495	2275.32
658.387	3005.13
661.28	3688.53
664.173	3684.76
667.066	2943.8
669.958	1903.07
672.851	1167.11
675.744	773.882
678.636	558.082
681.529	406.105
684.422	344.196
687.314	308.134
690.207	284.188
693.1	232.958
695.992	188.309
698.885	116.367
701.778	83.7261
704.671	47.7062
707.563	51.4064
710.456	45.0325
713.349	8.62305
716.241	8.35431
719.134	2.24579
722.027	9.7099
724.919	12.3093
727.812	3.86414
730.705	1.66345
733.598	20.2582
736.49	12.7252
739.383	24.5508
742.276	57.4047
745.168	94.3899
748.061	61.9236
750.954	51.3506
753.846	82.7228
756.739	85.9201
759.632	104.859
762.525	138.015
765.417	131.962
768.31	123.885
771.203	73.7455
774.095	88.8755
776.988	67.381
779.881	50.9731
782.774	82.7816
785.666	49.2893
788.559	36.9979
791.452	21.3368
794.344	38.5652
797.237	40.8706
800.13	23.8015
803.022	6.8905
805.915	40.7972
808.808	10.2276
811.701	13.8165
814.593	5.37744
817.486	10.4474
820.379	6.78479
823.271	3.45099
826.164	12.3549
829.057	19.9387
831.949	38.6238
834.842	9.7121
837.735	20.8176
840.628	21.4448
843.52	5.30542
846.413	16.7517
849.306	27.6951
852.198	33.9985
855.091	23.1388
857.984	12.2456
860.876	32.0516
863.769	36.9362
866.662	3.80896
869.554	20.2518
872.447	42.8151
875.34	59.8469
878.233	75.588
881.125	82.0756
884.018	85.4842
886.911	91.6116
889.803	48.4044
892.696	79.0596
895.589	90.0761
898.481	60.0507
901.374	77.9218
904.267	65.593
907.16	79.571
910.052	101.282
912.945	86.5633
915.838	40.8223
918.73	41.5138
921.623	41.0245
924.516	4.46118
927.409	34.2794
930.301	7.85919
933.194	0.762024
936.087	5.15051
938.979	6.09955
941.872	29.4302
944.765	21.5747
947.657	12.3915
950.55	34.6122
953.443	78.777
956.336	79.2194
959.228	105.359
962.121	156.789
965.014	225.087
967.906	276.75
970.799	271.535
973.692	249.187
976.584	217.532
979.477	131.778
982.37	131.271
985.263	101.82
988.155	85.8544
991.048	64.3725
993.941	84.1046
996.833	132.711
999.726	131.449
1002.62	114.259
1005.51	111.628
1008.4	107.735
1011.3	172.464
1014.19	224.594
1017.08	299.012
1019.98	436.603
1022.87	498.098
1025.76	511.214
1028.65	465.369
1031.55	337.472
1034.44	241.172
1037.33	158.158
1040.22	129.403
1043.12	80.3549
1046.01	86.7014
1048.9	51.0502
1051.8	43.4337
1054.69	13.634
1057.58	26.0892
1060.47	32.2417
1063.37	6.30139
1066.26	7.87952
1069.15	5.86139
1072.04	28.569
1074.94	15.0834
1077.83	14.391
1080.72	10.9378
1083.61	27.8
1086.51	20.9903
1089.4	13.8912
1092.29	36.818
1095.18	24.0118
1098.08	54.8648
1100.97	82.3209
1103.86	62.0908
1106.76	50.2015
1109.65	65.0408
1112.54	29.9729
1115.43	18.8607
1118.33	25.974
1121.22	21.3938
1124.11	13.0559
1127.01	12.1648
1129.9	31.5605
1132.79	29.6256
1135.68	22.9963
1138.58	13.3577
1141.47	10.7319
1144.36	16.5101
1147.25	34.3883
1150.15	23.9036
1153.04	7.27564
1155.93	14.6065
1158.82	28.2909
1161.72	36.5572
1164.61	30.1245
1167.5	31.5792
1170.39	25.8107
1173.29	20.4946
1176.18	8.26508
1179.07	48.6281
1181.97	29.9297
1184.86	16.2924
1187.75	31.3841
1190.64	48.7124
1193.54	8.32593
1196.43	22.216
1199.32	26.7701
1202.21	19.0655
1205.11	25.589
1208	11.6337
1210.89	44.3745
1213.79	28.5544
1216.68	1.68213
1219.57	20.4068
1222.46	6.09436
1225.36	14.1156
1228.25	0.24408
