Measurement: Raman, 785 nm, unoriented, Raman Data Processed
Mineral: Guanacoite
Rruff sample: R060811
Ideal chemistry: Cu^2+^_2_Mg_3_(As^5+^O_4_)_2_(OH)_4_4H_2_O
Locality: Guanaco mine, Tal Tal, Chile
Source: Bob Jenkins
Description: Tufts of light blue acicular crystals
Raman shift (cm-1)	intensity
145.151	0
148.044	107.771
150.937	211.466
153.829	215.685
156.722	85.4437
159.615	21.4134
162.508	27.5879
165.4	66.7914
168.293	95.6489
171.186	160.845
174.078	142.785
176.971	172.822
179.864	151.159
182.757	129.375
185.649	70.0455
188.542	52.7778
191.435	43.6039
194.327	11.5483
197.22	4.66925
200.113	17.0017
203.005	81.9439
205.898	104.597
208.791	148.084
211.684	141.764
214.576	124.417
217.469	114.649
220.362	115.195
223.254	66.2366
226.147	19.8296
229.04	23.0404
231.932	6.36218
234.825	18.8223
237.718	16.9313
240.611	7.84143
243.503	27.9241
246.396	24.9095
249.289	67.0109
252.181	104.35
255.074	163.547
257.967	223.123
260.859	371.934
263.752	535.137
266.645	736.306
269.538	855.788
272.43	919.614
275.323	812.53
278.216	690.958
281.108	611.661
284.001	518.794
286.894	492.935
289.786	436.183
292.679	441.392
295.572	535.252
298.465	556.679
301.357	641.461
304.25	738.033
307.143	882.204
310.035	1124.07
312.928	1335.99
315.821	1390.31
318.714	1142.16
321.606	847.151
324.499	515.949
327.392	341.827
330.284	163.737
333.177	49.35
336.07	0.666748
338.962	32.2256
341.855	23.6344
344.748	0.661682
347.641	39.2683
350.533	32.3343
353.426	88.7836
356.319	86.2501
359.211	108.363
362.104	96.1823
364.997	126.743
367.889	150.772
370.782	177.144
373.675	190.283
376.568	250.96
379.46	286.142
382.353	319.486
385.246	326.793
388.138	315.563
391.031	302.097
393.924	288.258
396.816	240.751
399.709	177.834
402.602	141.536
405.495	157.744
408.387	161.959
411.28	149.327
414.173	150.303
417.065	158.081
419.958	170.107
422.851	145.684
425.743	183.852
428.636	190.312
431.529	185.948
434.422	188.614
437.314	207.847
440.207	188.96
443.1	164.909
445.992	143.632
448.885	98.3402
451.778	76.2139
454.67	49.7604
457.563	50.6825
460.456	8.27765
463.349	3.27661
466.241	23.6061
469.134	6.02832
472.027	21.2174
474.919	24.2449
477.812	42.3621
480.705	76.4532
483.597	111.083
486.49	166.347
489.383	208.807
492.276	208.015
495.168	189.915
498.061	155.711
500.954	122.515
503.846	90.3094
506.739	48.8536
509.632	30.3176
512.524	22.1057
515.417	5.72406
518.31	7.48523
521.203	12.1722
524.095	9.46869
526.988	1.93308
529.881	8.90402
532.773	19.6198
535.666	4.65482
538.559	25.712
541.451	25.2668
544.344	27.6394
547.237	4.90137
550.13	48.5819
553.022	32.1509
555.915	44.4306
558.808	31.8334
561.7	43.6325
564.593	46.5058
567.486	16.5984
570.378	55.8275
573.271	42.8685
576.164	60.5518
579.057	52.3595
581.949	43.4441
584.842	57.8487
587.735	46.9471
590.627	54.7716
593.52	24.0509
596.413	6.00696
599.305	40.6534
602.198	19.6367
605.091	28.6103
607.984	22.3192
610.876	18.6407
613.769	32.6691
616.662	25.8662
619.554	40.8972
622.447	36.6433
625.34	16.5098
628.232	31.9479
631.125	40.8012
634.018	10.6526
636.911	0.813782
639.803	28.8343
642.696	5.98605
645.589	2.39749
648.481	35.2193
651.374	26.2163
654.267	3.09656
657.159	33.3325
660.052	26.1703
662.945	38.1487
665.838	21.8823
668.73	11.7688
671.623	30.8204
674.516	2.25058
677.408	18.9075
680.301	18.275
683.194	2.24719
686.086	5.9888
688.979	14.1339
691.872	14.3334
694.765	16.6943
697.657	41.2206
700.55	12.6218
703.443	38.1791
706.335	23.7328
709.228	26.1763
712.121	22.1033
715.013	20.9644
717.906	19.6007
720.799	10.9894
723.692	10.8453
726.584	12.1733
729.477	0.438965
732.37	3.41083
735.262	17.3139
738.155	13.0624
741.048	22.1295
743.94	12.8756
746.833	9.8706
749.726	9.63489
752.619	7.64703
755.511	4.50085
758.404	9.20062
761.297	2.68707
764.189	2.45868
767.082	17.5251
769.975	59.1447
772.867	116.616
775.76	133.226
778.653	172.516
781.545	202.964
784.438	198.984
787.331	193.49
790.224	128.7
793.116	133.114
796.009	89.2914
798.902	27.3957
801.794	60.3902
804.687	79.8566
807.58	101.87
810.472	154.473
813.365	267.836
816.258	337.921
819.151	541.6
822.043	697.602
824.936	791.91
827.829	798.263
830.721	738.923
833.614	583.863
836.507	534.941
839.4	478.148
842.292	453.877
845.185	482.012
848.078	552.549
850.97	664.77
853.863	826.791
856.756	1070.05
859.648	1361.29
862.541	1689.93
865.434	1888.09
868.327	1744.22
871.219	1407.62
874.112	1109.05
877.005	860.656
879.897	729.399
882.79	582.56
885.683	433.179
888.576	335.575
891.468	250.53
894.361	168.754
897.254	106.361
900.146	61.9313
903.039	59.6194
905.932	50.9849
908.824	2.23676
911.717	0.861694
914.61	9.39133
917.503	0.669312
920.395	16.7842
923.288	12.8504
926.181	14.3716
929.073	0.351593
931.966	4.9451
934.859	3.4743
937.751	17.6981
940.644	8.67322
943.537	0.762024
946.43	31.3375
949.322	37.9969
952.215	11.9269
955.108	8.91727
958	13.7763
960.893	35.9003
963.786	65.1068
966.678	47.7053
969.571	46.978
972.464	41.7666
975.357	45.8785
978.249	45.6201
981.142	52.1368
984.035	36.2472
986.927	55.4439
989.82	2.06628
992.713	18.4221
995.605	5.34744
998.498	34.2976
1001.39	19.4979
1004.28	41.27
1007.18	54.9855
1010.07	63.0792
1012.96	56.7389
1015.85	57.0067
1018.75	26.3082
1021.64	43.4349
1024.53	12.4188
1027.42	43.1114
1030.32	57.9198
1033.21	41.1773
1036.1	31.4978
1039	22.8475
1041.89	35.2467
1044.78	64.3739
1047.67	37.2828
1050.57	33.1274
1053.46	22.3706
1056.35	35.6277
1059.24	47.7085
1062.14	40.0673
1065.03	24.6235
1067.92	32.7725
1070.82	11.2094
1073.71	21.477
1076.6	0.288971
1079.49	38.2313
1082.39	21.9968
1085.28	3.01505
1088.17	12.438
1091.07	34.842
1093.96	18.217
1096.85	23.5147
1099.74	23.2486
1102.63	27.2253
1105.53	10.3132
1108.42	26.6875
1111.31	13.3586
1114.21	9.74341
1117.1	8.88275
1119.99	9.94772
1122.88	21.8103
1125.78	15.7849
1128.67	13.1459
1131.56	40.9247
1134.45	26.254
1137.35	24.4111
1140.24	1.15768
1143.13	4.67151
1146.03	10.4307
1148.92	33.2263
1151.81	6.30518
1154.7	24.628
1157.6	18.8524
1160.49	15.1092
1163.38	27.2854
1166.28	46.4124
1169.17	30.3993
1172.06	15.7308
1174.95	26.6075
1177.85	39.5593
1180.74	13.1832
1183.63	22.4276
1186.52	36.9186
1189.42	43.8695
1192.31	47.0607
1195.2	34.3736
1198.09	19.1583
1200.99	49.6959
1203.88	30.6563
1206.77	33.0081
1209.66	24.7694
1212.56	12.8151
1215.45	48.2964
1218.34	2.04272
1221.24	49.7133
1224.13	41.3932
1227.02	31.89
1229.91	40.3118
1232.81	19.6353
1235.7	35.7009
1238.59	22.4673
1241.48	11.6028
1244.38	37.8522
1247.27	40.931
1250.16	11.8657
1253.06	23.1938
1255.95	18.4212
1258.84	0
