Measurement: Raman, 532 nm, unoriented, Raman Data Processed
Mineral: Guanacoite
Rruff sample: R060811
Ideal chemistry: Cu^2+^_2_Mg_3_(As^5+^O_4_)_2_(OH)_4_4H_2_O
Locality: Guanaco mine, Tal Tal, Chile
Source: Bob Jenkins
Description: Tufts of light blue acicular crystals
Raman shift (cm-1)	intensity
115.255	0
118.63	107.894
122.005	239.395
125.38	450.518
128.755	496.99
132.129	707.763
135.504	866.054
138.879	749.208
142.254	852.16
145.629	1135.04
149.003	1329.32
152.378	1592.97
155.753	1631.08
159.128	971.583
162.503	762.929
165.877	970.043
169.252	1391.06
172.627	1778.34
176.002	1910.39
179.377	1751.16
182.751	1311.85
186.126	998.994
189.501	852.377
192.876	889.548
196.251	907.787
199.626	897.874
203	1232.43
206.375	1902.54
209.75	2645.89
213.125	3239.2
216.5	2775.27
219.874	2428.24
223.249	2209.68
226.624	1504.11
229.999	683.073
233.374	199.552
236.749	111.646
240.123	189.054
243.498	138.99
246.873	91.99
250.248	28.311
253.623	0.529
256.997	226.671
260.372	621.952
263.747	1282.54
267.122	2240.95
270.497	3168.26
273.871	3768.68
277.246	3498.57
280.621	2214.2
283.996	1486.6
287.371	1290.69
290.746	1350.92
294.12	1277.37
297.495	1279.05
300.87	1557.9
304.245	2169.21
307.62	2943.06
310.994	3925.69
314.369	4712.91
317.744	4984.77
321.119	3957.31
324.494	2350.58
327.868	1455.61
331.243	1026.02
334.618	782.959
337.993	630.31
341.368	641.134
344.743	1004.98
348.117	1634.59
351.492	2496.16
354.867	3373.17
358.242	3607.7
361.617	3893.16
364.991	4637.75
368.366	5693.81
371.741	6861.24
375.116	7574.56
378.491	8179.36
381.866	8130.32
385.24	7901.13
388.615	7979.69
391.99	8211.81
395.365	7819.3
398.74	6725.41
402.114	5347.64
405.489	4311.08
408.864	3783.99
412.239	3530.61
415.614	3465.95
418.988	3326.26
422.363	3065.82
425.738	3155.53
429.113	3708.49
432.488	4794.81
435.863	5825.41
439.237	6445.57
442.612	6330.33
445.987	5324.55
449.362	3986.49
452.737	2940.32
456.112	2267.67
459.486	1865.29
462.861	1675.37
466.236	1614.02
469.611	1748.74
472.986	2127.77
476.36	2882.35
479.735	4167.72
483.11	6140.82
486.485	8498.06
489.86	10406.2
493.234	10866.7
496.609	8810.22
499.984	5967.52
503.359	3760.32
506.734	2284.32
510.108	1445.27
513.483	894.72
516.858	615.182
520.233	364.441
523.608	160.96
526.983	36.049
530.357	68.28
533.732	138.787
537.107	167.958
540.482	198.352
543.857	187.218
547.231	183.963
550.606	188.775
553.981	172.648
557.356	184.664
560.731	168.098
564.106	167.337
567.48	162.486
570.855	137.669
574.23	113.577
577.605	111.42
580.98	92.569
584.354	79.979
587.729	71.261
591.104	53.656
594.479	34.815
597.854	39.979
601.229	2.226
604.603	8.42
607.978	4.63
611.353	5.299
614.728	16.763
618.103	11.827
621.477	13.27
624.852	27.478
628.227	30.877
631.602	37.026
634.977	39.505
638.351	69.609
641.726	85.736
645.101	98.097
648.476	87.713
651.851	98.312
655.226	80.222
658.6	93.015
661.975	92.9
665.35	77.766
668.725	78.074
672.1	51.914
675.474	74.574
678.849	42.909
682.224	39.472
685.599	40.385
688.974	7.755
692.349	30.811
695.723	27.631
699.098	64.258
702.473	121.879
705.848	122.538
709.222	186.568
712.597	261.555
715.972	329.229
719.347	453.808
722.722	587.321
726.097	712.561
729.471	858.586
732.846	899.955
736.221	930.228
739.596	942.828
742.971	882.963
746.346	764.167
749.72	725.772
753.095	633.023
756.47	592.583
759.845	543.746
763.22	554.558
766.594	641.012
769.969	955.76
773.344	1324.65
776.719	1894.27
780.094	2583.34
783.468	3168.59
786.843	3530.42
790.218	3168.26
793.593	2684.76
796.968	2127.39
800.343	1783.46
803.717	1625.38
807.092	1702.08
810.467	1859.83
813.842	2278.5
817.217	2923.72
820.591	3768.1
823.966	4971.85
827.341	6184.8
830.716	6792.39
834.091	6854.41
837.466	6911.82
840.84	7394.57
844.215	8029.17
847.59	9018.79
850.965	10523.4
854.34	12753.3
857.714	16304.6
861.089	20749.3
864.464	25662.9
867.839	28744.6
871.214	25856.5
874.588	19432.7
877.963	15080.5
881.338	11585.6
884.713	8495.85
888.088	6182.93
891.463	4687.34
894.837	3596.83
898.212	2739.45
901.587	1980.47
904.962	1440.46
908.337	1026.05
911.711	690.294
915.086	437.609
918.461	290.584
921.836	170.546
925.211	85.067
928.586	4.193
931.96	1.312
935.335	68.978
938.71	70.539
942.085	109.669
945.46	118.591
948.834	109.517
952.209	130.009
955.584	123.562
958.959	81.83
962.334	77.51
965.708	92.269
969.083	77.689
972.458	55.947
975.833	3.037
979.208	8.667
982.583	9.654
985.957	20.691
989.332	44.938
992.707	79.157
996.082	90.512
999.457	96.008
1002.83	111.924
1006.21	88.671
1009.58	55.264
1012.96	44.116
1016.33	24.581
1019.71	6.956
1023.08	13.434
1026.45	35.242
1029.83	16.016
1033.2	45.603
1036.58	63.808
1039.95	36.167
1043.33	77.385
1046.7	73.832
1050.08	58.943
1053.45	73.123
1056.83	42.378
1060.2	57.36
1063.58	48.369
1066.95	55.934
1070.33	89.799
1073.7	81.566
1077.08	79.47
1080.45	80.873
1083.83	50.29
1087.2	15.24
1090.58	10.609
1093.95	6.956
1097.33	9.658
1100.7	8.235
1104.08	19.657
1107.45	16.224
1110.83	35.072
1114.2	28.873
1117.58	33.137
1120.95	10.968
1124.33	12.078
1127.7	6.489
1131.07	12.032
1134.45	4.348
1137.82	5.469
1141.2	0.742
1144.57	7.266
1147.95	15.446
1151.32	11.004
1154.7	3.004
1158.07	12.025
1161.45	2
1164.82	21.414
1168.2	19.204
1171.57	19.227
1174.95	9.707
1178.32	18.977
1181.7	4.906
1185.07	9.993
1188.45	23.599
1191.82	1.181
1195.2	1.379
1198.57	11.909
1201.94	3.212
1205.32	13.685
1208.69	3.932
1212.07	13.65
1215.44	13.219
1218.82	5.33
1222.19	10.905
1225.57	11.819
1228.94	20.522
1232.32	15.541
1235.69	7.932
1239.07	35.381
1242.44	3.338
1245.82	2.572
1249.19	5.2
1252.57	11.521
1255.94	8.573
1259.32	9.06
1262.69	11.097
1266.07	9.429
1269.44	10.286
1272.82	33.891
1276.19	11.98
1279.57	10.623
1282.94	16.892
1286.32	12.64
1289.69	19.074
1293.07	6.38
