Measurement: Raman, 785 nm, unoriented, Raman Data Processed
Mineral: Gudmundite
Rruff sample: R060741
Ideal chemistry: FeSbS
Locality: Pezinok, Czechoslovakia
Source: Michael Scott
Description: Silver metallic blebs with a blue surface tarnish associated with quartz, stibnite and kermesite, R060742
Measured chemistry: Fe_1.00_Sb_1.00_S_1.00_ ; trace amounts of As
Raman shift (cm-1)	intensity
133.452	0
136.345	49.446
139.238	208.073
142.13	316.528
145.023	866.93
147.916	1684.47
150.809	2809.07
153.701	2736.54
156.594	1050.74
159.487	830.255
162.379	810.695
165.272	652.475
168.165	390.565
171.057	241.697
173.95	87.0134
176.843	25.45
179.736	19.7067
182.628	20.1174
185.521	19.6215
188.414	30.0053
191.306	45.5658
194.199	73.7263
197.092	10.2308
199.984	95.9939
202.877	159.156
205.77	212.221
208.662	519.964
211.555	786.888
214.448	435.117
217.341	291.798
220.233	266.596
223.126	227.236
226.019	224.95
228.911	300.429
231.804	323.084
234.697	372.357
237.589	651.821
240.482	1203.61
243.375	771.51
246.268	271.268
249.16	177.045
252.053	251.291
254.946	439.278
257.838	124.368
260.731	30.6959
263.624	1.67627
266.517	56.2855
269.409	72.925
272.302	247.194
275.195	548.556
278.087	668.81
280.98	898.396
283.873	1244.96
286.765	2346.68
289.658	3131.03
292.551	1739.53
295.443	1694.64
298.336	2173.15
301.229	3345.39
304.122	5558.22
307.014	5115.48
309.907	2711.75
312.8	1342.13
315.692	481.491
318.585	178.747
321.478	87.0127
324.37	16.3917
327.263	10.8367
330.156	40.5562
333.049	13.5258
335.941	14.2618
338.834	16.4728
341.727	18.7432
344.619	46.5463
347.512	145.952
350.405	317.815
353.298	512.988
356.19	705.265
359.083	1075.26
361.976	1749.23
364.868	1649.02
367.761	796.793
370.654	339.099
373.546	184.669
376.439	139.485
379.332	120.402
382.224	48.9727
385.117	92.5821
388.01	61.7744
390.903	119.11
393.795	86.6046
396.688	27.6703
399.581	31.7059
402.473	7.73181
405.366	10.2419
408.259	1.21118
411.151	3.61041
414.044	6.27979
416.937	4.55212
419.83	29.4287
422.722	50.4298
425.615	65.7211
428.508	65.2995
431.4	22.568
434.293	86.0929
437.186	84.3351
440.079	93.3392
442.971	129.891
445.864	143.779
448.757	176.154
451.649	231.276
454.542	166.137
457.435	167.219
460.327	255.777
463.22	256.217
466.113	255.508
469.005	252.773
471.898	275.234
474.791	216.81
477.684	206.286
480.576	141.26
483.469	130.94
486.362	93.7992
489.254	49.8217
492.147	51.8572
495.04	64.2528
497.933	39.1888
500.825	5.25446
503.718	13.8517
506.611	20.8571
509.503	8.1911
512.396	19.4464
515.289	16.6421
518.181	49.9542
521.074	31.3685
523.967	61.9999
526.86	22.7949
529.752	70.0347
532.645	31.4048
535.538	47.2815
538.43	61.0826
541.323	51.9935
544.216	49.7643
547.108	3.39215
550.001	64.2203
552.894	90.9841
555.787	66.693
558.679	78.0058
561.572	32.6321
564.465	34.4565
567.357	38.6081
570.25	46.5808
573.143	19.7558
576.035	28.6143
578.928	16.2605
581.821	18.121
584.713	22.1974
587.606	32.1667
590.499	92.0206
593.391	22.4971
596.284	55.933
599.177	43.2529
602.07	76.9745
604.962	62.0835
607.855	40.4962
610.748	71.8623
613.64	62.4072
616.533	91.1975
619.426	56.1473
622.318	95.2825
625.211	78.6597
628.104	85.7783
630.997	115.996
633.889	85.8901
636.782	72.2042
639.675	89.316
642.567	112.903
645.46	56.0748
648.353	60.2237
651.245	69.5151
654.138	39.0232
657.031	40.6902
659.924	20.2636
662.816	42.2808
665.709	70.9952
668.602	48.1562
671.494	64.712
674.387	50.3779
677.28	35.125
680.173	60.843
683.065	4.64356
685.958	7.9389
688.851	5.388
691.743	12.6384
694.636	0.249329
697.529	15.1951
700.421	21.734
703.314	23.7418
706.207	16.1942
709.1	9.23401
711.992	59.9999
714.885	30.8868
717.778	46.081
720.67	31.9938
723.563	39.8922
726.456	32.2554
729.348	2.23489
732.241	16.3037
735.134	16.534
738.027	5.06747
740.919	32.5945
743.812	12.0554
746.705	12.0797
749.597	15.4042
752.49	2.89627
755.383	36.9131
758.275	11.6548
761.168	23.0598
764.061	32.8695
766.954	32.2834
769.846	33.9969
772.739	33.7322
775.632	38.0248
778.524	34.0313
781.417	27.0726
784.31	28.2496
787.202	28.5455
790.095	31.9255
792.988	10.7601
795.881	35.5608
798.773	17.2307
801.666	16.4894
804.559	44.5654
807.451	40.1271
810.344	33.1452
813.237	1.67328
816.13	30.2724
819.022	33.9171
821.915	47.3254
824.808	20.578
827.7	16.3495
830.593	39.6947
833.486	40.3943
836.378	44.5726
839.271	45.2485
842.164	2.4328
845.057	41.7112
847.949	33.5761
850.842	41.8458
853.735	84.4755
856.627	42.3274
859.52	32.5048
862.413	17.7464
865.305	59.4595
868.198	31.728
871.091	31.1179
873.984	5.00583
876.876	1.2092
879.769	24.1267
882.662	41.0934
885.554	47.6271
888.447	17.2287
891.34	54.1826
894.232	26.188
897.125	3.25272
900.018	19.884
902.91	23.3295
905.803	21.1806
908.696	10.0033
911.589	4.6037
914.481	14.4198
917.374	37.1641
920.267	16.6682
923.159	25.7569
926.052	31.9315
928.945	10.7061
931.837	23.4367
934.73	26.1015
937.623	8.49023
940.516	17.7651
943.408	48.5735
946.301	15.5582
949.194	13.6704
952.086	30.8873
954.979	0.804413
957.872	39.9235
960.764	29.9029
963.657	22.3698
966.55	51.7877
969.443	2.37634
972.335	8.47876
975.228	52.5146
978.121	25.6392
981.013	37.7856
983.906	35.6906
986.799	34.8776
989.692	23.6497
992.584	15.2492
995.477	22.8204
998.37	13.8284
1001.26	0.374023
1004.15	46.8699
1007.05	30.2364
1009.94	43.6653
1012.83	66.3077
1015.73	41.9683
1018.62	28.1319
1021.51	40.5567
1024.4	40.992
1027.3	41.7364
1030.19	41.1939
1033.08	28.126
1035.97	13.3185
1038.87	40.0146
1041.76	58.7297
1044.65	22.3464
1047.55	34.7355
1050.44	21.1548
1053.33	50.0054
1056.22	27.244
1059.12	12.8207
1062.01	37.9277
1064.9	41.6957
1067.79	50.3525
1070.69	15.115
1073.58	19.2872
1076.47	33.6624
1079.37	16.7224
1082.26	27.9708
1085.15	21.8015
1088.04	22.4216
1090.94	22.4306
1093.83	36.5194
1096.72	24.5309
1099.61	5.08804
1102.51	64.2278
1105.4	13.1588
1108.29	38.1869
1111.18	53.9046
1114.08	28.0701
1116.97	28.0326
1119.86	27.2437
1122.76	24.1277
1125.65	40.1597
1128.54	55.7942
1131.43	37.2362
1134.33	15.0711
1137.22	51.7055
1140.11	38.9559
1143.01	48.7661
1145.9	47.4306
1148.79	67.9816
1151.68	29.6733
1154.58	64.5948
1157.47	26.9558
1160.36	52.322
1163.25	45.294
1166.15	11.7242
1169.04	27.9363
1171.93	30.6506
1174.82	14.3155
1177.72	15.9748
1180.61	42.6038
1183.5	19.0658
1186.39	41.8985
1189.29	31.7822
1192.18	43.3764
1195.07	9.83484
1197.97	21.4163
1200.86	3.60162
1203.75	41.1454
1206.64	58.1926
1209.54	37.9075
1212.43	10.3127
1215.32	7.5184
1218.21	52.8769
1221.11	54.3484
1224	40.0148
1226.89	5.93292
1229.79	56.4394
1232.68	26.8655
1235.57	18.8517
1238.46	33.9814
1241.36	26.8474
1244.25	37.5821
1247.14	33.1521
1250.03	47.9987
1252.93	22.1468
1255.82	4.50958
1258.71	35.0424
1261.61	72.2569
1264.5	57.3062
1267.39	10.1378
1270.28	0.739441
1273.18	0.464417
