Measurement: Raman, 780 nm, unoriented, Raman Data Processed
Mineral: Guilleminite
Rruff sample: R090007
Ideal chemistry: Ba(U^6+^O_2_)_3_(Se^4+^O_3_)_2_O_2_3H_2_O
Locality: Musonoi mine, Kolwezi, Katanga, Democratic Republic of the Congo
Source: William W. Pinch
Description: Yellow transparent thin tabular crystals removed from the structure type specimen of Cooper & Hawthorne (1995) study
Raman shift (cm-1)	intensity
143.963	0
146.856	1.26563
149.749	3.92029
152.642	7.07197
155.534	7.95751
158.427	6.69471
161.32	3.33987
164.212	0.755821
167.105	0.25769
169.998	0.982758
172.89	1.75621
175.783	4.65753
178.676	9.93295
181.569	14.8353
184.461	19.3032
187.354	24.8079
190.247	29.6271
193.139	37.8306
196.032	47.8943
198.925	55.9446
201.817	64.044
204.71	68.7177
207.603	72.3254
210.495	74.5992
213.388	77.2563
216.281	78.0828
219.174	76.5957
222.066	71.2058
224.959	60.9869
227.852	45.8795
230.744	32.238
233.637	24.2856
236.53	18.3954
239.423	17.112
242.315	15.5338
245.208	15.7042
248.101	15.0593
250.993	13.7699
253.886	12.9607
256.779	14.2444
259.671	16.1406
262.564	18.9332
265.457	21.8889
268.349	25.6011
271.242	27.6016
274.135	27.5441
277.028	29.1768
279.92	27.885
282.813	28.4301
285.706	25.9328
288.598	19.6618
291.491	12.7238
294.384	7.55531
297.276	4.67031
300.169	2.01707
303.062	0.612827
305.955	0.397638
308.847	0.143913
311.74	0.961452
314.633	1.01199
317.525	0.490444
320.418	0.259256
323.311	0.427904
326.204	1.00534
329.096	1.9124
331.989	2.13207
334.882	2.55098
337.774	3.3463
340.667	3.85472
343.56	4.975
346.452	6.01201
349.345	7.68971
352.238	9.16219
355.13	9.92982
358.023	9.83728
360.916	7.81729
363.809	5.55532
366.701	3.55618
369.594	1.49958
372.487	0.189095
375.379	0.716351
378.272	1.03194
381.165	0.856215
384.058	0.008759
386.95	1.45609
389.843	2.37637
392.736	3.61281
395.628	5.35486
398.521	8.14793
401.414	11.0067
404.306	14.975
407.199	21.0303
410.092	29.2106
412.985	40.6266
415.877	56.6926
418.77	77.0309
421.663	100.598
424.555	127.785
427.448	156.374
430.341	180.048
433.233	196.445
436.126	192.715
439.019	160.702
441.911	118.986
444.804	85.9373
447.697	63.5527
450.59	49.5672
453.482	43.0115
456.375	41.7151
459.268	44.9256
462.16	50.2039
465.053	57.8729
467.946	65.4191
470.839	71.2243
473.731	70.8927
476.624	61.5532
479.517	48.2282
482.409	34.6603
485.302	23.8173
488.195	16.3858
491.087	11.3909
493.98	7.26262
496.873	5.34401
499.765	3.21698
502.658	1.77537
505.551	0.552694
508.444	0.198313
511.336	0.210014
514.229	0.518959
517.122	0.776834
520.014	1.02651
522.907	0.431004
525.8	0.279875
528.692	0.172407
531.585	0.348349
534.478	0.902451
537.371	1.26952
540.263	2.21029
543.156	3.23269
546.049	4.06548
548.941	5.06416
551.834	6.47267
554.727	7.70889
557.62	8.59799
560.512	10.4197
563.405	11.0603
566.298	12.1111
569.19	13.0692
572.083	12.9808
574.976	13.3777
577.868	12.0831
580.761	10.3509
583.654	8.48478
586.546	6.90044
589.439	5.20004
592.332	4.5256
595.225	3.04503
598.117	2.57701
601.01	1.85883
603.903	1.79606
606.795	1.44084
609.688	1.04049
612.581	1.41376
615.473	1.08736
618.366	1.38633
621.259	1.3444
624.152	1.76613
627.044	1.89598
629.937	1.60706
632.83	1.28962
635.722	1.56814
638.615	1.40627
641.508	1.01387
644.4	0.942481
647.293	1.10554
650.186	0.983215
653.079	0.579498
655.971	0.260071
658.864	0.415848
661.757	0.372609
664.649	0.37634
667.542	0.066949
670.435	0.028736
673.327	0.029119
676.22	0.110986
679.113	0.626971
682.006	0.170296
684.898	0.196221
687.791	0.252802
690.684	0.626856
693.576	0.948083
696.469	1.78042
699.362	3.24398
702.255	5.0244
705.147	8.46064
708.04	12.1204
710.933	17.1232
713.825	24.3119
716.718	33.8444
719.611	45.9583
722.503	58.9132
725.396	71.9483
728.289	81.1355
731.182	84.7936
734.074	80.7608
736.967	68.7005
739.86	52.5772
742.752	36.2535
745.645	22.5934
748.538	13.0899
751.43	6.52087
754.323	1.71735
757.216	0.629776
760.109	1.53341
763.001	1.39048
765.894	0.142353
768.787	3.90974
771.679	10.4837
774.572	25.1428
777.465	51.7148
780.357	95.0891
783.25	141.083
786.143	200.508
789.035	285.201
791.928	375.922
794.821	359.471
797.714	249.15
800.606	179.495
803.499	157.208
806.392	166.308
809.284	181.686
812.177	201.228
815.07	235.449
817.962	281.259
820.855	273.163
823.748	166.341
826.641	77.5586
829.533	36.3101
832.426	20.9918
835.319	14.4277
838.211	9.02417
841.104	3.15932
843.997	0.328814
846.889	0.864691
849.782	1.47195
852.675	6.38357
855.568	12.6226
858.46	22.8204
861.353	35.7643
864.246	50.3848
867.138	63.5707
870.031	72.9303
872.924	71.5307
875.817	58.5369
878.709	40.8509
881.602	27.648
884.495	20.6733
887.387	14.4215
890.28	9.18348
893.173	7.12006
896.065	4.94614
898.958	3.48525
901.851	2.56153
904.744	1.69129
907.636	0.480461
910.529	0.120264
913.422	0.529517
916.314	0.61315
919.207	0.713948
922.1	0.386263
924.992	0.206357
927.885	0.153054
930.778	0.419809
933.67	0.904215
936.563	1.1708
939.456	1.53603
942.348	1.93761
945.241	2.67703
948.134	3.07424
951.027	3.71805
953.919	4.09079
956.812	4.56778
959.705	4.61056
962.597	4.27747
965.49	4.4432
968.383	4.22147
971.275	3.58924
974.168	3.43511
977.061	3.06523
979.954	2.27832
982.846	1.90483
985.739	1.65223
988.632	1.4548
991.524	1.32294
994.417	0.938754
997.31	1.03191
1000.2	0.983906
1003.1	0.785568
1005.99	0.78625
1008.88	0.879091
1011.77	0.869094
1014.67	0.740779
1017.56	0.789374
1020.45	0.795326
1023.34	0.521019
1026.24	0.827375
1029.13	0.484755
1032.02	0.902927
1034.91	0.488977
1037.81	0.536208
1040.7	0.370565
1043.59	0.534878
1046.49	0.507674
1049.38	0.434879
1052.27	0.239269
1055.16	0.164785
1058.06	0.12295
1060.95	0.367127
1063.84	0.262226
1066.73	0.229766
1069.63	0.090538
1072.52	0.222918
1075.41	0.003777
1078.31	0.018068
1081.2	0.081027
1084.09	0.062204
1086.98	0.155063
1089.88	0.154511
1092.77	0.185711
1095.66	0.252553
1098.55	0.014601
1101.45	0.391913
1104.34	0.460474
1107.23	0.570258
1110.12	0.361938
1113.02	0.372145
1115.91	0.585666
1118.8	0.399684
1121.7	0.216398
1124.59	0.162816
1127.48	0.127455
1130.37	0.273177
1133.27	0.20883
1136.16	0.00964
1139.05	0.056606
1141.94	0.300041
1144.84	0.116148
1147.73	0.020368
1150.62	0.116522
1153.52	0.09864
1156.41	0.062158
1159.3	0.170296
1162.19	0.103683
1165.09	0.247956
1167.98	0.153817
1170.87	0.214195
1173.77	0.174131
1176.66	0.184054
1179.55	0.388412
1182.44	0.596684
1185.34	0.246256
1188.23	0.275081
1191.12	0.252867
1194.01	0.471384
1196.91	0.325248
1199.8	0.265095
1202.69	0.224082
1205.58	0.487249
1208.48	0.463151
1211.37	0.12156
1214.26	0.037921
1217.15	0.372121
1220.05	0.239458
1222.94	0.173579
1225.83	0.29302
1228.73	0.199039
1231.62	0.31129
1234.51	0.517226
1237.4	0.412864
1240.3	0.084813
1243.19	0.373988
1246.08	0.487211
1248.97	0.376393
1251.87	0.380554
1254.76	0.441277
1257.65	0.308848
1260.55	0.325762
1263.44	0.21006
1266.33	0.134559
1269.22	0.244693
1272.12	0.38952
1275.01	0.167901
1277.9	0.016961
1280.79	0.161257
1283.69	0.041773
