Measurement: Raman, 532 nm, unoriented, Raman Data Processed
Mineral: Guilleminite
Rruff sample: R090007
Ideal chemistry: Ba(U^6+^O_2_)_3_(Se^4+^O_3_)_2_O_2_3H_2_O
Locality: Musonoi mine, Kolwezi, Katanga, Democratic Republic of the Congo
Source: William W. Pinch
Description: Yellow transparent thin tabular crystals removed from the structure type specimen of Cooper & Hawthorne (1995) study
Raman shift (cm-1)	intensity
145.405	0
148.78	38.6162
152.155	23.7432
155.53	58.5508
158.905	112.631
162.279	78.3477
165.654	64.9531
169.029	46.5498
172.404	10.751
175.779	27.7432
179.153	98.8369
182.528	142.042
185.903	138.451
189.278	125.108
192.653	156.408
196.028	180.327
199.402	205.661
202.777	240.602
206.152	265.785
209.527	287.5
212.902	290.845
216.276	309.448
219.651	325.698
223.026	300.374
226.401	225.016
229.776	147.943
233.15	100.532
236.525	104.715
239.9	71.5254
243.275	102.441
246.65	110.314
250.025	103.807
253.399	150.928
256.774	163.269
260.149	147.034
263.524	154.348
266.899	129.595
270.273	100.42
273.648	85.1885
277.023	110.452
280.398	170.157
283.773	187.768
287.147	154.647
290.522	151.37
293.897	114.602
297.272	68.6914
300.647	53.1992
304.022	39.7246
307.396	15.4385
310.771	3.08398
314.146	39.3438
317.521	24.8076
320.896	11.1875
324.271	0.967773
327.645	13.4961
331.02	18.1143
334.395	6.72461
337.77	1.52246
341.145	7.5625
344.519	20.3193
347.894	1.35547
351.269	42.1025
354.644	56.5254
358.019	86.1025
361.394	86.2959
364.768	59.8574
368.143	10.8935
371.518	1.80957
374.893	0.790039
378.267	8.58398
381.642	25.2188
385.017	6.35254
388.392	22.2793
391.767	66.1543
395.142	26.666
398.516	60.3701
401.891	88.3066
405.266	142.51
408.641	199.342
412.016	317.997
415.39	450.429
418.765	595.108
422.14	790.916
425.515	999.392
428.89	1104.54
432.265	1114.69
435.639	1036.49
439.014	835.799
442.389	605.127
445.764	404.595
449.139	304.072
452.514	254.28
455.888	203.163
459.263	221.344
462.638	222.049
466.013	266.805
469.388	312.646
472.762	341.743
476.137	321.958
479.512	282.054
482.887	208.445
486.262	124.802
489.637	86.2773
493.011	61.5107
496.386	52.0381
499.761	16.6084
503.136	8.69336
506.511	11.1187
509.885	12.2227
513.26	3.9585
516.635	4.52783
520.01	3.78662
523.385	7.1416
526.76	22.7803
530.134	6.979
533.509	11.938
536.884	11.2339
540.259	35.063
543.634	26.6836
547.008	65.5176
550.383	63.8286
553.758	91.2378
557.133	84.5552
560.508	78.9136
563.882	94.5117
567.257	103.702
570.632	83.7114
574.007	75.3789
577.382	60.4531
580.756	65.6753
584.131	51.0855
587.506	61.4839
590.881	40.9448
594.256	33.6143
597.631	10.0952
601.005	18.7808
604.38	9.48096
607.755	9.16504
611.13	25.2344
614.505	25.5884
617.88	34.3648
621.254	21.2354
624.629	25.0928
628.004	40.5029
631.379	56.2212
634.754	30.4243
638.128	37.8306
641.503	49.8721
644.878	32.957
648.253	33.3462
651.628	41.7168
655.002	56.0435
658.377	54.581
661.752	27.4419
665.127	25.8203
668.502	32.5996
671.876	26.1148
675.251	10.5645
678.626	17.4858
682.001	3.49121
685.376	21.398
688.751	2.17432
692.125	22.2949
695.5	5.521
698.875	33.1562
702.25	43.2915
705.625	75.5171
709	99.355
712.374	112.922
715.749	199.705
719.124	301.494
722.499	397.783
725.874	486.843
729.248	590.775
732.623	583.965
735.998	527.208
739.373	386.917
742.748	269.444
746.122	163.788
749.497	91.666
752.872	31.6694
756.247	9.54395
759.622	17.707
762.997	10.0303
766.371	7.55127
769.746	70.4585
773.121	123.538
776.496	222.25
779.871	426.707
783.245	837.209
786.62	1445.77
789.995	2276.78
793.37	3169.27
796.745	3316.44
800.12	3136.24
803.494	3315.56
806.869	3451.05
810.244	3035.99
813.619	2369.09
816.994	1901.28
820.368	1582.85
823.743	992.145
827.118	474.427
830.493	216.394
833.868	99.0122
837.242	71.957
840.617	55.3779
843.992	47.1304
847.367	5.46289
850.742	30.7524
854.117	100.55
857.491	154.649
860.866	196.565
864.241	282.81
867.616	322.468
870.991	302.285
874.365	261.177
877.74	185.046
881.115	125.462
884.49	75.228
887.865	49.7778
891.24	30.3091
894.614	18.7188
897.989	38.5679
901.364	24.6831
904.739	4.84766
908.114	6.27686
911.489	10.1289
914.863	2.19922
918.238	18.002
921.613	24.5386
924.988	10.3013
928.362	9.58252
931.737	3.59766
935.112	23.4526
938.487	42.7891
941.862	29.5415
945.237	37.2075
948.611	41.8447
951.986	38.6533
955.361	38.1421
958.736	60.0415
962.111	63.1323
965.486	52.2832
968.86	23.999
972.235	7.77686
975.61	10.0415
978.985	38.1865
982.36	24.9243
985.734	24.5093
989.109	3.71777
992.484	12.1372
995.859	11.3662
999.234	28.0513
1002.61	19.291
1005.98	6.56445
1009.36	3.12549
1012.73	6.2124
1016.11	17.352
1019.48	18.6025
1022.86	33.7915
1026.23	3.46582
1029.61	35.0483
1032.98	28.5444
1036.36	33.0034
1039.73	14.0034
1043.11	12.2646
1046.48	28.1689
1049.86	18.7539
1053.23	8.17383
1056.61	10.7139
1059.98	6.68164
1063.36	25.854
1066.73	10.5
1070.11	5.24463
1073.48	8.97119
1076.85	12.9551
1080.23	30.8218
1083.6	18.0332
1086.98	23.3086
1090.35	0.522461
1093.73	8.50635
1097.1	8.60938
1100.48	5.77051
1103.85	18.0596
1107.23	21.0942
1110.6	24.6645
1113.98	13.9468
1117.35	9.56152
1120.73	0.720703
1124.1	11.2383
1127.48	18.5752
1130.85	9.13086
1134.23	30.3906
1137.6	14.5068
1140.98	5.21875
1144.35	11.0752
1147.73	9.06445
1151.1	20.231
1154.47	15.0625
1157.85	15.206
1161.22	14.3218
1164.6	17.3828
1167.97	12.5591
1171.35	9.88965
1174.72	3.39307
1178.1	10.1055
1181.47	15.7129
1184.85	12.6465
1188.22	6.4541
1191.6	3.55908
1194.97	20.9253
1198.35	13.5732
1201.72	26.5039
1205.1	5.19434
1208.47	16.0757
1211.85	11.2539
1215.22	25.1372
1218.6	19.6484
1221.97	25.8203
1225.35	20.1804
1228.72	10.1277
1232.1	4.59473
1235.47	13.5635
1238.85	0.937012
1242.22	14.6226
1245.6	9.52515
1248.97	15.9526
1252.35	9.26074
1255.72	10.6484
1259.09	7.77539
1262.47	19.5745
1265.84	27.1184
1269.22	35.7236
1272.59	15.136
1275.97	21.0398
1279.34	14.6785
1282.72	11.1692
1286.09	11.7449
1289.47	15.5735
1292.84	19.9311
1296.22	24.8054
1299.59	20.053
1302.97	1.67139
