Measurement: Raman, 785 nm, unoriented, Raman Data Processed
Mineral: Gunningite
Rruff sample: R070571
Ideal chemistry: ZnSO_4_H_2_O
Locality: Rammelsberg, Goslar, Harz Mountains, Lower Saxony, Germany
Source: James Shigley
Description: Fine white powder, with minor component of boyleite
Raman shift (cm-1)	intensity
159.177	0
162.069	2.15942
164.962	106.174
167.855	106.812
170.748	102.767
173.64	149.374
176.533	131.797
179.426	81.0198
182.318	33.4658
185.211	19.093
188.104	38.895
190.996	56.5984
193.889	96.0205
196.782	133.66
199.674	257.563
202.567	448.478
205.46	664.313
208.353	868.785
211.245	1088.06
214.138	1248.82
217.031	1372.08
219.923	1309.76
222.816	1091.12
225.709	880.69
228.601	735.461
231.494	582.945
234.387	413.318
237.28	298.009
240.172	200.258
243.065	124.017
245.958	1.07837
248.85	33.6699
251.743	35.2634
254.636	72.1985
257.529	222.528
260.421	395.746
263.314	498.891
266.207	768.372
269.099	968.477
271.992	1161.44
274.885	1072.33
277.777	772.535
280.67	494.344
283.563	268.885
286.455	188.549
289.348	144.85
292.241	95.4731
295.134	79.853
298.026	84.9731
300.919	87.7363
303.812	114.295
306.704	82.894
309.597	76.0891
312.49	93.5115
315.382	103.631
318.275	39.4609
321.168	54.366
324.061	6.47388
326.953	2.26001
329.846	20.9202
332.739	12.2329
335.631	19.9705
338.524	41.7412
341.417	5.09058
344.31	47.3203
347.202	37.7681
350.095	11.1516
352.988	58.9465
355.88	3.76562
358.773	12.0481
361.666	39.7622
364.558	17.0383
367.451	6.60327
370.344	34.1414
373.236	47.6619
376.129	19.3616
379.022	16.8635
381.915	22.2602
384.807	10.938
387.7	7.21533
390.593	6.92871
393.485	28.9736
396.378	49.4192
399.271	70.2017
402.163	56.3723
405.056	77.0955
407.949	142.916
410.842	275.222
413.734	558.958
416.627	913.486
419.52	1274.74
422.412	1751.73
425.305	1917.88
428.198	1327.51
431.091	647.066
433.983	285.486
436.876	127.737
439.769	115.418
442.661	38.042
445.554	24.1582
448.447	20.3713
451.339	24.2527
454.232	9.23779
457.125	35.0112
460.018	25.9211
462.91	14.7764
465.803	19.1502
468.696	52.6875
471.588	81.4343
474.481	130.86
477.374	183.629
480.267	217.481
483.159	318.279
486.052	413.744
488.945	554.602
491.837	743.576
494.73	969.204
497.623	1127.1
500.515	1200.64
503.408	1170.87
506.301	962.212
509.193	696.81
512.086	496.438
514.979	408.245
517.872	299.075
520.764	308.645
523.657	289.646
526.55	206.16
529.442	181.175
532.335	195.134
535.228	176.131
538.12	115.383
541.013	83.6221
543.906	36.3372
546.799	32.2117
549.691	34.939
552.584	24.4236
555.477	2.76538
558.369	23.905
561.262	6.55957
564.155	15.752
567.048	24.644
569.94	24.9773
572.833	3.15772
575.726	3.98071
578.618	19.9829
581.511	19.7488
584.404	3.07495
587.296	7.45483
590.189	27.1096
593.082	35.7722
595.975	52.4575
598.867	79.6367
601.76	63.7197
604.653	110.725
607.545	208.899
610.438	322.344
613.331	659.394
616.223	806.398
619.116	1684.66
622.009	1797.89
624.902	1731.51
627.794	1508.37
630.687	957.33
633.58	539.959
636.472	265.256
639.365	156.873
642.258	130.651
645.15	95.3958
648.043	112.654
650.936	138.867
653.828	184.248
656.721	206.825
659.614	294.24
662.507	355.058
665.399	332.304
668.292	339.299
671.185	211.919
674.077	159.243
676.97	95.1603
679.863	67.0041
682.755	33.1301
685.648	53.7338
688.541	25.7659
691.434	26.2408
694.326	15.0056
697.219	1.93433
700.112	5.43799
703.004	26.1334
705.897	7.00146
708.79	12.4
711.683	1.53711
714.575	35.0438
717.468	47.3198
720.361	34.769
723.253	0.996948
726.146	43.7961
729.039	27.3667
731.931	37.1397
734.824	20.3585
737.717	25.8497
740.61	68.0116
743.502	35.29
746.395	7.70923
749.288	41.5117
752.18	63.544
755.073	2.04248
757.966	20.2567
760.858	45.6277
763.751	42.1589
766.644	51.0251
769.537	7.7113
772.429	54.4137
775.322	55.3939
778.215	38.6089
781.107	47.7572
784	16.1191
786.893	37.9916
789.785	16.0651
792.678	17.7646
795.571	11.3658
798.463	9.79675
801.356	45.0266
804.249	56.6987
807.142	23.4573
810.034	32.4801
812.927	19.08
815.82	49.7178
818.712	21.345
821.605	6.06482
824.498	6.85998
827.391	0.244629
830.283	17.8657
833.176	47.1669
836.069	7.68445
838.961	38.7601
841.854	37.6364
844.747	27.146
847.639	38.1937
850.532	27.6345
853.425	60.329
856.318	34.887
859.21	30.4248
862.103	30.5533
864.996	47.2395
867.888	23.9699
870.781	35.8929
873.674	59.168
876.567	58.462
879.459	75.1736
882.352	76.7998
885.245	93.4097
888.137	90.9604
891.03	91.9307
893.923	130.106
896.815	97.8554
899.708	105.788
902.601	135.025
905.494	123.891
908.386	83.3296
911.279	61.9629
914.172	53.0392
917.064	81.3745
919.957	55.5958
922.85	24.2844
925.742	32.5413
928.635	44.6465
931.528	20.7739
934.42	35.936
937.313	42.2129
940.206	21.8893
943.099	10.7266
945.991	4.48572
948.884	3.56873
951.777	8.41907
954.669	12.7609
957.562	21.3364
960.455	22.5511
963.347	4.97717
966.24	5.63843
969.133	15.2004
972.026	11.0624
974.918	24.6251
977.811	7.50586
980.704	2.69665
983.596	26.4911
986.489	29.0829
989.382	24.6357
992.274	47.9884
995.167	109.147
998.06	149.638
1000.95	226.832
1003.85	340.115
1006.74	522.406
1009.63	819.388
1012.52	1268.9
1015.42	2112.52
1018.31	3206.46
1021.2	4381.27
1024.09	5222.44
1026.99	5160.64
1029.88	4246.79
1032.77	2898.86
1035.66	1767.29
1038.56	1009.31
1041.45	523.939
1044.34	279.848
1047.24	130.452
1050.13	48.9047
1053.02	92.1981
1055.91	100.756
1058.81	128.958
1061.7	182.284
1064.59	272.447
1067.48	399.013
1070.38	556.094
1073.27	725.906
1076.16	837.244
1079.06	792.744
1081.95	807.78
1084.84	762.14
1087.73	699.435
1090.63	605.429
1093.52	589.423
1096.41	547.995
1099.3	491.52
1102.2	404.04
1105.09	329.897
1107.98	266.977
1110.88	177.002
1113.77	96.8983
1116.66	69.8645
1119.55	51.3284
1122.45	51.5342
1125.34	46.8117
1128.23	2.37231
1131.12	0.827026
1134.02	8.11218
1136.91	13.4401
1139.8	1.21057
1142.69	2.1814
1145.59	1.2688
1148.48	20.645
1151.37	16.5633
1154.27	20.9932
1157.16	0.606323
1160.05	34.6583
1162.94	41.9133
1165.84	39.6338
1168.73	53.1056
1171.62	68.5972
1174.52	79.5475
1177.41	87.8125
1180.3	142.728
1183.19	166.746
1186.09	235.766
1188.98	353.543
1191.87	399.553
1194.76	519.622
1197.66	533.993
1200.55	464.332
1203.44	359.473
1206.33	226.087
1209.23	172.809
1212.12	102.488
1215.01	95.2494
1217.9	44.9192
1220.8	68.053
1223.69	88.3174
1226.58	46.194
1229.48	17.709
1232.37	15.7765
1235.26	29.4025
1238.15	47.796
1241.05	12.6465
1243.94	10.5419
1246.83	34.5638
1249.72	17.6157
1252.62	1.69409
1255.51	7.78833
1258.4	26.3409
1261.3	38.3758
1264.19	42.092
1267.08	9.40149
1269.97	6.40076
1272.87	34.387
