Measurement: Raman, 532 nm, unoriented, Raman Data Processed
Mineral: Gunningite
Rruff sample: R070571
Ideal chemistry: ZnSO_4_H_2_O
Locality: Rammelsberg, Goslar, Harz Mountains, Lower Saxony, Germany
Source: James Shigley
Description: Fine white powder, with minor component of boyleite
Raman shift (cm-1)	intensity
157.741	0
160.634	35.3374
163.527	3.32715
166.419	430.189
169.312	290.416
172.205	306.243
175.098	434.536
177.99	307.173
180.883	301.435
183.776	119.784
186.668	53.1523
189.561	0.92334
192.454	22.8682
195.346	162.256
198.239	354.843
201.132	869.172
204.025	1349.66
206.917	2048.76
209.81	2717.26
212.703	3504.45
215.595	4276.55
218.488	5018.42
221.381	5056.39
224.274	4387.8
227.166	3543.13
230.059	2883.91
232.952	2339.87
235.844	1863.88
238.737	1305.85
241.63	906.198
244.522	456.416
247.415	239.219
250.308	155.816
253.201	246.922
256.093	331.602
258.986	703.366
261.879	1216.54
264.771	1822.53
267.664	2641.73
270.557	3675.63
273.449	4687.46
276.342	4899.36
279.235	3875.78
282.127	2591.92
285.02	1727.58
287.913	1118.67
290.806	680.015
293.698	501.557
296.591	362.522
299.484	290.397
302.376	234.851
305.269	278.515
308.162	269.691
311.055	393.586
313.947	329.069
316.84	294.133
319.733	150.966
322.625	174.239
325.518	95.9898
328.411	14.8989
331.303	41.0586
334.196	4.40918
337.089	10.5063
339.981	5.63867
342.874	59.022
345.767	29.6616
348.66	65.6148
351.552	43.0444
354.445	106.025
357.338	54.4629
360.23	97.7022
363.123	47.7017
366.016	23.2241
368.909	11.669
371.801	87.7647
374.694	30.251
377.587	0.676758
380.479	42.7295
383.372	107.46
386.265	159.994
389.158	19.1045
392.05	9.31055
394.943	3.3916
397.836	61.5737
400.728	155.38
403.621	221.24
406.514	201.052
409.406	449.006
412.299	826.545
415.192	1648.66
418.084	2564.44
420.977	3916.37
423.87	5807.34
426.763	7910.43
429.655	7635.09
432.548	4451.65
435.441	1852.06
438.333	932.769
441.226	442.202
444.119	231.943
447.012	146.855
449.904	116.078
452.797	41.127
455.69	12.6963
458.582	29.7354
461.475	67.0527
464.368	114.486
467.26	177.084
470.153	149.129
473.046	334.685
475.938	434.503
478.831	545.852
481.724	888.244
484.617	1177.02
487.509	1650.88
490.402	2195.05
493.295	2942.46
496.187	3882.08
499.08	4887.51
501.973	5870.5
504.865	6025.19
507.758	5471.56
510.651	4083.04
513.544	2999.99
516.436	2319.38
519.329	1816.53
522.222	1498.94
525.114	1354.65
528.007	1267.89
530.9	1149.4
533.793	933.486
536.685	809.757
539.578	590.817
542.471	446.669
545.363	276.903
548.256	206.997
551.149	224.144
554.041	230.525
556.934	146.3
559.827	3.71289
562.72	42.9893
565.612	65.834
568.505	54.7168
571.398	104.05
574.29	7.27441
577.183	24.665
580.076	25.4258
582.968	43.3272
585.861	114.734
588.754	55.8701
591.646	117.768
594.539	127.232
597.432	99.5664
600.325	307.107
603.217	317.482
606.11	551.895
609.003	673.777
611.895	1187.23
614.788	1946.63
617.681	3362.2
620.573	5189.94
623.466	7458.28
626.359	9029.42
629.252	8704.45
632.144	6975.06
635.037	4173.72
637.93	2209.66
640.822	1217.08
643.715	866.701
646.608	542.485
649.5	592.876
652.393	651.299
655.286	860.955
658.179	1041.18
661.071	1344.41
663.964	1555.22
666.857	1647.08
669.75	1708.27
672.642	1352.69
675.535	940.215
678.428	540.179
681.32	248.944
684.213	185.555
687.106	71.7647
689.998	68.9688
692.891	83.8662
695.784	59.8164
698.677	164.575
701.569	21.7861
704.462	2.31641
707.355	50.5752
710.247	40.7285
713.14	46.5879
716.033	90.7978
718.925	89.3066
721.818	64.9561
724.711	22.1211
727.604	14.7373
730.496	4.68848
733.389	51.9336
736.282	2.5625
739.174	52.4375
742.067	84.458
744.96	84.7158
747.852	89.9228
750.745	123.327
753.638	33.5947
756.53	25.7734
759.423	122.345
762.316	32.0244
765.209	106.818
768.101	98.0381
770.994	147.127
773.887	110.072
776.779	100.588
779.672	86.4316
782.565	146.498
785.457	93.4619
788.35	58.4111
791.243	24.7246
794.136	77.7246
797.028	77.9414
799.921	164.44
802.814	0.679688
805.706	14.4014
808.599	14.5107
811.492	67.6357
814.385	33.831
817.277	67.1201
820.17	48.3633
823.063	116.17
825.955	2.85742
828.848	6.91992
831.741	129.264
834.634	111.616
837.526	143.17
840.419	149.477
843.312	129.947
846.204	159.199
849.097	265.99
851.99	274.473
854.882	291.85
857.775	246.988
860.668	222.143
863.561	213.413
866.453	143.603
869.346	239.811
872.239	291.461
875.131	345.092
878.024	349.255
880.917	285.108
883.809	359.062
886.702	433.951
889.595	546.069
892.487	576.283
895.38	670.007
898.273	722.291
901.166	759.165
904.058	761.005
906.951	676.909
909.844	684.658
912.736	609.002
915.629	492.41
918.522	487.824
921.414	388.907
924.307	359.877
927.2	292.483
930.093	170.974
932.985	153.446
935.878	53.6768
938.771	114.598
941.663	49.0537
944.556	0.041992
947.449	5.90234
950.341	7.52832
953.234	59.1172
956.127	4.34277
959.02	76.6475
961.912	31.6279
964.805	103.755
967.698	42.0938
970.59	90.9844
973.483	70.9023
976.376	12.6328
979.269	25.8867
982.161	110.024
985.054	167.967
987.947	189.274
990.839	254.03
993.732	395.154
996.625	618.028
999.518	910.351
1002.41	1324.94
1005.3	1888.38
1008.2	2905.3
1011.09	4339.32
1013.98	6936.34
1016.87	11076.8
1019.77	17064.6
1022.66	24480.1
1025.55	31063.9
1028.44	34985.8
1031.34	33350.4
1034.23	26516.5
1037.12	17932.9
1040.02	10776.7
1042.91	5912.7
1045.8	3136.11
1048.69	1724.08
1051.59	870.204
1054.48	564.101
1057.37	463.677
1060.26	618.285
1063.16	915.089
1066.05	1719.84
1068.94	2299.15
1071.84	3357.67
1074.73	4271.53
1077.62	5112.47
1080.51	5552.8
1083.41	5585.12
1086.3	5275.15
1089.19	4979.19
1092.08	4633.96
1094.98	4220.58
1097.87	3793.22
1100.76	3448.9
1103.65	3010.87
1106.55	2580.98
1109.44	2143.59
1112.33	1563.41
1115.22	1085.6
1118.12	769.7
1121.01	439.644
1123.9	334.147
1126.8	217.102
1129.69	19.4258
1132.58	8.75781
1135.47	56.5381
1138.37	27.4326
1141.26	31.9277
1144.15	11.417
1147.05	100.491
1149.94	75.2617
1152.83	0.177734
1155.72	51.833
1158.62	123.19
1161.51	147.399
1164.4	157.767
1167.29	166.602
1170.19	160.895
1173.08	250.97
1175.97	405.833
1178.87	590.153
1181.76	772.617
1184.65	935.934
1187.54	1389.35
1190.44	1917.75
1193.33	2673.86
1196.22	3326.45
1199.11	3922.97
1202.01	3753.05
1204.9	3045.75
1207.79	2193.25
1210.68	1492.12
1213.58	1082.69
1216.47	665.341
1219.36	518.81
1222.26	518.327
1225.15	275.85
1228.04	268.83
1230.93	272.326
1233.83	176.475
1236.72	162.125
1239.61	114.431
1242.5	119.223
1245.4	78.0215
1248.29	37.3516
1251.18	18.3945
1254.08	117.434
1256.97	82.6152
1259.86	81.3018
1262.75	104.947
1265.65	133.137
1268.54	169.159
1271.43	103.574
1274.32	30.9209
1277.22	38.1367
1280.11	121.028
1283	72.7529
1285.89	74.0644
1288.79	27.2246
1291.68	63.2275
1294.57	45.9619
1297.47	0
