Measurement: Raman, 532 nm, unoriented, Raman Data Processed
Mineral: Gustavite
Rruff sample: R110011
Ideal chemistry: AgPbBi_3_S_6_
Locality: Rotgulden, Salzburg, Austria
Source: William Pinch
Description: Black bladed reticulated crystals associated with arsenopyrite, siderite and pyrrhotite
Raman shift (cm-1)	intensity
118.937	0
122.312	3.4724
125.687	2.91657
129.061	5.56684
132.436	7.91721
135.811	14.8516
139.186	6.5875
142.561	0.129307
145.936	2.4899
149.31	2.42161
152.685	0.995453
156.06	10.2066
159.435	32.7853
162.81	52.5487
166.185	68.7617
169.559	85.4381
172.934	101.351
176.309	133.234
179.684	142.331
183.059	149.492
186.433	153.291
189.808	143.505
193.183	135.467
196.558	134.296
199.933	132.306
203.308	126.452
206.682	122.05
210.057	118.514
213.432	116.332
216.807	115.151
220.182	112.317
223.556	102
226.931	92.6686
230.306	82.6847
233.681	74.005
237.056	64.1878
240.43	50.6273
243.805	45.3107
247.18	37.9341
250.555	30.043
253.93	27.8774
257.305	24.3084
260.679	21.5302
264.054	22.9935
267.429	24.224
270.804	25.3016
274.179	31.2194
277.553	35.4597
280.928	37.7891
284.303	38.7262
287.678	31.3242
291.053	22.2649
294.428	13.2739
297.802	10.2439
301.177	5.76033
304.552	8.67606
307.927	4.18089
311.302	0.754272
314.676	2.36655
318.051	1.68459
321.426	1.61671
324.801	3.14642
328.176	1.87476
331.55	1.21557
334.925	3.20859
338.3	0.80719
341.675	1.51338
345.05	2.57383
348.425	1.83549
351.799	5.86604
355.174	3.64952
358.549	3.02295
361.924	4.72375
365.299	5.66584
368.673	5.11205
372.048	5.56379
375.423	5.88786
378.798	5.08528
382.173	5.17082
385.548	7.33518
388.922	6.64296
392.297	4.20735
395.672	2.37601
399.047	4.65681
402.422	3.71063
405.796	3.24383
409.171	2.93153
412.546	4.07802
415.921	5.11894
419.296	4.7839
422.671	3.11851
426.045	5.7261
429.42	4.51121
432.795	1.00473
436.17	2.91562
439.545	2.86061
442.92	1.88121
446.294	1.24062
449.669	2.43301
453.044	3.05915
456.419	1.20205
459.793	1.61832
463.168	1.8774
466.543	3.0958
469.918	2.71982
473.293	1.42189
476.668	0.882591
480.042	1.69286
483.417	3.48103
486.792	2.58153
490.167	1.85744
493.542	2.09786
496.916	0.922344
500.291	0.05183
503.666	1.94944
507.041	0.661415
510.416	2.31688
513.791	0.172649
517.165	2.07277
520.54	2.4626
523.915	0.038734
527.29	3.13176
530.665	3.14596
534.04	1.07238
537.414	0.59573
540.789	1.67471
544.164	1.27617
547.539	0.148216
550.914	3.14762
554.288	1.7815
557.663	2.32718
561.038	1.5501
564.413	2.16006
567.788	1.34788
571.163	2.12076
574.537	1.93676
577.912	0.050201
581.287	2.42123
584.662	2.12414
588.037	0.190971
591.411	3.23462
594.786	2.20081
598.161	0.911606
601.536	1.57736
604.911	2.22664
608.285	3.79482
611.66	2.44868
615.035	1.01132
618.41	4.14557
621.785	2.85791
625.159	3.40744
628.534	0.839123
631.909	0.378761
635.284	1.40084
638.659	1.40547
642.034	0.748375
645.408	1.97095
648.783	1.26831
652.158	1.76265
655.533	0.754799
658.908	1.69801
662.283	1.14755
665.657	3.16681
669.032	2.72119
672.407	3.31112
675.782	2.99656
679.157	3.56175
682.531	2.15752
685.906	0.977909
689.281	0.390133
692.656	1.4757
696.031	2.82736
699.405	3.02968
702.78	0.599293
706.155	1.1616
709.53	1.54771
712.905	2.56121
716.28	2.02471
719.654	3.45375
723.029	1.59993
726.404	2.94608
729.779	1.58473
733.154	2.98673
736.529	2.60688
739.903	3.02518
743.278	2.1787
746.653	4.38827
750.028	2.382
753.403	3.26952
756.777	2.26266
760.152	1.00474
763.527	3.16595
766.902	1.80099
770.277	2.8051
773.652	2.27874
777.026	2.82388
780.401	0.989563
783.776	0.702244
787.151	0.755753
790.526	1.28577
793.9	1.06211
797.275	1.68578
800.65	0.67025
804.025	3.03777
807.4	1.41314
810.774	0.362576
814.149	3.20211
817.524	1.74659
820.899	2.21606
824.274	1.41917
827.649	3.17317
831.023	1.52956
834.398	1.9323
837.773	1.51384
841.148	2.42986
844.523	1.81308
847.898	1.73089
851.272	0.999237
854.647	0.904171
858.022	1.29583
861.397	0.464619
864.771	1.04662
868.146	1.01971
871.521	0.435879
874.896	0.803314
878.271	1.3854
881.646	1.05566
885.02	1.34691
888.395	0.768677
891.77	1.27895
895.145	1.31138
898.52	2.61039
901.894	1.99673
905.269	0.950535
908.644	2.3909
912.019	0.993172
915.394	2.34414
918.769	1.33205
922.143	2.89695
925.518	1.90939
928.893	0.33667
932.268	2.73083
935.643	2.53767
939.018	1.2151
942.392	2.00348
945.767	1.40282
949.142	3.27021
952.517	3.47696
955.892	0.935291
959.266	1.47423
962.641	2.49722
966.016	2.96879
969.391	0.048088
972.766	0.392666
976.14	1.47508
979.515	1.5417
982.89	1.5502
986.265	1.13483
989.64	0.085449
993.015	0.589542
996.389	0.894985
999.764	1.8316
1003.14	2.39959
1006.51	1.74167
1009.89	2.58327
1013.26	1.97697
1016.64	1.96974
1020.01	3.00842
1023.39	2.116
1026.76	0.940071
1030.14	1.55625
1033.51	3.70377
1036.89	0.759827
1040.26	2.09492
1043.64	0.097725
1047.01	2.76891
1050.39	1.61486
1053.76	0.895107
1057.14	1.43874
1060.51	3.5363
1063.89	1.78117
1067.26	2.21685
1070.63	0.015446
1074.01	3.49858
1077.38	0.828369
1080.76	2.36463
1084.13	4.0242
1087.51	2.15713
1090.88	1.85434
1094.26	1.26136
1097.63	0.878036
1101.01	1.20811
1104.38	3.08002
1107.76	0.990726
1111.13	3.42623
1114.51	1.31131
1117.88	0.64959
1121.26	1.41556
1124.63	2.65407
1128.01	3.24204
1131.38	2.07135
1134.76	0.519562
1138.13	3.44209
1141.51	1.4486
1144.88	2.60746
1148.26	2.26326
1151.63	0.992352
1155.01	0.649765
1158.38	1.88891
1161.76	0.02153
1165.13	2.2849
1168.51	0.129498
1171.88	2.64177
1175.26	1.33429
1178.63	3.36756
1182	3.87452
1185.38	1.96766
1188.75	1.79861
1192.13	1.32432
1195.5	2.65847
1198.88	0.898933
1202.25	0.454193
1205.63	2.02569
1209	1.43973
1212.38	1.36023
1215.75	2.74688
1219.13	0.107956
1222.5	2.24329
1225.88	0.319572
1229.25	0.929897
1232.63	4.38448
1236	2.55122
1239.38	1.40318
1242.75	3.92802
1246.13	2.526
1249.5	1.90878
1252.88	2.26121
1256.25	3.2802
1259.62	4.39762
1263	0.018234
1266.38	4.98506
1269.75	5.01815
1273.12	1.89016
1276.5	3.87012
1279.87	4.93293
1283.25	3.4943
1286.62	3.16361
1290	0.187725
1293.37	1.23306
1296.75	4.9273
1300.12	2.99816
