Measurement: Raman, 780 nm, unoriented, Raman Data Processed
Mineral: Gustavite
Rruff sample: R110011
Ideal chemistry: AgPbBi_3_S_6_
Locality: Rotgulden, Salzburg, Austria
Source: William Pinch
Description: Black bladed reticulated crystals associated with arsenopyrite, siderite and pyrrhotite
Raman shift (cm-1)	intensity
140.779	0
143.672	1.80727
146.565	0.370148
149.458	0.439941
152.35	1.73334
155.243	5.68156
158.136	10.4781
161.028	13.8059
163.921	17.4779
166.814	19.0086
169.706	22.1846
172.599	26.314
175.492	28.5453
178.385	34.2491
181.277	34.8098
184.17	35.1266
187.063	36.4081
189.955	34.8676
192.848	37.6716
195.741	39.5393
198.633	43.3997
201.526	46.993
204.419	51.8696
207.311	58.294
210.204	65.8288
213.097	75.8376
215.99	85.1204
218.882	98.6112
221.775	110.705
224.668	123.955
227.56	132.141
230.453	140.063
233.346	144.65
236.238	149.557
239.131	150.142
242.024	148.812
244.917	149.826
247.809	150.289
250.702	146.524
253.595	135.49
256.487	120.464
259.38	102.175
262.273	81.4334
265.166	67.4355
268.058	53.8195
270.951	43.5048
273.844	34.6071
276.736	30.8958
279.629	24.0954
282.522	19.6819
285.414	13.6182
288.307	9.9595
291.2	4.88324
294.092	2.45633
296.985	2.63747
299.878	1.03175
302.771	0.365257
305.663	2.7764
308.556	1.10555
311.449	2.43861
314.341	1.76251
317.234	1.59851
320.127	0.687889
323.019	1.01266
325.912	0.925362
328.805	0.133492
331.698	0.061745
334.59	2.34758
337.483	2.30525
340.376	4.25001
343.268	4.48979
346.161	2.78776
349.054	4.80322
351.947	5.16502
354.839	5.87212
357.732	7.34585
360.625	6.5724
363.517	6.26013
366.41	7.62225
369.303	6.04345
372.195	6.65872
375.088	7.2308
377.981	6.28287
380.873	4.65608
383.766	4.43354
386.659	5.27594
389.552	5.49818
392.444	2.46973
395.337	3.66122
398.23	4.04313
401.122	2.07125
404.015	3.58689
406.908	2.39604
409.8	2.43607
412.693	1.44387
415.586	2.47243
418.479	3.22263
421.371	2.20567
424.264	2.69791
427.157	1.94954
430.049	3.40476
432.942	2.26173
435.835	2.6369
438.728	3.33382
441.62	1.87285
444.513	3.35696
447.406	3.45058
450.298	2.12424
453.191	2.41563
456.084	1.25954
458.976	0.953949
461.869	1.65053
464.762	0.315544
467.654	0.596428
470.547	1.33011
473.44	0.336952
476.333	0.727043
479.225	1.41458
482.118	0.630501
485.011	1.22785
487.903	0.265999
490.796	1.46783
493.689	0.69278
496.582	0.010658
499.474	1.66155
502.367	1.25623
505.26	2.24134
508.152	0.94503
511.045	0.903328
513.938	0.534546
516.83	1.39735
519.723	1.69706
522.616	0.84375
525.509	0.294785
528.401	0.903702
531.294	2.05382
534.187	0.482368
537.079	0.084396
539.972	0.628326
542.865	1.87107
545.757	1.32735
548.65	1.68306
551.543	1.88844
554.436	2.60228
557.328	1.30849
560.221	1.4794
563.114	1.44556
566.006	0.197975
568.899	0.253838
571.792	1.23316
574.684	1.64184
577.577	0.264931
580.47	1.02232
583.362	1.70226
586.255	0.679062
589.148	0.533936
592.041	1.29773
594.933	1.26307
597.826	0.248833
600.719	0.841995
603.611	1.30151
606.504	1.88651
609.397	0.791313
612.29	1.44916
615.182	1.09379
618.075	1.96813
620.968	2.25411
623.86	1.23887
626.753	0.767235
629.646	0.528397
632.538	0.44368
635.431	1.72029
638.324	2.39396
641.217	1.18385
644.109	2.0235
647.002	1.10682
649.895	2.31613
652.787	1.65148
655.68	1.93958
658.573	0.941959
661.466	1.46446
664.358	1.57124
667.251	1.43607
670.144	2.04541
673.036	2.36692
675.929	1.0988
678.822	1.76229
681.714	0.604656
684.607	1.04766
687.5	1.13506
690.393	0.318275
693.285	1.07233
696.178	2.22722
699.071	1.67627
701.963	1.1074
704.856	1.61029
707.749	1.10657
710.641	1.50354
713.534	0.816906
716.427	2.06235
719.319	0.387192
722.212	0.66106
725.105	1.61955
727.998	2.07774
730.89	2.21101
733.783	1.69818
736.676	2.44137
739.568	1.51384
742.461	2.58209
745.354	0.656422
748.246	1.63031
751.139	0.800514
754.032	1.09423
756.925	1.23547
759.817	0.010948
762.71	0.284492
765.603	1.69887
768.495	0.091198
771.388	0.662579
774.281	0.553215
777.173	0.330166
780.066	1.08221
782.959	0.12764
785.852	0.21653
788.744	0.856064
791.637	2.27747
794.53	1.44816
797.422	1.08798
800.315	0.462212
803.208	0.337669
806.101	0.913902
808.993	1.79418
811.886	1.1515
814.779	0.595818
817.671	0.756481
820.564	1.44532
823.457	2.5176
826.349	0.799843
829.242	0.709602
832.135	1.72556
835.028	1.91079
837.92	0.993107
840.813	1.27675
843.706	0.82407
846.598	2.50303
849.491	2.00043
852.384	1.21805
855.276	1.2454
858.169	0.79443
861.062	2.37095
863.955	1.42038
866.847	0.950729
869.74	1.89652
872.633	1.09949
875.525	2.029
878.418	0.434589
881.311	0.462833
884.203	0.730133
887.096	0.139259
889.989	0.656357
892.881	0.910572
895.774	0.490063
898.667	0.56102
901.56	0.794609
904.452	0.435024
907.345	0.537571
910.238	0.172398
913.13	1.29771
916.023	0.386971
918.916	0.396137
921.808	0.119892
924.701	0.057056
927.594	0.289642
930.487	0.324112
933.379	1.63922
936.272	1.32982
939.165	0.406971
942.057	2.09157
944.95	1.74243
947.843	0.270424
950.736	1.69573
953.628	2.03611
956.521	2.06847
959.414	1.31055
962.306	1.47963
965.199	0.779648
968.092	3.2823
970.984	2.64844
973.877	1.78593
976.77	2.05228
979.663	0.662262
982.555	0.834827
985.448	0.338409
988.341	1.66975
991.233	0.744164
994.126	1.52927
997.019	2.13218
999.911	2.32384
1002.8	2.13459
1005.7	0.586761
1008.59	2.15589
1011.48	0.473282
1014.38	0.414288
1017.27	0.496689
1020.16	0.257961
1023.05	1.57219
1025.95	1.05791
1028.84	0.850853
1031.73	1.83674
1034.62	0.937729
1037.52	1.78556
1040.41	0.670376
1043.3	1.31259
1046.19	0.469662
1049.09	1.56229
1051.98	0.621731
1054.87	0.65591
1057.77	0.030579
1060.66	0.032063
1063.55	1.28039
1066.44	0.509182
1069.34	1.31042
1072.23	1.63281
1075.12	1.25653
1078.01	2.78758
1080.91	1.01852
1083.8	0.496513
1086.69	0.714245
1089.59	1.34679
1092.48	1.313
1095.37	0.590683
1098.26	2.61131
1101.16	1.41712
1104.05	0.377514
1106.94	2.58124
1109.83	1.27651
1112.73	1.70931
1115.62	1.09185
1118.51	1.10468
1121.4	0.626957
1124.3	1.32428
1127.19	0.174637
1130.08	2.25536
1132.98	0.545631
1135.87	0.161469
1138.76	0.100594
1141.65	1.35788
1144.55	0.922272
1147.44	0.225979
1150.33	1.16567
1153.22	0.45013
1156.12	1.35788
1159.01	1.94447
1161.9	1.91423
1164.8	2.44548
1167.69	1.88323
1170.58	0.800938
1173.47	1.12587
1176.37	1.54764
1179.26	0.752171
1182.15	2.33161
1185.04	1.97541
1187.94	2.36065
1190.83	0.730701
1193.72	0.780655
1196.62	1.63163
1199.51	1.24358
1202.4	1.83115
1205.29	0.136696
1208.19	2.22782
1211.08	0.012222
1213.97	0.938122
1216.86	0.796661
1219.76	1.11289
1222.65	0.748138
1225.54	0.208305
1228.43	1.31754
1231.33	1.03879
1234.22	0.537796
1237.11	2.64888
1240.01	1.51406
1242.9	2.1923
1245.79	1.46697
1248.68	4.37506
1251.58	1.77205
1254.47	2.43658
1257.36	1.23678
1260.25	1.91112
1263.15	3.02019
1266.04	1.55809
1268.93	1.6771
1271.83	1.17115
1274.72	2.74992
1277.61	1.87797
1280.5	2.83551
1283.4	1.26486
