Measurement: Raman, 780 nm, unoriented, Raman Data Processed
Mineral: Gypsum
Rruff sample: R040029
Ideal chemistry: CaSO_4_2H_2_O
Locality: Twin Buttes, Pima County, Arizona, USA
Source: University of Arizona Mineral Museum
Description: Colorless prismatic crystal
Raman shift (cm-1)	intensity
104.635	0
108.009	11.9206
111.384	17.674
114.759	2.20532
118.134	2.51929
121.509	21.6043
124.883	38.7136
128.258	55.4742
131.633	82.694
135.008	58.9329
138.383	30.7587
141.757	24.1823
145.132	36.5487
148.507	11.6493
151.882	1.94629
155.257	1.95038
158.632	15.5424
162.006	29.2395
165.381	39.3213
168.756	50.2615
172.131	66.7161
175.506	87.7894
178.881	99.5876
182.255	90.3366
185.63	45.2387
189.005	15.5791
192.38	12.2239
195.755	8.58929
199.129	15.5885
202.504	16.4987
205.879	30.6275
209.254	38.8917
212.629	32.4166
216.004	18.3309
219.378	11.3594
222.753	8.3927
226.128	1.10626
229.503	3.98187
232.877	3.5628
236.252	1.95361
239.627	3.40106
243.002	7.18915
246.377	6.84265
249.752	2.99707
253.126	3.8111
256.501	3.20203
259.876	2.18805
263.251	9.8443
266.626	7.44519
270	9.52173
273.375	12.0703
276.75	12.221
280.125	9.99292
283.5	13.8366
286.875	17.7237
290.249	16.1064
293.624	18.8543
296.999	21.7728
300.374	36.667
303.749	33.9817
307.123	36.7028
310.498	40.5326
313.873	39.446
317.248	32.0283
320.623	29.3196
323.998	23.4316
327.372	15.3689
330.747	17.7974
334.122	7.11273
337.497	2.44678
340.872	7.92578
344.247	2.81348
347.621	5.0979
350.996	0.293274
354.371	0.491516
357.746	0.41333
361.12	0.158447
364.495	2.23163
367.87	4.88068
371.245	2.31622
374.62	0.267761
377.995	5.77039
381.369	7.16583
384.744	7.20123
388.119	10.0979
391.494	23.9338
394.869	49.7495
398.243	84.2304
401.618	105.588
404.993	146.913
408.368	198.223
411.743	269.579
415.118	285.25
418.492	157.124
421.867	59.1033
425.242	37.4919
428.617	20.6167
431.992	9.3081
435.366	5.64111
438.741	3.52844
442.116	1.34699
445.491	6.69843
448.866	8.16229
452.241	7.8728
455.615	14.5164
458.99	17.5649
462.365	23.4493
465.74	44.4436
469.115	63.9853
472.49	113.732
475.864	179.233
479.239	260.255
482.614	345.999
485.989	452.102
489.364	574.04
492.738	636.952
496.113	503.53
499.488	267.99
502.863	143.467
506.238	79.9816
509.613	48.0599
512.987	27.3163
516.362	23.2322
519.737	15.0708
523.112	6.06226
526.487	3.67157
529.861	3.90411
533.236	0.94635
536.611	4.22424
539.986	5.60455
543.361	0.942566
546.736	0.573181
550.11	3.73291
553.485	4.53497
556.86	7.40228
560.235	3.99322
563.61	13.0327
566.984	13.2964
570.359	14.1674
573.734	23.1138
577.109	32.3608
580.484	30.5755
583.859	38.035
587.233	34.6014
590.608	42.5891
593.983	48.1345
597.358	50.7494
600.732	63.7219
604.107	72.7761
607.482	89.4667
610.857	103.846
614.232	123.862
617.607	132.229
620.981	124.464
624.356	80.2408
627.731	49.9218
631.106	25.5454
634.481	12.7974
637.856	5.68991
641.23	2.51688
644.605	0.772797
647.98	0.849854
651.355	3.55914
654.73	4.90607
658.104	8.27972
661.479	13.9402
664.854	16.4328
668.229	27.1812
671.604	24.8735
674.979	13.9367
678.353	5.72385
681.728	1.21976
685.103	0.519928
688.478	3.63583
691.852	1.06958
695.227	10.9875
698.602	5.43033
701.977	5.86529
705.352	7.44681
708.727	1.21332
712.101	8.30527
715.476	0.575623
718.851	2.53293
722.226	5.44534
725.601	2.91364
728.976	9.84247
732.35	0.963409
735.725	5.08343
739.1	2.86484
742.475	3.17304
745.85	4.98541
749.224	3.00064
752.599	5.15521
755.974	1.52188
759.349	3.96698
762.724	2.92413
766.098	0.262512
769.473	6.55478
772.848	4.68219
776.223	1.07474
779.598	2.31345
782.973	5.86026
786.347	4.70648
789.722	3.76813
793.097	4.51502
796.472	5.01019
799.847	6.92178
803.221	0.606384
806.596	1.55966
809.971	3.5351
813.346	2.49481
816.721	0.502869
820.096	7.19849
823.47	4.26086
826.845	3.16724
830.22	3.8291
833.595	6.79379
836.97	5.45566
840.345	5.56335
843.719	2.96869
847.094	1.64008
850.469	6.26111
853.844	9.07196
857.219	5.20969
860.593	4.30576
863.968	4.16666
867.343	2.73392
870.718	5.44473
874.093	1.8743
877.467	9.08899
880.842	5.56354
884.217	0.891296
887.592	0.369812
890.967	2.44159
894.342	1.797
897.716	2.16562
901.091	2.45493
904.466	4.62646
907.841	4.74857
911.216	3.202
914.591	4.63861
917.965	0.791382
921.34	4.64044
924.715	1.73724
928.09	4.41565
931.465	1.87991
934.839	0.289154
938.214	5.9545
941.589	2.28436
944.964	0.307709
948.339	2.92368
951.713	9.0217
955.088	6.83475
958.463	2.75372
961.838	5.733
965.213	3.40744
968.587	12.1155
971.962	16.223
975.337	27.2769
978.712	32.1643
982.087	41.1535
985.462	63.0907
988.836	113.372
992.211	229.698
995.586	530.784
998.961	740.604
1002.34	1178.44
1005.71	1765.6
1009.09	2256.98
1012.46	752.239
1015.84	215.439
1019.21	96.7496
1022.59	56.5443
1025.96	33.9804
1029.33	24.9935
1032.71	16.3412
1036.08	10.0984
1039.46	11.8512
1042.83	7.25076
1046.21	1.29855
1049.58	4.4967
1052.96	0.175995
1056.33	1.89862
1059.71	0.162292
1063.08	2.16513
1066.46	0.232544
1069.83	1.16367
1073.21	0.183563
1076.58	2.32034
1079.96	3.04974
1083.33	0.348053
1086.71	2.2579
1090.08	5.25095
1093.46	2.38718
1096.83	4.42865
1100.2	2.36734
1103.58	5.88235
1106.95	9.92029
1110.33	14.443
1113.7	20.2314
1117.08	23.476
1120.45	30.0664
1123.83	46.9637
1127.2	64.2152
1130.58	93.3633
1133.95	127.556
1137.33	153.395
1140.7	145.311
1144.08	116.173
1147.45	61.4451
1150.83	35.0603
1154.2	16.6084
1157.58	11.082
1160.95	5.42255
1164.33	3.80173
1167.7	7.29819
1171.08	0.841156
1174.45	2.40335
1177.83	2.69034
1181.2	2.28778
1184.58	4.52353
1187.95	1.51053
1191.33	4.35098
1194.7	4.23859
1198.08	0.239838
1201.45	1.98428
1204.83	0.013336
1208.2	4.06619
1211.57	1.94437
1214.95	2.81903
1218.32	3.37824
1221.7	4.01572
1225.07	6.28577
1228.45	4.16812
1231.82	7.2161
1235.2	3.12836
1238.57	3.77081
1241.95	4.90991
1245.32	5.11703
1248.7	0.425659
1252.07	2.35232
1255.45	8.25845
1258.82	2.47952
1262.2	8.23138
1265.57	2.03973
1268.95	9.9772
