Measurement: Raman, 532 nm, unoriented, Raman Data Processed
Mineral: Gypsum
Rruff sample: R040029
Ideal chemistry: CaSO_4_2H_2_O
Locality: Twin Buttes, Pima County, Arizona, USA
Source: University of Arizona Mineral Museum
Description: Colorless prismatic crystal
Raman shift (cm-1)	intensity
127.636	0
131.011	41.9723
134.386	36.4652
137.761	24.1939
141.136	36.152
144.511	69.0376
147.885	36.7485
151.26	5.40851
154.635	1.83044
158.01	1.95773
161.385	12.5063
164.76	23.9421
168.134	30.2436
171.509	40.7488
174.884	63.1472
178.259	89.195
181.634	94.9343
185.008	55.6175
188.383	29.4542
191.758	16.709
195.133	23.6587
198.508	25.3916
201.882	40.771
205.257	56.5326
208.632	70.5901
212.007	75.8042
215.382	43.711
218.756	23.0568
222.131	13.769
225.506	8.25671
228.881	0.549957
232.256	2.33054
235.631	2.74805
239.005	0.739258
242.38	5.61053
245.755	2.26157
249.13	3.7717
252.505	8.91629
255.88	3.67734
259.254	1.51804
262.629	5.48712
266.004	6.93967
269.379	11.5877
272.754	13.6015
276.128	11.4244
279.503	7.08359
282.878	11.2797
286.253	16.4049
289.628	11.5008
293.002	19.529
296.377	18.0291
299.752	28.4981
303.127	29.9847
306.502	37.8046
309.877	39.4883
313.251	42.2613
316.626	33.731
320.001	29.4058
323.376	18.7247
326.751	18.4259
330.125	11.0044
333.5	7.45847
336.875	6.34961
340.25	1.87015
343.625	5.24554
347	9.33746
350.374	0.889435
353.749	1.79627
357.124	0.270416
360.499	0.004547
363.874	3.94489
367.248	0.275879
370.623	2.8721
373.998	0.752136
377.373	1.38342
380.748	2.47879
384.123	4.34921
387.497	12.7965
390.872	21.2555
394.247	33.0873
397.622	77.004
400.997	101.56
404.371	131.769
407.746	197.617
411.121	298.804
414.496	358.789
417.871	196.158
421.245	89.7167
424.62	38.8639
427.995	19.6826
431.37	10.5168
434.745	4.82422
438.12	0.351929
441.494	7.00159
444.869	2.89844
448.244	0.533081
451.619	5.7478
454.994	4.01135
458.368	9.5044
461.743	14.995
465.118	24.6245
468.493	43.3191
471.868	78.3532
475.243	130.134
478.617	211.139
481.992	293.519
485.367	409.626
488.742	563.433
492.117	717.309
495.491	600.775
498.866	330.405
502.241	166.366
505.616	98.1106
508.991	53.7095
512.365	30.1163
515.74	21.1299
519.115	14.0234
522.49	9.54309
525.865	4.50397
529.24	6.25055
532.614	0.225647
535.989	2.3407
539.364	0.153503
542.739	4.1557
546.114	3.26294
549.489	2.33173
552.863	5.46301
556.238	8.33246
559.613	13.191
562.988	16.225
566.363	27.899
569.737	26.2125
573.112	34.8449
576.487	38.8726
579.862	41.3471
583.237	47.9788
586.611	55.8311
589.986	61.8895
593.361	63.6899
596.736	78.7513
600.111	88.5171
603.486	112.291
606.86	140.796
610.235	165.288
613.61	196.159
616.985	223.674
620.36	214.498
623.734	159.86
627.109	93.5839
630.484	50.4255
633.859	26.6513
637.234	11.4932
640.609	6.06946
643.983	1.55512
647.358	1.91363
650.733	1.52026
654.108	4.43787
657.483	7.00793
660.857	15.4523
664.232	23.6204
667.607	35.4539
670.982	40.8567
674.357	20.4784
677.731	8.86523
681.106	3.72064
684.481	1.05579
687.856	6.09332
691.231	5.34778
694.606	3.03473
697.98	0.919617
701.355	2.5047
704.73	1.10547
708.105	2.8916
711.48	1.27387
714.855	3.09369
718.229	1.96295
721.604	2.16455
724.979	4.29816
728.354	8.50726
731.729	3.53265
735.103	4.89734
738.478	1.15912
741.853	0.995728
745.228	2.94318
748.603	4.30524
751.977	0.099487
755.352	3.85492
758.727	0.789795
762.102	1.01715
765.477	4.37878
768.852	3.11285
772.226	2.02924
775.601	0.03595
778.976	3.90088
782.351	8.80823
785.726	2.99036
789.1	5.02069
792.475	3.2016
795.85	5.97357
799.225	4.85565
802.6	7.12213
805.975	1.25763
809.349	9.43781
812.724	4.59961
816.099	3.2085
819.474	1.89819
822.849	2.04681
826.223	11.0339
829.598	3.4082
832.973	4.4104
836.348	2.59412
839.723	6.92371
843.097	6.27826
846.472	6.57141
849.847	4.49493
853.222	4.56384
856.597	8.2016
859.972	8.09576
863.346	3.71014
866.721	7.71399
870.096	4.63013
873.471	6.76074
876.846	5.55524
880.221	2.6087
883.595	2.9812
886.97	2.61249
890.345	5.34973
893.72	0.027588
897.095	6.69293
900.469	1.65692
903.844	2.17505
907.219	2.54614
910.594	7.11731
913.969	6.34229
917.343	1.35907
920.718	6.39606
924.093	7.06451
927.468	5.784
930.843	5.06104
934.217	5.26959
937.592	2.4801
940.967	2.80194
944.342	0.123047
947.717	4.59045
951.092	1.80908
954.466	4.8548
957.841	6.58301
961.216	6.55157
964.591	15.1856
967.966	16.3443
971.341	25.9752
974.715	31.05
978.09	45.1009
981.465	64.9457
984.84	89.9446
988.215	144.663
991.589	256.435
994.964	621.582
998.339	1020.95
1001.71	1481.78
1005.09	2726.45
1008.46	4393.91
1011.84	1647.73
1015.21	448.631
1018.59	194.887
1021.96	113.261
1025.34	71.6508
1028.71	44.2012
1032.09	35.648
1035.46	16.4198
1038.84	17.7173
1042.21	12.1935
1045.59	2.79498
1048.96	5.32104
1052.34	2.04535
1055.71	2.67102
1059.09	1.38977
1062.46	3.87225
1065.84	1.20013
1069.21	2.29456
1072.59	1.45142
1075.96	0.121521
1079.34	0.811646
1082.71	4.72937
1086.08	7.27148
1089.46	7.0899
1092.83	7.75232
1096.21	11.3488
1099.58	16.2834
1102.96	16.1463
1106.33	15.6825
1109.71	27.6614
1113.08	36.3591
1116.46	37.7944
1119.83	52.0637
1123.21	65.8885
1126.58	94.4773
1129.96	129.965
1133.33	183.621
1136.71	237.673
1140.08	245.53
1143.46	205.717
1146.83	128.25
1150.21	68.1165
1153.58	29.0373
1156.95	22.5594
1160.33	13.386
1163.7	10.9249
1167.08	7.05255
1170.45	1.31128
1173.83	0.938904
1177.2	5.42444
1180.58	0.85498
1183.95	5.7655
1187.33	2.97473
1190.7	1.57117
1194.08	4.81757
1197.45	1.09247
1200.83	1.98541
1204.2	4.00568
1207.58	3.71429
1210.95	1.02356
1214.33	7.17065
1217.7	6.66644
1221.08	3.92188
1224.45	1.44196
1227.83	15.0112
1231.2	5.03406
1234.58	4.40649
1237.95	6.20624
1241.33	0.991272
1244.7	11.5608
1248.08	5.9184
1251.45	3.37415
1254.83	7.26526
1258.2	5.60907
1261.58	12.944
1264.95	3.61249
1268.32	4.34137
1271.7	9.55554
1275.07	10.1133
1278.45	7.72467
1281.82	7.47583
1285.2	5.72864
1288.57	0.102905
