Measurement: Raman, 532 nm, unoriented, Raman Data Processed
Mineral: Gypsum
Rruff sample: R060509
Ideal chemistry: CaS^6+^O_4_2H_2_O
Locality: Pierre Shale, Hermosa, Custer County, South Dakota, USA
Source: Michael Scott
Description: Colorless tabular single crystal
Raman shift (cm-1)	intensity
90.2653	0
93.6401	387.985
97.0149	48.896
100.39	7.59814
103.765	120.504
107.139	1017.97
110.514	3228.78
113.889	2400.24
117.264	1675.6
120.639	2011
124.013	3296.63
127.388	5029.47
130.763	8481.48
134.138	12759.2
137.513	9109.95
140.888	7984.41
144.262	11675.7
147.637	13620.2
151.012	7418.57
154.387	2880.13
157.762	1000.81
161.137	297.468
164.511	287.681
167.886	389.25
171.261	916.242
174.636	1847.16
178.011	3622.62
181.385	6043.03
184.76	5830.88
188.135	2917.02
191.51	1244.74
194.885	774.799
198.26	772.891
201.634	1249.18
205.009	2132.16
208.384	3860.92
211.759	6054.74
215.133	5978.77
218.508	3662.66
221.883	1855.59
225.258	961.922
228.633	469.742
232.008	210.55
235.382	85.6081
238.757	32.8713
242.132	41.5693
245.507	44.3774
248.882	50.3264
252.256	28.7246
255.631	38.4451
259.006	2.90088
262.381	17.0925
265.756	26.8498
269.131	61.4717
272.505	101.206
275.88	166.714
279.255	216.756
282.63	232.413
286.005	340.231
289.38	431.934
292.754	532.922
296.129	620.282
299.504	856.607
302.879	1072.88
306.254	1442.08
309.628	1817.16
313.003	2291.99
316.378	2514.9
319.753	2179.52
323.128	1588.78
326.502	1096.01
329.877	782.938
333.252	568.125
336.627	398.362
340.002	339.072
343.377	285.628
346.751	179.278
350.126	157.939
353.501	77.2947
356.876	49.7234
360.251	27.1211
363.625	4.85644
367	63.719
370.375	49.5925
373.75	35.6812
377.125	47.3252
380.5	27.8
383.874	23.5842
387.249	144.594
390.624	233.802
393.999	515.961
397.374	1036.28
400.748	2139.36
404.123	3598.13
407.498	6040.51
410.873	11470.8
414.248	21936.6
417.623	23429.1
420.997	9910.26
424.372	3926.76
427.747	1733.49
431.122	899.283
434.497	373.172
437.872	138.898
441.246	46.502
444.621	4.61914
447.996	31.516
451.371	49.3633
454.745	226.385
458.12	404.746
461.495	675.957
464.87	1074.1
468.245	1730.92
471.62	2717.84
474.994	4358.24
478.369	7311.88
481.744	12091.7
485.119	19444.8
488.494	32497.1
491.868	53668.3
495.243	69153.6
498.618	48007.4
501.993	23928.9
505.368	12355.9
508.743	7076.99
512.117	4353.95
515.492	2696.82
518.867	1800.03
522.242	1138.71
525.617	728.366
528.991	443.274
532.366	202.074
535.741	88.7026
539.116	67.8682
542.491	52.2217
545.866	63.3955
549.24	28.6748
552.615	42.8828
555.99	154.617
559.365	260.57
562.74	439.627
566.115	732.85
569.489	1038.43
572.864	1396.59
576.239	1755.98
579.614	2239.69
582.989	2668.62
586.363	3121.9
589.738	3391.42
593.113	3699.62
596.488	4040.87
599.863	4539.64
603.237	5219.18
606.612	6297.98
609.987	7811.06
613.362	9968.94
616.737	12677.4
620.112	14998.3
623.486	14419.5
626.861	10034.4
630.236	5575.48
633.611	2807.14
636.986	1364.37
640.361	626.997
643.735	239.746
647.11	74.1138
650.485	6.27051
653.86	45.9541
657.235	17.6218
660.609	8.64265
663.984	55.1221
667.359	119.614
670.734	172.493
674.109	156.711
677.484	81.9324
680.858	111.036
684.233	96.5308
687.608	135.681
690.983	133.682
694.357	88.5962
697.732	100.149
701.107	98.4448
704.482	125.431
707.857	91.8567
711.232	27.2659
714.606	8.68677
717.981	53.3289
721.356	34.9937
724.731	48.1709
728.106	52.0059
731.481	3.72827
734.855	18.1233
738.23	30.3818
741.605	35.5962
744.98	18.3286
748.355	65.154
751.729	38.5513
755.104	10.4631
758.479	45.9319
761.854	80.6404
765.229	98.5715
768.604	90.7463
771.978	77.3281
775.353	78.5478
778.728	111.348
782.103	129.727
785.478	125.183
788.852	138.794
792.227	112.378
795.602	138.514
798.977	120.032
802.352	116.022
805.726	142.408
809.101	152.369
812.476	137.403
815.851	165.472
819.226	177.352
822.601	198.959
825.975	226.771
829.35	204.458
832.725	228.206
836.1	261.814
839.475	314.315
842.85	304.578
846.224	262.514
849.599	216.237
852.974	221.563
856.349	207.253
859.724	221.062
863.098	201.019
866.473	195.43
869.848	177.73
873.223	173.149
876.598	217.781
879.972	125.451
883.347	98.042
886.722	84.7456
890.097	59.8696
893.472	85.6719
896.847	9.56543
900.221	59.5659
903.596	12.4998
906.971	19.0334
910.346	24.6121
913.721	30.7715
917.096	37.489
920.47	29.9592
923.845	4.40967
927.22	19.5361
930.595	9.26587
933.97	54.8621
937.344	61.0603
940.719	101.418
944.094	194.388
947.469	203.473
950.844	212.743
954.218	339.471
957.593	400.898
960.968	522.662
964.343	729.988
967.718	875.758
971.092	1150.06
974.467	1440.6
977.842	1801.1
981.217	2413.36
984.592	3252.74
987.967	4735.26
991.341	7219.64
994.716	10002.1
998.091	19935.3
1001.47	38196.5
1004.84	79826.9
1008.22	226965
1011.59	224582
1014.97	52104.8
1018.34	17856.1
1021.72	8680.25
1025.09	4987.53
1028.46	3168.47
1031.84	2007.75
1035.21	1388.82
1038.59	954.65
1041.96	622.974
1045.34	459.652
1048.71	304.513
1052.09	173.869
1055.46	74.501
1058.84	36.5452
1062.21	10.1143
1065.59	25.6519
1068.96	4.44311
1072.34	25.843
1075.71	41.5964
1079.09	25.0305
1082.46	13.5002
1085.84	10.363
1089.21	68.5913
1092.59	40.456
1095.96	61.1653
1099.34	152.224
1102.71	217.828
1106.09	248.719
1109.46	337.537
1112.84	440.912
1116.21	622.979
1119.58	786.858
1122.96	1119.41
1126.33	1555.43
1129.71	2360.97
1133.08	3899.42
1136.46	6656.1
1139.83	10580.6
1143.21	13515.2
1146.58	10290.9
1149.96	5282.65
1153.33	2661.32
1156.71	1362
1160.08	759.683
1163.46	447.827
1166.83	228.836
1170.21	131.987
1173.58	63.3801
1176.96	48.6829
1180.33	5.58888
1183.71	19.0496
1187.08	13.9795
1190.46	21.4827
1193.83	4.98438
1197.2	24.8799
1200.58	5.82227
1203.95	84.3247
1207.33	23.2195
1210.7	46.0137
1214.08	60.7451
1217.45	76.4949
1220.83	144.74
1224.2	23.5408
1227.58	94.0548
1230.95	36.2165
1234.33	56.2307
1237.7	85.9358
1241.08	99.135
1244.45	75.5842
1247.83	73.1819
1251.2	124.623
1254.58	26.2261
1257.95	98.7019
1261.33	14.6838
1264.7	47.103
1268.08	48.1643
1271.45	32.0583
1274.83	10.0766
1278.2	26.1511
1281.58	0.397217
1284.95	70.3616
1288.33	42.5813
1291.7	45.0435
1295.08	16.3359
1298.45	58.5786
1301.83	0
