Measurement: Raman, 780 nm, unoriented, Raman Data Processed
Mineral: Gypsum
Rruff sample: R060509
Ideal chemistry: CaS^6+^O_4_2H_2_O
Locality: Pierre Shale, Hermosa, Custer County, South Dakota, USA
Source: Michael Scott
Description: Colorless tabular single crystal
Raman shift (cm-1)	intensity
90.5957	0
93.9705	210.7
97.3453	77.6919
100.72	70.3765
104.095	174.095
107.47	391.066
110.845	594.18
114.219	193.42
117.594	34.2805
120.969	9.75513
124.344	274.03
127.719	696.109
131.094	1270.88
134.468	1728.23
137.843	1173.88
141.218	1126.04
144.593	1650.94
147.968	1703.42
151.342	818.408
154.717	267.697
158.092	62.2957
161.467	5.04773
164.842	6.52246
168.216	53.7332
171.591	151.323
174.966	288.796
178.341	508.411
181.716	802.277
185.09	697.327
188.465	342.133
191.84	158.048
195.215	122.443
198.59	158.467
201.965	250.541
205.339	431.298
208.714	708.266
212.089	990.092
215.464	897.06
218.839	532.693
222.214	286.528
225.588	146.015
228.963	71.6421
232.338	29.0706
235.713	15.6755
239.088	3.33533
242.462	2.75562
245.837	2.08374
249.212	3.85577
252.587	0.818787
255.962	0.227234
259.336	2.38483
262.711	2.87427
266.086	4.52264
269.461	6.82068
272.836	0.39856
276.211	0.921448
279.585	7.79852
282.96	1.15308
286.335	9.47058
289.71	21.4592
293.085	25.7205
296.459	40.4586
299.834	56.4571
303.209	81.4802
306.584	109.734
309.959	157.945
313.334	193.031
316.708	194.799
320.083	162.727
323.458	114.158
326.833	77.415
330.207	52.3171
333.582	36.2485
336.957	27.3152
340.332	16.1754
343.707	15.5771
347.082	6.75812
350.456	3.23834
353.831	1.51923
357.206	0.201233
360.581	1.7171
363.956	0.999817
367.33	3.59589
370.705	2.84277
374.08	7.44782
377.455	16.1037
380.83	24.6769
384.205	34.4998
387.579	51.1847
390.954	79.8011
394.329	116.049
397.704	192.74
401.079	311.316
404.453	463.225
407.828	765.324
411.203	1406.78
414.578	2473.34
417.953	2254.67
421.327	910.844
424.702	336.168
428.077	141.848
431.452	61.0607
434.827	31.5888
438.202	12.0759
441.576	3.64282
444.951	1.55023
448.326	8.75061
451.701	13.1185
455.076	29.3019
458.45	51.0604
461.825	68.3727
465.2	101.925
468.575	160.26
471.95	252.578
475.325	414.703
478.699	696.569
482.074	1111.3
485.449	1782.38
488.824	2976.6
492.199	4867.77
495.573	5910.75
498.948	3957.22
502.323	1962.97
505.698	1006.39
509.073	567.218
512.447	348.7
515.822	221.061
519.197	130.493
522.572	78.2521
525.947	44.77
529.322	21.2297
532.696	0.215759
536.071	9.04791
539.446	15.2506
542.821	9.10535
546.196	3.87396
549.57	9.44647
552.945	25.8775
556.32	52.5544
559.695	75.9139
563.07	99.0168
566.444	135.184
569.819	179.74
573.194	233.209
576.569	286.355
579.944	336.753
583.319	386.841
586.693	438.448
590.068	487.671
593.443	527.096
596.818	592.325
600.193	653.677
603.567	780.86
606.942	938.445
610.317	1174.35
613.692	1493.9
617.067	1898.23
620.442	2211.23
623.816	2064.25
627.191	1410.92
630.566	798.559
633.941	416.261
637.316	225.338
640.69	121.223
644.065	56.556
647.44	30.8884
650.815	6.84564
654.19	0.57074
657.564	1.7049
660.939	5.25366
664.314	0.236084
667.689	9.08777
671.064	17.2654
674.439	21.3713
677.813	9.77704
681.188	13.7708
684.563	15.61
687.938	17.6012
691.313	15.6948
694.688	15.6264
698.062	19.0271
701.437	24.1777
704.812	14.108
708.187	10.7999
711.562	11.0051
714.936	6.65521
718.311	2.2771
721.686	4.14038
725.061	3.93848
728.436	4.7843
731.81	4.8418
735.185	5.69147
738.56	11.3639
741.935	11.7291
745.31	10.6161
748.684	13.9046
752.059	17.6416
755.434	20.8737
758.809	15.2631
762.184	10.5758
765.559	10.2336
768.933	8.73627
772.308	2.49591
775.683	2.14551
779.058	2.05176
782.433	1.65344
785.808	3.62292
789.182	0.538818
792.557	4.72314
795.932	8.25842
799.307	12.0997
802.682	12.1741
806.056	14.7016
809.431	17.1312
812.806	22.7217
816.181	20.7595
819.556	24.2154
822.93	23.4501
826.305	25.3724
829.68	25.7944
833.055	23.4603
836.43	22.3677
839.804	15.1597
843.179	18.3626
846.554	21.3919
849.929	25.7779
853.304	29.8563
856.679	23.3915
860.053	28.0193
863.428	29.0737
866.803	26.5922
870.178	33.2183
873.553	30.0912
876.927	28.987
880.302	22.8353
883.677	20.9563
887.052	20.0084
890.427	14.9945
893.802	6.90399
897.176	4.98956
900.551	4.80872
903.926	5.35034
907.301	7.7926
910.676	2.22559
914.05	3.27905
917.425	0.563965
920.8	1.87
924.175	0.296753
927.55	9.25012
930.924	8.52954
934.299	9.46106
937.674	15.7062
941.049	11.2065
944.424	17.0599
947.799	17.7714
951.173	22.0167
954.548	28.2818
957.923	32.5842
961.298	42.0159
964.673	57.3269
968.047	76.9203
971.422	102.042
974.797	144.389
978.172	196.951
981.547	272.118
984.922	390.655
988.296	594.261
991.671	894.794
995.046	1349.72
998.421	2787.02
1001.8	4910.41
1005.17	10814.9
1008.54	29359
1011.92	23536
1015.29	5411.9
1018.67	1885.54
1022.04	921.28
1025.42	535.976
1028.79	338.805
1032.17	222.869
1035.54	151.516
1038.92	106.058
1042.29	65.8195
1045.67	54.2578
1049.04	34.293
1052.42	27.4173
1055.79	16.2026
1059.17	9.95801
1062.54	12.6928
1065.92	14.2958
1069.29	2.14868
1072.67	7.49805
1076.04	2.9342
1079.42	7.07965
1082.79	7.06506
1086.17	1.42224
1089.54	0.576843
1092.92	11.2303
1096.29	18.0205
1099.66	22.7251
1103.04	36.0339
1106.41	44.7738
1109.79	52.7056
1113.16	64.4853
1116.54	80.2394
1119.91	91.1252
1123.29	127.538
1126.66	171.463
1130.04	271.935
1133.41	445.977
1136.79	732.389
1140.16	1150.7
1143.54	1388.14
1146.91	1006.59
1150.29	530.442
1153.66	272.576
1157.04	153.838
1160.41	98.465
1163.79	70.9947
1167.16	50.083
1170.54	42.979
1173.91	33.46
1177.29	28.8794
1180.66	24.0009
1184.04	15.6898
1187.41	15.4358
1190.79	6.61346
1194.16	6.32636
1197.54	3.37848
1200.91	2.42719
1204.28	1.41107
1207.66	3.65631
1211.03	6.59131
1214.41	6.25
1217.78	10.5143
1221.16	15.8192
1224.53	12.1366
1227.91	16.6138
1231.28	17.5742
1234.66	16.1149
1238.03	20.3588
1241.41	17.992
1244.78	9.34638
1248.16	12.4395
1251.53	9.89215
1254.91	7.80383
1258.28	8.11737
1261.66	4.29291
1265.03	0.107239
1268.41	3.93756
1271.78	2.22278
1275.16	3.6438
1278.53	8.45453
1281.9	7.2063
