Measurement: Raman, 514 nm, unoriented, Raman Data Processed
Mineral: Gypsum
Rruff sample: R040029
Ideal chemistry: CaSO_4_2H_2_O
Locality: Twin Buttes, Pima County, Arizona, USA
Source: University of Arizona Mineral Museum
Description: Colorless prismatic crystal
Raman shift (cm-1)	intensity
162.779	0
166.926	20.307
171.07	64.556
175.213	223.775
179.354	300.813
183.493	230.733
187.63	143.837
191.765	69.754
195.898	89.528
200.029	175.673
204.158	373.732
208.285	634.683
212.41	642.3
216.533	406.629
220.654	230.802
224.773	124.338
228.891	69.441
233.006	50.632
237.119	31.921
241.231	29.772
245.34	49.386
249.448	3.874
253.553	8.172
257.657	25.964
261.758	15.139
265.858	7.468
269.956	38.712
274.052	42.908
278.146	56.119
282.237	30.344
286.327	41.995
290.416	19.719
294.502	40.756
298.586	28.754
302.668	36.7
306.749	81.69
310.827	94.602
314.903	58.607
318.978	59.647
323.051	70.728
327.121	15.63
331.19	9.165
335.257	23.848
339.322	3.129
343.385	0.316
347.446	37.427
351.505	2.921
355.563	41.388
359.618	17.001
363.672	45.285
367.723	30.468
371.773	26.499
375.821	42.303
379.866	56.006
383.91	53.589
387.952	63.13
391.992	88.685
396.031	140.251
400.067	177.8
404.101	322.213
408.134	803.126
412.165	1477.25
416.193	1196.66
420.22	420.614
424.245	138.756
428.268	86.099
432.289	45.759
436.309	52.24
440.326	53.711
444.342	41.872
448.355	61.597
452.367	42.264
456.377	42.035
460.385	85.751
464.391	129.454
468.395	182.298
472.398	262.173
476.398	389.083
480.397	674.027
484.394	1274.02
488.389	2451.96
492.382	3526.97
496.373	2512.92
500.362	1189.46
504.349	600.484
508.335	327.49
512.319	250.518
516.3	139.805
520.28	167.849
524.259	101.752
528.235	63.831
532.209	127.844
536.182	91.988
540.152	100.067
544.121	119.407
548.088	98.541
552.053	101.993
556.017	148.222
559.978	169.367
563.938	215.424
567.895	270.734
571.851	334.632
575.805	401.203
579.758	426.224
583.708	453.278
587.657	543.638
591.603	642.045
595.548	658.617
599.491	771.315
603.432	853.134
607.372	1129.56
611.309	1483.99
615.245	1949.39
619.179	2233.29
623.111	1889.35
627.041	1122.41
630.97	550.97
634.896	258.284
638.821	156.637
642.744	91.442
646.665	21.693
650.584	83.011
654.502	83.32
658.418	15.472
662.331	56.212
666.244	62.516
670.154	38.81
674.062	40.094
677.969	17.399
681.874	24.696
685.777	21.145
689.678	8.402
693.577	41.638
697.475	19.851
701.371	10.054
705.265	16.773
709.157	2.666
713.047	45.027
716.936	6.024
720.823	45.979
724.708	30.972
728.591	74.906
732.472	38.725
736.352	28.478
740.23	41.791
744.106	40.879
747.98	18.434
751.853	5.956
755.723	9.585
759.592	27.837
763.459	20.253
767.325	20.503
771.188	47.722
775.05	37.912
778.91	2.93
782.768	40.179
786.625	10.235
790.479	14.235
794.332	11.613
798.183	18.019
802.033	25.823
805.88	70.954
809.726	8.658
813.57	7.038
817.413	17.703
821.253	17.334
825.092	35.939
828.929	34.63
832.764	40.074
836.598	15.396
840.429	47.052
844.259	52.466
848.088	60.854
851.914	22.173
855.739	27.353
859.562	16.554
863.383	31.605
867.203	28.916
871.02	64.562
874.836	53.504
878.65	51.603
882.463	63.124
886.274	16.996
890.083	73.46
893.89	42.925
897.695	12.001
901.499	62.071
905.301	79.951
909.102	68.914
912.9	7.411
916.697	55.697
920.492	84.828
924.285	37.001
928.077	56.176
931.867	86.61
935.655	60.648
939.442	107.583
943.226	125.837
947.009	68.008
950.791	150.803
954.57	157
958.348	162.275
962.124	176.722
965.899	194.967
969.671	261.901
973.442	315.225
977.211	403.576
980.979	488.951
984.745	733.343
988.509	1067.58
992.271	1321.01
996.032	1868.45
999.791	3587.92
1003.55	9970.41
1007.3	41623
1011.06	31860.6
1014.81	6541.2
1018.56	2436.25
1022.31	1203.06
1026.06	853.619
1029.8	539.449
1033.55	391.801
1037.29	266.78
1041.03	212.851
1044.77	197.839
1048.5	117.316
1052.24	90.394
1055.97	86.492
1059.7	106.746
1063.43	71.333
1067.16	41.516
1070.89	25.756
1074.61	35.905
1078.34	57.605
1082.06	73.986
1085.78	101.424
1089.5	67.994
1093.21	79.417
1096.93	87.779
1100.64	44.329
1104.35	45.568
1108.06	62.396
1111.77	79.115
1115.48	96.847
1119.18	104.583
1122.89	193.405
1126.59	267.588
1130.29	353.402
1133.99	689.931
1137.68	1336.88
1141.38	2028.72
1145.07	1853.44
1148.76	990.315
1152.45	487.414
1156.14	213.957
1159.83	129.527
1163.51	75.088
1167.19	96.564
1170.88	21.013
1174.56	13.649
1178.23	15.827
1181.91	19.194
1185.59	18.939
1189.26	50.62
1192.93	25.128
1196.6	25.391
1200.27	28.631
1203.94	88.705
1207.6	57.565
1211.27	24.554
1214.93	46.581
1218.59	18.744
1222.25	36.631
1225.9	84.63
1229.56	92.612
1233.21	1.322
1236.86	38.99
1240.51	10.398
1244.16	69.21
1247.81	92.771
1251.45	0.802
1255.1	19.406
1258.74	15.799
1262.38	26.11
1266.02	12.324
1269.66	14.7
1273.29	13.396
1276.93	44.779
1280.56	53.744
1284.19	37.53
1287.82	69.212
1291.45	3.813
1295.07	31.351
1298.7	50.186
1302.32	4.851
1305.94	64.408
1309.56	66.599
1313.18	21.271
1316.8	67.771
1320.41	35.082
1324.02	1.248
1327.63	28.001
1331.24	10.619
1334.85	12.125
1338.46	57.662
1342.06	93.64
1345.67	98.089
1349.27	121.459
1352.87	63.665
1356.47	92.296
1360.07	57.705
1363.66	38.328
1367.25	78.512
1370.85	35.345
1374.44	55.288
1378.03	56.888
1381.61	75.129
1385.2	68.477
1388.78	36.577
1392.37	53.313
1395.95	10.711
1399.53	37.88
1403.1	86.599
1406.68	99.596
1410.26	38.052
1413.83	140.713
1417.4	63.937
1420.97	81.052
1424.54	111.561
1428.1	55.523
1431.67	69.542
1435.23	133.551
1438.8	111.619
1442.36	120.449
1445.91	169.764
1449.47	122.23
1453.03	106.739
1456.58	109.432
1460.13	81.787
1463.68	40.573
1467.23	50.68
1470.78	68.266
1474.33	45.326
1477.87	61.514
1481.42	59.19
1484.96	21.962
1488.5	51.728
1492.04	61.531
1495.57	64.452
1499.11	16.445
1502.64	2.031
1506.17	20.61
1509.71	33.74
1513.23	99.883
1516.76	41.182
1520.29	63.087
1523.81	48.935
