Measurement: Raman, 532 nm, unoriented, Raman Data Processed
Mineral: Gyrolite
Rruff sample: R060163
Ideal chemistry: NaCa_16_(Si_23_Al)O_60_(OH)_8_14H_2_O
Locality: Bombay, India
Source: Marcus Origlieri
Description: Spherical aggregate of thin pseudohexagonal blades
Measured chemistry: (Ca_15.50_[box]_0.50_)_Σ=16_(Si_23.00_Al_1.00_)O_60_(OH)_6_·14H_2_O
Raman shift (cm-1)	intensity
150.046	0
152.939	2.38547
155.832	6.49142
158.724	6.68852
161.617	7.48846
164.51	10.5406
167.403	22.0445
170.295	23.3946
173.188	19.2545
176.081	9.20187
178.973	4.98059
181.866	0.277893
184.759	1.0899
187.651	9.08105
190.544	25.1211
193.437	38.8325
196.329	57.7106
199.222	75.4744
202.115	92.5318
205.008	98.2316
207.9	92.1578
210.793	80.4847
213.686	64.1758
216.578	37.7933
219.471	15.8773
222.364	0.130463
225.256	5.57446
228.149	4.09317
231.042	0.664856
233.935	7.04623
236.827	17.7125
239.72	29.4484
242.613	36.9069
245.505	42.8113
248.398	51.1716
251.291	63.7678
254.184	77.7322
257.076	90.761
259.969	112.647
262.862	134.691
265.754	155.311
268.647	173.741
271.54	204.064
274.433	236.048
277.325	263.217
280.218	268.504
283.111	241.209
286.003	180.594
288.896	126.824
291.789	102.582
294.681	90.5493
297.574	82.3745
300.467	59.5046
303.36	34.7088
306.252	20.9233
309.145	15.5953
312.038	11.0949
314.93	7.28052
317.823	2.8295
320.716	0.703094
323.608	3.577
326.501	9.62195
329.394	14.3588
332.287	24.0837
335.179	42.4554
338.072	63.9283
340.965	88.8808
343.857	109.815
346.75	123.855
349.643	132.897
352.536	133.228
355.428	115.361
358.321	77.0078
361.214	46.1301
364.106	29.7299
366.999	21.1015
369.892	12.9701
372.784	8.61969
375.677	1.15375
378.57	1.18408
381.462	2.72498
384.355	0.571716
387.248	0.107086
390.141	4.06247
393.033	7.99933
395.926	10.5722
398.819	12.8021
401.712	13.9238
404.604	6.32056
407.497	0.32666
410.39	2.1318
413.282	0.487976
416.175	0.567474
419.068	2.55261
421.96	9.68677
424.853	13.5738
427.746	16.5351
430.639	21.6506
433.531	27.0296
436.424	25.1575
439.317	27.8188
442.209	31.104
445.102	35.4287
447.995	44.1839
450.887	49.4349
453.78	52.7306
456.673	53.2939
459.566	50.4291
462.458	52.6683
465.351	49.5885
468.244	39.7216
471.136	35.4335
474.029	35.7325
476.922	34.6001
479.815	33.8035
482.707	32.6401
485.6	30.6118
488.493	29.7251
491.385	30.0247
494.278	27.3108
497.171	26.9105
500.063	26.4269
502.956	23.08
505.849	15.7801
508.741	9.65457
511.634	2.94321
514.527	0.519226
517.42	1.82239
520.312	1.84503
523.205	3.90646
526.098	3.39801
528.99	1.40549
531.883	0.675537
534.776	2.00415
537.669	3.84891
540.561	8.57849
543.454	13.7632
546.347	23.0383
549.239	32.9547
552.132	52.3258
555.025	85.6616
557.918	137.701
560.81	197.481
563.703	258.021
566.596	327.388
569.488	401.461
572.381	426.578
575.274	337.427
578.166	227.853
581.059	192.58
583.952	212.861
586.845	266.57
589.737	336.074
592.63	417.56
595.523	486.383
598.415	512.388
601.308	460.836
604.201	356.629
607.093	255.588
609.986	186.296
612.879	138.82
615.771	113.602
618.664	100.011
621.557	94.3121
624.45	92.0685
627.342	93.5401
630.235	91.6841
633.128	88.2625
636.02	64.844
638.913	43.5096
641.806	29.1389
644.699	20.782
647.591	13.4963
650.484	14.2439
653.377	9.46622
656.269	6.5657
659.162	5.5509
662.055	3.03207
664.947	1.57053
667.84	1.21979
670.733	1.39316
673.626	1.37338
676.518	2.11691
679.411	1.74551
682.304	1.26559
685.197	0.945068
688.089	6.6362
690.982	9.92911
693.875	17.7643
696.767	24.3201
699.66	30.542
702.553	35.4164
705.445	31.7483
708.338	22.5662
711.231	12.65
714.124	7.27588
717.016	5.02853
719.909	2.42477
722.802	1.93152
725.694	1.55579
728.587	1.38672
731.48	1.24619
734.372	0.631805
737.265	0.361603
740.158	0.395477
743.051	1.36237
745.943	1.3157
748.836	2.52344
751.729	4.36102
754.621	7.19922
757.514	11.0288
760.407	14.2915
763.299	21.667
766.192	23.6747
769.085	27.6809
771.977	31.6077
774.87	32.6559
777.763	28.3881
780.656	20.568
783.548	14.2626
786.441	10.0995
789.334	7.89136
792.226	6.16228
795.119	3.18463
798.012	1.82144
800.905	1.31986
803.797	0.030487
806.69	0.129288
809.583	0.316788
812.475	0.101456
815.368	0.581436
818.261	0.22084
821.154	0.330856
824.046	1.56828
826.939	3.32434
829.832	4.74159
832.724	5.46483
835.617	3.58011
838.51	1.72588
841.403	3.65645
844.295	2.7619
847.188	2.79677
850.081	2.21536
852.973	2.82762
855.866	2.85362
858.759	2.86935
861.651	1.94929
864.544	3.70558
867.437	0.938095
870.33	1.88264
873.222	0.527008
876.115	0.289917
879.008	0.825256
881.9	1.88727
884.793	1.70328
887.686	2.78616
890.578	0.450455
893.471	2.0677
896.364	0.33992
899.256	1.15305
902.149	2.2421
905.042	1.42795
907.935	1.72189
910.827	0.714722
913.72	2.43503
916.613	2.66095
919.505	2.48425
922.398	2.90219
925.291	2.93747
928.184	0.050873
931.076	0.65741
933.969	0.323242
936.862	1.17795
939.754	1.09103
942.647	1.02286
945.54	0.579498
948.433	0.16745
951.325	0.458282
954.218	0.439056
957.111	0.721283
960.003	0.397736
962.896	0.121918
965.789	0.122589
968.682	0.318665
971.574	0.175354
974.467	0.997925
977.36	2.41251
980.252	4.09073
983.145	5.91904
986.038	7.49954
988.93	8.02182
991.823	6.61295
994.716	7.82214
997.609	9.43234
1000.5	14.6605
1003.39	17.2897
1006.29	22.8505
1009.18	30.5285
1012.07	41.7085
1014.97	51.4481
1017.86	68.4387
1020.75	90.2506
1023.64	113.434
1026.54	136.516
1029.43	154.491
1032.32	167.372
1035.21	172.154
1038.11	165.812
1041	152.407
1043.89	151.727
1046.78	163.229
1049.68	187.864
1052.57	219.098
1055.46	245.622
1058.36	233.714
1061.25	187.221
1064.14	141.138
1067.03	106.593
1069.93	79.0929
1072.82	55.4373
1075.71	38.029
1078.6	22.7979
1081.5	14.0166
1084.39	9.05194
1087.28	3.62067
1090.17	5.72678
1093.07	1.7699
1095.96	0.471039
1098.85	0.64267
1101.75	1.52212
1104.64	1.34286
1107.53	1.52899
1110.42	0.18103
1113.32	0.599152
1116.21	0.848114
1119.1	0.720581
1121.99	2.94363
1124.89	4.70789
1127.78	6.93661
1130.67	6.72839
1133.57	4.25696
1136.46	2.97418
1139.35	2.17862
1142.24	2.28516
1145.14	4.1777
1148.03	4.01459
1150.92	3.18802
1153.81	3.97064
1156.71	6.12265
1159.6	6.11386
1162.49	6.39984
1165.38	4.72192
1168.28	3.51437
1171.17	3.71597
1174.06	3.62665
1176.96	0.384216
1179.85	0.736053
1182.74	0.847809
1185.63	0.067108
1188.53	1.70956
1191.42	1.00714
1194.31	1.42001
1197.2	3.09332
1200.1	2.25809
1202.99	1.99545
1205.88	1.9624
1208.78	2.38309
1211.67	2.01419
1214.56	2.38364
1217.45	2.48489
1220.35	1.79022
1223.24	2.42349
1226.13	1.60556
1229.03	2.2233
1231.92	1.7757
1234.81	2.03506
1237.7	1.54147
1240.6	1.0986
1243.49	1.06598
1246.38	0.643158
1249.27	0.02774
1252.17	0.267639
1255.06	1.82971
1257.95	1.33978
1260.84	2.12225
1263.74	1.21793
1266.63	1.67975
1269.52	2.76837
1272.41	2.95032
1275.31	1.47839
1278.2	2.02158
1281.09	2.39829
1283.99	1.41904
1286.88	0.58548
1289.77	2.44946
1292.66	1.20325
1295.56	1.392
1298.45	0.013672
1301.34	0.62561
