Measurement: Raman, 780 nm, unoriented, Raman Data Processed
Mineral: Gyrolite
Rruff sample: R060163
Ideal chemistry: NaCa_16_(Si_23_Al)O_60_(OH)_8_14H_2_O
Locality: Bombay, India
Source: Marcus Origlieri
Description: Spherical aggregate of thin pseudohexagonal blades
Measured chemistry: (Ca_15.50_[box]_0.50_)_Σ=16_(Si_23.00_Al_1.00_)O_60_(OH)_6_·14H_2_O
Raman shift (cm-1)	intensity
134.452	0
137.344	4.50922
140.237	7.46799
143.13	12.2276
146.022	18.0339
148.915	17.0553
151.808	10.6358
154.701	3.36417
157.593	4.71513
160.486	9.22
163.379	9.12299
166.271	12.3093
169.164	16.0816
172.057	15.1889
174.949	10.3452
177.842	5.67032
180.735	0.104088
183.627	0.529594
186.52	1.65997
189.413	0.794617
192.306	1.71632
195.198	9.33224
198.091	20.9478
200.984	29.8413
203.876	41.8793
206.769	49.9908
209.662	49.9563
212.554	48.7611
215.447	41.6211
218.34	25.9593
221.233	11.0156
224.125	3.41631
227.018	1.16728
229.911	2.80935
232.803	3.86424
235.696	6.74029
238.589	13.4467
241.482	20.8349
244.374	25.9511
247.267	27.8631
250.16	28.6948
253.052	33.183
255.945	37.3623
258.838	43.5733
261.73	50.8587
264.623	54.4165
267.516	58.7505
270.408	67.2808
273.301	90.5143
276.194	107.461
279.087	126.567
281.979	132.442
284.872	117.138
287.765	82.8231
290.657	59.8325
293.55	53.5341
296.443	57.0482
299.335	54.9048
302.228	38.7323
305.121	20.4834
308.014	13.5991
310.906	9.94454
313.799	6.1151
316.692	3.41046
319.584	0.375725
322.477	1.93391
325.37	0.805466
328.262	1.15476
331.155	1.49422
334.048	4.81712
336.94	11.9787
339.833	20.796
342.726	34.1442
345.619	43.7555
348.511	52.1977
351.404	59.9381
354.297	64.3271
357.189	51.5886
360.082	32.2246
362.975	19.9646
365.868	16.6023
368.76	12.9331
371.653	8.77695
374.546	6.55286
377.438	1.47815
380.331	1.26811
383.224	1.35016
386.116	0.965012
389.009	2.41757
391.902	2.84821
394.795	7.49044
397.687	9.11535
400.58	14.8554
403.473	14.0551
406.365	7.30362
409.258	2.14762
412.151	0.165474
415.043	0.89127
417.936	0.332279
420.829	1.50334
423.721	3.3105
426.614	6.47733
429.507	9.34186
432.399	11.773
435.292	15.0171
438.185	15.1156
441.078	16.1513
443.97	16.9458
446.863	19.9614
449.756	25.1948
452.648	29.0182
455.541	30.8854
458.434	31.7453
461.327	28.1273
464.219	27.499
467.112	23.9663
470.005	19.3487
472.897	15.0288
475.79	16.0333
478.683	16.9371
481.575	14.8207
484.468	14.6421
487.361	15.4741
490.253	16.1248
493.146	15.3738
496.039	15.2716
498.932	13.9355
501.824	14.8362
504.717	13.7512
507.61	8.80959
510.502	5.36387
513.395	1.38517
516.288	1.83781
519.181	0.055496
522.073	1.09743
524.966	0.990047
527.859	0.457348
530.751	0.809673
533.644	0.205349
536.537	1.42376
539.429	1.5919
542.322	2.75744
545.215	6.50184
548.107	9.22466
551	13.3183
553.893	20.7633
556.785	31.9622
559.678	48.5715
562.571	66.2375
565.464	97.9868
568.356	142.533
571.249	197.905
574.142	212.563
577.034	152.609
579.927	93.677
582.82	79.554
585.712	83.5272
588.605	100.351
591.498	131.39
594.391	175.582
597.283	220.867
600.176	241.683
603.069	213.763
605.961	159.387
608.854	113.489
611.747	80.9833
614.639	59.5548
617.532	49.4986
620.425	41.6584
623.318	38.4282
626.21	36.1883
629.103	39.3547
631.996	38.2735
634.888	34.9383
637.781	27.0534
640.674	16.626
643.567	11.6477
646.459	8.01235
649.352	5.74629
652.245	4.14922
655.137	5.33159
658.03	2.23588
660.923	2.43024
663.815	0.003189
666.708	0.807751
669.601	0.382473
672.494	0.691692
675.386	0.838024
678.279	1.80776
681.172	0.510376
684.064	0.618702
686.957	0.499428
689.85	1.64168
692.742	3.3599
695.635	7.09261
698.528	9.05466
701.42	12.6206
704.313	15.9096
707.206	14.2202
710.098	7.81806
712.991	3.93792
715.884	2.89399
718.777	2.32115
721.669	0.27359
724.562	0.038471
727.455	0.037411
730.347	0.255348
733.24	0.393135
736.133	0.502518
739.025	0.588356
741.918	0.210838
744.811	0.114326
747.704	1.11004
750.596	1.82628
753.489	1.85187
756.382	1.74202
759.274	3.35061
762.167	5.64048
765.06	7.93714
767.952	11.0383
770.845	13.912
773.738	14.7454
776.631	15.25
779.523	13.1287
782.416	10.8147
785.309	7.0016
788.201	5.05212
791.094	3.22607
793.987	1.57229
796.88	2.51249
799.772	2.90421
802.665	0.840069
805.558	1.28596
808.45	1.83841
811.343	0.365902
814.236	0.903934
817.128	0.576382
820.021	2.3753
822.914	1.68565
825.807	2.36874
828.699	3.47778
831.592	3.21637
834.485	2.22524
837.377	2.53299
840.27	3.41922
843.163	3.43568
846.055	3.37927
848.948	5.41215
851.841	3.76082
854.734	3.55466
857.626	2.46245
860.519	4.06169
863.412	0.754251
866.304	1.56322
869.197	1.741
872.09	2.19399
874.982	3.63008
877.875	3.41212
880.768	1.53173
883.66	1.46576
886.553	1.93393
889.446	0.22596
892.338	1.65748
895.231	0.587454
898.124	0.941181
901.017	1.20002
903.909	0.504848
906.802	0.228912
909.695	2.00867
912.587	0.133669
915.48	1.53849
918.373	0.569675
921.265	1.16714
924.158	0.938456
927.051	0.336203
929.944	0.030115
932.836	0.625132
935.729	0.388153
938.622	1.49072
941.514	1.67592
944.407	1.02011
947.3	1.57694
950.192	0.073536
953.085	0.276058
955.978	0.039642
958.87	0.105377
961.763	0.233227
964.656	1.35183
967.549	1.07172
970.441	0.838171
973.334	0.763548
976.227	0.546825
979.119	0.302401
982.012	0.207193
984.905	1.52733
987.798	2.89046
990.69	3.12396
993.583	4.12527
996.476	3.35015
999.368	4.59439
1002.26	7.54505
1005.15	8.85393
1008.05	11.4385
1010.94	13.7103
1013.83	17.4042
1016.73	22.6928
1019.62	27.1139
1022.51	36.2378
1025.4	45.1235
1028.3	53.1953
1031.19	59.4825
1034.08	64.5958
1036.97	68.3212
1039.87	65.3325
1042.76	58.0126
1045.65	55.2746
1048.54	58.6086
1051.44	68.0982
1054.33	82.9437
1057.22	94.7189
1060.12	90.4477
1063.01	71.4262
1065.9	54.1987
1068.79	40.3381
1071.69	28.3665
1074.58	19.4643
1077.47	13.7568
1080.36	10.2451
1083.26	5.91195
1086.15	2.64331
1089.04	2.92357
1091.93	1.62174
1094.83	1.07309
1097.72	0.045145
1100.61	0.647289
1103.51	0.140818
1106.4	0.006083
1109.29	0.825222
1112.18	0.888702
1115.08	0.890728
1117.97	0.660965
1120.86	3.25208
1123.75	1.68492
1126.65	1.89493
1129.54	3.56222
1132.43	3.5481
1135.33	3.11093
1138.22	2.0683
1141.11	0.28927
1144	1.49186
1146.9	0.698671
1149.79	0.882402
1152.68	2.43535
1155.57	1.00014
1158.47	2.71378
1161.36	3.02982
1164.25	3.57831
1167.14	3.59197
1170.04	1.70638
1172.93	0.988894
1175.82	1.71462
1178.72	1.03286
1181.61	1.68744
1184.5	1.364
1187.39	0.529699
1190.29	0.513887
1193.18	1.81976
1196.07	2.64875
1198.96	0.485909
1201.86	1.28863
1204.75	0.792831
1207.64	0.095398
1210.54	1.67905
1213.43	1.12011
1216.32	1.71191
1219.21	1.29836
1222.11	1.58665
1225	1.60793
1227.89	1.16191
1230.78	0.770721
1233.68	2.46862
1236.57	0.107267
1239.46	1.58699
1242.36	2.37998
1245.25	1.91526
1248.14	1.14895
1251.03	1.94224
1253.93	1.81013
1256.82	2.52748
1259.71	1.84451
1262.6	0.695862
1265.5	2.08494
1268.39	1.06122
1271.28	0.216494
1274.17	2.30893
1277.07	0.853405
1279.96	1.91612
1282.85	0.414343
1285.74	0.411915
