Measurement: Raman, 532 nm, unoriented, Raman Data Processed
Mineral: Gysinite-(Nd)
Rruff sample: R100062
Ideal chemistry: PbNd(CO_3_)_2_(OH)H_2_O
Locality: Kasompi, 70 km west of Kambove, Katanga, Congo
Source: William W Pinch
Description: Pink glassy granular crystals associated with green malachite
Raman shift (cm-1)	intensity
177.273	0
180.166	0.199829
183.059	8.70605
185.951	20.053
188.844	29.6239
191.737	33.6596
194.629	41.1207
197.522	51.8302
200.415	71.4213
203.308	102.762
206.2	129.877
209.093	158.067
211.986	186.742
214.878	212.43
217.771	236.708
220.664	261.596
223.556	279.785
226.449	275.642
229.342	283.279
232.234	293.672
235.127	292.367
238.02	269.258
240.913	263.851
243.805	250.452
246.698	225.122
249.591	196.835
252.483	172.932
255.376	149.21
258.269	112.79
261.161	78.2765
264.054	58.4738
266.947	41.3864
269.84	27.4943
272.732	5.89356
275.625	4.91211
278.518	5.55689
281.41	5.66101
284.303	9.92248
287.196	0.757324
290.089	3.89197
292.981	1.98877
295.874	7.62573
298.767	2.99133
301.659	7.46948
304.552	13.4901
307.445	17.5288
310.337	25.3973
313.23	42.8811
316.123	45.6785
319.015	52.2965
321.908	50.0121
324.801	43.2966
327.694	40.1592
330.586	41.8833
333.479	36.7599
336.372	41.752
339.264	41.8077
342.157	44.7221
345.05	50.0906
347.942	54.9722
350.835	68.0298
353.728	63.3742
356.621	88.1392
359.513	99.3615
362.406	119.371
365.299	128.214
368.191	143.857
371.084	151.622
373.977	165.993
376.87	165.427
379.762	156.935
382.655	145.585
385.548	130.04
388.44	110.712
391.333	94.9895
394.226	72.6338
397.118	61.938
400.011	44.522
402.904	39.4456
405.796	39.0364
408.689	27.894
411.582	22.8274
414.475	19.1865
417.367	14.4348
420.26	8.67212
423.153	7.11768
426.045	0.459229
428.938	0.435547
431.831	1.25928
434.724	3.46045
437.616	9.90552
440.509	1.51392
443.402	2.59619
446.294	3.48291
449.187	1.38306
452.08	0.01416
454.972	0.53418
457.865	0.871826
460.758	0.507568
463.651	3.14429
466.543	11.9329
469.436	9.42505
472.329	1.55811
475.221	2.98291
478.114	1.85352
481.007	5.75293
483.899	10.5237
486.792	4.6438
489.685	9.62573
492.577	1.28784
495.47	7.11255
498.363	9.64746
501.256	18.1628
504.148	9.60571
507.041	15.1992
509.934	10.5635
512.826	9.51685
515.719	10.2847
518.612	6.99707
521.505	11.145
524.397	12.1223
527.29	13.1335
530.183	4.4292
533.075	5.39746
535.968	11.0688
538.861	4.40674
541.753	6.28149
544.646	6.13037
547.539	6.45239
550.432	7.60474
553.324	9.61011
556.217	7.13403
559.11	8.39087
562.002	5.5918
564.895	11.2615
567.788	13.2373
570.68	6.24487
573.573	0.735352
576.466	1.07056
579.359	3.90405
582.251	2.83691
585.144	11.5117
588.037	22.0569
590.929	9.94482
593.822	5.02344
596.715	4.36231
599.607	3.72412
602.5	2.16894
605.393	7.27173
608.285	11.5278
611.178	13.8242
614.071	13.4927
616.964	1.02148
619.856	5.67725
622.749	1.45874
625.642	2.3396
628.534	3.56714
631.427	7.91626
634.32	7.73022
637.212	7.62476
640.105	3.45898
642.998	0.537842
645.891	7.69678
648.783	2.40283
651.676	17.6843
654.569	18.0222
657.461	8.87988
660.354	14.6387
663.247	5.00708
666.139	9.76148
669.032	7.65991
671.925	10.3486
674.818	21.166
677.71	22.5029
680.603	31.3201
683.496	35.4111
686.388	40.4187
689.281	65.1965
692.174	76.6746
695.067	100.65
697.959	127.538
700.852	115.639
703.745	73.4739
706.637	47.3123
709.53	38.4302
712.423	54.6997
715.315	67.7092
718.208	77.655
721.101	85.2988
723.994	86.5727
726.886	73.5764
729.779	48.1287
732.672	26.9038
735.564	20.5635
738.457	15.259
741.35	10.9275
744.242	3.75781
747.135	10.0557
750.028	9.15723
752.92	3.4729
755.813	0.805176
758.706	0.912109
761.599	7.79688
764.491	8.94141
767.384	9.21729
770.277	0.573486
773.169	7.22192
776.062	3.41162
778.955	2.77222
781.847	4.76416
784.74	1.92603
787.633	2.73511
790.526	5.01147
793.418	17.8906
796.311	2.51392
799.204	10.5298
802.096	7.68018
804.989	3.51465
807.882	12.7141
810.774	9.00513
813.667	7.21899
816.56	14.8752
819.453	13.3125
822.345	21.439
825.238	13.0806
828.131	7.05078
831.023	12.8877
833.916	9.14771
836.809	6.85864
839.702	7.83521
842.594	3.97949
845.487	5.65649
848.38	20.5481
851.272	19.1135
854.165	20.7268
857.058	27.2688
859.95	33.7114
862.843	51.6526
865.736	60.4746
868.629	78.5151
871.521	80.5298
874.414	48.4338
877.307	22.3936
880.199	14.04
883.092	3.31421
885.985	1.06665
888.877	4.91943
891.77	0.900635
894.663	13.9058
897.556	3.6084
900.448	4.0332
903.341	4.91528
906.234	5.76758
909.126	3.39893
912.019	3.43848
914.912	3.11231
917.804	5.54175
920.697	13.4817
923.59	2.21338
926.482	9.87646
929.375	13.8071
932.268	7.87451
935.161	0.859375
938.053	1.95898
940.946	5.12915
943.839	7.37012
946.731	10.7148
949.624	10.1453
952.517	16.7371
955.409	11.7869
958.302	16.9421
961.195	16.1226
964.088	7.08472
966.98	3.76465
969.873	6.68457
972.766	7.20142
975.658	12.2024
978.551	12.2988
981.444	24.8911
984.337	18.1392
987.229	28.0471
990.122	28.9087
993.015	20.0166
995.907	4.82129
998.8	3.48535
1001.69	15.4497
1004.59	12.6006
1007.48	15.9023
1010.37	19.6123
1013.26	13.7639
1016.16	14.8779
1019.05	15.1211
1021.94	11.5503
1024.83	10.8821
1027.73	8.41699
1030.62	3.05078
1033.51	14.127
1036.4	17.5252
1039.3	5.97778
1042.19	3.38501
1045.08	2.45435
1047.98	4.55078
1050.87	7.44775
1053.76	17.6609
1056.65	28.1733
1059.55	41.8648
1062.44	73.2039
1065.33	124.99
1068.22	202.372
1071.12	316.019
1074.01	456.245
1076.9	609.548
1079.8	760.495
1082.69	864.137
1085.58	743.518
1088.47	369.852
1091.37	125.977
1094.26	54.998
1097.15	25.239
1100.04	6.77515
1102.94	10.4663
1105.83	2.92407
1108.72	8.31738
1111.62	14.2729
1114.51	6.17969
1117.4	7.66016
1120.29	6.2146
1123.19	6.90991
1126.08	3.46631
1128.97	7.76343
1131.86	3.27002
1134.76	6.50977
1137.65	1.51807
1140.54	6.20142
1143.43	0.613037
1146.33	0.727295
1149.22	3.03638
1152.11	3.6831
1155.01	9.74365
1157.9	9.5105
1160.79	6.85059
1163.68	2.28589
1166.58	4.68335
1169.47	13.9475
1172.36	14.7107
1175.26	7.34888
1178.15	0.97876
1181.04	2.4436
1183.93	9.44824
1186.83	5.76269
1189.72	4.41675
1192.61	4.4126
1195.5	5.96558
1198.4	19.4629
1201.29	14.7004
1204.18	14.5918
1207.07	12.3462
1209.97	17.4368
1212.86	20.4756
1215.75	26.936
1218.64	15.478
1221.54	14.1316
1224.43	20.5169
1227.32	15.51
1230.22	20.4431
1233.11	23.3416
1236	23.0535
1238.89	13.6809
1241.79	24.7988
1244.68	26.677
1247.57	27.2639
1250.46	34.7505
1253.36	33.0515
1256.25	28.6589
1259.14	32.6228
1262.04	27.4082
1264.93	19.6702
1267.82	28.1304
1270.71	27.6379
1273.61	19.9253
1276.5	20.29
1279.39	17.946
1282.29	10.0471
1285.18	6.61597
1288.07	8.87012
1290.96	2.09448
1293.86	3.06152
1296.75	5.20874
1299.64	12.6575
1302.53	4.63037
