Measurement: Raman, 532 nm, unoriented, Raman Data Processed
Mineral: Hafnon
Rruff sample: R060987
Ideal chemistry: HfSiO_4_
Locality: Synthetic
Source: Alex Speer
Description: Colorless unconsolidated grains, sample is from Speer and Cooper (1982)
Measured chemistry: Hf_1.00_Si_1.00_O_4_ ; trace amounts of Zr
Raman shift (cm-1)	intensity
83.4359	0
86.8107	111.91
90.1855	82.4838
93.5603	85.0432
96.9351	113.116
100.31	80.9003
103.685	32.6608
107.059	11.5237
110.434	15.8628
113.809	9.67087
117.184	10.9237
120.559	47.4002
123.934	205.139
127.308	435.689
130.683	611.596
134.058	1037.18
137.433	593.217
140.808	667.472
144.183	1189.81
147.557	2857.62
150.932	3479.75
154.307	4510.96
157.682	5315.11
161.057	1012.83
164.431	655.368
167.806	501.778
171.181	66.4225
174.556	52.0597
177.931	51.4386
181.305	71.0665
184.68	108.441
188.055	144.554
191.43	224.315
194.805	391.428
198.179	703.749
201.554	1818.05
204.929	6041.46
208.304	10451
211.679	15459.2
215.054	18612.6
218.428	3225.53
221.803	846.797
225.178	331.99
228.553	184.744
231.928	155.522
235.303	208.838
238.677	291.436
242.052	430.276
245.427	417.304
248.802	184.504
252.177	243.121
255.551	365.681
258.926	406.785
262.301	123.853
265.676	50.0456
269.051	95.1384
272.425	69.3688
275.8	76.4563
279.175	74.2445
282.55	23.9324
285.925	32.2163
289.3	86.7363
292.674	106.161
296.049	147.289
299.424	154.222
302.799	231.614
306.174	349.793
309.548	474.39
312.923	352.526
316.298	448.368
319.673	636.699
323.048	775.495
326.422	852.87
329.797	1219.49
333.172	2114.9
336.547	4892.01
339.922	12946.8
343.296	25243.8
346.671	38696.8
350.046	52932.7
353.421	31833.3
356.796	9681.9
360.171	4169.57
363.545	2568.78
366.92	1785.89
370.295	1298.44
373.67	1061.65
377.045	898.646
380.419	796.391
383.794	592.776
387.169	549.86
390.544	596.134
393.919	944.01
397.293	1416.24
400.668	1555.1
404.043	1206.14
407.418	262.95
410.793	1.92004
414.168	85.2604
417.542	92.5592
420.917	52.6018
424.292	141.906
427.667	514.501
431.042	1217.04
434.416	3287.77
437.791	8040.15
441.166	15122.6
444.541	24035.6
447.916	33920.9
451.291	25975.4
454.665	9435.58
458.04	4126.41
461.415	2355.28
464.79	1460
468.165	907.31
471.539	596.896
474.914	321.817
478.289	258.645
481.664	241.212
485.039	437.079
488.413	709.943
491.788	1187.06
495.163	1765.65
498.538	1978.35
501.913	1086.56
505.288	468.729
508.662	202.121
512.037	116.878
515.412	170.08
518.787	216.59
522.162	241.224
525.536	70.015
528.911	39.7319
532.286	63.1549
535.661	19.04
539.036	58.7056
542.41	141.425
545.785	250.935
549.16	245.292
552.535	92.9177
555.91	36.2855
559.284	15.0745
562.659	22.5425
566.034	67.5765
569.409	125.701
572.784	223.49
576.159	321.512
579.533	366.057
582.908	228.386
586.283	119.963
589.658	26.3471
593.033	31.9949
596.408	10.2836
599.782	22.4846
603.157	27.1157
606.532	67.8603
609.907	68.7794
613.282	104.07
616.656	80.8474
620.031	135.863
623.406	192.269
626.781	242.654
630.156	365.716
633.53	483.494
636.905	638.177
640.28	611.744
643.655	451.906
647.03	269.769
650.404	197.907
653.779	217.61
657.154	257.193
660.529	341.179
663.904	492.817
667.279	625.384
670.653	751.115
674.028	654.626
677.403	426.001
680.778	269.783
684.153	155.21
687.528	111.424
690.902	54.8527
694.277	66.3601
697.652	87.6797
701.027	67.3209
704.402	30.4185
707.776	42.3848
711.151	10.7968
714.526	31.5612
717.901	47.1663
721.276	44.3145
724.65	40.6981
728.025	17.6696
731.4	7.79114
734.775	33.2135
738.15	3.28979
741.524	23.0542
744.899	33.7787
748.274	15.3693
751.649	52.7526
755.024	6.66901
758.399	34.0399
761.773	54.1461
765.148	29.1089
768.523	47.849
771.898	52.5598
775.273	49.6289
778.648	47.4559
782.022	51.8262
785.397	57.6845
788.772	33.6417
792.147	64.6674
795.521	70.2355
798.896	42.3637
802.271	118.704
805.646	152.998
809.021	194.197
812.396	318.359
815.77	414.047
819.145	479.658
822.52	384.918
825.895	377.555
829.27	334.288
832.644	257.759
836.019	250.955
839.394	244.472
842.769	193.661
846.144	123.781
849.519	22.2649
852.893	10.3336
856.268	27.4957
859.643	5.56006
863.018	33.8441
866.393	115.046
869.767	169.347
873.142	282.084
876.517	372.949
879.892	273.316
883.267	194.981
886.641	277.504
890.016	484.478
893.391	892.731
896.766	1471.88
900.141	1937.74
903.516	1875.41
906.89	1060.25
910.265	529.91
913.64	295.52
917.015	163.093
920.39	205.529
923.764	278.651
927.139	453.255
930.514	739.699
933.889	1136.89
937.264	810.663
940.639	200.488
944.013	13.1136
947.388	41.4029
950.763	52.8583
954.138	48.2827
957.513	4.7771
960.887	5.49353
964.262	117.481
967.637	395.558
971.012	1317.65
974.387	3890.84
977.761	8027.59
981.136	15934.9
984.511	27045.2
987.886	14745.2
991.261	3624.56
994.635	1759.78
998.01	1363.41
1001.38	1572.34
1004.76	2409.01
1008.13	6198.68
1011.51	15127.2
1014.88	29955.1
1018.26	58829.4
1021.63	95885.5
1025.01	26370
1028.38	6482.06
1031.76	2696.08
1035.13	1459.05
1038.51	841.713
1041.88	495.206
1045.26	304.211
1048.63	160.78
1052.01	131.368
1055.38	73.5758
1058.76	56.7731
1062.13	22.132
1065.51	59.3597
1068.88	50.6271
1072.26	143.947
1075.63	197.465
1079.01	189.724
1082.38	160.425
1085.76	133.697
1089.13	164.207
1092.51	108.583
1095.88	98.9871
1099.26	122.907
1102.63	137.733
1106	124.763
1109.38	49.5117
1112.75	18.8053
1116.13	6.16309
1119.5	19.757
1122.88	54.9805
1126.25	62.9517
1129.63	5.84827
1133	15.8329
1136.38	48.6416
1139.75	46.9362
1143.13	64.7676
1146.5	41.1355
1149.88	28.875
1153.25	56.8043
1156.63	53.1592
1160	74.0823
1163.38	68.1121
1166.75	52.436
1170.13	95.0041
1173.5	78.7925
1176.88	110.088
1180.25	123.749
1183.62	88.9755
1187	78.4977
1190.38	93.0078
1193.75	105.787
1197.12	97.1545
1200.5	63.5324
1203.87	56.0258
1207.25	59.5072
1210.62	28.8849
1214	25.2838
1217.37	40.1517
1220.75	31.5205
1224.12	54.1416
1227.5	52.4379
1230.87	50.0305
1234.25	68.4059
1237.62	69.9459
1241	31.3426
1244.37	44.9849
1247.75	60.4806
1251.12	17.2817
1254.5	22.7148
1257.87	31.0288
1261.25	35.537
1264.62	34.1643
1267.99	40.9048
1271.37	40.585
1274.74	55.2011
1278.12	39.8345
1281.49	16.2366
1284.87	11.7518
1288.24	68.449
1291.62	40.7172
1294.99	34.1967
1298.37	19.6451
