Measurement: Raman, 785 nm, unoriented, Raman Data Processed
Mineral: Hafnon
Rruff sample: R060987
Ideal chemistry: HfSiO_4_
Locality: Synthetic
Source: Alex Speer
Description: Colorless unconsolidated grains, sample is from Speer and Cooper (1982)
Measured chemistry: Hf_1.00_Si_1.00_O_4_ ; trace amounts of Zr
Raman shift (cm-1)	intensity
88.7441	0
92.119	35.2557
95.4938	37.6425
98.8686	70.037
102.243	63.9451
105.618	29.6085
108.993	13.0888
112.368	44.297
115.743	178.712
119.118	81.9235
122.492	148.316
125.867	482.258
129.242	1012.13
132.617	1158.48
135.992	633.898
139.366	431.406
142.741	700.47
146.116	1342.36
149.491	1958.7
152.866	2209.73
156.24	3334.78
159.615	961.406
162.99	589.803
166.365	644.2
169.74	217.124
173.114	78.0492
176.489	58.8655
179.864	46.9714
183.239	66.7153
186.614	95.6092
189.989	115.303
193.363	149.42
196.738	311.724
200.113	621.399
203.488	1679.51
206.863	4551.5
210.238	9595.77
213.612	16164.6
216.987	4972.73
220.362	942.015
223.737	351.159
227.112	117.715
230.486	28.9504
233.861	45.1945
237.236	102.475
240.611	172.615
243.986	246.472
247.36	68.8772
250.735	58.7022
254.11	179.076
257.485	263.385
260.86	102.446
264.235	11.9997
267.609	40.9879
270.984	68.2378
274.359	66.4364
277.734	28.65
281.109	21.3281
284.483	3.30335
287.858	38.575
291.233	100.794
294.608	113.925
297.983	87.0665
301.358	111.763
304.732	180.981
308.107	293.467
311.482	232.868
314.857	243.843
318.231	388.944
321.606	461.228
324.981	494.303
328.356	652.238
331.731	846.136
335.106	1546.82
338.48	3374.67
341.855	9214.38
345.23	21175.3
348.605	35405.2
351.98	32667.7
355.354	10728.4
358.729	3865.53
362.104	2075.58
365.479	1411.21
368.854	1103.73
372.229	906.074
375.603	881.979
378.978	968.763
382.353	1029.17
385.728	1066.35
389.103	1038.85
392.478	1035.57
395.852	1105.8
399.227	1141.08
402.602	1026.41
405.977	392.971
409.352	99.5942
412.726	37.724
416.101	34.5971
419.476	73.8508
422.851	25.9159
426.226	42.127
429.6	248.077
432.975	576.332
436.35	1437.4
439.725	4114.48
443.1	9768.5
446.474	17090.2
449.849	18413.7
453.224	7863.69
456.599	2896.33
459.974	1493.27
463.349	834.173
466.723	499.141
470.098	288.277
473.473	160.547
476.848	80.1536
480.223	45.1118
483.598	41.8463
486.972	146.52
490.347	400.845
493.722	794.352
497.097	1104.07
500.472	803.994
503.846	320.163
507.221	87.8604
510.596	25.7696
513.971	48.4304
517.346	64.6746
520.721	107.299
524.095	78.1005
527.47	13.6813
530.845	11.7525
534.22	30.4008
537.595	57.4996
540.969	100.065
544.344	197.415
547.719	228.328
551.094	149.245
554.469	78.9319
557.843	12.7613
561.218	16.9982
564.593	10.4835
567.968	0.56073
571.343	51.9501
574.717	134.198
578.092	175.284
581.467	189.135
584.842	86.0134
588.217	29.5879
591.592	28.5675
594.966	32.5372
598.341	1.98822
601.716	43.5509
605.091	11.839
608.466	36.3752
611.841	21.1102
615.215	35.7529
618.59	40.0788
621.965	41.4478
625.34	73.9901
628.715	100.223
632.089	201.953
635.464	287.491
638.839	322.689
642.214	270.96
645.589	157.043
648.963	105.792
652.338	81.6511
655.713	107.139
659.088	130.112
662.463	206.779
665.837	299.54
669.212	372.036
672.587	397.285
675.962	294.69
679.337	190.054
682.712	102.024
686.086	83.4003
689.461	30.6571
692.836	47.1709
696.211	43.8613
699.586	0.725891
702.96	0.247742
706.335	29.2645
709.71	33.4635
713.085	10.8156
716.46	34.2132
719.835	15.4183
723.209	13.6703
726.584	13.4965
729.959	2.39014
733.334	15.579
736.709	31.508
740.083	25.4597
743.458	7.29913
746.833	21.1468
750.208	18.2535
753.583	55.7852
756.957	7.30951
760.332	36.1925
763.707	12.0651
767.082	19.4168
770.457	13.86
773.832	53.1637
777.206	73.4785
780.581	66.7798
783.956	60.5344
787.331	69.6984
790.706	61.5285
794.08	81.6629
797.455	40.7027
800.83	75.5106
804.205	75.1585
807.58	78.2259
810.955	151.339
814.329	195.82
817.704	192.329
821.079	186.353
824.454	190.014
827.829	134.018
831.203	95.6732
834.578	84.7464
837.953	115.936
841.328	115.188
844.703	103.512
848.077	40.0151
851.452	17.3416
854.827	2.19
858.202	6.52048
861.577	27.7673
864.952	25.7625
868.326	80.3599
871.701	86.9109
875.076	129.549
878.451	142.124
881.826	79.005
885.2	92.1292
888.575	110.048
891.95	192.912
895.325	420.674
898.7	722.127
902.074	920.898
905.449	656.264
908.824	306.506
912.199	145.975
915.574	81.8977
918.949	55.4237
922.323	43.2559
925.698	104.582
929.073	251.066
932.448	477.68
935.823	600.836
939.197	183.567
942.572	66.3515
945.947	6.59403
949.322	2.62271
952.697	1.20138
956.072	26.0233
959.446	4.89026
962.821	19.4773
966.196	29.0283
969.571	87.4194
972.946	358.263
976.32	1073.81
979.695	3880.02
983.07	9667.4
986.445	11048.8
989.82	2575.78
993.194	808.477
996.569	472.112
999.944	419.84
1003.32	487.778
1006.69	703.547
1010.07	1414.79
1013.44	4029.49
1016.82	13685.1
1020.19	31749.4
1023.57	20642.4
1026.94	3763.39
1030.32	1314.42
1033.69	646.36
1037.07	372.645
1040.44	167.397
1043.82	167.748
1047.19	67.4264
1050.57	46.0167
1053.94	83.1247
1057.32	38.0353
1060.69	18.4295
1064.07	19.8831
1067.44	10.2563
1070.82	34.0832
1074.19	43.5931
1077.57	70.7765
1080.94	70.8133
1084.31	53.3992
1087.69	43.9126
1091.06	21.1128
1094.44	44.7383
1097.81	10.2962
1101.19	30.1161
1104.56	53.9222
1107.94	6.07266
1111.31	1.8988
1114.69	31.2113
1118.06	11.6845
1121.44	20.846
1124.81	14.3197
1128.19	14.8154
1131.56	33.2891
1134.94	0.507965
1138.31	60.1898
1141.69	45.4475
1145.06	20.5368
1148.44	99.9928
1151.81	74.1422
1155.19	65.3058
1158.56	103.505
1161.93	85.937
1165.31	94.7153
1168.68	75.5616
1172.06	80.0654
1175.43	105.888
1178.81	44.668
1182.18	70.8498
1185.56	35.9753
1188.93	40.1833
1192.31	12.5073
1195.68	6.92853
1199.06	4.354
1202.43	8.6669
1205.81	31.8237
1209.18	19.9094
1212.56	15.5742
1215.93	31.737
1219.31	178.676
1222.68	287.663
1226.06	488.327
1229.43	759.69
1232.81	1143.84
1236.18	1671.2
1239.56	2569.86
1242.93	3521.89
1246.31	3537.11
1249.68	2729.82
1253.06	1700.61
1256.43	916.724
1259.81	623.692
1263.18	393.995
1266.56	170.509
1269.93	0.287231
