Measurement: Raman, 780 nm, unoriented, Raman Data Processed
Mineral: Hagendorfite
Rruff sample: R130128
Ideal chemistry: NaCaMn^2+^Fe^2+^_2_(PO_4_)_3_
Locality: Hagendorf, Waidhaus, Vohenstrauß, Oberpfälzer Wald, Upper Palatinate, Bavaria, Germany
Source: Rock Currier
Description: Black massive, associated with dark brown wolfeite
Raman shift (cm-1)	intensity
190.466	0
202.037	2.86781
213.608	16.4951
225.179	18.1908
236.75	18.8945
248.321	23.3844
259.891	23.5071
271.462	20.9165
283.033	23.381
294.604	21.3588
306.175	14.4206
317.745	8.49957
329.316	4.66915
340.887	5.14008
352.458	8.43764
364.029	5.5403
375.599	1.73264
387.17	1.77094
398.741	3.36176
410.312	5.49873
421.882	4.26318
433.453	7.9868
445.024	11.891
456.595	8.19802
468.166	11.0695
479.736	7.7888
491.307	3.86578
502.878	0.577469
514.449	2.16354
526.02	2.28943
537.591	0.418152
549.161	5.6302
560.732	12.9688
572.303	16.3685
583.874	27.95
595.444	43.7893
607.015	29.0066
618.586	15.3634
630.157	9.47083
641.728	10.1404
653.298	12.6301
664.869	6.35474
676.44	1.93806
688.011	0.125046
699.582	0.98127
711.153	0.332863
722.723	0.624107
734.294	0.511742
745.865	0.566643
757.436	1.04466
769.006	1.759
780.577	0.733696
792.148	1.3771
803.719	0.463745
815.29	1.14294
826.861	2.00192
838.431	2.15151
850.002	2.98228
861.573	2.12946
873.144	2.03748
884.715	3.55066
896.285	4.85767
907.856	10.6282
919.427	16.4159
930.998	26.2035
942.568	42.6736
954.139	69.5865
965.71	100.994
977.281	105.666
988.852	60.0715
1000.42	36.1641
1011.99	29.3156
1023.56	28.0117
1035.13	30.2934
1046.71	34.2958
1058.28	38.8965
1069.85	38.1903
1081.42	36.1006
1092.99	33.5568
1104.56	33.7902
1116.13	36.1253
1127.7	36.2894
1139.27	28.2062
1150.84	11.7447
1162.41	4.50986
1173.98	1.70894
1185.56	0.005066
1197.13	1.44557
1208.7	0.21405
1220.27	0.929764
1231.84	0.289261
1243.41	0.277122
1254.98	0.716042
1266.55	0.112045
1278.12	0.192513
1289.69	2.03993
1301.26	2.09754
1312.83	2.94373
1324.4	1.41925
1335.98	1.37439
1347.55	1.86398
1359.12	1.74996
1370.69	1.96186
1382.26	2.15649
1393.83	1.62577
1405.4	0.99659
1416.97	2.40767
1428.54	1.89839
1440.11	2.08294
1451.68	1.40272
1463.25	1.45438
1474.83	0.995529
1486.4	0.789597
1497.97	1.14945
1509.54	0.479919
1521.11	0.109192
1532.68	1.47887
1544.25	0.414764
1555.82	1.74707
1567.39	2.34381
1578.96	2.30567
1590.53	0.76123
1602.1	1.37328
1613.67	1.18073
1625.25	1.62385
1636.82	0.818558
1648.39	0.337334
1659.96	0.624977
1671.53	0.186646
1683.1	0.911346
1694.67	2.69705
1706.24	0.612465
1717.81	1.5275
1729.38	1.00471
1740.95	0.683403
1752.52	0.040619
1764.1	0.874809
1775.67	0.991867
1787.24	1.63328
1798.81	1.18218
1810.38	0.420815
1821.95	0.332382
1833.52	1.36106
1845.09	1.46999
1856.66	1.78851
1868.23	0.005333
1879.8	0.874535
1891.37	1.23735
1902.94	1.02104
1914.52	1.78815
1926.09	1.05843
1937.66	0.940948
1949.23	1.43416
1960.8	0.324402
1972.37	1.16241
1983.94	1.36697
1995.51	2.53375
2007.08	2.22288
2018.65	0.81221
2030.22	1.07241
2041.79	1.71673
2053.36	2.06249
2064.94	2.34049
2076.51	2.86036
2088.08	1.61598
2099.65	1.6304
2111.22	2.2266
2122.79	2.96013
2134.36	2.37946
2145.93	2.35953
2157.5	1.79602
2169.07	2.00944
2180.64	5.0964
2192.22	3.70611
2203.78	2.24555
2215.36	2.77901
2226.93	2.68374
2238.5	2.2544
2250.07	1.64809
2261.64	1.66576
2273.21	2.33758
2284.78	0.096069
2296.35	0.41703
2307.92	0.625801
2319.49	1.23032
2331.06	1.42292
2342.64	0.311295
2354.21	0.274712
2365.78	0.679459
2377.35	0.128479
2388.92	2.60278
2400.49	0.413818
2412.06	0.691826
2423.63	1.18813
2435.2	1.69953
2446.77	0.226395
2458.34	0.394005
2469.91	0.078415
2481.49	2.1371
2493.05	0.844215
2504.63	1.36314
2516.2	1.50571
2527.77	1.05823
2539.34	1.32182
2550.91	1.75993
2562.48	0.57222
2574.05	1.24531
2585.62	0.310074
2597.19	1.89574
2608.76	0.597557
2620.33	0.493431
2631.91	0.705025
2643.48	1.50985
2655.05	0.733276
2666.62	2.05262
2678.19	1.854
2689.76	1.61661
2701.33	1.51139
2712.9	1.55496
2724.47	1.21713
2736.04	1.81569
2747.61	0.952507
2759.18	1.27073
2770.76	0.461967
2782.32	1.95827
2793.9	2.19672
2805.47	1.53028
2817.04	0.775925
2828.61	0.688118
2840.18	0.168915
2851.75	0.327217
2863.32	0.886162
2874.89	1.47592
2886.46	1.64864
2898.03	1.78811
2909.6	1.52744
2921.18	0.697227
2932.75	0.880356
2944.32	2.23443
2955.89	1.54389
2967.46	1.2923
2979.03	1.00839
2990.6	1.59028
3002.17	1.08901
3013.74	1.66686
3025.31	0.5326
3036.88	0.63134
3048.45	1.2607
3060.03	2.14476
3071.59	1.31182
3083.17	0.149605
3094.74	0.535912
3106.31	0.436668
3117.88	1.07816
3129.45	0.591042
3141.02	1.91009
3152.59	1.2347
3164.16	0.440582
3175.73	1.42046
3187.3	0.111839
3198.87	0.045242
3210.45	2.28846
3222.02	1.32705
3233.59	0.309456
3245.16	1.44126
3256.73	1.67378
3268.3	1.92032
3279.87	2.50915
3291.44	0.337578
3303.01	1.03921
3314.58	1.43872
3326.15	2.57468
3337.72	1.29588
3349.3	0.307838
3360.86	0.690369
3372.44	1.02293
3384.01	0.757912
3395.58	1.18381
3407.15	0.642776
3418.72	2.40269
3430.29	0.026619
3441.86	0.276817
3453.43	0.425156
3465	0.184082
3476.57	0.808739
3488.14	1.2895
3499.72	0.455025
3511.29	0.588615
3522.86	0.776985
3534.43	1.43166
3546	1.16339
3557.57	0.700066
3569.14	0.625832
3580.71	1.69597
3592.28	3.53082
3603.85	2.48471
3615.42	1.61007
3626.99	1.67332
3638.56	1.76409
3650.14	2.927
3661.71	2.05266
3673.28	2.95128
3684.85	2.80953
3696.42	2.7169
3707.99	2.19461
3719.56	2.76155
3731.13	2.67751
3742.7	2.57839
3754.27	2.51611
3765.84	3.11107
3777.41	1.7066
3788.99	3.14728
3800.56	2.5663
3812.13	3.32001
3823.7	2.95329
3835.27	3.67674
3846.84	4.88478
3858.41	3.96207
3869.98	3.38634
3881.55	3.6965
3893.12	4.2482
3904.69	3.56128
3916.26	4.31198
3927.83	4.22673
3939.41	4.9631
3950.98	4.20743
3962.55	4.40825
3974.12	3.0907
3985.69	1.89818
3997.26	0.336136
4008.83	2.97606
4020.4	1.10742
4031.97	0.067917
4043.54	2.65057
4055.11	0.74437
4066.68	0.48317
4078.26	0.628983
4089.83	0.488251
4101.4	0.502777
4112.97	0.153091
4124.54	0.861176
4136.11	2.23581
4147.68	1.68687
4159.25	3.4388
4170.82	2.37865
4182.39	1.83778
4193.96	2.48946
4205.53	2.85223
4217.1	1.99408
4228.68	1.34801
4240.25	2.26752
