Measurement: Raman, 532 nm, unoriented, Raman Data Processed
Mineral: Hagendorfite
Rruff sample: R130128
Ideal chemistry: NaCaMn^2+^Fe^2+^_2_(PO_4_)_3_
Locality: Hagendorf, Waidhaus, Vohenstrauß, Oberpfälzer Wald, Upper Palatinate, Bavaria, Germany
Source: Rock Currier
Description: Black massive, associated with dark brown wolfeite
Raman shift (cm-1)	intensity
178.071	0
180.964	1.76836
183.857	1.56004
186.749	2.98913
189.642	5.27909
192.535	6.3605
195.427	6.86571
198.32	7.52653
201.213	8.50459
204.105	8.72961
206.998	12.943
209.891	12.0801
212.784	14.1756
215.676	16.0007
218.569	15.6238
221.462	16.368
224.354	17.1085
227.247	18.8524
230.14	18.8589
233.032	16.7762
235.925	17.5997
238.818	20.4344
241.71	22.86
244.603	22.8341
247.496	22.8181
250.389	20.0756
253.281	18.55
256.174	16.1767
259.067	14.0056
261.959	12.7941
264.852	12.7619
267.745	12.204
270.637	11.2904
273.53	10.1102
276.423	9.92237
279.316	9.47906
282.208	8.03532
285.101	6.87013
287.994	6.20986
290.886	4.35631
293.779	3.73285
296.672	3.53149
299.565	2.1088
302.457	2.24679
305.35	0.835732
308.243	1.58941
311.135	0.219673
314.028	0.327553
316.921	1.02113
319.813	0.660244
322.706	0.369926
325.599	0.395805
328.491	0.964466
331.384	1.05594
334.277	2.91888
337.17	2.65022
340.062	4.8034
342.955	5.8196
345.848	7.97769
348.74	7.98311
351.633	8.42936
354.526	7.11317
357.418	5.92346
360.311	3.8595
363.204	2.57505
366.097	2.08935
368.989	1.71344
371.882	0.491177
374.775	0.118099
377.667	0.183819
380.56	0.099854
383.453	0.205276
386.346	0.182449
389.238	0.708332
392.131	1.06817
395.024	0.181404
397.916	2.38166
400.809	3.06379
403.702	3.74658
406.594	5.17275
409.487	5.07548
412.38	6.50208
415.272	6.67835
418.165	7.89434
421.058	9.55328
423.951	12.6639
426.843	16.8799
429.736	20.5914
432.629	25.2551
435.521	30.1098
438.414	34.0371
441.307	31.8979
444.2	27.5229
447.092	23.7435
449.985	19.092
452.878	16.8241
455.77	16.2348
458.663	15.1135
461.556	15.523
464.448	17.7127
467.341	18.4713
470.234	18.9208
473.127	16.2086
476.019	14.389
478.912	12.4797
481.805	12.7403
484.697	10.1751
487.59	10.6016
490.483	9.7226
493.375	9.10685
496.268	7.84761
499.161	6.88217
502.053	4.29641
504.946	3.52832
507.839	2.06303
510.732	1.3178
513.624	1.08849
516.517	0.043787
519.41	0.054548
522.302	0.936691
525.195	0.821577
528.088	0.858204
530.981	0.009789
533.873	0.346909
536.766	1.39764
539.659	2.62573
542.551	4.25485
545.444	5.60976
548.337	7.07581
551.229	8.11163
554.122	8.02707
557.015	8.61105
559.908	8.06457
562.8	8.20764
565.693	8.17608
568.586	8.19975
571.478	9.1876
574.371	9.86927
577.264	10.1428
580.156	10.7739
583.049	13.0555
585.942	15.2118
588.835	16.424
591.727	21.1029
594.62	22.1727
597.513	21.3514
600.405	19.3763
603.298	15.8461
606.191	12.0999
609.083	9.08318
611.976	8.269
614.869	6.23625
617.761	5.14428
620.654	4.61904
623.547	2.55683
626.44	1.47543
629.332	1.96789
632.225	1.46446
635.118	1.07391
638.01	1.65703
640.903	2.7519
643.796	5.41207
646.688	6.34833
649.581	6.99747
652.474	8.64616
655.367	9.83742
658.259	8.19964
661.152	6.28704
664.045	4.09748
666.937	2.81845
669.83	1.63156
672.723	0.180315
675.615	0.314213
678.508	0.306807
681.401	0.166046
684.294	0.005272
687.186	0.514284
690.079	0.248638
692.972	0.005705
695.864	0.010921
698.757	1.05233
701.65	0.293034
704.543	0.039034
707.435	0.84091
710.328	0.191107
713.221	1.02306
716.113	0.631634
719.006	0.906912
721.899	1.03687
724.791	0.585213
727.684	0.607832
730.577	0.181101
733.47	0.545895
736.362	0.095169
739.255	0.28294
742.148	0.57238
745.04	1.05248
747.933	1.05574
750.826	1.63666
753.718	0.432556
756.611	0.473217
759.504	0.186628
762.396	0.73362
765.289	0.761522
768.182	0.744127
771.075	0.268471
773.967	1.12867
776.86	0.865934
779.753	0.748493
782.645	0.660154
785.538	1.03565
788.431	1.39983
791.323	1.79202
794.216	1.55434
797.109	1.16426
800.002	1.45842
802.894	1.01907
805.787	2.15453
808.68	1.14485
811.572	1.81529
814.465	1.58655
817.358	1.34268
820.25	1.2613
823.143	1.54736
826.036	2.64792
828.929	1.39046
831.821	2.6207
834.714	3.17659
837.607	3.35399
840.5	2.83859
843.392	3.80595
846.285	3.1156
849.178	1.95991
852.07	2.88948
854.963	2.0042
857.856	2.15029
860.748	1.36371
863.641	1.51576
866.534	1.35417
869.427	1.44622
872.319	1.2572
875.212	0.24151
878.105	0.025545
880.997	0.202534
883.89	0.177908
886.783	0.171619
889.675	0.619694
892.568	0.488338
895.461	0.093843
898.354	0.227449
901.246	0.300076
904.139	1.35734
907.032	2.08942
909.924	3.99612
912.817	5.56094
915.71	5.39899
918.602	6.84247
921.495	8.76076
924.388	9.65142
927.28	10.9634
930.173	13.2457
933.066	15.6034
935.959	19.3823
938.851	23.1623
941.744	28.5115
944.637	32.9306
947.529	35.9603
950.422	37.8117
953.315	38.6804
956.207	40.075
959.1	44.4105
961.993	48.3802
964.886	55.7588
967.778	61.0512
970.671	66.5323
973.564	69.1639
976.456	68.3953
979.349	61.6826
982.242	49.9558
985.135	38.1159
988.027	27.6572
990.92	22.1646
993.813	15.7453
996.705	11.803
999.598	10.2064
1002.49	6.9581
1005.38	5.39487
1008.28	4.28052
1011.17	3.97228
1014.06	3.01848
1016.95	1.66283
1019.85	0.42458
1022.74	0.072289
1025.63	0.474915
1028.53	1.12445
1031.42	1.02162
1034.31	0.145966
1037.2	0.752834
1040.1	3.25006
1042.99	5.5747
1045.88	7.38601
1048.77	9.96828
1051.67	11.7442
1054.56	12.3043
1057.45	13.5845
1060.35	12.988
1063.24	12.5504
1066.13	10.8285
1069.02	8.63765
1071.92	6.97739
1074.81	4.73423
1077.7	3.71929
1080.59	3.44384
1083.49	4.19091
1086.38	4.23417
1089.27	4.19799
1092.16	4.69373
1095.06	4.83859
1097.95	5.27772
1100.84	6.06751
1103.73	6.951
1106.63	6.88542
1109.52	7.01656
1112.41	9.15306
1115.31	9.70595
1118.2	9.53749
1121.09	12.0434
1123.98	12.0851
1126.88	12.7888
1129.77	13.1464
1132.66	12.8597
1135.56	11.5137
1138.45	10.3782
1141.34	8.39847
1144.23	5.36156
1147.13	2.42681
1150.02	0.863277
1152.91	0.378918
1155.8	0.16608
1158.7	0.640285
1161.59	0.840008
1164.48	0.557821
1167.38	0.638948
1170.27	0.153675
1173.16	1.25983
1176.05	0.457232
1178.94	0.239222
1181.84	0.873381
1184.73	0.943758
1187.62	1.53876
1190.52	1.71291
1193.41	1.94196
1196.3	3.28741
1199.19	2.22436
1202.09	2.21902
1204.98	2.29775
1207.87	2.44726
1210.77	2.66771
1213.66	2.58434
1216.55	2.64294
1219.44	1.39193
1222.34	2.62337
1225.23	1.90417
1228.12	1.7995
1231.01	1.87798
1233.91	1.70743
1236.8	1.32638
1239.69	1.75333
1242.59	1.15626
1245.48	0.984396
1248.37	0.49354
1251.26	1.46568
1254.16	1.54131
1257.05	1.01881
1259.94	0.742098
1262.83	0.743597
1265.73	1.05706
1268.62	0.141121
1271.51	0.431515
1274.4	1.18763
1277.3	0.515177
1280.19	0.726376
1283.08	0.044132
1285.97	0.70097
1288.87	0.773216
1291.76	0.886356
1294.65	0.07365
1297.55	0.533901
1300.44	0.964237
