Measurement: Raman, 532 nm, unoriented, Raman Data Processed
Mineral: Haidingerite
Rruff sample: R080093
Ideal chemistry: Ca(As^5+^O_3_OH)H_2_O
Locality: Atrevida mine, Vimbod√≠, Tarragona, Catalonia, Spain
Source: Joan Abella i Creus
Description: Clusters of short prismatic colorless crystals
Raman shift (cm-1)	intensity
144.422	0
147.797	20.6325
151.172	84.8478
154.547	190.472
157.921	75.7571
161.296	17.3998
164.671	6.44009
168.046	14.0614
171.421	10.3901
174.796	2.26318
178.17	5.35596
181.545	6.64771
184.92	31.7372
188.295	45.6625
191.67	36.8091
195.044	39.5453
198.419	63.6867
201.794	94.931
205.169	86.665
208.544	95.0725
211.918	116.037
215.293	124.985
218.668	137.202
222.043	155.938
225.418	193.514
228.792	179.991
232.167	141.795
235.542	126.844
238.917	108.863
242.292	46.3717
245.667	9.87946
249.041	1.93616
252.416	4.26172
255.791	19.8207
259.166	35.0729
262.541	34.1105
265.916	28.1089
269.29	26.3332
272.665	37.3127
276.04	58.8781
279.415	80.0852
282.79	95.1487
286.164	93.5863
289.539	76.9998
292.914	55.0093
296.289	32.2547
299.664	16.1916
303.038	7.27496
306.413	3.728
309.788	4.12109
313.163	7.61096
316.538	15.5328
319.913	16.56
323.287	8.44296
326.662	0.640656
330.037	4.98261
333.412	5.18387
336.787	3.45816
340.161	0.046112
343.536	1.11444
346.911	8.66815
350.286	11.7095
353.661	11.1586
357.036	1.23514
360.41	0.665253
363.785	4.17279
367.16	13.8268
370.535	23.4074
373.91	39.3233
377.284	60.1765
380.659	81.7226
384.034	85.6752
387.409	83.8452
390.784	70.8323
394.159	58.9003
397.533	51.6617
400.908	51.3698
404.283	46.9609
407.658	40.3659
411.033	33.4922
414.408	29.6944
417.782	35.1165
421.157	46.9601
424.532	69.4204
427.907	95.217
431.282	133.228
434.656	176.085
438.031	217.09
441.406	240.458
444.781	237.961
448.156	215.318
451.531	200.342
454.905	188.411
458.28	181.29
461.655	173.873
465.03	151.995
468.404	116.442
471.779	76.9096
475.154	50.066
478.529	28.7288
481.904	17.3321
485.279	10.0064
488.653	4.08524
492.028	1.06992
495.403	1.13736
498.778	1.83023
502.153	0.792572
505.527	0.062775
508.902	2.02978
512.277	0.274292
515.652	1.09427
519.027	1.37839
522.402	0.18457
525.776	2.70187
529.151	2.13428
532.526	1.03442
535.901	2.74243
539.276	3.48456
542.65	3.97769
546.025	8.79642
549.4	10.7758
552.775	9.81503
556.15	10.1934
559.525	10.9244
562.899	10.3663
566.274	7.77875
569.649	6.19382
573.024	3.19186
576.399	3.67429
579.774	2.45914
583.148	2.65607
586.523	1.78088
589.898	3.87076
593.273	2.03491
596.648	4.89163
600.022	4.51181
603.397	2.13272
606.772	5.82236
610.147	5.65814
613.522	5.06183
616.896	7.09454
620.271	5.5947
623.646	7.76917
627.021	5.72797
630.396	3.87991
633.771	4.10532
637.145	5.92517
640.52	5.15985
643.895	6.93582
647.27	7.82165
650.645	9.19626
654.019	11.6165
657.394	14.2753
660.769	18.0916
664.144	21.1548
667.519	19.7774
670.894	20.1472
674.268	18.8702
677.643	17.8192
681.018	17.7021
684.393	14.8939
687.768	10.3884
691.143	9.48709
694.517	6.65805
697.892	3.46167
701.267	3.50269
704.642	1.60437
708.016	0.530579
711.391	0.520111
714.766	1.19269
718.141	0.334625
721.516	0.557892
724.891	0.709137
728.265	1.38635
731.64	1.14911
735.015	2.34854
738.39	3.80566
741.765	0.004852
745.139	0.833008
748.514	0.571259
751.889	3.40341
755.264	7.76648
758.639	14.429
762.014	24.8725
765.388	40.5028
768.763	63.5829
772.138	99.2681
775.513	158.099
778.888	245.841
782.263	372.172
785.637	536.81
789.012	728.063
792.387	897.606
795.762	964.179
799.137	925.628
802.511	860.987
805.886	773.449
809.261	630.884
812.636	444.578
816.011	303.481
819.385	213.256
822.76	159.394
826.135	127.674
829.51	118.153
832.885	131.481
836.26	169.016
839.634	223.856
843.009	302.279
846.384	389.717
849.759	451.221
853.134	424.061
856.509	321.642
859.883	212.623
863.258	138.464
866.633	87.2498
870.008	55.0843
873.383	34.3786
876.757	19.9933
880.132	9.19913
883.507	4.24963
886.882	0.470337
890.257	0.520996
893.631	3.74371
897.006	3.61841
900.381	2.77048
903.756	3.55987
907.131	3.13001
910.506	0.183716
913.88	0.673737
917.255	1.28412
920.63	4.73965
924.005	4.16379
927.38	8.30682
930.755	9.77924
934.129	10.7472
937.504	11.2064
940.879	9.22162
944.254	10.6476
947.629	9.58676
951.003	10.5067
954.378	7.68146
957.753	6.50739
961.128	3.83658
964.503	3.80362
967.877	3.05987
971.252	4.73273
974.627	3.96909
978.002	5.47199
981.377	9.85095
984.751	10.2039
988.126	11.961
991.501	8.70404
994.876	7.42062
998.251	7.1589
1001.63	5.62555
1005	5.10681
1008.38	4.66251
1011.75	5.24838
1015.12	2.45972
1018.5	4.62512
1021.88	0.438782
1025.25	0.535767
1028.62	0.300873
1032	3.01886
1035.37	3.66251
1038.75	0.473297
1042.12	0.293274
1045.5	0.089478
1048.87	0.549652
1052.25	2.69971
1055.62	1.23114
1059	3.44
1062.37	1.14725
1065.75	3.9512
1069.12	1.11664
1072.5	4.72479
1075.87	0.26825
1079.25	1.67865
1082.62	1.20413
1086	2.89047
1089.37	1.61972
1092.75	0.982941
1096.12	1.96039
1099.49	2.85278
1102.87	0.383087
1106.24	3.13071
1109.62	2.72555
1112.99	0.841766
1116.37	0.79245
1119.74	1.89307
1123.12	0.858368
1126.49	3.12625
1129.87	1.6984
1133.24	2.61621
1136.62	2.69846
1139.99	1.02664
1143.37	0.152863
1146.74	0.923126
1150.12	1.40753
1153.49	0.717377
1156.87	1.11908
1160.24	1.27579
1163.62	1.93433
1166.99	2.59033
1170.37	0.305634
1173.74	2.50983
1177.12	0.500977
1180.49	2.57819
1183.87	1.30631
1187.24	1.5795
1190.62	3.14273
1193.99	3.01797
1197.37	0.5159
1200.74	2.16898
1204.12	1.94049
1207.49	2.82556
1210.86	1.26047
1214.24	3.73425
1217.61	1.58765
1220.99	1.62836
1224.36	1.98227
1227.74	2.71887
1231.11	2.3703
1234.49	6.5087
1237.86	2.12256
1241.24	0.691895
1244.61	1.68503
1247.99	1.25397
1251.36	2.73395
1254.74	0.932312
1258.11	0.579193
1261.49	2.276
1264.86	2.60629
1268.24	1.63254
1271.61	2.65244
1274.99	3.66315
1278.36	2.18161
1281.73	6.39062
1285.11	3.22888
1288.48	3.98843
1291.86	1.65253
1295.23	1.38113
1298.61	1.92426
1301.98	1.36444
