Measurement: Raman, 780 nm, unoriented, Raman Data Processed
Mineral: Haidingerite
Rruff sample: R080093
Ideal chemistry: Ca(As^5+^O_3_OH)H_2_O
Locality: Atrevida mine, Vimbod√≠, Tarragona, Catalonia, Spain
Source: Joan Abella i Creus
Description: Clusters of short prismatic colorless crystals
Raman shift (cm-1)	intensity
143.628	0
146.52	1.29
149.413	2.86383
152.306	5.46773
155.199	11.0898
158.091	7.54675
160.984	2.35151
163.877	0.943462
166.769	0.095444
169.662	0.479904
172.555	1.00283
175.447	0.684097
178.34	0.971603
181.233	1.85725
184.126	2.16777
187.018	3.50198
189.911	4.7389
192.804	3.85318
195.696	4.94546
198.589	6.41719
201.482	9.03193
204.375	9.25169
207.267	8.83128
210.16	10.2267
213.053	10.4311
215.945	10.4029
218.838	10.151
221.731	10.0675
224.623	13.1635
227.516	14.9801
230.409	14.3664
233.302	14.2109
236.194	13.5523
239.087	12.8384
241.98	8.70648
244.872	3.64852
247.765	1.03352
250.658	0.815845
253.55	0.847584
256.443	1.97466
259.336	3.92451
262.228	3.37479
265.121	2.33419
268.014	1.47515
270.907	1.42966
273.799	2.60812
276.692	2.94398
279.585	3.31883
282.477	4.93835
285.37	4.97888
288.263	5.68806
291.156	4.70515
294.048	2.47454
296.941	1.66181
299.834	2.65385
302.726	0.033291
305.619	0.026741
308.512	0.233845
311.404	0.154507
314.297	0.845448
317.19	1.73021
320.082	1.19726
322.975	1.58263
325.868	1.37235
328.761	0.277504
331.653	0.424812
334.546	0.17522
337.439	0.215317
340.331	0.14814
343.224	0.100288
346.117	0.316216
349.01	1.3141
351.902	0.877945
354.795	0.443783
357.688	0.189739
360.58	0.315277
363.473	0.0807
366.366	0.209998
369.258	0.355627
372.151	2.57069
375.044	4.1482
377.937	4.90039
380.829	6.13356
383.722	7.2141
386.615	7.33371
389.507	7.36085
392.4	6.00757
395.293	5.0884
398.185	4.501
401.078	3.87079
403.971	3.58654
406.863	3.37403
409.756	3.18985
412.649	2.39332
415.542	2.4298
418.434	2.56261
421.327	3.2722
424.22	5.1908
427.112	6.41075
430.005	8.40968
432.898	10.3834
435.791	12.7723
438.683	14.7066
441.576	17.1718
444.469	18.0609
447.361	17.302
450.254	15.7842
453.147	14.9877
456.039	15.1752
458.932	15.1911
461.825	15.9296
464.717	14.6207
467.61	12.5595
470.503	9.53142
473.396	6.88724
476.288	4.2741
479.181	3.82777
482.074	1.92562
484.966	1.09425
487.859	0.529278
490.752	0.928932
493.644	0.69186
496.537	0.141666
499.43	0.069416
502.323	0.019035
505.215	0.674168
508.108	0.281792
511.001	0.023666
513.893	0.009418
516.786	0.130764
519.679	0.474808
522.572	0.228756
525.464	1.11638
528.357	0.400364
531.25	0.93626
534.142	0.212883
537.035	0.574451
539.928	0.387886
542.82	0.385315
545.713	1.02919
548.606	1.10375
551.499	1.07549
554.391	0.897869
557.284	1.11967
560.177	1.02351
563.069	0.410484
565.962	0.888638
568.855	0.045074
571.747	0.690395
574.64	1.0182
577.533	0.276432
580.426	0.389469
583.318	0.402298
586.211	0.419052
589.104	0.446455
591.996	0.073076
594.889	0.759176
597.782	0.29035
600.674	0.435625
603.567	0.981853
606.46	0.830322
609.352	0.096405
612.245	0.500647
615.138	1.42963
618.03	0.206907
620.923	0.501492
623.816	1.10327
626.709	0.049408
629.601	0.298845
632.494	0.59009
635.387	0.348547
638.279	0.266762
641.172	0.612143
644.065	0.800997
646.957	0.91995
649.85	0.373541
652.743	1.45229
655.636	1.32737
658.528	0.917978
661.421	0.800716
664.314	1.2727
667.206	1.93063
670.099	1.65339
672.992	1.50729
675.885	1.43203
678.777	1.79176
681.67	1.3463
684.563	1.82896
687.455	2.1288
690.348	1.64256
693.241	1.19127
696.133	0.809032
699.026	0.853165
701.919	1.09721
704.812	1.16622
707.704	0.44607
710.597	0.255054
713.49	0.512131
716.382	0.561443
719.275	0.485355
722.168	0.60358
725.06	0.217964
727.953	0.136436
730.846	0.540054
733.739	0.357109
736.631	0.692528
739.524	0.181664
742.417	0.963184
745.309	0.229378
748.202	0.69355
751.095	0.526703
753.987	0.676846
756.88	0.481453
759.773	1.03022
762.665	1.54566
765.558	1.20268
768.451	3.28972
771.344	3.89007
774.236	6.44979
777.129	9.49938
780.022	14.7383
782.914	21.0798
785.807	26.2183
788.7	35.4694
791.592	45.7921
794.485	51.3806
797.378	52.267
800.271	49.0371
803.163	49.5027
806.056	46.8911
808.949	42.3862
811.841	34.2496
814.734	27.539
817.627	21.8204
820.519	16.0629
823.412	13.6438
826.305	11.8669
829.198	11.4224
832.09	12.7227
834.983	15.6822
837.876	19.2434
840.768	25.7488
843.661	31.4891
846.554	41.2487
849.447	48.8476
852.339	51.2504
855.232	44.6596
858.125	33.2298
861.017	23.7319
863.91	16.318
866.803	11.1731
869.695	7.88897
872.588	5.60701
875.481	2.86116
878.374	2.00566
881.266	2.6069
884.159	1.65888
887.052	1.40546
889.944	0.248226
892.837	0.230293
895.73	0.092159
898.622	0.49992
901.515	0.016048
904.408	0.157412
907.301	0.31543
910.193	0.439211
913.086	0.389116
915.979	0.088932
918.871	0.16958
921.764	0.185244
924.657	0.046755
927.549	1.09347
930.442	0.480961
933.335	0.624022
936.227	1.21397
939.12	1.31745
942.013	0.991514
944.906	1.68191
947.798	1.12013
950.691	0.759735
953.584	0.692326
956.476	0.840708
959.369	0.57785
962.262	0.793636
965.154	0.793264
968.047	0.527201
970.94	1.27234
973.833	1.14867
976.725	0.843683
979.618	0.903339
982.511	1.41898
985.403	1.38508
988.296	1.31815
991.189	0.37451
994.082	0.941792
996.974	1.42862
999.867	1.42195
1002.76	0.241077
1005.65	0.430122
1008.54	1.30355
1011.44	0.635811
1014.33	0.850527
1017.22	0.504238
1020.12	0.674583
1023.01	0.713896
1025.9	0.521891
1028.79	0.792036
1031.69	0.797037
1034.58	1.81976
1037.47	0.199385
1040.37	1.29818
1043.26	0.372231
1046.15	1.41828
1049.04	0.119558
1051.94	0.603525
1054.83	0.976755
1057.72	0.652718
1060.61	0.770304
1063.51	1.31539
1066.4	0.898251
1069.29	0.158102
1072.18	1.24742
1075.08	1.06285
1077.97	0.102108
1080.86	1.13651
1083.76	0.926512
1086.65	0.863216
1089.54	1.38924
1092.43	0.203739
1095.33	0.425661
1098.22	0.593094
1101.11	1.04435
1104	0.531071
1106.9	0.717949
1109.79	0.365574
1112.68	0.226891
1115.58	1.28363
1118.47	0.032248
1121.36	1.61943
1124.25	0.735813
1127.15	0.523218
1130.04	0.528414
1132.93	0.213715
1135.82	0.980558
1138.72	0.679747
1141.61	0.000408
1144.5	1.12039
1147.39	0.432535
1150.29	0.548811
1153.18	0.308508
1156.07	0.252327
1158.96	0.699217
1161.86	0.191786
1164.75	0.623224
1167.64	0.620535
1170.54	0.651546
1173.43	0.559221
1176.32	0.398846
1179.21	0.654879
1182.11	0.961246
1185	0.681034
1187.89	0.800392
1190.79	0.357702
1193.68	0.614656
1196.57	0.228399
1199.46	0.547571
1202.36	0.719559
1205.25	0.403622
1208.14	0.004677
1211.03	1.05964
1213.93	0.870184
1216.82	0.768812
1219.71	0.633802
1222.61	0.192402
1225.5	0.302698
1228.39	0.154266
1231.28	0.638655
1234.18	0.525082
1237.07	1.28929
1239.96	0.375488
1242.85	0.062117
1245.75	0.659851
1248.64	0.600454
1251.53	0.53702
1254.42	0.018181
1257.32	0.734322
1260.21	0.6709
1263.1	1.17889
1265.99	1.37827
1268.89	0.478708
1271.78	0.045374
1274.67	0.697536
1277.57	0.439453
1280.46	0.794436
1283.35	0.203817
1286.24	0
