Measurement: Raman, 532 nm, unoriented, Raman Data Processed
Mineral: Hainite
Rruff sample: R141183
Ideal chemistry: Na_2_Ca_4_(Y^3+^,REE)Ti^4+^(Si_2_O_7_)_2_OF_3_
Locality: Langesund Fjord, Norway
Source: Marcelo B. Andrade
Description: Prismatic light brown crystals embedded in albite.
Measured chemistry: Na_2.00_Ca_4.00_(Zr_0.27_Y_0.24_Ca_0.09_Mn_0.08_Fe_0.07_Ce_0.06_La_0.03_Nd^3+^_0.03_Dy_0.03_Yb_0.02_Er_0.02_Na_0.02_Pr_0.01_Lu_0.01_Sr_0.01_)_0.99_(Ti_0.79_Zr_0.15_Nd^5+^_0.06_)_1.00_(Si_2.02_O_7_)_2_OF_2.88_
Raman shift (cm-1)	intensity
93.6401	0
97.0149	32.6738
100.39	17.2793
103.765	401.631
107.139	1283.58
110.514	2515.55
113.889	3708.66
117.264	4549.9
120.639	4994.95
124.013	5293.95
127.388	5394.78
130.763	5383.98
134.138	5261.64
137.513	5135.32
140.888	4985.34
144.262	4791.39
147.637	4504
151.012	4194.45
154.387	3838.13
157.762	3376.75
161.137	3019.49
164.511	2667.93
167.886	2322.02
171.261	1966.53
174.636	1589.02
178.011	1268.83
181.385	1004.73
184.76	843.995
188.135	679.435
191.51	626.349
194.885	548.937
198.26	565.556
201.634	590.696
205.009	643.499
208.384	719.985
211.759	805.972
215.133	894.81
218.508	869.762
221.883	726.468
225.258	531.291
228.633	381.166
232.008	195.541
235.382	89.625
238.757	21.7168
242.132	2.30078
245.507	45.2822
248.882	87.6172
252.256	90.5898
255.631	64.7119
259.006	0.433594
262.381	45.7275
265.756	98.4394
269.131	127.932
272.505	202.657
275.88	276.438
279.255	307.546
282.63	292.562
286.005	326.621
289.38	374.67
292.754	393.5
296.129	396.656
299.504	392.416
302.879	467.082
306.254	531.293
309.628	610.99
313.003	662.037
316.378	707.854
319.753	722.768
323.128	850.6
326.502	1001.25
329.877	1089.02
333.252	1218.42
336.627	1447.79
340.002	1749.44
343.377	1972.35
346.751	2138.32
350.126	2312.97
353.501	2449.66
356.876	2582.78
360.251	2715.31
363.625	2669.94
367	2570.6
370.375	2312.9
373.75	2015.77
377.125	1817.41
380.5	1488.86
383.874	1152.29
387.249	846.211
390.624	506.434
393.999	144.82
397.374	46.5273
400.748	35.3672
404.123	57.6367
407.498	214.34
410.873	342.797
414.248	361.273
417.623	177.547
420.997	139.859
424.372	268.973
427.747	268.938
431.122	210.375
434.497	42.207
437.872	557.644
441.246	1252.8
444.621	1972.78
447.996	2794.24
451.371	3594.59
454.745	4504.94
458.12	5578.55
461.495	6446.19
464.87	7662.06
468.245	8947.02
471.62	10614.9
474.994	12310.3
478.369	13806.6
481.744	15057.7
485.119	15772.2
488.494	16008.5
491.868	16163.4
495.243	16743.1
498.618	17713.8
501.993	18926.3
505.368	19653.3
508.743	19675
512.117	19125.2
515.492	18407.9
518.867	18166
522.242	18931.7
525.617	20530.1
528.991	22229.2
532.366	23835.5
535.741	24741.5
539.116	25258.1
542.491	25810.5
545.866	26183.3
549.24	25993.2
552.615	24252.1
555.99	20973.2
559.365	16896.4
562.74	12412.1
566.115	7909.52
569.489	4340.57
572.864	1915.88
576.239	575.719
579.614	104.902
582.989	147.535
586.363	622.852
589.738	964.375
593.113	1393.62
596.488	1554.3
599.863	1616.67
603.237	1419.73
606.612	1200.59
609.987	857.629
613.362	386.246
616.737	18.2148
620.112	365.352
623.486	520.348
626.861	568.184
630.236	497.941
633.611	353.594
636.986	151.309
640.361	203.508
643.735	652.867
647.11	1226.06
650.485	1815.88
653.86	2526.39
657.235	3023.12
660.609	3439.41
663.984	3694.25
667.359	3617.29
670.734	3251.53
674.109	2887.56
677.484	2515.65
680.858	2300.52
684.233	1953.56
687.608	1631.07
690.983	1298.54
694.357	902.527
697.732	669.758
701.107	523.32
704.482	399.582
707.857	366.57
711.232	410.231
714.606	406.34
717.981	354.523
721.356	376.637
724.731	416.551
728.106	494.305
731.481	457.363
734.855	419.723
738.23	534.016
741.605	536.805
744.98	685.871
748.355	796.57
751.729	917.586
755.104	885.559
758.479	812.492
761.854	846.531
765.229	898.238
768.604	927.465
771.978	1006.45
775.353	1043.35
778.728	1168.13
782.103	1251.82
785.478	1512.18
788.852	1594.4
792.227	1752.04
795.602	1964.38
798.977	2168.85
802.352	2376.57
805.726	2612.37
809.101	2728.12
812.476	2646.01
815.851	2572.47
819.226	2352.34
822.601	2047.39
825.975	1521.64
829.35	1097.6
832.725	675.91
836.1	415.328
839.475	269.09
842.85	206.5
846.224	156.051
849.599	4.61719
852.974	89.3086
856.349	5.71484
859.724	16.7031
863.098	51.3047
866.473	190.652
869.848	102.672
873.223	66.6602
876.598	76.2656
879.972	34.8086
883.347	65.8906
886.722	164.816
890.097	348.856
893.472	604.094
896.847	809.965
900.221	973.797
903.596	1166.9
906.971	1382.15
910.346	1624.01
913.721	1878.69
917.096	2246.11
920.47	2591.45
923.845	3064.63
927.22	3486.9
930.595	3999.4
933.97	4629.09
937.344	5235.7
940.719	5976.9
944.094	6872.2
947.469	7758.39
950.844	8481.66
954.218	9023.12
957.593	9316.38
960.968	9205.93
964.343	9220.35
967.718	9043.39
971.092	8613.56
974.467	8278.15
977.842	7943.75
981.217	7400.53
984.592	6883.72
987.967	6302.94
991.341	5597.7
994.716	4809.5
998.091	4083.54
1001.47	3426.4
1004.84	2740.17
1008.22	2131.67
1011.59	1602.08
1014.97	1174.98
1018.34	800.838
1021.72	420.963
1025.09	151.799
1028.46	26.2852
1031.84	168.531
1035.21	161.324
1038.59	120.334
1041.96	33.7793
1045.34	112.826
1048.71	183.008
1052.09	306.065
1055.46	311.281
1058.84	246.356
1062.21	190.035
1065.59	77.1758
1068.96	27.2734
1072.34	49.0137
1075.71	29.4727
1079.09	15.4375
1082.46	56.9238
1085.84	126.793
1089.21	99.0195
1092.59	31.4219
1095.96	30.2617
1099.34	3.50977
1102.71	15.8691
1106.09	66.083
1109.46	110.214
1112.84	185.464
1116.21	236.323
1119.58	313.892
1122.96	356.016
1126.33	400.435
1129.71	395.5
1133.08	391.815
1136.46	414.497
1139.83	470.28
1143.21	501.519
1146.58	513.467
1149.96	501.86
1153.33	521.215
1156.71	497.297
1160.08	491.139
1163.46	461.898
1166.83	435.435
1170.21	421.697
1173.58	429.3
1176.96	408.312
1180.33	406.174
1183.71	371.291
1187.08	357.533
1190.46	357.678
1193.83	322.377
1197.2	296.395
1200.58	280.32
1203.95	243.597
1207.33	238.018
1210.7	215.79
1214.08	193.673
1217.45	163.213
1220.83	149.385
1224.2	133.209
1227.58	95.0762
1230.95	91.3315
1234.33	69.6699
1237.7	58.5825
1241.08	42.9648
1244.45	44.2158
1247.83	49.9092
1251.2	56.1885
1254.58	43.4082
1257.95	44.7568
1261.33	35.0269
1264.7	13.4141
1268.08	14.8164
1271.45	0.127441
1274.83	9.17383
1278.2	19.0249
1281.58	16.9561
1284.95	3.16016
1288.33	7.35986
1291.7	1.40527
1295.08	0.140625
1298.45	17.9888
1301.83	0
