Measurement: Raman, 780 nm, unoriented, Raman Data Processed
Mineral: Hainite
Rruff sample: R141183
Ideal chemistry: Na_2_Ca_4_(Y^3+^,REE)Ti^4+^(Si_2_O_7_)_2_OF_3_
Locality: Langesund Fjord, Norway
Source: Marcelo B. Andrade
Description: Prismatic light brown crystals embedded in albite.
Measured chemistry: Na_2.00_Ca_4.00_(Zr_0.27_Y_0.24_Ca_0.09_Mn_0.08_Fe_0.07_Ce_0.06_La_0.03_Nd^3+^_0.03_Dy_0.03_Yb_0.02_Er_0.02_Na_0.02_Pr_0.01_Lu_0.01_Sr_0.01_)_0.99_(Ti_0.79_Zr_0.15_Nd^5+^_0.06_)_1.00_(Si_2.02_O_7_)_2_OF_2.88_
Raman shift (cm-1)	intensity
98.3096	0
101.202	231.531
104.095	526.391
106.988	26.7969
109.88	129.438
112.773	109.914
115.666	16.0391
118.558	33.6016
121.451	159.461
124.344	418.602
127.237	586.383
130.129	988.43
133.022	1371.56
135.915	2184.75
138.807	3009.58
141.7	3872.96
144.593	4740.96
147.485	5509.52
150.378	6494.1
153.271	7202.56
156.163	7985.92
159.056	8709.41
161.949	9366.08
164.842	10021.7
167.734	10386.1
170.627	10761
173.52	11065.5
176.412	11448.2
179.305	11748.3
182.198	12190.3
185.09	12826.9
187.983	13321.5
190.876	13605
193.769	13777.9
196.661	14077.2
199.554	14190.6
202.447	14576.9
205.339	14518.5
208.232	14622.1
211.125	14756.8
214.018	14886.2
216.91	14625.2
219.803	14413.7
222.696	14052.6
225.588	13763.8
228.481	13058.8
231.374	12453.6
234.266	11723.6
237.159	11017.5
240.052	10108.2
242.945	9290.6
245.837	8661.81
248.73	8096.38
251.623	7418.94
254.515	6690.19
257.408	6461.15
260.301	6405.12
263.193	6448.6
266.086	6272.76
268.979	6641.89
271.872	6655.66
274.764	6722.32
277.657	6534.12
280.55	6177.62
283.442	5551.23
286.335	4665.01
289.228	4338.99
292.12	3295.27
295.013	2397.76
297.906	1856.01
300.798	883.414
303.691	575.844
306.584	44.0312
309.476	640.891
312.369	1013.8
315.262	836.328
318.155	1020.98
321.047	861.141
323.94	964.406
326.833	1014.42
329.725	964.031
332.618	631.859
335.511	128.344
338.404	294.812
341.296	487.766
344.189	559.281
347.082	746.641
349.974	496.969
352.867	608.719
355.76	1078.59
358.652	1197.77
361.545	1439.55
364.438	1296.12
367.33	1175.73
370.223	1241.03
373.116	598.297
376.009	315.781
378.901	1
381.794	520.312
384.687	1221.34
387.579	2344.61
390.472	3973.66
393.365	6325.17
396.257	8817.5
399.15	11541
402.043	14448.2
404.935	17942.8
407.828	20894.3
410.721	24094.4
413.614	27055.4
416.506	29827
419.399	32932.6
422.292	36095
425.184	38394.5
428.077	40743.3
430.97	42679.9
433.863	43901.8
436.755	44705.1
439.648	44577.6
442.541	44506.1
445.433	42704.1
448.326	40516.4
451.219	38204.8
454.111	34927.9
457.004	31316.4
459.897	28249.4
462.789	24707.6
465.682	21953
468.575	20668.6
471.468	19586.4
474.36	18916.9
477.253	18334.3
480.146	18496.4
483.038	19312.4
485.931	19833.3
488.824	20642.6
491.716	20995
494.609	21353.7
497.502	21532.5
500.395	21234.1
503.287	21075.8
506.18	20180.2
509.073	19179.8
511.965	17567.2
514.858	15709.3
517.751	13341.1
520.644	11115.2
523.536	8978.17
526.429	7084.06
529.322	5190.67
532.214	3643.19
535.107	2335.05
538	1401.16
540.892	461.312
543.785	277.898
546.678	646.914
549.57	956.828
552.463	990.148
555.356	1092.32
558.249	892.188
561.141	756.562
564.034	628.508
566.927	328.18
569.819	231.625
572.712	532.242
575.605	968.539
578.497	1326.6
581.39	1759.83
584.283	2095.55
587.176	2315.98
590.068	2850.77
592.961	3402.06
595.854	3894.76
598.746	4259.44
601.639	4812.77
604.532	5199.96
607.424	5400.27
610.317	5720.32
613.21	5901.34
616.102	6038.21
618.995	6061.39
621.888	6404.87
624.781	6372.97
627.673	6500.91
630.566	6485.48
633.459	6857.29
636.351	6923.75
639.244	7007.09
642.137	7105.13
645.029	7011.41
647.922	6824.34
650.815	6785.62
653.708	6560.8
656.6	6542.48
659.493	6543.83
662.386	6044.16
665.278	5713.13
668.171	5244.5
671.064	4653.78
673.957	4369.89
676.849	3756.05
679.742	3562.45
682.635	3266.18
685.527	2861.95
688.42	2512.02
691.313	2244.24
694.205	1828.23
697.098	1604.6
699.991	1432.29
702.884	1156.07
705.776	1023.62
708.669	853.777
711.562	728.019
714.454	628.293
717.347	466.059
720.24	299.019
723.132	234.258
726.025	39.0547
728.918	39.2266
731.81	174.301
734.703	27.3594
737.596	50.9648
740.489	62.6016
743.381	43.2148
746.274	64.8672
749.167	9.52734
752.059	13.8008
754.952	56.7266
757.845	36.9258
760.737	0.632813
763.63	14.3281
766.523	158.461
769.415	157.156
772.308	260.672
775.201	285.062
778.094	196.445
780.986	328.691
783.879	187.961
786.772	162.754
789.664	160.758
792.557	182.941
795.45	90.4375
798.342	15.5469
801.235	58.0117
804.128	35.0938
807.021	42.2266
809.913	28.0586
812.806	31.2891
815.699	99.3984
818.591	188.547
821.484	385.047
824.377	434.641
827.269	619.344
830.162	809.137
833.055	939.812
835.948	1234.3
838.84	1523.71
841.733	1652.44
844.626	1876.85
847.518	1964.58
850.411	2128.4
853.304	2094.06
856.197	2208.56
859.089	2267.45
861.982	2189.21
864.875	2190.13
867.767	2093.65
870.66	2110.64
873.553	2090.06
876.445	1985.61
879.338	1787.93
882.231	1933.75
885.123	2012.94
888.016	1718.69
890.909	1660.77
893.802	1463.77
896.694	1340.89
899.587	1480.79
902.48	1184.17
905.372	1178.91
908.265	1085.52
911.158	824.82
914.05	693.594
916.943	574.164
919.836	399.941
922.729	151.863
925.621	93.5703
928.514	52.6172
931.407	28.7422
934.299	166.727
937.192	61.8555
940.085	83.6406
942.977	198.059
945.87	142.289
948.763	42.543
951.655	98.0469
954.548	289.582
957.441	383.59
960.334	549.676
963.226	610.57
966.119	853.695
969.012	912.043
971.904	977.656
974.797	1040.86
977.69	1181.51
980.582	1364.68
983.475	1463.68
986.368	1308
989.261	1585.92
992.153	1502.56
995.046	1596.09
997.939	1637.89
1000.83	1870.15
1003.72	1881.04
1006.62	1995.21
1009.51	2125.94
1012.4	2116.55
1015.29	2495.95
1018.19	2625.5
1021.08	2616.49
1023.97	2844.46
1026.87	2883.95
1029.76	3169.13
1032.65	3285.16
1035.54	3536.54
1038.44	3744.39
1041.33	3954.95
1044.22	4071.09
1047.12	4150.2
1050.01	4452.05
1052.9	4723.38
1055.79	5044.25
1058.68	5125.03
1061.58	5167.02
1064.47	5022.28
1067.36	4818.91
1070.26	4743.86
1073.15	4402.33
1076.04	4120.49
1078.93	3707.56
1081.83	3610.15
1084.72	3378.27
1087.61	3115.74
1090.51	2527.64
1093.4	2209.48
1096.29	1354.9
1099.18	908.172
1102.08	504.508
1104.97	302.094
1107.86	407.633
1110.75	223.625
1113.65	168.422
1116.54	325.906
1119.43	671.195
1122.33	1285.34
1125.22	1819.48
1128.11	2422.34
1131	2947.37
1133.9	3540.87
1136.79	3013.18
1139.68	2726.55
1142.57	2251.73
1145.47	1910.41
1148.36	1877.94
1151.25	1423.83
1154.14	1363.44
1157.04	875.328
1159.93	399.422
1162.82	234.781
