Measurement: Raman, 780 nm, unoriented, Raman Data Processed
Mineral: Hainite
Rruff sample: R140781
Ideal chemistry: Na_2_Ca_4_(Y^3+^,REE)Ti^4+^(Si_2_O_7_)_2_OF_3_
Locality: Parco Chigi, Ariccia, Alban Hills, Rome Province, Latium, Italy
Source: Ch. and H. Sch√§fer
Description: Prismatic pale-yellow crystals, associated with colorless sanidine.
Raman shift (cm-1)	intensity
101.684	0
104.095	23.3794
106.505	125.092
108.916	222.303
111.327	420.644
113.737	487.736
116.148	631.42
118.558	808.057
120.969	918.31
123.38	1008.25
125.79	1121.23
128.201	1215.85
130.611	1430.72
133.022	1668.45
135.433	1604.87
137.843	1512.12
140.254	1332.81
142.664	1082.46
145.075	800.321
147.485	628.067
149.896	347.634
152.307	162.371
154.717	62.7978
157.128	177.745
159.538	292.204
161.949	284.249
164.359	148.938
166.77	44.0361
169.181	28.9668
171.591	165.822
174.002	319.147
176.412	431.202
178.823	697.182
181.234	941.805
183.644	1203.25
186.055	1448.86
188.465	1744.95
190.876	2066.44
193.286	2382.81
195.697	2689.55
198.108	3112.11
200.518	3381.57
202.929	3750.35
205.339	4058.17
207.75	4544.09
210.161	4750.2
212.571	5122.61
214.982	5436.4
217.392	5499.81
219.803	5745.63
222.214	5987.87
224.624	6121.48
227.035	6115.21
229.445	6338.27
231.856	6363.83
234.266	6334.85
236.677	6350.65
239.088	6239.94
241.498	6124.77
243.909	5939.02
246.319	5873.13
248.73	5960.77
251.14	5943.42
253.551	6110.71
255.962	6288.33
258.372	6496.4
260.783	6709.09
263.193	7012.87
265.604	7233.96
268.014	7506.98
270.425	7612.85
272.836	7614.66
275.246	7379.6
277.657	7062.26
280.067	6532.86
282.478	5812.14
284.889	5085.9
287.299	4315.53
289.71	3465.4
292.12	2717.05
294.531	2003.01
296.942	1371.88
299.352	909.047
301.763	335.516
304.173	88.6758
306.584	186.498
308.994	208.932
311.405	32.7656
313.816	130.926
316.226	696.807
318.637	1022.2
321.047	1470.03
323.458	1830.54
325.868	2022.9
328.279	2412
330.69	2517.93
333.1	2558.33
335.511	2646.04
337.921	2581.64
340.332	2381.28
342.743	1975.52
345.153	1745.59
347.564	1347.4
349.974	1029.77
352.385	758.094
354.796	504.559
357.206	416.684
359.617	299.926
362.027	40.375
364.438	227.269
366.848	549.539
369.259	609.586
371.67	993.086
374.08	984.168
376.491	799.934
378.901	540.856
381.312	131.527
383.722	1047.43
386.133	2032.75
388.544	3318.06
390.954	4868.58
393.365	6465.32
395.775	8057.69
398.186	9719.91
400.596	11445.5
403.007	12892.5
405.418	14465.9
407.828	15681.5
410.239	16991.4
412.649	18209.4
415.06	19170.3
417.471	20155.8
419.881	21484.3
422.292	22524.5
424.702	23617.8
427.113	24466.9
429.524	25387.4
431.934	26057.2
434.345	26303.7
436.755	26405.2
439.166	26168
441.576	25481.1
443.987	24622.5
446.398	23450
448.808	22024.4
451.219	20695.4
453.629	19512.5
456.04	18449
458.45	17548.8
460.861	17078
463.272	16603.5
465.682	16611.4
468.093	16849.3
470.503	17158
472.914	17532.1
475.325	18019.8
477.735	18687.9
480.146	19442.1
482.556	20236.4
484.967	21175.1
487.377	22049.2
489.788	23055.4
492.199	23739.4
494.609	24239.6
497.02	24409.6
499.43	24314.6
501.841	23625.1
504.252	22649.9
506.662	21298.8
509.073	19508.7
511.483	17747.1
513.894	15659
516.304	13429.2
518.715	11421.4
521.126	9357.22
523.536	7437.85
525.947	5930.64
528.357	4362.4
530.768	3093.36
533.178	2105.65
535.589	1135.02
538	499.519
540.41	53.3164
542.821	372.891
545.231	624.201
547.642	701.553
550.053	707.91
552.463	687.043
554.874	555.766
557.284	456.697
559.695	227.178
562.106	162.08
564.516	35.8789
566.927	262.76
569.337	382.234
571.748	531.481
574.158	819.328
576.569	953.965
578.98	1014.84
581.39	1146.39
583.801	1330.59
586.211	1359.3
588.622	1479.32
591.033	1684.79
593.443	1671.62
595.854	1823.25
598.264	1959.46
600.675	1974.23
603.085	2020.12
605.496	2079.86
607.907	1982.39
610.317	1979.46
612.728	1935.34
615.138	1971.26
617.549	1936.97
619.96	2021.86
622.37	2095.61
624.781	2312.42
627.191	2394.67
629.602	2547.64
632.012	2762.05
634.423	3062.01
636.833	3132.32
639.244	3262.72
641.655	3348.76
644.065	3451.49
646.476	3491.96
648.886	3499.02
651.297	3455.42
653.708	3459.84
656.118	3384.07
658.529	3431.24
660.939	3287.84
663.35	3213.99
665.76	3088.99
668.171	3003.3
670.582	2839.58
672.992	2708.29
675.403	2421.31
677.813	2229.74
680.224	2049.44
682.635	1875.4
685.045	1619.53
687.456	1445.24
689.866	1305.56
692.277	1060.77
694.688	899.551
697.098	748.505
699.509	595.176
701.919	500.353
704.33	345.829
706.74	237.569
709.151	182.627
711.562	52.6631
713.972	41.5498
716.383	85.5381
718.793	60.6221
721.204	188.763
723.614	214.505
726.025	193.356
728.436	144.11
730.846	65.8232
733.257	29.5879
735.667	90.5381
738.078	181.134
740.489	343.756
742.899	532.798
745.31	696.005
747.72	892.123
750.131	1124.44
752.541	1269.32
754.952	1516.01
757.363	1653.99
759.773	1727.83
762.184	1856.93
764.594	1890.39
767.005	2021.65
769.415	2083.07
771.826	2175.25
774.237	2144.99
776.647	2219.95
779.058	2127.17
781.468	2164.13
783.879	1987.8
786.29	1996.26
788.7	1970.7
791.111	1919.77
793.521	1835.8
795.932	1753.51
798.342	1710.81
800.753	1566.46
803.164	1475.32
805.574	1398.8
807.985	1273.57
810.395	1156.49
812.806	1016.67
815.217	966.704
817.627	835.221
820.038	729.951
822.448	709.761
824.859	677.152
827.269	525.913
829.68	504.317
832.091	460.113
834.501	448.932
836.912	409.302
839.322	473.263
841.733	436.3
844.144	407.307
846.554	473.373
848.965	503.09
851.375	663.564
853.786	631.527
856.197	693.1
858.607	709.763
861.018	806.403
863.428	895.487
865.839	884.428
868.249	923.459
870.66	956.322
873.071	1033.21
875.481	1035.8
877.892	1060.05
880.302	1150.43
882.713	1204.76
885.123	1230.65
887.534	1238.26
889.945	1353.61
892.355	1326.9
894.766	1342.55
897.176	1301.43
899.587	1311.57
901.997	1283.98
904.408	1177.46
906.819	1130.06
909.229	1026.95
911.64	982.462
914.05	811.036
916.461	767.69
918.872	679.718
921.282	504.338
923.693	364.935
926.103	236.562
928.514	132.389
930.924	66.7832
933.335	19.626
935.746	37.4853
938.156	137.639
940.567	43.8789
942.977	107.955
945.388	114.71
947.799	148.536
950.209	51.544
952.62	27.8027
955.03	17.9805
957.441	78.1035
959.851	242.134
962.262	241.739
964.673	349.57
967.083	441.761
969.494	572.559
971.904	691.999
974.315	802.609
976.726	917.821
979.136	994.65
981.547	1188.52
983.957	1250.65
986.368	1399.41
988.778	1453.5
991.189	1497.88
993.6	1561.08
996.01	1573.93
998.421	1532.42
1000.83	1469.11
1003.24	1336.06
1005.65	1385.28
1008.06	1316.45
1010.47	1349.06
1012.88	1254.83
1015.29	1174.33
1017.71	1223.06
1020.12	1062.57
1022.53	938.481
1024.94	925.576
1027.35	691.076
1029.76	625.219
1032.17	531.154
1034.58	411.088
1036.99	411.369
1039.4	305.106
1041.81	242.545
1044.22	144.353
1046.63	98.0293
1049.04	0
