Measurement: Raman, 532 nm, unoriented, Raman Data Processed
Mineral: Haiweeite
Rruff sample: R060732
Ideal chemistry: Ca(UO_2_)_2_Si_5_O_12_(OH)_2_6H_2_O
Locality: Los Azules, Copiapo, Chile
Source: Bob Jenkins
Description: Spherical aggregates of yellow acicular crystals
Raman shift (cm-1)	intensity
163.467	0
166.36	23.1724
169.252	42.2783
172.145	182.443
175.038	250.921
177.93	512.068
180.823	731.952
183.716	1077.08
186.608	1380.15
189.501	1463.45
192.394	1400.26
195.286	1129.79
198.179	907.631
201.072	643.935
203.965	453.421
206.857	352.894
209.75	198.133
212.643	74.7827
215.535	51.7515
218.428	4.07666
221.321	1.86279
224.214	17.646
227.106	22.5737
229.999	4.44824
232.892	93.0474
235.784	8.58838
238.677	45.7685
241.57	35.269
244.462	125.207
247.355	202.447
250.248	197.353
253.141	175.506
256.033	234.205
258.926	239.936
261.819	426.069
264.711	316.437
267.604	266.054
270.497	192.402
273.389	182.679
276.282	145.606
279.175	129.416
282.068	185.642
284.96	136.948
287.853	139.087
290.746	194.517
293.638	161.953
296.531	282.728
299.424	388.968
302.316	541.702
305.209	592.23
308.102	559.163
310.994	431.544
313.887	318.598
316.78	232.708
319.672	83.0166
322.565	134.898
325.458	58.5088
328.351	0.62207
331.243	65.3135
334.136	7.67383
337.029	14.4053
339.921	53.7051
342.814	2.44043
345.707	32.5264
348.599	84.6094
351.492	98.4805
354.385	102.804
357.278	68.2022
360.17	75.1689
363.063	114.264
365.956	190.883
368.848	199.935
371.741	243.321
374.634	208.259
377.526	193.468
380.419	168.906
383.312	105.44
386.205	123.869
389.097	109.688
391.99	49.0342
394.883	31.1162
397.775	15.6348
400.668	17.5557
403.561	34.1377
406.453	28.0117
409.346	79.3877
412.239	136.346
415.132	72.6367
418.024	142.422
420.917	91.4043
423.81	46.7022
426.702	39.0185
429.595	39.8975
432.488	58.916
435.38	53.8252
438.273	14.2168
441.166	52.8682
444.059	60.958
446.951	45.419
449.844	57.5
452.737	58.7334
455.629	82.5918
458.522	55.9053
461.415	119.436
464.307	82.2373
467.2	110.173
470.093	135.799
472.986	192.217
475.878	86.4209
478.771	107.455
481.664	87.0606
484.556	83.1562
487.449	112.668
490.342	96.7188
493.234	116.135
496.127	32.5654
499.02	32.6299
501.913	12.792
504.805	48.9688
507.698	13.251
510.591	21.7793
513.483	25.5322
516.376	58.1143
519.269	154.713
522.161	141.276
525.054	91.4668
527.947	113.288
530.839	168.184
533.732	120.095
536.625	123.723
539.518	110.025
542.41	82.6533
545.303	120.684
548.196	148.648
551.088	98.165
553.981	100.572
556.874	53.0879
559.766	1.95508
562.659	73.3701
565.552	202.231
568.445	182.219
571.337	269.011
574.23	293.853
577.123	358.422
580.015	355.816
582.908	413.017
585.801	530.343
588.693	586.16
591.586	465.014
594.479	322.234
597.372	248.289
600.264	219.778
603.157	117.548
606.05	206.973
608.942	153.723
611.835	159.284
614.728	81.6758
617.62	125.895
620.513	126.989
623.406	120.812
626.299	144.601
629.191	106.741
632.084	97.6943
634.977	49.9863
637.869	43.9033
640.762	12.1221
643.655	3.76465
646.547	24.8672
649.44	62.71
652.333	138.009
655.226	123.97
658.118	96.9287
661.011	10.7051
663.904	33.0205
666.796	20.7559
669.689	50.6387
672.582	55.3027
675.474	4.49609
678.367	14.5635
681.26	13.5869
684.153	66.7402
687.045	36.1748
689.938	26.7139
692.831	42.3184
695.723	35.9756
698.616	6.63086
701.509	5.20312
704.401	62.1201
707.294	33.7734
710.187	4.91602
713.08	51.5234
715.972	26.7988
718.865	41.8613
721.758	40.7393
724.65	65.875
727.543	32.748
730.436	89.1299
733.328	90.9273
736.221	56.8369
739.114	109.275
742.006	118.734
744.899	151.249
747.792	166.122
750.685	163.9
753.577	75.8769
756.47	196.171
759.363	183.47
762.255	284.388
765.148	453.047
768.041	553.698
770.933	755.519
773.826	1009.86
776.719	1297.55
779.612	1707.35
782.504	2225.34
785.397	2810.22
788.29	3509.71
791.182	4278.49
794.075	5166.31
796.968	6029.31
799.86	6869.4
802.753	7475.2
805.646	7653.11
808.539	7061.66
811.431	5931.25
814.324	4288.09
817.217	2776.54
820.109	1789.88
823.002	1193.67
825.895	813.815
828.787	567.566
831.68	430.408
834.573	229.928
837.466	131.116
840.358	116.603
843.251	85.8931
846.144	52.4756
849.036	18.6963
851.929	14.5454
854.822	25.334
857.714	4.02002
860.607	47.1758
863.5	1.5166
866.393	13.3496
869.285	11.5444
872.178	32.2793
875.071	50.6533
877.963	56.4785
880.856	43.8096
883.749	56.3809
886.641	54.1118
889.534	89.7017
892.427	144.542
895.32	153.934
898.212	171.804
901.105	160.686
903.998	248.821
906.89	281.373
909.783	376.077
912.676	541.321
915.568	652.156
918.461	751.724
921.354	876.963
924.247	1027.95
927.139	1112.26
930.032	1310.55
932.925	1524.91
935.817	1630.1
938.71	1514.93
941.603	1267.8
944.495	858.231
947.388	596.49
950.281	393.293
953.173	225.373
956.066	255.857
958.959	100.805
961.852	84.9102
964.744	73.8979
967.637	35.7974
970.53	43.9683
973.422	4.42041
976.315	38.4482
979.208	43.2358
982.1	11.605
984.993	12.5869
987.886	68.1397
990.779	38.2085
993.671	77.8999
996.564	211.696
999.457	243.126
1002.35	325.317
1005.24	431.972
1008.13	656.44
1011.03	890.784
1013.92	1051.91
1016.81	1190.76
1019.71	1059.76
1022.6	749.774
1025.49	506.657
1028.38	323.659
1031.28	240.477
1034.17	189.507
1037.06	129.409
1039.95	29.3667
1042.85	63.3227
1045.74	93.313
1048.63	2.27539
1051.53	22.2231
1054.42	9.30664
1057.31	28.8584
1060.2	26.3193
1063.1	18.959
1065.99	2.84326
1068.88	43.5977
1071.77	41.2295
1074.67	52.9263
1077.56	59.2412
1080.45	54.5107
1083.35	25.7549
1086.24	54.3379
1089.13	43.5845
1092.02	108.068
1094.92	156.23
1097.81	187.236
1100.7	226.664
1103.59	211.634
1106.49	221.697
1109.38	244.073
1112.27	233.574
1115.16	239.252
1118.06	188.687
1120.95	95.6397
1123.84	75.8999
1126.73	103.46
1129.63	135.818
1132.52	31.7549
1135.41	5.45508
1138.31	22.6216
1141.2	67.0166
1144.09	18.4253
1146.98	18.2422
1149.88	23.874
1152.77	37.6626
1155.66	122.507
1158.56	69.3394
1161.45	22.3267
1164.34	88.1045
1167.23	63.1191
1170.13	12.9121
1173.02	87.7251
1175.91	61.9839
1178.8	105.303
1181.7	14.2031
1184.59	55.0737
1187.48	19.1348
1190.38	80.0967
1193.27	10.1245
1196.16	21.772
1199.05	19.6001
1201.94	7.42676
1204.84	15.9541
1207.73	5.10449
1210.62	39.6416
1213.52	41.8452
1216.41	42.1401
1219.3	58.6138
1222.19	13.9033
1225.09	42.5791
1227.98	23.6909
1230.87	43.606
1233.77	50.5278
1236.66	60.8823
1239.55	103.565
1242.44	70.4898
1245.34	74.1206
1248.23	96.3525
1251.12	34.8852
1254.01	23.5962
1256.91	92.9072
1259.8	43.2451
1262.69	46.5664
1265.59	51.6958
1268.48	50.333
1271.37	111.565
1274.26	72.1602
1277.16	141.173
1280.05	66.7783
1282.94	73.9673
1285.83	24.1748
1288.73	97.3579
1291.62	56.9194
1294.51	21.4087
1297.4	0
