Measurement: Raman, 532 nm, unoriented, Raman Data Processed
Mineral: Haiweeite
Rruff sample: R061051
Ideal chemistry: Ca(UO_2_)_2_Si_5_O_12_(OH)_2_6H_2_O
Locality: Teofoli Otoni, Minas Gerais, Brazil
Source: Michael Scott
Description: Spherical aggregates of yellow acicular crystals with albite, uranophane, calcite, quartz, and muscovite
Raman shift (cm-1)	intensity
145.629	0
148.522	397.824
151.414	499.871
154.307	117.316
157.2	72.9688
160.092	946.727
162.985	1621.92
165.878	2034.07
168.77	2118.68
171.663	1985.75
174.556	2133.43
177.448	2276.45
180.341	2657.57
183.234	3241.24
186.127	3805.4
189.019	4193.59
191.912	3967.16
194.805	3453.34
197.697	2786.64
200.59	2641.16
203.483	2136.37
206.375	2016.29
209.268	1652.63
212.161	1271.81
215.054	889.84
217.946	978.57
220.839	1120.96
223.732	840.875
226.624	765.16
229.517	997.816
232.41	988.305
235.303	1079.27
238.195	763.234
241.088	803.769
243.981	622.223
246.873	920.074
249.766	847.586
252.659	631.039
255.551	527.769
258.444	488.367
261.337	848.508
264.229	907.988
267.122	787.156
270.015	569.969
272.908	192.504
275.8	334.078
278.693	580.672
281.586	461.41
284.478	517.25
287.371	564.242
290.264	504.144
293.156	568.012
296.049	639.648
298.942	845.922
301.834	1436.33
304.727	1865.18
307.62	2105.61
310.513	1523.69
313.405	930.16
316.298	370.434
319.191	70.1367
322.083	0.359375
324.976	213.59
327.869	119.441
330.762	171.969
333.654	64.793
336.547	115.484
339.44	32.3242
342.332	22.7773
345.225	19.6211
348.118	258.211
351.01	379.074
353.903	450.168
356.796	369.027
359.688	435.574
362.581	539.375
365.474	603.371
368.366	666.828
371.259	719.387
374.152	897.332
377.045	906.309
379.937	791.856
382.83	495.336
385.723	493.516
388.615	442.406
391.508	478.922
394.401	114.836
397.293	140.598
400.186	48.7031
403.079	32.2695
405.972	98.5156
408.864	343.91
411.757	385.613
414.65	648.848
417.542	731.062
420.435	589.684
423.328	455.918
426.221	268.969
429.113	227.703
432.006	265.949
434.899	336.59
437.791	283.176
440.684	225.781
443.577	450.191
446.469	334.449
449.362	417.254
452.255	408.617
455.147	447.598
458.04	174.188
460.933	223.699
463.826	106.41
466.718	178.371
469.611	400.414
472.504	310.438
475.396	273.473
478.289	65.5117
481.182	121.543
484.074	237.062
486.967	325.875
489.86	49.3633
492.752	65.9883
495.645	103.394
498.538	168.016
501.431	94.2109
504.323	175.996
507.216	45.1406
510.109	120.973
513.001	194.66
515.894	150.176
518.787	309.59
521.679	424.562
524.572	493.672
527.465	588.519
530.358	368.324
533.25	360.797
536.143	211.375
539.036	59.8047
541.928	545.688
544.821	633.148
547.714	548.688
550.606	719.16
553.499	674.059
556.392	469.316
559.284	477.328
562.177	664.465
565.07	787.09
567.963	1075.43
570.855	1221.1
573.748	1286.62
576.641	1393.07
579.533	1320.05
582.426	1771.7
585.319	1802.13
588.212	2094.86
591.104	2074.78
593.997	2082.66
596.89	2145.14
599.782	2061.09
602.675	2254.52
605.568	2703.7
608.46	2968.48
611.353	3248.32
614.246	3353.69
617.139	3492.06
620.031	3773.96
622.924	3922.25
625.817	3895.74
628.709	3860.11
631.602	3671.02
634.495	3410.2
637.387	3120.44
640.28	2685.37
643.173	2345.54
646.066	1997.03
648.958	1841.48
651.851	1864.83
654.744	1320.19
657.636	1085.17
660.529	867.117
663.422	470.445
666.314	410.586
669.207	392.539
672.1	298.68
674.992	5.60156
677.885	99.6484
680.778	85.9883
683.67	84.3672
686.563	71.1797
689.456	104.598
692.349	133.769
695.241	296.301
698.134	152.285
701.027	58.7969
703.919	49.7734
706.812	110.812
709.705	144.988
712.597	227.324
715.49	2.79688
718.383	46.6562
721.276	200.5
724.168	57.7109
727.061	164.754
729.954	133.25
732.846	93.3984
735.739	93.4766
738.632	39.8672
741.524	220.078
744.417	260.734
747.31	587.332
750.203	544.34
753.095	394.269
755.988	491.359
758.881	983.742
761.773	819.734
764.666	1031.68
767.559	1255.77
770.452	2030.81
773.344	2408.62
776.237	3152.2
779.13	4010.07
782.022	5268.84
784.915	6716.07
787.808	8437.86
790.7	10168.9
793.593	12061.3
796.486	14146.4
799.378	15934.4
802.271	17254.8
805.164	17848.5
808.057	17077.7
810.949	14783.8
813.842	11654.4
816.735	9035.2
819.627	6827.46
822.52	5562.84
825.413	4603.94
828.305	4273.82
831.198	3729.56
834.091	3095.93
836.984	2927.76
839.876	2489.37
842.769	1989.5
845.662	1711.3
848.554	1261.2
851.447	886.098
854.34	553.879
857.232	512.41
860.125	451.648
863.018	312.656
865.91	122.316
868.803	81.0781
871.696	176.918
874.589	141.785
877.481	5.94141
880.374	44.4688
883.267	85.5664
886.159	191.652
889.052	46.4531
891.945	187.383
894.837	338.398
897.73	450.672
900.623	193.434
903.516	228.082
906.408	240.094
909.301	371.238
912.194	497.996
915.086	849.207
917.979	1008.42
920.872	1471.06
923.764	2021.41
926.657	2463.23
929.55	3112.7
932.442	3634.16
935.335	4149.15
938.228	4088.22
941.121	3473.42
944.013	2668.64
946.906	1670.63
949.799	1065.44
952.691	748.633
955.584	364.773
958.477	134.223
961.37	209.879
964.262	241.32
967.155	21.8477
970.048	63.9727
972.94	175.156
975.833	59.5469
978.726	73.7148
981.618	71.7305
984.511	74.7266
987.404	229
990.296	45.2969
993.189	76.8242
996.082	206.195
998.975	268.566
1001.87	519.184
1004.76	859.027
1007.65	1097.54
1010.54	1408.61
1013.44	1796.11
1016.33	1959
1019.22	1888.69
1022.12	1556.42
1025.01	1286.9
1027.9	1005.23
1030.79	693.496
1033.69	405.285
1036.58	570.301
1039.47	439.109
1042.37	453.793
1045.26	313.211
1048.15	58.8281
1051.04	183.289
1053.94	177.914
1056.83	381.356
1059.72	235.934
1062.61	146.613
1065.51	27.6875
1068.4	125.594
1071.29	232.144
1074.18	233.852
1077.08	129.797
1079.97	194.785
1082.86	101.527
1085.76	183.918
1088.65	264.418
1091.54	309.914
1094.43	511.262
1097.33	666.691
1100.22	703.641
1103.11	572.957
1106	817.695
1108.9	768.184
1111.79	480.207
1114.68	514.672
1117.58	525.359
1120.47	204.777
1123.36	151.246
1126.25	156.398
1129.15	380.449
1132.04	421.738
1134.93	384.438
1137.82	343.113
1140.72	173.109
1143.61	179.367
1146.5	170.301
1149.39	26.1992
1152.29	116.445
1155.18	274.602
1158.07	230.289
1160.97	238.824
1163.86	336.387
1166.75	379.707
1169.64	179.152
1172.54	181.602
1175.43	353.113
1178.32	389.508
1181.21	444.148
1184.11	346.41
1187	394.707
1189.89	246.586
1192.79	19.2188
1195.68	50.9375
1198.57	100.047
1201.46	26.3594
1204.36	55.4453
1207.25	91.3047
1210.14	233.629
1213.03	263.238
1215.93	267.144
1218.82	109.07
1221.71	72.75
1224.61	147.695
1227.5	237.676
1230.39	173.531
1233.28	249.488
1236.18	322.609
1239.07	377.121
1241.96	285.141
1244.85	327.16
1247.75	492.559
1250.64	332.684
1253.53	227.574
1256.42	406.391
1259.32	234.769
1262.21	110.438
1265.1	66.8516
1267.99	79.1953
1270.89	462.844
1273.78	551.824
1276.67	390.211
1279.57	117.793
1282.46	0
