Measurement: Raman, 785 nm, unoriented, Raman Data Processed
Mineral: Haiweeite
Rruff sample: R061051
Ideal chemistry: Ca(UO_2_)_2_Si_5_O_12_(OH)_2_6H_2_O
Locality: Teofoli Otoni, Minas Gerais, Brazil
Source: Michael Scott
Description: Spherical aggregates of yellow acicular crystals with albite, uranophane, calcite, quartz, and muscovite
Raman shift (cm-1)	intensity
128.76	0
131.652	514.729
134.545	575.218
137.438	87.3386
140.33	47.8534
143.223	370.407
146.116	1022.63
149.008	1472.43
151.901	1319.12
154.794	972.184
157.686	743.348
160.579	764.524
163.472	935.882
166.365	1069.95
169.257	1196.16
172.15	1290.39
175.043	1336.16
177.935	1515.81
180.828	1721.93
183.721	2046.66
186.613	2461.19
189.506	2681.24
192.399	2535.88
195.292	2269.08
198.184	1796.7
201.077	1367.99
203.97	1024.71
206.862	741.474
209.755	503.383
212.648	301.373
215.541	253.66
218.433	175.902
221.326	139.962
224.219	187.437
227.111	169.794
230.004	145.466
232.897	103.175
235.79	192.865
238.682	108.346
241.575	117.587
244.468	48.5107
247.36	8.79541
250.253	32.5063
253.146	84.1362
256.038	148.886
258.931	302.88
261.824	338.929
264.716	348.965
267.609	237.851
270.502	136.078
273.395	3.54492
276.287	19.9729
279.18	27.7734
282.073	53.4885
284.965	46.9683
287.858	92.4622
290.751	177.319
293.644	236.796
296.536	415.166
299.429	637.562
302.322	834.456
305.214	905.514
308.107	832.689
311	626.937
313.892	393.135
316.785	159.683
319.678	18.7459
322.57	16.8057
325.463	10.7356
328.356	9.90845
331.249	24.5488
334.141	35.4177
337.034	31.7878
339.927	35.23
342.819	26.2327
345.712	19.5759
348.605	95.8709
351.498	128.731
354.39	198.661
357.283	206.234
360.176	262.639
363.068	387.632
365.961	533.514
368.854	690.035
371.746	816.689
374.639	837.079
377.532	818.986
380.425	549.909
383.317	382.801
386.21	228.475
389.103	127.413
391.995	75.4531
394.888	53.4158
397.781	44.9243
400.673	31.4143
403.566	43.6267
406.459	70.8462
409.351	101.434
412.244	169.896
415.137	246.797
418.03	270.563
420.922	265.148
423.815	198.193
426.708	137.769
429.6	54.6179
432.493	27.0769
435.386	5.7041
438.279	33.5466
441.171	67.7803
444.064	43.1814
446.957	58.3948
449.849	80.6345
452.742	102.371
455.635	78.5474
458.527	142.009
461.42	180.031
464.313	216.337
467.205	248.795
470.098	281.862
472.991	266.303
475.884	216.882
478.776	118.343
481.669	116.169
484.562	91.7561
487.454	74.2205
490.347	66.4519
493.24	23.4331
496.132	28.3862
499.025	32.7922
501.918	16.4558
504.811	3.50171
507.703	11.6958
510.596	4.57373
513.489	4.12231
516.381	20.8621
519.274	6.05811
522.167	11.7678
525.059	46.249
527.952	78.3682
530.845	74.1521
533.738	114.716
536.63	127.303
539.523	127.921
542.416	68.7695
545.308	25.0452
548.201	22.2446
551.094	3.5708
553.986	5.9209
556.879	30.8828
559.772	16.1023
562.665	68.9771
565.557	33.6921
568.45	58.2273
571.343	117.684
574.235	166.892
577.128	268.107
580.021	421.226
582.914	570.053
585.806	695.714
588.699	735.752
591.592	649.472
594.484	473.317
597.377	322.063
600.27	258.616
603.163	178.728
606.055	148.914
608.948	112.422
611.841	117.085
614.733	90.6636
617.626	110.186
620.519	101.678
623.411	97.4583
626.304	72.8625
629.197	115.458
632.09	69.865
634.982	82.0325
637.875	103.599
640.768	80.7026
643.66	64.9407
646.553	49.0322
649.446	34.8789
652.338	77.189
655.231	34.5552
658.124	48.8135
661.016	40.273
663.909	5.41821
666.802	2.18042
669.695	3.60669
672.587	7.46216
675.48	15.221
678.373	7.90747
681.265	24.5544
684.158	13.7737
687.051	10.7219
689.943	20.9644
692.836	20.5596
695.729	20.4172
698.622	28.6687
701.514	14.1882
704.407	8.9834
707.3	18.2234
710.192	6.23535
713.085	33.3267
715.978	31.6604
718.87	41.3938
721.763	21.7681
724.656	44.5281
727.549	25.6614
730.441	53.5566
733.334	46.8059
736.227	36.7944
739.119	73.895
742.012	102.093
744.905	86.8179
747.798	154.308
750.69	142.281
753.583	265.3
756.476	269.076
759.368	326.681
762.261	464.201
765.154	623.667
768.046	780.519
770.939	1016.84
773.832	1453.19
776.725	1886.49
779.617	2477.63
782.51	3237.09
785.403	4093.59
788.295	5046.66
791.188	6180.34
794.081	7470.26
796.973	8868.33
799.866	10119.9
802.759	11121
805.652	11352
808.544	10413.4
811.437	8398.61
814.33	6052.44
817.222	4031.84
820.115	2645.74
823.008	1772.69
825.9	1215.59
828.793	801.106
831.686	540.588
834.578	374.747
837.471	254.201
840.364	185.908
843.257	80.5333
846.149	73.9861
849.042	35.7435
851.935	14.7944
854.827	9.28479
857.72	7.95764
860.613	2.92993
863.505	20.6939
866.398	15.323
869.291	35.3209
872.184	9.98511
875.076	21.5564
877.969	32.6011
880.862	42.5447
883.754	50.3181
886.647	18.4551
889.54	91.3418
892.433	85.6405
895.325	90.7526
898.218	93.7289
901.111	153.957
904.003	205.102
906.896	244.128
909.789	387.018
912.682	536.306
915.574	678.822
918.467	808.803
921.36	944.057
924.252	1094.16
927.145	1332.23
930.038	1687.42
932.93	2096.21
935.823	2301.78
938.716	2150.52
941.609	1657.89
944.501	1208.37
947.394	797.453
950.287	531.835
953.179	347.147
956.072	243.3
958.965	178.24
961.857	98.7531
964.75	69.4218
967.643	59.9349
970.535	51.1625
973.428	39.7089
976.321	7.60315
979.214	0.483887
982.106	17.0837
984.999	7.18604
987.892	9.92053
990.784	6.50037
993.677	8.43408
996.57	76.1084
999.462	118.398
1002.36	235.556
1005.25	317.831
1008.14	521.385
1011.03	777.176
1013.93	1095.6
1016.82	1278.72
1019.71	1196.73
1022.6	890.677
1025.5	572.396
1028.39	361.195
1031.28	269.586
1034.17	174.593
1037.07	102.545
1039.96	66.9544
1042.85	48.6761
1045.75	19.9315
1048.64	50.1587
1051.53	19.3013
1054.42	4.41565
1057.32	3.33191
1060.21	0.167358
1063.1	16.806
1065.99	6.45007
1068.89	11.572
1071.78	11.244
1074.67	1.01196
1077.57	2.12793
1080.46	26.5767
1083.35	39.2828
1086.24	52.9795
1089.14	79.5654
1092.03	62.7423
1094.92	92.7662
1097.81	104.035
1100.71	129.189
1103.6	174.502
1106.49	180.734
1109.38	172.658
1112.28	206.432
1115.17	198.168
1118.06	152.643
1120.96	136.307
1123.85	124.081
1126.74	65.6443
1129.63	51.205
1132.53	52.6276
1135.42	28.2192
1138.31	24.92
1141.2	3.97925
1144.1	0.898193
1146.99	9.14771
1149.88	14.3317
1152.78	5.42432
1155.67	41.0618
1158.56	23.4116
1161.45	57.1895
1164.35	51.7679
1167.24	76.2449
1170.13	95.7157
1173.03	86.8564
1175.92	95.2717
1178.81	53.9822
1181.7	45.9832
1184.6	40.1942
1187.49	11.0894
1190.38	10.4874
1193.27	31.5364
1196.17	23.4652
1199.06	35.1077
1201.95	2.44836
1204.84	20.1428
1207.74	20.2258
1210.63	1.2063
1213.52	9.09521
1216.41	53.769
1219.31	37.9313
1222.2	36.2333
1225.09	52.913
1227.99	36.7102
1230.88	42.8621
1233.77	47.3025
1236.66	8.24695
1239.56	24.6115
1242.45	49.5335
1245.34	51.5653
1248.23	41.6608
1251.13	2.39404
1254.02	37.4412
1256.91	15.7386
1259.81	15.1244
1262.7	6.95215
