Measurement: Raman, 785 nm, unoriented, Raman Data Processed
Mineral: Haiweeite
Rruff sample: R060732
Ideal chemistry: Ca(UO_2_)_2_Si_5_O_12_(OH)_2_6H_2_O
Locality: Los Azules, Copiapo, Chile
Source: Bob Jenkins
Description: Spherical aggregates of yellow acicular crystals
Raman shift (cm-1)	intensity
137.92	0
140.813	0.223022
143.705	43.0277
146.598	135.813
149.491	134.6
152.383	125.828
155.276	92.9753
158.169	48.4375
161.062	37.882
163.954	70.6036
166.847	91.6837
169.74	135.267
172.632	148.126
175.525	183.242
178.418	243.01
181.311	359.921
184.203	456.693
187.096	555.217
189.989	586.924
192.881	491.858
195.774	429.99
198.667	328.165
201.559	240.819
204.452	158.195
207.345	91.2708
210.238	36.8488
213.13	6.32471
216.023	4.64771
218.916	18.0268
221.808	1.73358
224.701	23.6235
227.594	12.3137
230.486	28.4663
233.379	54.6612
236.272	67.577
239.165	55.7837
242.057	89.27
244.95	72.1832
247.843	110.182
250.735	114.981
253.628	192.406
256.521	206.963
259.413	249.333
262.306	282.912
265.199	250.323
268.091	200.518
270.984	164.505
273.877	106.302
276.77	97.29
279.662	74.3904
282.555	74.9743
285.448	50.6249
288.34	33.1592
291.233	61.9946
294.126	119.421
297.018	178.887
299.911	243.276
302.804	272.763
305.697	311.291
308.589	286.599
311.482	207.877
314.375	173.45
317.267	114.408
320.16	79.2281
323.053	64.6756
325.945	50.4153
328.838	46.7454
331.731	32.9539
334.624	32.7932
337.516	19.1606
340.409	23.5631
343.302	11.6731
346.194	17.2314
349.087	9.44177
351.98	1.55652
354.872	15.144
357.765	4.40768
360.658	15.4489
363.551	9.70969
366.443	27.0442
369.336	51.7182
372.229	52.9244
375.121	48.9969
378.014	54.4352
380.907	27.4316
383.799	22.3455
386.692	3.6521
389.585	4.44229
392.478	9.64578
395.37	9.62567
398.263	3.03842
401.156	4.80481
404.048	2.71426
406.941	7.79697
409.834	6.96384
412.727	25.4045
415.619	27.8966
418.512	30.4962
421.405	40.8912
424.297	15.0541
427.19	29.3936
430.083	18.0496
432.975	4.52588
435.868	14.457
438.761	6.77739
441.654	37.0945
444.546	5.79958
447.439	24.8674
450.332	33.3413
453.224	41.1365
456.117	30.5625
459.01	53.3203
461.902	73.5442
464.795	103.421
467.688	136.292
470.58	158.707
473.473	158.792
476.366	123.927
479.259	89.4678
482.151	82.0427
485.044	56.8599
487.937	41.0137
490.829	62.7995
493.722	18.2862
496.615	55.9836
499.507	37.1869
502.4	39.1803
505.293	16.827
508.185	22.6671
511.078	30.3089
513.971	6.36545
516.864	1.56384
519.756	20.1358
522.649	27.6254
525.542	9.44873
528.434	15.6096
531.327	2.90746
534.22	13.6793
537.112	19.9554
540.005	20.9438
542.898	32.4485
545.791	31.9234
548.683	6.92117
551.576	25.2633
554.469	45.715
557.362	29.1802
560.254	29.5051
563.147	63.0674
566.04	45.6431
568.932	79.5346
571.825	108.215
574.718	150.841
577.61	211.75
580.503	288.02
583.396	376.734
586.289	440.018
589.181	423.887
592.074	331.149
594.967	215.951
597.859	159.094
600.752	112.456
603.645	67.8763
606.537	56.6339
609.43	43.1447
612.323	49.3037
615.216	10.81
618.108	45.6539
621.001	46.2113
623.894	21.5557
626.786	43.2007
629.679	29.5495
632.572	26.5554
635.464	4.799
638.357	13.4273
641.25	16.2834
644.143	4.08627
647.035	5.74683
649.928	6.61885
652.821	0.649033
655.713	7.61653
658.606	17.4107
661.499	10.6268
664.391	13.4176
667.284	19.983
670.177	6.73888
673.07	32.1751
675.962	14.2344
678.855	5.36735
681.748	16.5905
684.64	4.44495
687.533	4.80392
690.426	5.85522
693.318	15.4795
696.211	11.1598
699.104	0.386276
701.997	8.34181
704.889	21.4322
707.782	27.2327
710.675	36.2046
713.567	19.6519
716.46	36.6885
719.353	28.9853
722.245	23.4255
725.138	45.1248
728.031	33.3772
730.924	20.448
733.816	32.481
736.709	43.7698
739.602	35.1499
742.494	42.6856
745.387	45.8899
748.28	57.7578
751.172	66.3637
754.065	75.3926
756.958	78.6732
759.851	92.4197
762.743	142.284
765.636	164.752
768.529	221.699
771.421	277.673
774.314	378.412
777.207	535.593
780.099	699.637
782.992	862.271
785.885	1122.9
788.778	1418.48
791.67	1727.66
794.563	2057.41
797.456	2426.78
800.348	2754.21
803.241	3042.6
806.134	3108.74
809.026	2840.31
811.919	2245.89
814.812	1583.51
817.705	1003.61
820.597	648.555
823.49	436.504
826.383	284.833
829.275	198.432
832.168	121.054
835.061	89.7254
837.953	59.3155
840.846	29.3434
843.739	1.0191
846.631	3.89262
849.524	18.567
852.417	18.5187
855.31	4.36621
858.202	11.0626
861.095	5.97382
863.988	15.2213
866.88	22.4804
869.773	3.75385
872.666	5.58672
875.558	4.05113
878.451	12.807
881.344	14.2935
884.237	4.00063
887.129	16.7594
890.022	32.7131
892.915	48.5545
895.807	19.0551
898.7	61.5087
901.593	77.4809
904.485	93.9885
907.378	122.787
910.271	180.389
913.164	227.096
916.056	238.029
918.949	324.315
921.842	361.373
924.734	411.78
927.627	493.112
930.52	583.861
933.412	742.692
936.305	758.182
939.198	666.166
942.091	487.148
944.983	330.373
947.876	246.021
950.769	139.888
953.661	87.6901
956.554	70.2704
959.447	33.1411
962.339	36.8295
965.232	60.5777
968.125	13.2028
971.018	10.7845
973.91	15.1794
976.803	0.653778
979.696	5.76088
982.588	2.59799
985.481	5.79843
988.374	14.7608
991.266	15.0072
994.159	22.2037
997.052	43.6778
999.945	117.513
1002.84	189.536
1005.73	302.842
1008.62	452.253
1011.51	662.341
1014.41	791.304
1017.3	833.636
1020.19	691.37
1023.09	462.91
1025.98	278.189
1028.87	207.19
1031.76	135.483
1034.66	77.0879
1037.55	66.3087
1040.44	55.8191
1043.34	59.0138
1046.23	13.757
1049.12	19.2355
1052.01	27.0293
1054.91	20.7258
1057.8	0.258011
1060.69	13.8132
1063.58	10.8243
1066.48	1.55981
1069.37	0.254456
1072.26	16.2871
1075.15	1.73326
1078.05	13.5368
1080.94	35.9454
1083.83	37.1631
1086.72	45.9662
1089.62	63.0074
1092.51	69.0282
1095.4	91.1586
1098.3	129.518
1101.19	91.2609
1104.08	103.631
1106.97	113.404
1109.87	134.895
1112.76	126.94
1115.65	128.21
1118.55	112.109
1121.44	109.91
1124.33	105.483
1127.22	82.0133
1130.12	67.9358
1133.01	47.8646
1135.9	50.4105
1138.79	31.5376
1141.69	36.4585
1144.58	4.17191
1147.47	19.1275
1150.37	13.4724
1153.26	1.48341
1156.15	29.2545
1159.04	0.967499
1161.94	41.6374
1164.83	22.204
1167.72	46.4753
1170.61	62.7528
1173.51	6.16609
1176.4	50.2492
1179.29	8.41489
1182.18	20.1537
1185.08	6.3399
1187.97	1.02255
1190.86	30.5496
1193.76	0.671036
1196.65	27.1851
1199.54	31.1737
1202.43	9.83305
1205.33	26.1876
1208.22	9.78944
1211.11	26.6591
1214	1.83406
1216.9	13.6065
1219.79	23.6245
1222.68	18.0158
1225.58	8.58278
1228.47	31.6916
1231.36	29.9967
1234.25	14.4948
1237.15	26.8744
1240.04	36.85
1242.93	47.7446
1245.82	30.7622
1248.72	0.016037
1251.61	12.559
1254.5	25.7786
1257.39	33.7355
1260.29	24.7192
1263.18	26.7585
1266.07	17.6249
1268.97	11.7067
