Measurement: Raman, 532 nm, unoriented, Raman Data Processed
Mineral: Halotrichite
Rruff sample: R060118
Ideal chemistry: Fe^2+^Al_2_(SO_4_)_4_22H_2_O
Locality: Alum Canyon, Patagonia Mountains, Arizona, USA
Source: University of Arizona Mineral Museum
Description: Colorless acicular single crystals
Raman shift (cm-1)	intensity
140.886	0
144.261	0.033905
147.636	4.07834
151.011	11.7659
154.385	12.4491
157.76	7.26078
161.135	5.63177
164.51	2.99503
167.885	3.915
171.259	4.7196
174.634	4.84877
178.009	5.21458
181.384	3.17558
184.759	4.37921
188.133	3.28108
191.508	3.78697
194.883	4.61253
198.258	7.78404
201.633	8.05144
205.008	10.6646
208.382	10.838
211.757	11.0693
215.132	9.58953
218.507	9.9252
221.882	8.99758
225.256	7.62918
228.631	7.14794
232.006	6.11787
235.381	5.40693
238.756	4.0179
242.131	2.99173
245.505	1.15376
248.88	0.164333
252.255	0.302574
255.63	0.88448
259.005	0.083096
262.38	0.018185
265.754	0.802799
269.129	0.106838
272.504	1.03127
275.879	1.25203
279.254	2.08456
282.628	2.40898
286.003	5.4829
289.378	8.636
292.753	10.4041
296.128	13.2081
299.503	14.322
302.877	15.7341
306.252	17.5148
309.627	19.476
313.002	18.8391
316.377	17.3462
319.752	15.0634
323.126	11.3448
326.501	12.0772
329.876	10.412
333.251	8.89264
336.626	7.82529
340	6.92671
343.375	6.54441
346.75	6.31896
350.125	5.65791
353.5	4.16915
356.875	2.36428
360.249	2.4321
363.624	1.95916
366.999	0.457386
370.374	0.193703
373.749	0.09985
377.123	0.108013
380.498	1.1857
383.873	1.16099
387.248	0.297161
390.623	0.017067
393.998	1.09418
397.372	3.68888
400.747	4.94119
404.122	8.17278
407.497	12.788
410.872	16.4397
414.247	23.8089
417.621	28.7456
420.996	34.0039
424.371	33.1751
427.746	30.8548
431.121	30.0608
434.495	27.5832
437.87	27.7349
441.245	28.8072
444.62	32.7637
447.995	36.7803
451.37	43.0897
454.744	46.131
458.119	51.3725
461.494	52.8624
464.869	53.8794
468.244	50.4683
471.618	47.066
474.993	40.4361
478.368	34.074
481.743	25.061
485.118	18.3309
488.493	11.6402
491.867	6.69674
495.242	3.86232
498.617	2.45836
501.992	1.66477
505.367	0.965069
508.741	1.21768
512.116	1.77432
515.491	2.33117
518.866	2.38439
522.241	4.11716
525.616	5.0262
528.99	4.31992
532.365	3.89368
535.74	2.7449
539.115	1.02719
542.49	0.399712
545.865	0.548866
549.239	0.959179
552.614	0.926151
555.989	0.114914
559.364	0.025635
562.739	0.785995
566.114	1.94326
569.488	3.22888
572.863	5.3273
576.238	5.7447
579.613	7.78169
582.987	10.4873
586.362	13.01
589.737	17.0335
593.112	22.7458
596.487	26.7898
599.862	32.2927
603.236	35.2978
606.611	37.8582
609.986	39.3548
613.361	41.0967
616.736	39.5976
620.111	37.9252
623.485	34.2494
626.86	29.7717
630.235	26.0402
633.61	21.4456
636.985	18.1514
640.36	12.716
643.734	11.3665
647.109	8.30856
650.484	6.14374
653.859	4.55751
657.234	3.48537
660.609	2.45409
663.983	1.84895
667.358	1.53603
670.733	0.900536
674.108	1.14803
677.482	0.415508
680.857	0.554535
684.232	0.563816
687.607	0.01907
690.982	0.008083
694.357	0.695793
697.731	0.246628
701.106	0.06469
704.481	0.029076
707.856	0.332409
711.231	0.161751
714.606	0.798294
717.98	0.085075
721.355	0.256836
724.73	0.501663
728.105	0.32283
731.48	0.647305
734.855	1.5449
738.229	0.568779
741.604	1.70961
744.979	0.853794
748.354	0.500374
751.729	0.761948
755.104	0.648808
758.478	0.602402
761.853	0.466412
765.228	0.145809
768.603	0.712849
771.977	0.222729
775.352	0.450111
778.727	0.337223
782.102	0.99868
785.477	0.266808
788.852	0.97205
792.226	0.848137
795.601	0.986374
798.976	0.915962
802.351	0.710144
805.726	0.916882
809.101	0.910667
812.475	1.2591
815.85	0.416309
819.225	0.408237
822.6	0.8992
825.975	0.866283
829.35	0.252148
832.724	0.86005
836.099	0.272366
839.474	0.892841
842.849	0.885674
846.224	0.641716
849.598	1.03242
852.973	0.875668
856.348	1.39287
859.723	2.08131
863.098	1.79636
866.473	1.26426
869.847	1.4728
873.222	1.37773
876.597	1.27196
879.972	1.10081
883.347	0.487793
886.721	0.478947
890.096	0.268711
893.471	0.439484
896.846	0.259598
900.221	0.335747
903.596	0.170605
906.97	0.378033
910.345	0.285858
913.72	0.092464
917.095	0.765759
920.47	0.651943
923.845	1.51694
927.219	2.62592
930.594	1.96034
933.969	6.13708
937.344	7.12149
940.719	9.82435
944.093	13.2673
947.468	18.0638
950.843	24.0685
954.218	32.4676
957.593	42.6242
960.968	57.852
964.342	80.6007
967.717	108.626
971.092	145.374
974.467	174.952
977.842	151.786
981.216	142.303
984.591	201.919
987.966	312.018
991.341	395.397
994.716	412.572
998.091	283.586
1001.47	123.276
1004.84	54.637
1008.22	28.4553
1011.59	14.5766
1014.97	7.50166
1018.34	3.67984
1021.71	1.34759
1025.09	0.009338
1028.46	1.15665
1031.84	0.883648
1035.21	1.14268
1038.59	0.140373
1041.96	2.27814
1045.34	4.13058
1048.71	5.6197
1052.09	7.11539
1055.46	8.64632
1058.84	10.4869
1062.21	12.2827
1065.59	14.8288
1068.96	16.3188
1072.34	16.0677
1075.71	15.5383
1079.09	14.0629
1082.46	13.7831
1085.84	13.4608
1089.21	11.9563
1092.59	10.6405
1095.96	9.75104
1099.34	8.85228
1102.71	9.61506
1106.09	11.1443
1109.46	11.5441
1112.83	11.0352
1116.21	10.5264
1119.58	11.6318
1122.96	10.6547
1126.33	11.4058
1129.71	13.8977
1133.08	16.0094
1136.46	17.3899
1139.83	18.4405
1143.21	17.3057
1146.58	15.5022
1149.96	12.2231
1153.33	10.786
1156.71	8.2652
1160.08	5.51081
1163.46	3.74902
1166.83	1.60209
1170.21	1.53508
1173.58	0.972378
1176.96	0.781097
1180.33	0.072105
1183.71	0.575611
1187.08	0.741264
1190.45	0.001266
1193.83	0.228374
1197.2	0.497452
1200.58	0.454796
1203.95	0.736885
1207.33	0.164391
1210.7	0.24934
1214.08	0.845032
1217.45	0.930405
1220.83	1.23487
1224.2	1.63134
1227.58	1.00026
1230.95	0.757782
1234.33	1.53647
1237.7	1.15003
1241.08	1.59648
1244.45	1.61649
1247.83	0.429779
1251.2	1.52194
1254.58	0.532803
1257.95	0.760548
1261.33	1.54555
1264.7	1.20347
1268.08	1.05591
1271.45	1.26492
1274.83	0.491405
1278.2	0.907879
1281.58	1.49774
1284.95	0.439007
1288.33	0.760662
1291.7	0.172127
1295.08	0.987213
1298.45	0.219437
1301.82	0.176247
