Measurement: Raman, 532 nm, unoriented, Raman Data Processed
Mineral: Halotrichite
Rruff sample: R070673
Ideal chemistry: Fe^2+^Al_2_(SO_4_)_4_22H_2_O
Locality: Orphan mine, Grand Canyon, Coconino County, Arizona, USA
Source: Malcolm Alter
Description: Loose aggregates of pale blue silky fibers
Measured chemistry: (Fe_0.98_Ni_0.02_)_Σ=1_Al_2.00_(S_1.00_O_4_)_4_·22H_2_O; H_2_O estimated by difference
Raman shift (cm-1)	intensity
148.905	0
151.798	23.8185
154.691	138.826
157.584	42.4286
160.476	29.6495
163.369	34.6585
166.262	20.2245
169.154	66.4862
172.047	11.3193
174.94	50.142
177.833	33.9652
180.725	68.235
183.618	51.176
186.511	33.3804
189.403	68.344
192.296	71.7128
195.189	78.0636
198.081	156.477
200.974	127.108
203.867	118.035
206.76	152.409
209.652	145.306
212.545	135.737
215.438	119.049
218.33	92.3502
221.223	82.3321
224.116	115.926
227.008	120.633
229.901	109.629
232.794	85.3709
235.686	97.8491
238.579	113.999
241.472	96.1807
244.365	89.3857
247.257	73.5779
250.15	84.1471
253.043	22.3108
255.935	57.6991
258.828	29.3919
261.721	49.0781
264.613	24.309
267.506	17.1132
270.399	9.21118
273.292	13.9956
276.184	18.8232
279.077	26.1974
281.97	6.09045
284.862	37.9852
287.755	73.3345
290.648	85.4282
293.541	44.803
296.433	91.9015
299.326	89.594
302.219	97.7822
305.111	103.857
308.004	112.196
310.897	141.852
313.789	137.407
316.682	129.015
319.575	129.092
322.467	130.318
325.36	81.1543
328.253	77.3405
331.146	129.797
334.038	64.9724
336.931	84.221
339.824	59.7307
342.716	9.83935
345.609	57.4113
348.502	11.365
351.394	17.0685
354.287	21.2856
357.18	16.2776
360.073	24.9161
362.965	18.9465
365.858	2.43787
368.751	14.7991
371.643	0.224243
374.536	16.9867
377.429	9.4281
380.322	23.5085
383.214	9.67432
386.107	52.687
389	31.8666
391.892	46.3447
394.785	32.6638
397.678	101.871
400.57	88.806
403.463	133.954
406.356	145.752
409.248	216.659
412.141	246.204
415.034	344.903
417.927	373.558
420.819	395.658
423.712	393.523
426.605	440.2
429.497	396.751
432.39	343.226
435.283	350.418
438.175	345.486
441.068	366.968
443.961	373.379
446.854	426.875
449.746	451.387
452.639	512.678
455.532	575.012
458.424	554.705
461.317	579.097
464.21	544.085
467.102	536.601
469.995	528.641
472.888	462.934
475.781	386.224
478.673	293.854
481.566	283.055
484.459	212.807
487.351	153.465
490.244	90.5521
493.137	72.3856
496.029	84.5671
498.922	47.0324
501.815	69.8706
504.708	68.0648
507.6	39.9965
510.493	43.2568
513.386	39.7886
516.278	64.8868
519.171	65.0251
522.064	55.3672
524.956	63.7463
527.849	96.6561
530.742	76.217
533.635	68.3048
536.527	22.5582
539.42	2.65137
542.313	0.2052
545.205	29.2128
548.098	6.5542
550.991	0.593506
553.883	4.16962
556.776	38.6455
559.669	6.24896
562.562	14.0063
565.454	28.2707
568.347	29.9552
571.24	39.4574
574.132	71.7259
577.025	96.5017
579.918	106.84
582.81	129.618
585.703	179.736
588.596	165.432
591.489	230.903
594.381	264.661
597.274	327.704
600.167	418.708
603.059	409.443
605.952	442.517
608.845	473.991
611.737	510
614.63	460.306
617.523	482.037
620.415	508.044
623.308	409.414
626.201	363.301
629.094	356.315
631.986	284.276
634.879	255.123
637.772	240.995
640.664	220.378
643.557	167.792
646.45	180.554
649.342	138.117
652.235	115.884
655.128	110.546
658.021	81.9394
660.913	69.5385
663.806	63.4988
666.699	59.9003
669.591	56.5189
672.484	50.3418
675.377	39.7592
678.269	25.5059
681.162	31.5499
684.055	19.4334
686.948	21.2412
689.84	19.4454
692.733	26.1826
695.626	24.1901
698.518	33.3422
701.411	9.7207
704.304	12.7453
707.197	19.6414
710.089	15.0154
712.982	9.96985
715.875	2.70422
718.767	23.1836
721.66	37.4395
724.553	83.1219
727.445	34.2812
730.338	13.5697
733.231	27.0968
736.124	10.8112
739.016	37.2564
741.909	30.2366
744.802	26.0046
747.694	23.5755
750.587	21.4203
753.48	55.6432
756.372	36.0916
759.265	12.7123
762.158	43.6407
765.051	4.23975
767.943	6.12634
770.836	33.4898
773.729	14.3893
776.621	23.2303
779.514	32.3331
782.407	25.2605
785.299	6.19165
788.192	21.8285
791.085	1.73914
793.977	29.4251
796.87	22.6217
799.763	12.1121
802.656	34.9184
805.548	11.5535
808.441	7.64764
811.334	27.4914
814.226	39.841
817.119	49.6794
820.012	18.0961
822.904	33.3101
825.797	52.5862
828.69	62.7716
831.582	67.1315
834.475	43.818
837.368	50.2784
840.261	65.3667
843.153	68.2131
846.046	48.743
848.939	43.848
851.831	46.1387
854.724	65.6991
857.617	79.2003
860.51	52.6257
863.402	86.5192
866.295	63.484
869.188	54.4902
872.08	80.4389
874.973	49.1442
877.866	23.8467
880.758	38.1334
883.651	16.7041
886.544	11.0217
889.437	39.3525
892.329	32.2384
895.222	7.24451
898.115	2.94733
901.007	3.08386
903.9	17.0877
906.793	4.68054
909.685	21.4955
912.578	24.0448
915.471	4.08533
918.364	7.22333
921.256	7.96954
924.149	18.904
927.042	9.58264
929.934	29.9521
932.827	17.8806
935.72	42.9933
938.612	93.4358
941.505	120.747
944.398	162.077
947.29	170.915
950.183	241.862
953.076	333.284
955.969	413.085
958.861	540.854
961.754	784.146
964.647	1023.13
967.539	1399.11
970.432	1813.95
973.325	2154
976.217	2049.23
979.11	1846.8
982.003	2207.41
984.896	2992.08
987.788	4057.98
990.681	4731.21
993.574	4737.52
996.466	3558.19
999.359	2054.11
1002.25	1094.98
1005.14	564.704
1008.04	336.769
1010.93	185.263
1013.82	109.459
1016.72	88.4167
1019.61	75.6385
1022.5	96.0784
1025.39	45.9446
1028.29	81.2024
1031.18	47.7296
1034.07	64.1552
1036.96	56.219
1039.86	53.037
1042.75	56.9058
1045.64	86.2042
1048.54	56.0872
1051.43	33.6554
1054.32	91.6816
1057.21	53.4993
1060.11	50.224
1063	32.8633
1065.89	44.6394
1068.78	29.144
1071.68	42.9125
1074.57	11.7624
1077.46	0.752441
1080.36	5.02698
1083.25	28.1069
1086.14	4.02771
1089.03	11.8903
1091.92	6.29346
1094.82	37.9491
1097.71	37.6266
1100.6	16.9078
1103.5	13.7419
1106.39	7.97974
1109.28	32.6202
1112.17	33.814
1115.07	60.2151
1117.96	35.3173
1120.85	76.2141
1123.74	83.9269
1126.64	46.3011
1129.53	106.818
1132.42	126.171
1135.32	140.056
1138.21	168.989
1141.1	131.924
1143.99	141.863
1146.89	112.093
1149.78	97.4111
1152.67	106.477
1155.57	95.7602
1158.46	54.8873
1161.35	42.3954
1164.24	20.4807
1167.14	42.2399
1170.03	7.3363
1172.92	9.2843
1175.81	4.5846
1178.71	22.4365
1181.6	27.6735
1184.49	39.6582
1187.38	24.1476
1190.28	28.6986
1193.17	55.9815
1196.06	7.15442
1198.95	42.2103
1201.85	70.6963
1204.74	4.73999
1207.63	41.9657
1210.53	49.2136
1213.42	32.3207
1216.31	48.6962
1219.2	67.5229
1222.1	51.6741
1224.99	41.1842
1227.88	63.6772
1230.78	46.0909
1233.67	2.63049
1236.56	0.887146
1239.45	35.4954
1242.35	10.3757
1245.24	19.4016
1248.13	33.9919
1251.02	27.7334
1253.92	27.518
1256.81	30.8793
1259.7	44.3392
1262.6	27.2841
1265.49	38.1461
1268.38	26.6072
1271.27	35.9702
1274.17	4.68518
1277.06	42.8726
1279.95	6.64636
1282.84	17.4111
