Measurement: Raman, 780 nm, unoriented, Raman Data Processed
Mineral: Hambergite
Rruff sample: R050672
Ideal chemistry: Be_2_BO_3_(OH)
Locality: Anjanabonoina, Madagascar
Source: University of Arizona Mineral Museum
Description: Pale gray prismatic crystal
Raman shift (cm-1)	intensity
115.263	0
118.637	20.7625
122.012	88.1886
125.387	38.4081
128.762	1.13347
132.137	2.34028
135.512	55.7383
138.886	82.5986
142.261	82.5413
145.636	115.315
149.011	147.092
152.386	194.17
155.76	400.221
159.135	204.815
162.51	23.129
165.885	8.97012
169.26	7.11622
172.635	9.64226
176.009	7.2122
179.384	3.89514
182.759	0.659521
186.134	0.340988
189.509	1.53099
192.883	1.25383
196.258	0.157278
199.633	2.23013
203.008	4.46788
206.383	5.91759
209.757	7.47088
213.132	9.76464
216.507	11.7812
219.882	15.7856
223.257	9.19688
226.632	3.14223
230.006	1.78679
233.381	1.84951
236.756	1.17723
240.131	2.4243
243.506	3.01932
246.881	6.33291
250.255	18.0041
253.63	19.5719
257.005	24.0129
260.38	31.3357
263.755	38.9861
267.129	58.1395
270.504	74.4236
273.879	20.4341
277.254	9.10489
280.629	8.83397
284.003	14.477
287.378	19.0855
290.753	15.3422
294.128	12.1339
297.503	10.8955
300.877	14.2352
304.252	15.8033
307.627	5.16507
311.002	3.14927
314.377	2.67667
317.752	4.31117
321.126	5.6401
324.501	1.92333
327.876	0.240379
331.251	0.117369
334.626	0.228802
338	0.265009
341.375	0.634484
344.75	0.286222
348.125	0.533923
351.5	0.059273
354.875	0.099665
358.249	0.877147
361.624	1.7185
364.999	2.02246
368.374	2.42346
371.749	0.802633
375.123	0.989886
378.498	2.39817
381.873	3.39993
385.248	4.42453
388.623	5.98474
391.998	8.42081
395.372	11.9032
398.747	13.0908
402.122	7.33235
405.497	2.28802
408.872	1.44326
412.247	0.512093
415.621	0.584479
418.996	0.646636
422.371	0.999261
425.746	0.763863
429.12	1.571
432.495	1.5023
435.87	1.65179
439.245	1.05642
442.62	0.552416
445.995	0.740429
449.369	0.617158
452.744	0.372076
456.119	0.534662
459.494	0.178955
462.869	0.148578
466.243	0.05724
469.618	0.519534
472.993	0.173301
476.368	0.391115
479.743	0.311654
483.118	0.176591
486.492	0.744799
489.867	0.740561
493.242	0.379436
496.617	0.484981
499.992	0.827265
503.366	0.523465
506.741	0.847867
510.116	0.442655
513.491	1.06887
516.866	1.67821
520.241	1.43627
523.615	1.61896
526.99	3.18291
530.365	3.5508
533.74	1.96524
537.115	0.185454
540.49	0.193065
543.864	0.136024
547.239	0.033132
550.614	0.462288
553.989	0.31237
557.364	0.208076
560.738	0.069619
564.113	0.005733
567.488	0.773082
570.863	1.49064
574.238	1.35051
577.612	2.08036
580.987	2.40851
584.362	2.45791
587.737	1.37332
591.112	0.998646
594.486	0.546708
597.861	0.688396
601.236	1.32277
604.611	2.13559
607.986	3.0186
611.361	3.88987
614.735	5.10527
618.11	6.82691
621.485	4.9893
624.86	1.62325
628.235	1.24718
631.61	2.10012
634.984	3.20902
638.359	5.23691
641.734	7.42062
645.109	10.0173
648.484	8.17681
651.858	4.16857
655.233	2.14317
658.608	1.52745
661.983	0.743221
665.358	1.40577
668.732	1.48896
672.107	1.62875
675.482	2.02413
678.857	1.56295
682.232	2.38407
685.607	1.78721
688.981	0.71746
692.356	0.368151
695.731	0.010459
699.106	0.312041
702.481	0.038316
705.856	0.005226
709.23	0.190539
712.605	0.676899
715.98	1.27894
719.355	2.27238
722.73	2.5187
726.104	4.81699
729.479	6.25098
732.854	6.45572
736.229	6.60113
739.604	7.33839
742.979	7.33875
746.353	7.085
749.728	4.63371
753.103	2.05407
756.478	0.504506
759.852	0.54161
763.227	0.262257
766.602	0.589347
769.977	0.711216
773.352	1.03768
776.727	0.798764
780.101	0.793387
783.476	0.112487
786.851	0.064073
790.226	0.297461
793.601	0.294559
796.976	1.01298
800.35	2.01035
803.725	1.96419
807.1	1.17066
810.475	1.01915
813.85	0.497549
817.224	0.304887
820.599	0.611273
823.974	0.132386
827.349	0.32539
830.724	0.495643
834.098	0.5742
837.473	1.0376
840.848	1.59223
844.223	1.86258
847.598	2.76284
850.973	4.8115
854.347	6.05315
857.722	7.50065
861.097	8.76762
864.472	9.02286
867.847	7.8674
871.221	5.44898
874.596	3.46199
877.971	3.30448
881.346	2.08727
884.721	1.28998
888.096	1.50843
891.47	1.0463
894.845	0.16827
898.22	0.52468
901.595	0.31027
904.97	0.147262
908.345	0.108087
911.719	0.103313
915.094	0.018424
918.469	0.116238
921.844	0.288741
925.218	0.353801
928.593	0.491954
931.968	0.161957
935.343	0.061486
938.718	0.259971
942.093	0.379695
945.467	0.718729
948.842	0.637711
952.217	1.82918
955.592	1.43198
958.967	2.30026
962.341	2.9513
965.716	4.16916
969.091	6.84978
972.466	12.1668
975.841	21.9167
979.216	30.9455
982.59	42.3952
985.965	55.2905
989.34	54.8808
992.715	32.1042
996.09	16.1783
999.465	8.9813
1002.84	5.78547
1006.21	4.02579
1009.59	2.77419
1012.96	1.83127
1016.34	1.19481
1019.71	1.36824
1023.09	0.978416
1026.46	0.854847
1029.84	0.97964
1033.21	0.48603
1036.59	0.4459
1039.96	0.325438
1043.34	0.490202
1046.71	0.027079
1050.09	0.526675
1053.46	2.12559
1056.84	0.293302
1060.21	0.203021
1063.59	0.024303
1066.96	0.004976
1070.34	0.182584
1073.71	0.437454
1077.09	0.146057
1080.46	0.223486
1083.84	0.147687
1087.21	0.036173
1090.58	0.549074
1093.96	0.44443
1097.33	0.788481
1100.71	0.666865
1104.08	0.926614
1107.46	1.17445
1110.83	1.27249
1114.21	1.28415
1117.58	1.94282
1120.96	2.6953
1124.33	4.02116
1127.71	6.0007
1131.08	8.04701
1134.46	9.89772
1137.83	10.0123
1141.21	7.76033
1144.58	5.45473
1147.96	2.80139
1151.33	2.04057
1154.71	1.22683
1158.08	1.01972
1161.46	1.05892
1164.83	0.651493
1168.2	0.86782
1171.58	0.598423
1174.95	0.217183
1178.33	0.667727
1181.7	0.321771
1185.08	0.767082
1188.45	0.069233
1191.83	0.186457
1195.2	0.215567
1198.58	0.085182
1201.95	0.481133
1205.33	0.152873
1208.7	0.741388
1212.08	0.372843
1215.45	0.364524
1218.83	0.112783
1222.2	0.105362
1225.58	0.463555
1228.95	0.369697
1232.33	0.177878
1235.7	0.79648
1239.08	0.478328
1242.45	0.483096
1245.83	0.247783
1249.2	0.650584
1252.58	0.332107
1255.95	0.03711
1259.33	0.43232
1262.7	0.639173
1266.08	0.45539
1269.45	0.324141
1272.83	0.233758
