Measurement: Raman, 780 nm, unoriented, Raman Data Processed
Mineral: Hambergite
Rruff sample: R050603
Ideal chemistry: Be_2_BO_3_(OH)
Locality: Momeik, Burma
Source: Bill Larson
Description: Colorless fragment from a striated prismatic crystal
Raman shift (cm-1)	intensity
149.919	0
152.812	451.993
155.705	3110.24
158.597	3791.43
161.49	159.542
164.383	2.36954
167.276	12.9115
170.168	1.07082
173.061	65.7739
175.954	131.662
178.846	31.2768
181.739	20.5402
184.632	42.7068
187.524	42.8338
190.417	2.0946
193.31	0.502884
196.203	3.4052
199.095	0.616283
201.988	3.10203
204.881	2.77076
207.773	1.12471
210.666	17.0723
213.559	34.2731
216.451	52.2488
219.344	97.4657
222.237	127.249
225.13	40.4005
228.022	15.5231
230.915	15.8831
233.808	19.5097
236.7	19.8186
239.593	22.3158
242.486	33.8084
245.378	58.8673
248.271	153.423
251.164	258.918
254.056	83.4153
256.949	72.0788
259.842	115.012
262.735	194.455
265.627	448.187
268.52	1213.49
271.413	751.251
274.305	175.987
277.198	98.7371
280.091	51.6206
282.983	90.6568
285.876	206.839
288.769	234.334
291.662	146.467
294.554	84.1186
297.447	56.2326
300.34	72.7242
303.232	109.674
306.125	36.0267
309.018	20.7514
311.911	27.9436
314.803	78.0248
317.696	155.439
320.589	74.4336
323.481	37.8807
326.374	15.991
329.267	15.8925
332.159	19.4593
335.052	58.4527
337.945	146.557
340.837	89.6793
343.73	16.2146
346.623	0.285118
349.516	3.9987
352.408	5.215
355.301	4.40477
358.194	4.034
361.086	0.528675
363.979	6.01922
366.872	14.657
369.764	12.4533
372.657	10.632
375.55	20.2201
378.442	32.7641
381.335	17.4977
384.228	9.81496
387.121	16.9365
390.013	26.7306
392.906	57.7285
395.799	138.028
398.691	236.625
401.584	112.586
404.477	37.1245
407.37	17.2238
410.262	7.61389
413.155	5.61109
416.048	1.10276
418.94	0.868465
421.833	2.67818
424.726	4.98061
427.618	12.6198
430.511	35.9266
433.404	60.1865
436.296	25.839
439.189	11.2438
442.082	7.12841
444.975	5.19982
447.867	2.15369
450.76	3.52285
453.653	1.61701
456.545	0.669689
459.438	1.08581
462.331	1.34551
465.224	3.66579
468.116	1.32912
471.009	2.9875
473.902	2.22693
476.794	1.46302
479.687	1.69424
482.58	3.45004
485.472	2.63744
488.365	0.374397
491.258	0.930683
494.151	0.262295
497.043	0.979534
499.936	3.21748
502.829	6.02449
505.721	15.9116
508.614	10.8522
511.507	4.50137
514.399	3.01139
517.292	3.54087
520.185	5.84835
523.077	12.984
525.97	28.0903
528.863	62.0693
531.756	51.2081
534.648	15.001
537.541	5.251
540.434	3.06427
543.326	0.824974
546.219	0.024719
549.112	1.4425
552.004	0.638603
554.897	0.695969
557.79	1.14766
560.683	1.73095
563.575	1.18388
566.468	3.30366
569.361	4.02509
572.253	3.8162
575.146	5.34458
578.039	7.08297
580.931	11.0864
583.824	16.8602
586.717	14.044
589.61	4.266
592.502	1.15046
595.395	0.441685
598.288	0.149086
601.18	2.95052
604.073	7.26427
606.966	11.3513
609.858	21.2971
612.751	37.0915
615.644	79.6452
618.537	147.455
621.429	102.653
624.322	37.8267
627.215	18.5218
630.107	16.3636
633	19.9509
635.893	40.0258
638.785	78.9754
641.678	75.4775
644.571	85.3222
647.463	79.9082
650.356	37.7312
653.249	17.1196
656.141	9.78438
659.034	6.90896
661.927	3.81986
664.82	4.73242
667.712	5.9556
670.605	6.70662
673.498	8.9869
676.39	10.0513
679.283	16.2705
682.176	24.9348
685.068	24.6861
687.961	15.1511
690.854	7.21499
693.747	3.71656
696.639	3.19411
699.532	0.368652
702.425	0.836891
705.317	0.477116
708.21	1.42078
711.103	0.004276
713.995	1.16877
716.888	0.394852
719.781	1.97463
722.674	3.13264
725.566	6.92565
728.459	11.1962
731.352	18.2381
734.244	26.1164
737.137	44.0445
740.03	52.1103
742.923	49.6328
745.815	55.1189
748.708	40.2233
751.601	18.1008
754.493	6.84663
757.386	3.78088
760.279	1.04082
763.171	0.379112
766.064	0.033352
768.957	0.838612
771.85	1.74093
774.742	7.28333
777.635	5.86692
780.528	0.568043
783.42	0.146633
786.313	0.608025
789.206	6.29066
792.098	13.3803
794.991	27.7529
797.884	60.0521
800.776	102.76
803.669	98.0065
806.562	47.7925
809.455	19.5423
812.347	10.2226
815.24	9.64354
818.133	8.63489
821.025	3.7569
823.918	3.86304
826.811	7.10455
829.703	7.84131
832.596	13.7777
835.489	14.6854
838.381	13.7402
841.274	9.40553
844.167	7.19376
847.06	8.56788
849.952	8.38054
852.845	11.5502
855.738	15.8389
858.63	22.6251
861.523	29.5063
864.416	31.4066
867.308	28.8956
870.201	22.9943
873.094	15.5966
875.987	12.8413
878.879	7.8613
881.772	5.45941
884.665	4.88467
887.557	2.83095
890.45	3.04552
893.343	7.08491
896.236	15.1329
899.128	24.6969
902.021	28.8109
904.914	17.3582
907.806	6.28868
910.699	1.82559
913.592	1.65064
916.484	0.015739
919.377	0.44466
922.27	1.86284
925.163	0.722034
928.055	0.761932
930.948	1.24403
933.841	0.016552
936.733	0.154472
939.626	1.42269
942.519	2.85831
945.411	3.35758
948.304	3.18492
951.197	5.59452
954.09	7.11847
956.982	10.567
959.875	13.3367
962.768	17.5373
965.66	23.9393
968.553	34.2368
971.446	50.8277
974.338	80.8277
977.231	126.239
980.124	203.619
983.016	346.441
985.909	589.254
988.802	727.914
991.694	492.838
994.587	254.499
997.48	139.532
1000.37	85.3699
1003.26	58.1824
1006.16	37.9805
1009.05	29.3464
1011.94	20.3438
1014.84	15.0544
1017.73	11.6506
1020.62	9.66255
1023.51	8.0407
1026.41	6.94437
1029.3	4.8607
1032.19	4.81403
1035.09	1.97973
1037.98	1.82052
1040.87	3.12224
1043.76	3.92496
1046.66	2.8587
1049.55	2.98948
1052.44	4.69181
1055.33	1.61618
1058.23	0.857985
1061.12	0.215242
1064.01	0.358208
1066.9	0.176361
1069.8	0.418518
1072.69	0.544153
1075.58	0.678156
1078.47	0.249769
1081.37	0.481281
1084.26	1.39477
1087.15	0.987291
1090.05	2.83655
1092.94	0.611597
1095.83	2.3004
1098.72	3.22009
1101.62	1.32048
1104.51	2.27176
1107.4	3.86573
1110.3	4.55601
1113.19	5.27461
1116.08	7.02325
1118.97	13.3208
1121.87	19.1844
1124.76	25.2673
1127.65	37.0615
1130.54	59.0329
1133.44	73.2715
1136.33	73.4056
1139.22	53.2465
1142.12	32.4592
1145.01	20.8123
1147.9	13.0224
1150.79	11.3702
1153.69	7.20529
1156.58	7.28928
1159.47	5.9731
1162.36	5.97217
1165.26	8.82619
1168.15	12.1623
1171.04	12.0748
1173.93	13.1716
1176.83	10.5492
1179.72	6.59829
1182.61	3.31638
1185.51	3.24282
1188.4	2.74102
1191.29	0.901758
1194.18	0.802654
1197.08	0.577864
1199.97	1.12773
1202.86	0.03495
1205.75	0.726646
1208.65	1.97998
1211.54	1.90904
1214.43	1.51597
1217.33	0.613707
1220.22	0.74947
1223.11	0.169577
1226	2.71732
1228.9	1.1541
1231.79	1.17915
1234.68	1.08601
1237.57	2.33819
1240.47	1.89817
1243.36	2.60909
1246.25	1.25515
1249.14	3.42594
1252.04	2.94538
1254.93	2.63149
1257.82	2.62536
1260.71	1.6553
1263.61	1.68209
1266.5	0.450386
1269.39	1.85026
1272.29	2.36403
1275.18	3.97005
1278.07	1.75707
1280.96	4.30497
1283.86	0.389866
