Measurement: Raman, 532 nm, unoriented, Raman Data Processed
Mineral: Hambergite
Rruff sample: R050672
Ideal chemistry: Be_2_BO_3_(OH)
Locality: Anjanabonoina, Madagascar
Source: University of Arizona Mineral Museum
Description: Pale gray prismatic crystal
Raman shift (cm-1)	intensity
115.098	0
118.473	25.4269
121.847	131.951
125.222	130.648
128.597	6.82316
131.972	2.47384
135.347	26.4823
138.722	198.642
142.096	235.026
145.471	295.054
148.846	391.143
152.221	570.535
155.596	1391.65
158.97	1540.4
162.345	146.43
165.72	50.4854
169.095	34.4549
172.47	43.8702
175.845	46.833
179.219	17.3788
182.594	3.65177
185.969	0.806652
189.344	0.133244
192.719	2.275
196.094	0.072422
199.468	0.304661
202.843	6.42685
206.218	8.73364
209.593	11.1728
212.968	19.9938
216.342	26.364
219.717	41.5895
223.092	31.7978
226.467	9.97421
229.842	3.36979
233.216	4.16218
236.591	2.04182
239.966	0.347343
243.341	2.44078
246.716	4.83819
250.09	10.2974
253.465	20.0191
256.84	27.546
260.215	38.3952
263.59	48.3638
266.965	92.5652
270.339	173.292
273.714	57.3788
277.089	19.7532
280.464	19.9847
283.839	39.7221
287.214	65.4941
290.588	57.0049
293.963	36.6831
297.338	31.9216
300.713	41.7635
304.088	57.6381
307.462	21.9902
310.837	10.0058
314.212	10.6717
317.587	14.0313
320.962	21.3228
324.337	12.1282
327.711	3.53246
331.086	1.50719
334.461	0.427086
337.836	1.96991
341.211	0.694401
344.585	1.02246
347.96	0.022175
351.335	0.142296
354.71	0.009281
358.085	2.11411
361.459	3.92425
364.834	6.87796
368.209	7.94737
371.584	3.11695
374.959	0.814693
378.334	1.68578
381.708	6.25368
385.083	10.8333
388.458	16.2004
391.833	27.954
395.208	46.0562
398.582	60.2955
401.957	42.3317
405.332	19.272
408.707	11.9162
412.082	6.24144
415.457	5.34972
418.831	0.832417
422.206	3.32926
425.581	2.45862
428.956	2.84948
432.331	4.06585
435.705	4.19421
439.08	5.71358
442.455	4.63802
445.83	4.68845
449.205	4.74525
452.579	4.01561
455.954	3.41241
459.329	5.0937
462.704	2.3219
466.079	2.17171
469.454	2.05952
472.828	3.3459
476.203	1.44924
479.578	2.73339
482.953	0.683067
486.328	0.28096
489.702	0.325809
493.077	1.69237
496.452	0.009754
499.827	1.73196
503.202	0.657558
506.577	4.69544
509.951	3.7867
513.326	4.73569
516.701	4.71237
520.076	4.6501
523.451	9.50038
526.825	8.29929
530.2	13.6896
533.575	10.0623
536.95	4.6926
540.325	1.62368
543.699	2.48432
547.074	2.03068
550.449	1.57868
553.824	2.91301
557.199	0.637142
560.574	3.06311
563.948	2.22894
567.323	5.00426
570.698	7.25356
574.073	9.47631
577.448	11.1173
580.822	15.1731
584.197	15.6273
587.572	10.8154
590.947	5.28199
594.322	1.69454
597.697	0.417831
601.071	0.049381
604.446	1.19271
607.821	2.8389
611.196	3.11251
614.571	9.77074
617.945	15.5796
621.32	11.5165
624.695	4.02027
628.07	0.665379
631.445	2.16601
634.819	4.18576
638.194	10.9897
641.569	21.8638
644.944	32.8406
648.319	35.7037
651.694	18.0629
655.068	9.70345
658.443	4.85331
661.818	3.32373
665.193	0.463421
668.568	2.51374
671.942	4.73169
675.317	4.96042
678.692	5.15523
682.067	7.9181
685.442	6.20355
688.817	3.65357
692.191	1.59258
695.566	0.526577
698.941	1.22557
702.316	2.03631
705.691	0.815498
709.066	2.23874
712.44	1.12119
715.815	3.98269
719.19	6.21441
722.565	10.6702
725.94	17.144
729.314	24.2792
732.689	27.2807
736.064	23.6508
739.439	27.3889
742.814	30.181
746.188	31.9181
749.563	20.4012
752.938	8.73006
756.313	4.60148
759.688	3.04008
763.063	1.77957
766.437	1.13574
769.812	3.14353
773.187	4.78885
776.562	5.62404
779.937	3.19863
783.312	0.902271
786.686	0.617508
790.061	0.220665
793.436	1.67394
796.811	4.37248
800.186	8.7439
803.56	9.42576
806.935	7.16832
810.31	6.39706
813.685	4.72728
817.06	2.20012
820.434	2.13732
823.809	0.078255
827.184	1.05011
830.559	0.88625
833.934	0.711483
837.308	2.25999
840.683	2.89522
844.058	6.32211
847.433	9.20701
850.808	12.316
854.183	19.1061
857.557	26.9484
860.932	31.8941
864.307	35.6066
867.682	33.6239
871.057	25.1764
874.432	18.5525
877.806	12.5745
881.181	9.89544
884.556	5.27866
887.931	4.66853
891.306	3.76157
894.68	1.71891
898.055	2.35195
901.43	3.02518
904.805	0.639942
908.18	0.351643
911.554	2.37463
914.929	1.83812
918.304	0.766514
921.679	2.96205
925.054	1.07149
928.428	1.83492
931.803	2.23329
935.178	1.33337
938.553	1.58068
941.928	1.68811
945.303	1.7829
948.677	2.44545
952.052	3.76722
955.427	4.6717
958.802	3.93086
962.177	8.23455
965.552	9.91063
968.926	16.8272
972.301	26.8899
975.676	49.7823
979.051	85.858
982.426	138.326
985.8	216.369
989.175	274.127
992.55	190.654
995.925	94.8762
999.3	51.2004
1002.67	30.6461
1006.05	20.582
1009.42	13.2949
1012.8	10.0494
1016.17	8.49127
1019.55	4.76028
1022.92	2.85133
1026.3	3.03213
1029.67	3.34452
1033.05	3.70972
1036.42	1.62196
1039.8	2.39202
1043.17	0.558411
1046.55	1.63379
1049.92	0.371788
1053.3	0.62719
1056.67	0.136578
1060.05	0.420246
1063.42	0.041779
1066.8	0.996578
1070.17	0.051029
1073.55	0.617687
1076.92	0.680088
1080.3	0.172905
1083.67	0.297684
1087.05	1.01823
1090.42	0.457375
1093.79	1.16147
1097.17	2.07933
1100.54	4.0909
1103.92	6.32047
1107.29	6.86337
1110.67	6.51113
1114.04	5.94939
1117.42	8.52705
1120.79	10.2066
1124.17	15.0391
1127.54	23.6708
1130.92	33.3367
1134.29	44.7083
1137.67	51.9742
1141.04	50.863
1144.42	35.2531
1147.79	21.594
1151.17	13.8687
1154.54	10.4033
1157.92	7.81778
1161.29	7.56961
1164.67	4.33901
1168.04	4.44926
1171.41	4.01504
1174.79	3.8809
1178.16	2.26979
1181.54	0.809464
1184.91	0.454533
1188.29	2.35925
1191.66	0.648018
1195.04	0.837776
1198.41	1.02205
1201.79	0.868721
1205.16	0.91291
1208.54	1.45869
1211.91	0.603828
1215.29	2.88935
1218.66	2.2447
1222.04	1.07736
1225.41	1.2585
1228.79	1.18094
1232.16	1.57182
1235.54	1.10685
1238.91	2.47203
1242.29	0.823841
1245.66	2.34502
1249.04	2.96692
1252.41	1.41385
1255.79	1.81061
1259.16	0.96294
1262.54	2.78508
1265.91	1.12411
1269.29	1.26043
1272.66	2.86593
1276.04	2.92071
1279.41	1.9842
1282.78	2.11073
1286.16	2.43903
1289.53	1.50584
1292.91	2.42334
1296.28	2.10349
1299.66	0.01223
