Measurement: Raman, 532 nm, unoriented, Raman Data Processed
Mineral: Hambergite
Rruff sample: R050603
Ideal chemistry: Be_2_BO_3_(OH)
Locality: Momeik, Burma
Source: Bill Larson
Description: Colorless fragment from a striated prismatic crystal
Raman shift (cm-1)	intensity
149.934	0
152.826	548.406
155.719	2836.97
158.612	9876.83
161.504	984.61
164.397	18.5803
167.29	24.2791
170.183	1.35727
173.075	78.5134
175.968	269.746
178.861	114.403
181.753	45.5032
184.646	50.4639
187.539	120.184
190.431	14.1085
193.324	1.18526
196.217	1.78117
199.109	4.55443
202.002	7.17203
204.895	5.22226
207.788	3.05621
210.68	39.4455
213.573	70.7723
216.466	100.955
219.358	135.394
222.251	200.8
225.144	110.348
228.036	44.0218
230.929	35.7127
233.822	37.4852
236.715	53.7749
239.607	58.8286
242.5	73.3556
245.393	106.793
248.286	206.986
251.178	436.215
254.071	252.91
256.964	177.14
259.856	227.837
262.749	344.705
265.642	618.03
268.534	1215.52
271.427	1809.89
274.32	446.676
277.212	296.918
280.105	233.419
282.998	339.883
285.891	642.391
288.783	884.2
291.676	574.165
294.569	295.165
297.461	156.366
300.354	118.531
303.247	160.567
306.14	106.411
309.032	57.4933
311.925	66.8484
314.818	126.161
317.71	278.772
320.603	222.29
323.496	155.522
326.389	52.009
329.281	45.4259
332.174	52.8905
335.067	104.065
337.959	216.916
340.852	295.213
343.745	55.7742
346.637	4.16608
349.53	6.99876
352.423	11.6544
355.315	9.70841
358.208	8.54446
361.101	5.55637
363.994	1.91331
366.886	13.5532
369.779	19.1258
372.672	17.7863
375.565	32.6518
378.457	67.0295
381.35	49.2547
384.243	38.6232
387.135	59.4608
390.028	92.4423
392.921	157.253
395.813	294.895
398.706	538.69
401.599	404.008
404.491	124.18
407.384	47.6384
410.277	21.3865
413.17	10.3285
416.062	5.32466
418.955	10.0203
421.848	18.774
424.74	31.9752
427.633	60.6737
430.526	124.755
433.418	233.434
436.311	137.464
439.204	48.9473
442.097	24.1518
444.989	13.2207
447.882	9.27584
450.775	7.46254
453.667	0.825134
456.56	2.32476
459.453	0.519325
462.346	5.10925
465.238	9.83089
468.131	6.6226
471.024	7.2928
473.916	5.17007
476.809	4.83913
479.702	7.51131
482.594	10.2097
485.487	6.62786
488.38	0.27063
491.273	0.974586
494.165	0.886688
497.058	0.481438
499.951	6.03097
502.843	13.6135
505.736	21.3001
508.629	22.9072
511.522	9.02852
514.414	2.42556
517.307	5.49203
520.2	12.8637
523.092	22.9677
525.985	39.8898
528.878	75.4879
531.77	91.957
534.663	34.0051
537.556	11.4244
540.448	5.29263
543.341	4.10041
546.234	1.77802
549.127	0.888672
552.019	0.230721
554.912	2.10963
557.805	2.03782
560.697	3.30801
563.59	3.04881
566.483	5.87206
569.376	5.36066
572.268	5.91085
575.161	8.61565
578.054	11.6973
580.946	20.3419
583.839	31.8466
586.732	37.3999
589.625	11.7029
592.517	0.596619
595.41	2.9437
598.303	1.69196
601.195	3.22028
604.088	9.79671
606.981	30.0526
609.874	48.4946
612.766	89.2656
615.659	152.315
618.552	272.36
621.444	279.841
624.337	106.082
627.23	47.9222
630.122	37.7605
633.015	49.3808
635.908	81.967
638.801	145.3
641.693	170.344
644.586	136.892
647.479	147.058
650.371	90.4242
653.264	32.3667
656.157	14.5177
659.049	8.3868
661.942	5.27522
664.835	3.73568
667.727	2.51564
670.62	7.86485
673.513	12.5902
676.406	19.1156
679.298	26.9718
682.191	39.4594
685.084	50.7563
687.976	38.0871
690.869	16.9756
693.762	6.15271
696.654	4.95108
699.547	2.66402
702.44	1.27527
705.333	3.05856
708.225	0.345078
711.118	3.687
714.011	2.04887
716.904	2.83249
719.796	7.70295
722.689	14.9201
725.582	28.123
728.474	52.4672
731.367	67.8245
734.26	68.0294
737.152	89.1505
740.045	120.591
742.938	99.088
745.831	94.197
748.723	74.9767
751.616	38.982
754.509	19.3478
757.401	5.39465
760.294	1.08898
763.187	1.85131
766.08	2.31359
768.972	0.292076
771.865	2.17752
774.758	5.30788
777.65	11.0552
780.543	3.61395
783.436	1.00321
786.328	8.91367
789.221	21.9109
792.114	51.0121
795.006	105.284
797.899	178.452
800.792	298.046
803.685	348.699
806.577	201.537
809.47	91.4275
812.363	44.6548
815.255	31.5212
818.148	25.0614
821.041	16.9683
823.933	13.1458
826.826	17.8132
829.719	25.2541
832.612	36.105
835.504	43.2176
838.397	38.6511
841.29	28.5762
844.182	23.0272
847.075	16.8205
849.968	14.8275
852.861	18.9207
855.753	20.7544
858.646	28.0036
861.539	40.2581
864.431	48.2105
867.324	45.1986
870.217	32.0783
873.11	19.7543
876.002	11.8931
878.895	4.34302
881.788	4.1623
884.68	0.152374
887.573	0.375908
890.466	4.2254
893.358	13.9491
896.251	33.7499
899.144	63.0401
902.037	82.8307
904.929	52.7058
907.822	21.7283
910.715	9.43049
913.607	3.46825
916.5	0.381676
919.393	0.337814
922.285	0.28566
925.178	1.93961
928.071	3.8403
930.964	1.36884
933.856	0.497726
936.749	0.220367
939.642	3.77779
942.534	5.84431
945.427	5.46347
948.32	8.29311
951.212	12.864
954.105	17.3571
956.998	25.0103
959.891	31.8767
962.783	44.74
965.676	61.4696
968.569	89.0164
971.461	128.746
974.354	197.237
977.247	329.892
980.139	555.612
983.032	905.575
985.925	1456.6
988.818	1934.88
991.71	1500.23
994.603	798.56
997.496	427.272
1000.39	254.765
1003.28	163.842
1006.17	112.948
1009.07	80.9668
1011.96	59.9864
1014.85	43.5031
1017.75	35.0231
1020.64	24.1818
1023.53	19.2408
1026.42	15.9257
1029.32	12.4078
1032.21	10.8748
1035.1	10.3503
1037.99	8.07358
1040.89	7.81204
1043.78	3.68256
1046.67	4.04185
1049.56	4.06124
1052.46	5.60289
1055.35	1.68235
1058.24	2.21644
1061.13	1.18902
1064.03	0.701096
1066.92	0.561798
1069.81	0.563034
1072.71	0.850021
1075.6	2.242
1078.49	1.57607
1081.38	1.04053
1084.28	3.56299
1087.17	2.27268
1090.06	5.28789
1092.95	5.91711
1095.85	6.0332
1098.74	11.4294
1101.63	8.41727
1104.53	10.5608
1107.42	13.6356
1110.31	18.089
1113.2	19.3918
1116.1	26.6783
1118.99	39.7876
1121.88	55.1824
1124.78	79.8562
1127.67	119.841
1130.56	176.414
1133.45	231.836
1136.35	249.99
1139.24	205.678
1142.13	141.581
1145.02	84.4513
1147.92	50.1668
1150.81	34.4936
1153.7	24.8699
1156.59	19.8978
1159.49	19.6701
1162.38	20.5976
1165.27	23.9367
1168.16	29.3418
1171.06	35.2192
1173.95	37.6261
1176.84	31.7165
1179.74	21.7964
1182.63	13.9713
1185.52	10.0375
1188.41	7.08039
1191.31	5.631
1194.2	1.10523
1197.09	1.07335
1199.98	0.365311
1202.88	0.527527
1205.77	0.416306
1208.66	0.310402
1211.56	0.805557
1214.45	0.658249
1217.34	0.151482
1220.23	0.512154
1223.13	2.67158
1226.02	3.1624
1228.91	2.24792
1231.81	0.575981
1234.7	1.11203
1237.59	0.462341
1240.48	3.38132
1243.38	0.668526
1246.27	3.50055
1249.16	1.22852
1252.05	5.42462
1254.95	3.9649
1257.84	3.9085
1260.73	2.98944
1263.62	4.56085
1266.52	3.96904
1269.41	2.81229
1272.3	1.47745
1275.19	3.3243
1278.09	3.08923
1280.98	0.074776
1283.87	0.181366
1286.77	2.22153
1289.66	6.02374
1292.55	6.19679
1295.44	6.30614
1298.34	6.14545
1301.23	0.034286
