Measurement: Raman, 514 nm, unoriented, Raman Data Processed
Mineral: Hanksite
Rruff sample: R050291
Ideal chemistry: KNa_22_(SO_4_)_9_(CO_3_)_2_Cl
Locality: Searles Lake, Trona, San Bernardino County, California, USA
Source: Marcus Origlieri
Description: Pale yellow hexagonal prism with pyramidal terminations
Measured chemistry: K_1.00_(Na_21.65_K_0.35_)_Î£=22_(S_1.00_O_4_)_9_(CO_3_)_2_Cl_1.00_
Raman shift (cm-1)	intensity
108.691	0
112.864	14.423
117.034	233.664
121.203	174.831
125.369	272.338
129.534	114.828
133.696	200.501
137.857	214.231
142.016	242.337
146.172	339.354
150.327	182.891
154.48	309.702
158.63	362.581
162.779	359.103
166.926	215.654
171.07	272.841
175.213	292.652
179.354	407.192
183.493	181.081
187.63	324.192
191.765	292.495
195.898	180.736
200.029	274.689
204.158	256.828
208.285	177.084
212.41	189.474
216.533	150
220.654	286.531
224.773	171.56
228.891	241.788
233.006	250.793
237.119	182.773
241.231	143.916
245.34	203.639
249.448	280.049
253.553	156.298
257.657	215.179
261.758	294.19
265.858	112.284
269.956	158.507
274.052	131.521
278.146	162.466
282.237	65.468
286.327	64.98
290.416	4.838
294.502	235.43
298.586	153.949
302.668	107.671
306.749	106.557
310.827	153.576
314.903	41.706
318.978	122.923
323.051	53.215
327.121	127.694
331.19	124.073
335.257	168.512
339.322	73.004
343.385	14.109
347.446	19.86
351.505	63.36
355.563	53
359.618	186.531
363.672	67.118
367.723	19.441
371.773	136.56
375.821	286.659
379.866	84.721
383.91	38.229
387.952	173.752
391.992	46.319
396.031	4.444
400.067	170.021
404.101	65.995
408.134	156.036
412.165	19.047
416.193	208.719
420.22	83.611
424.245	206.186
428.268	189.717
432.289	268.445
436.309	272.115
440.326	82.428
444.342	349.814
448.355	332.488
452.367	261.533
456.377	531.557
460.385	772.51
464.391	806.361
468.395	945.1
472.398	633.715
476.398	409.236
480.397	283.711
484.394	216.09
488.389	170.264
492.382	220.688
496.373	124.506
500.362	109.805
504.349	6.859
508.335	32.438
512.319	187.365
516.3	186.539
520.28	94.402
524.259	99.68
528.235	8.27
532.209	59.682
536.182	20.414
540.152	257.25
544.121	196.645
548.088	199.531
552.053	268.629
556.017	89.371
559.978	59.584
563.938	64.312
567.895	6.818
571.851	47.467
575.805	170.568
579.758	89.377
583.708	191.584
587.657	115.426
591.603	132.012
595.548	204
599.491	176.977
603.432	157.008
607.372	240.654
611.309	389.061
615.245	849.604
619.179	1091.56
623.111	1688.68
627.041	1016.14
630.97	1145.63
634.896	1091.29
638.821	401.441
642.744	325.309
646.665	574.908
650.584	340.498
654.502	104.713
658.418	53.316
662.331	32.99
666.244	2.83
670.154	345.076
674.062	256.424
677.969	160.391
681.874	102.373
685.777	131.717
689.678	228.949
693.577	289.465
697.475	176.178
701.371	128.445
705.265	335.922
709.157	140.111
713.047	310.133
716.936	26.602
720.823	321.459
724.708	150.91
728.591	2.898
732.472	240.641
736.352	172.756
740.23	341.699
744.106	352.688
747.98	40.613
751.853	497.488
755.723	14.723
759.592	58.064
763.459	249.127
767.325	346.357
771.188	186.369
775.05	61.191
778.91	182.857
782.768	147.391
786.625	353.793
790.479	330.934
794.332	81.811
798.183	235.52
802.033	201.984
805.88	50.314
809.726	143.857
813.57	143.252
817.413	302.18
821.253	226.766
825.092	62.598
828.929	218.01
832.764	3.635
836.598	104.936
840.429	76.936
844.259	106.547
848.088	383.943
851.914	370.793
855.739	247.688
859.562	74.475
863.383	141.477
867.203	246.709
871.02	193.361
874.836	409.438
878.65	370.441
882.463	189.355
886.274	150.258
890.083	143.729
893.89	120.742
897.695	100.82
901.499	322.213
905.301	13.789
909.102	263.6
912.9	536.609
916.697	501.109
920.492	506.959
924.285	353.639
928.077	614.242
931.867	305.35
935.655	750.395
939.442	247.328
943.226	498.82
947.009	185.371
950.791	467.475
954.57	253.334
958.348	704.664
962.124	156.904
965.899	587.09
969.671	421.408
973.442	944.361
977.211	1006.09
980.979	1841.63
984.745	6403.49
988.509	23712.5
992.271	20261.3
996.032	3755.22
999.791	1198.92
1003.55	1095.68
1007.3	951.168
1011.06	854.082
1014.81	656.785
1018.56	587.07
1022.31	437.527
1026.06	401.004
1029.8	287.473
1033.55	203.004
1037.29	413.773
1041.03	785.305
1044.77	712.754
1048.5	403.371
1052.24	672.301
1055.97	476.93
1059.7	711.379
1063.43	675.656
1067.16	605.551
1070.89	788.309
1074.61	1082.14
1078.34	2889.36
1082.06	5470.26
1085.78	877.172
1089.5	845.188
1093.21	898.672
1096.93	605.289
1100.64	750.848
1104.35	332.199
1108.06	837
1111.77	1272.14
1115.48	1030.97
1119.18	727.5
1122.89	1024.86
1126.59	289.277
1130.29	561.906
1133.99	60.828
1137.68	161.402
1141.38	113.293
1145.07	305.477
1148.76	411.234
1152.45	447.758
1156.14	485.891
1159.83	81.895
1163.51	196.941
1167.19	83.348
1170.88	138.719
1174.56	229.82
1178.23	320.805
1181.91	31.469
1185.59	148.781
1189.26	428.867
1192.93	661.859
1196.6	165.863
1200.27	347.805
1203.94	61.727
1207.6	373.625
1211.27	610.469
1214.93	525.25
1218.59	544.918
1222.25	313.664
1225.9	487.348
1229.56	715.125
1233.21	177.508
1236.86	362.117
1240.51	647.914
1244.16	613.652
1247.81	839.234
1251.45	873.766
1255.1	733.32
1258.74	77.66
1262.38	392.062
1266.02	531.938
1269.66	636.301
1273.29	255.043
1276.93	511.207
1280.56	681.945
1284.19	246.32
1287.82	374.926
1291.45	737.965
1295.07	534.527
1298.7	477.484
1302.32	801.77
1305.94	444.375
1309.56	98.547
1313.18	524.738
1316.8	412.238
1320.41	760.508
1324.02	691.637
1327.63	94.145
