Measurement: Raman, 780 nm, unoriented, Raman Data Processed
Mineral: Hanksite
Rruff sample: R050291
Ideal chemistry: KNa_22_(SO_4_)_9_(CO_3_)_2_Cl
Locality: Searles Lake, Trona, San Bernardino County, California, USA
Source: Marcus Origlieri
Description: Pale yellow hexagonal prism with pyramidal terminations
Measured chemistry: K_1.00_(Na_21.65_K_0.35_)_Î£=22_(S_1.00_O_4_)_9_(CO_3_)_2_Cl_1.00_
Raman shift (cm-1)	intensity
141.217	0
144.11	0.067177
147.003	1.86926
149.895	1.27074
152.788	5.36417
155.681	3.99029
158.573	7.12244
161.466	7.06519
164.359	4.41779
167.251	3.94211
170.144	2.37701
173.037	0.956917
175.93	4.18313
178.822	6.80518
181.715	8.56485
184.608	9.26755
187.5	4.93024
190.393	0.740364
193.286	0.796394
196.179	0.550255
199.071	0.748749
201.964	2.14739
204.857	0.663643
207.749	2.59334
210.642	3.98936
213.535	8.1435
216.427	7.38102
219.32	4.37081
222.213	6.92179
225.106	7.24638
227.998	8.02256
230.891	10.6712
233.784	10.1564
236.676	10.1451
239.569	12.0096
242.462	15.6752
245.354	19.3669
248.247	20.6043
251.14	24.128
254.032	22.4554
256.925	21.7548
259.818	17.9976
262.711	15.4351
265.603	13.0698
268.496	10.6497
271.389	6.80571
274.281	4.35986
277.174	3.07581
280.067	0.383202
282.959	1.77454
285.852	0.10437
288.745	0.278831
291.638	1.2281
294.53	0.990807
297.423	1.311
300.316	1.1992
303.208	0.329208
306.101	3.92871
308.994	1.65764
311.887	0.041641
314.779	0.059242
317.672	1.46124
320.565	1.18013
323.457	3.42271
326.35	1.30891
329.243	1.90675
332.135	3.117
335.028	3.26504
337.921	3.47247
340.813	3.90419
343.706	0.178528
346.599	2.34228
349.492	2.18926
352.384	4.09023
355.277	1.85471
358.17	1.75687
361.062	2.85201
363.955	3.06757
366.848	2.08441
369.74	0.318733
372.633	0.419693
375.526	0.394241
378.419	1.38702
381.311	1.86108
384.204	1.55031
387.097	0.023605
389.989	0.956108
392.882	0.601761
395.775	1.67216
398.668	1.36887
401.56	2.31869
404.453	2.33667
407.346	3.4464
410.238	3.65237
413.131	3.12991
416.024	2.22211
418.916	0.578613
421.809	3.49072
424.702	5.6954
427.594	3.17702
430.487	7.70925
433.38	10.1116
436.273	16.2629
439.165	20.0478
442.058	27.3872
444.951	42.8056
447.843	63.8197
450.736	95.5452
453.629	129.764
456.522	125.288
459.414	132.907
462.307	137.031
465.2	138.661
468.092	130.523
470.985	116.704
473.878	75.207
476.77	41.2584
479.663	24.6093
482.556	14.5103
485.449	10.0314
488.341	7.90503
491.234	4.98267
494.127	1.9121
497.019	3.36201
499.912	2.63848
502.805	1.87238
505.697	0.047943
508.59	0.549973
511.483	0.438255
514.375	0.534164
517.268	1.64062
520.161	0.754364
523.053	1.33458
525.946	1.2673
528.839	0.369904
531.732	0.155289
534.624	0.975746
537.517	0.314949
540.41	0.578514
543.302	1.95467
546.195	1.59188
549.088	1.28234
551.981	1.69213
554.873	1.50606
557.766	2.27752
560.659	0.7453
563.551	1.61874
566.444	1.19333
569.337	2.57209
572.229	1.91141
575.122	1.32696
578.015	2.56917
580.908	3.56372
583.8	4.20174
586.693	4.05599
589.586	5.63896
592.478	5.20046
595.371	6.38593
598.264	9.69962
601.156	14.1539
604.049	18.667
606.942	28.097
609.835	43.045
612.727	71.5258
615.62	110.465
618.513	126.182
621.405	162.429
624.298	163.893
627.191	174.075
630.083	242.714
632.976	195.942
635.869	109.513
638.761	49.5306
641.654	20.3104
644.547	10.2351
647.44	4.74493
650.332	0.975525
653.225	0.073715
656.118	1.31512
659.01	0.490135
661.903	0.37101
664.796	1.96238
667.688	1.32027
670.581	0.786591
673.474	0.804436
676.367	0.077934
679.259	0.304626
682.152	2.01464
685.045	0.610611
687.937	3.01675
690.83	1.22356
693.723	4.6432
696.615	2.37699
699.508	4.21039
702.401	6.02119
705.294	8.73698
708.186	17.851
711.079	13.7476
713.972	3.37391
716.864	3.73792
719.757	1.5815
722.65	2.85336
725.543	2.52672
728.435	1.94516
731.328	3.33051
734.221	2.1087
737.113	0.464455
740.006	1.57403
742.899	1.08855
745.791	1.91084
748.684	2.53659
751.577	2.97612
754.47	0.438049
757.362	1.63857
760.255	1.45518
763.148	1.25146
766.04	1.1215
768.933	0.967216
771.826	0.099281
774.718	0.59407
777.611	3.42951
780.504	2.07246
783.396	2.09297
786.289	1.32319
789.182	0.641556
792.075	0.871017
794.967	1.4925
797.86	1.51559
800.753	0.393753
803.645	3.01138
806.538	1.36964
809.431	1.1163
812.323	0.930069
815.216	2.27644
818.109	1.28785
821.002	3.21017
823.894	1.88231
826.787	3.04527
829.68	0.180672
832.572	1.62127
835.465	2.44174
838.358	2.48644
841.25	1.2555
844.143	1.3512
847.036	2.34582
849.929	2.01241
852.821	0.617882
855.714	1.64243
858.607	3.65803
861.499	1.5593
864.392	0.229362
867.285	1.54305
870.178	1.18266
873.07	0.560204
875.963	0.478218
878.856	1.30191
881.748	1.87454
884.641	1.20741
887.534	0.658058
890.426	1.39284
893.319	0.490128
896.212	0.96904
899.105	0.755936
901.997	0.888069
904.89	1.1211
907.783	1.74775
910.675	1.06648
913.568	2.2121
916.461	0.189034
919.353	0.715485
922.246	0.254982
925.139	0.365295
928.032	1.17774
930.924	2.35624
933.817	0.875282
936.71	2.95944
939.602	2.43262
942.495	3.99342
945.388	1.8958
948.28	4.65796
951.173	2.51227
954.066	3.60108
956.958	4.83703
959.851	7.28752
962.744	13.2038
965.636	20.4858
968.529	31.9745
971.422	60.9606
974.315	143.916
977.207	256.706
980.1	388.788
982.993	679.492
985.885	1395.38
988.778	2319.34
991.671	1863.67
994.563	399.458
997.456	147.237
1000.35	78.8517
1003.24	46.9649
1006.13	37.5515
1009.03	26.7516
1011.92	17.3561
1014.81	11.9865
1017.71	8.69923
1020.6	5.34647
1023.49	5.39762
1026.38	2.21555
1029.28	3.4829
1032.17	1.14647
1035.06	0.714668
1037.95	0.08593
1040.85	0.497719
1043.74	0.006912
1046.63	1.27882
1049.53	0.828033
1052.42	1.30779
1055.31	1.87733
1058.2	3.25265
1061.1	8.69457
1063.99	10.6343
1066.88	20.7651
1069.77	37.7881
1072.67	55.5218
1075.56	107.079
1078.45	274.863
1081.34	376.203
1084.24	35.9309
1087.13	22.1698
1090.02	28.9457
1092.91	41.1733
1095.81	37.2392
1098.7	27.4485
1101.59	36.7892
1104.49	47.7862
1107.38	70.8651
1110.27	103.899
1113.16	150.166
1116.06	140.298
1118.95	87.5806
1121.84	77.9707
1124.73	51.8771
1127.63	37.2678
1130.52	47.6623
1133.41	51.1734
1136.31	25.6319
1139.2	12.5368
1142.09	8.68832
1144.98	3.59866
1147.88	0.246605
1150.77	0.975868
1153.66	3.56068
1156.56	3.03608
1159.45	7.23237
1162.34	9.95011
1165.23	11.0609
1168.12	3.44622
1171.02	0.176826
1173.91	1.77179
1176.8	1.97517
1179.7	0.888252
1182.59	4.43735
1185.48	9.77245
1188.37	10.1986
1191.27	3.82242
1194.16	1.35631
1197.05	0.240265
1199.94	1.18103
1202.84	0.338142
1205.73	0.590279
1208.62	0.183144
1211.52	1.89927
1214.41	1.29734
1217.3	0.757751
1220.19	1.89467
1223.09	3.22366
1225.98	0.622505
1228.87	3.07188
1231.77	2.91973
1234.66	3.57286
1237.55	2.69916
1240.44	2.24487
1243.34	2.14809
1246.23	1.53524
1249.12	3.75156
1252.01	0.591972
1254.91	1.86844
1257.8	3.0423
1260.69	1.09591
1263.59	1.33708
1266.48	1.23562
1269.37	1.84139
1272.26	0.386612
1275.15	1.35012
1278.05	0.835243
1280.94	0.744896
1283.83	0.160751
