Measurement: Raman, 532 nm, unoriented, Raman Data Processed
Mineral: Hanksite
Rruff sample: R050291
Ideal chemistry: KNa_22_(SO_4_)_9_(CO_3_)_2_Cl
Locality: Searles Lake, Trona, San Bernardino County, California, USA
Source: Marcus Origlieri
Description: Pale yellow hexagonal prism with pyramidal terminations
Measured chemistry: K_1.00_(Na_21.65_K_0.35_)_Î£=22_(S_1.00_O_4_)_9_(CO_3_)_2_Cl_1.00_
Raman shift (cm-1)	intensity
141.047	0
144.422	9.81717
147.797	1.15869
151.172	3.69388
154.547	15.1759
157.921	20.3281
161.296	12.861
164.671	7.02982
168.046	7.88379
171.421	13.7381
174.796	20.8019
178.17	38.6151
181.545	53.0515
184.92	46.3934
188.295	26.9743
191.67	17.9303
195.044	17.0311
198.419	10.6851
201.794	8.72357
205.169	7.7782
208.544	16.6491
211.918	22.4246
215.293	32.8665
218.668	21.4377
222.043	20.4068
225.418	9.4696
228.792	14.4279
232.167	21.7832
235.542	28.6285
238.917	37.8708
242.292	52.2756
245.667	71.6105
249.041	92.9004
252.416	92.6592
255.791	83.1026
259.166	75.1269
262.541	54.5684
265.916	33.7718
269.29	19.8616
272.665	12.2734
276.04	12.7213
279.415	4.49637
282.79	5.18146
286.164	3.14917
289.539	0.949951
292.914	0.1586
296.289	3.65323
299.664	0.767242
303.038	6.04269
306.413	4.71054
309.788	4.62235
313.163	4.27548
316.538	3.38651
319.913	4.69235
323.287	0.357819
326.662	7.37949
330.037	8.52426
333.412	5.1344
336.787	3.58084
340.161	6.49823
343.536	7.11301
346.911	0.954529
350.286	1.12027
353.661	3.97003
357.036	6.44608
360.41	0.69928
363.785	2.3299
367.16	6.3197
370.535	3.7496
373.91	8.2608
377.284	1.48318
380.659	4.12558
384.034	3.55402
387.409	2.44138
390.784	1.74469
394.159	2.81604
397.533	4.52386
400.908	0.578888
404.283	9.25372
407.658	0.927338
411.033	3.8706
414.407	5.6145
417.782	6.31415
421.157	4.65903
424.532	11.9119
427.907	15.1753
431.281	24.1861
434.656	38.3776
438.031	50.883
441.406	78.6718
444.781	132.299
448.156	245.144
451.53	414.865
454.905	437.959
458.28	353.726
461.655	312.513
465.03	282.657
468.404	261.973
471.779	185.887
475.154	109.481
478.529	67.5597
481.904	35.2821
485.279	25.5689
488.653	19.5356
492.028	10.2841
495.403	4.88022
498.778	5.19278
502.153	3.78272
505.527	0.390564
508.902	2.08426
512.277	1.17758
515.652	0.37027
519.027	2.23981
522.402	2.92737
525.776	2.23416
529.151	1.85962
532.526	2.96612
535.901	4.8512
539.276	2.02435
542.65	5.27649
546.025	6.44958
549.4	5.33099
552.775	8.68579
556.15	3.81421
559.525	5.60126
562.899	5.66437
566.274	1.02765
569.649	2.85614
573.024	2.65936
576.399	6.53522
579.774	6.80664
583.148	9.71661
586.523	0.166931
589.898	7.58575
593.273	8.21063
596.648	10.371
600.022	18.79
603.397	22.025
606.772	46.4948
610.147	79.2172
613.522	140.511
616.896	220.447
620.271	271.017
623.646	368.229
627.021	544.072
630.396	841.877
633.77	461.84
637.145	198.505
640.52	69.3282
643.895	24.2467
647.27	9.11896
650.645	6.4942
654.019	0.3078
657.394	5.19904
660.769	2.8645
664.144	2.63647
667.519	3.40955
670.894	1.84363
674.268	1.75995
677.643	2.76245
681.018	4.22693
684.393	1.9198
687.768	0.134705
691.142	1.76001
694.517	3.07037
697.892	10.8185
701.267	7.68933
704.642	11.6454
708.016	17.2628
711.391	11.9248
714.766	4.62018
718.141	7.98834
721.516	4.68652
724.891	2.17926
728.265	6.3526
731.64	8.83051
735.015	3.1828
738.39	1.24194
741.765	6.6192
745.139	1.73102
748.514	5.14209
751.889	1.03192
755.264	4.789
758.639	5.12872
762.014	1.6499
765.388	3.74701
768.763	9.21899
772.138	2.04034
775.513	1.10992
778.888	1.50555
782.263	3.0351
785.637	3.30987
789.012	1.01892
792.387	1.80298
795.762	5.28473
799.136	0.295593
802.511	4.52478
805.886	6.61554
809.261	5.04785
812.636	0.336975
816.011	4.91406
819.385	6.04315
822.76	5.32819
826.135	0.079895
829.51	7.68951
832.885	6.33557
836.26	0.157532
839.634	7.85535
843.009	6.5473
846.384	2.59308
849.759	5.88617
853.134	5.06232
856.508	1.70483
859.883	7.84021
863.258	3.54608
866.633	6.58758
870.008	6.82428
873.383	2.66077
876.757	1.25037
880.132	0.954224
883.507	5.16193
886.882	0.937317
890.257	4.54938
893.631	2.1261
897.006	7.9823
900.381	3.05414
903.756	2.52344
907.131	3.06317
910.505	3.3382
913.88	3.63245
917.255	5.63861
920.63	3.35834
924.005	1.80481
927.38	10.2541
930.754	6.82782
934.129	12.5445
937.504	8.08826
940.879	7.71497
944.254	8.82568
947.629	10.6867
951.003	10.0946
954.378	14.5966
957.753	21.3911
961.128	29.2117
964.503	38.6656
967.877	65.8867
971.252	119.787
974.627	269.776
978.002	584.705
981.377	1183.43
984.751	2705.28
988.126	5985.8
991.501	5444.04
994.876	927.297
998.251	320.049
1001.63	164.72
1005	102.486
1008.38	78.783
1011.75	49.5525
1015.12	33.1868
1018.5	21.3738
1021.87	12.2248
1025.25	13.4462
1028.62	0.112
1032	5.84265
1035.37	4.00238
1038.75	8.2226
1042.12	3.76856
1045.5	2.25293
1048.87	9.24915
1052.25	1.90582
1055.62	4.68262
1059	9.72626
1062.37	8.34821
1065.75	16.0969
1069.12	35.8694
1072.5	68.2255
1075.87	156.237
1079.25	581.679
1082.62	174.558
1086	37.4878
1089.37	32.9412
1092.75	62.2423
1096.12	68.9377
1099.49	82.8303
1102.87	126.432
1106.24	172.684
1109.62	260.031
1112.99	465.245
1116.37	463.724
1119.74	235.88
1123.12	140.803
1126.49	89.8267
1129.87	115.882
1133.24	174.544
1136.62	112.292
1139.99	117.174
1143.37	77.609
1146.74	11.2798
1150.12	0.076599
1153.49	6.9588
1156.87	8.90967
1160.24	27.7755
1163.62	59.2253
1166.99	22.7033
1170.37	4.19672
1173.74	4.34296
1177.12	6.73498
1180.49	20.2
1183.87	38.0431
1187.24	82.9026
1190.62	58.6378
1193.99	9.56757
1197.37	1.21173
1200.74	2.1795
1204.12	1.0332
1207.49	0.896179
1210.86	3.16492
1214.24	8.0871
1217.61	6.82153
1220.99	2.83734
1224.36	7.31683
1227.74	6.24774
1231.11	7.26666
1234.49	7.67145
1237.86	8.70459
1241.24	5.65912
1244.61	7.1709
1247.99	9.31525
1251.36	4.84601
1254.74	6.63293
1258.11	8.30975
1261.49	3.83813
1264.86	5.14532
1268.24	2.5025
1271.61	8.2594
1274.99	6.89685
1278.36	0.658447
1281.73	1.75769
1285.11	8.44525
1288.48	3.91901
1291.86	1.1842
1295.23	6.85614
1298.61	1.2727
1301.98	0.073364
