Measurement: Raman, 532 nm, unoriented, Raman Data Processed
Mineral: Hannebachite
Rruff sample: R060572
Ideal chemistry: (CaSO_3_)_2_H_2_O
Locality: Hannebacher Ley, near Hannebach, Eifel, Germany
Source: Michael Scott
Description: Colorless thin bladed crystals
Measured chemistry: 2Ca_1.00_S_1.00_O_3_Â·H_2_O; trace amounts of Fe; H_2_O estimated by difference
Raman shift (cm-1)	intensity
152.378	0
155.27	83.846
158.163	221.39
161.056	676.503
163.948	1348.05
166.841	1963.22
169.734	2513.79
172.626	2393.32
175.519	1901.91
178.412	1496.67
181.305	1139.19
184.197	972.011
187.09	916.621
189.983	901.872
192.875	785.651
195.768	661.856
198.661	606.111
201.553	702.642
204.446	728.971
207.339	913.353
210.232	852.018
213.124	651.012
216.017	452.015
218.91	345.228
221.802	120.946
224.695	6.976
227.588	126.648
230.48	77.019
233.373	14.666
236.266	9.003
239.159	47.723
242.051	132.12
244.944	290.109
247.837	363.715
250.729	449.619
253.622	478.08
256.515	421.308
259.408	494.769
262.3	576.048
265.193	573.713
268.086	682.956
270.978	736.598
273.871	769.589
276.764	834.998
279.656	874.841
282.549	822.219
285.442	708.078
288.335	533.729
291.227	391.521
294.12	288.005
297.013	167.466
299.905	149.948
302.798	130.155
305.691	215.862
308.583	323.216
311.476	278.471
314.369	206.66
317.262	114.86
320.154	118.985
323.047	136.397
325.94	81.322
328.832	254.228
331.725	126.604
334.618	156.36
337.51	144.733
340.403	137.443
343.296	166
346.189	122.641
349.081	46.711
351.974	141.775
354.867	139.545
357.759	75.076
360.652	21.201
363.545	52.086
366.437	63.502
369.33	30.523
372.223	3.098
375.116	46.123
378.008	35.838
380.901	38.43
383.794	24.336
386.686	2.891
389.579	102.479
392.472	48.193
395.364	48.234
398.257	67.436
401.15	57.408
404.043	27.824
406.935	25.91
409.828	120.973
412.721	230.906
415.613	560.873
418.506	666.484
421.399	926.264
424.291	1129.19
427.184	1457.28
430.077	1836.62
432.97	2188.96
435.862	2504.77
438.755	2441.31
441.648	2451.59
444.54	2347.43
447.433	1978.96
450.326	1725.75
453.218	1483.49
456.111	1192.9
459.004	846.314
461.897	628.938
464.789	641.959
467.682	686.734
470.575	898.773
473.467	1376.85
476.36	1710.65
479.253	2168.38
482.146	2655.78
485.038	3267.68
487.931	3759.93
490.824	3806.38
493.716	3344.1
496.609	2698.34
499.502	2069.56
502.394	1762.31
505.287	2003.84
508.18	2737.57
511.073	3920.58
513.965	5280.48
516.858	6966.58
519.751	8492.79
522.643	7052.48
525.536	4855.95
528.429	3283.7
531.321	2289.47
534.214	1454.86
537.107	857.502
540	465.5
542.892	302.391
545.785	322.332
548.678	247.461
551.57	5.047
554.463	64.252
557.356	27.477
560.248	110.139
563.141	150
566.034	127.047
568.927	43.564
571.819	86.371
574.712	35.086
577.605	78.189
580.497	34.098
583.39	210.039
586.283	87.742
589.175	98.564
592.068	64.273
594.961	176.74
597.854	107.576
600.746	243.646
603.639	217.988
606.532	274.867
609.424	421.771
612.317	447.914
615.21	459.523
618.102	387.217
620.995	431.418
623.888	425.674
626.781	420.367
629.673	545.572
632.566	594.459
635.459	584.336
638.351	704.633
641.244	783.48
644.137	1139.49
647.029	1340.32
649.922	1483.96
652.815	1587.08
655.708	1171.31
658.6	933.342
661.493	676.158
664.386	391.084
667.278	285.729
670.171	291.891
673.064	274.775
675.956	88.645
678.849	63.754
681.742	76.348
684.635	156.285
687.527	147.5
690.42	200.723
693.313	120.223
696.205	205.107
699.098	171.715
701.991	25.291
704.883	17.285
707.776	107.004
710.669	268.527
713.562	257.693
716.454	190.896
719.347	428.529
722.24	506.33
725.132	199.943
728.025	117.059
730.918	61.125
733.81	17.33
736.703	37.672
739.596	69.836
742.489	77.844
745.381	77.018
748.274	269.658
751.167	190.152
754.059	37.656
756.952	171.166
759.845	58.732
762.737	86.764
765.63	74.508
768.523	50.908
771.416	146.25
774.308	153.982
777.201	114.336
780.094	121.748
782.986	89.359
785.879	101.465
788.772	101.404
791.664	123.064
794.557	245.256
797.45	211.273
800.343	130.752
803.235	114.697
806.128	170.943
809.021	64.279
811.913	82.637
814.806	155.801
817.699	86.285
820.591	137.068
823.484	35.639
826.377	169.758
829.27	142.129
832.162	44.447
835.055	23.668
837.948	151.262
840.841	92.336
843.733	0.75
846.626	149.123
849.519	160.701
852.411	55.551
855.304	93.588
858.197	200.633
861.089	332.529
863.982	189.053
866.875	256.541
869.768	183.99
872.66	121.602
875.553	156.932
878.446	9.752
881.338	178.334
884.231	32.207
887.124	105.619
890.016	213.68
892.909	188.779
895.802	314.75
898.695	179.443
901.587	112.393
904.48	96.547
907.373	58.221
910.265	93.018
913.158	148.926
916.051	54.992
918.943	99.08
921.836	48.59
924.729	217.98
927.622	464.295
930.514	498.734
933.407	512.811
936.3	603.236
939.192	899.764
942.085	1206.86
944.978	1633.64
947.87	2249.61
950.763	3233.59
953.656	4676.73
956.549	6171.33
959.441	8360.6
962.334	10638.4
965.227	12329.9
968.119	12913
971.012	11850.7
973.905	10012.3
976.797	8980.07
979.69	8461.28
982.583	8054.58
985.476	7929.04
988.368	8257.78
991.261	10200.3
994.154	13868.8
997.046	20017.7
999.939	27882.8
1002.83	36020.5
1005.72	36566.8
1008.62	27262.1
1011.51	17795.7
1014.4	10806.1
1017.29	6121.58
1020.19	3745.08
1023.08	2423.9
1025.97	1587.41
1028.87	1100.3
1031.76	718.127
1034.65	388.637
1037.54	374.68
1040.44	212.264
1043.33	51.461
1046.22	168.268
1049.12	89.281
1052.01	86.336
1054.9	306.254
1057.79	373.639
1060.69	241.154
1063.58	49.564
1066.47	118.785
1069.36	161.824
1072.26	119.238
1075.15	124.455
1078.04	366.131
1080.93	857.15
1083.83	2012.92
1086.72	3528.59
1089.61	3175.44
1092.51	3488.67
1095.4	3133.47
1098.29	1789.14
1101.18	879.57
1104.08	529.551
1106.97	401.492
1109.86	254.533
1112.75	267.545
1115.65	220.791
1118.54	198.045
1121.43	272.5
1124.33	29.273
1127.22	21.604
1130.11	137.809
1133	291.74
1135.9	251.027
1138.79	74.457
1141.68	185.643
1144.57	123.133
1147.47	142.82
1150.36	0.939
1153.25	48.943
1156.14	218.047
1159.04	191.549
1161.93	218.525
1164.82	102.094
1167.72	74.426
1170.61	13.955
1173.5	33.416
1176.39	250.715
1179.29	230.828
1182.18	280.225
1185.07	306.895
1187.96	222.875
1190.86	166.838
1193.75	136.234
1196.64	133.941
1199.54	138.203
1202.43	175.322
1205.32	245.635
1208.21	374.969
1211.11	369.799
1214	377.609
1216.89	577.713
1219.78	350.762
1222.68	330.457
1225.57	362.584
1228.46	232.059
1231.36	175.402
1234.25	119.068
1237.14	103.988
1240.03	205.061
1242.93	87.217
1245.82	117.92
1248.71	156.002
1251.6	216.031
1254.5	86.539
1257.39	68.6
1260.28	244.037
1263.17	18.742
1266.07	28.775
1268.96	0.826
1271.85	190.172
1274.75	381.201
1277.64	269.004
1280.53	258.768
1283.42	199.211
1286.32	229.109
1289.21	40.336
1292.1	35.191
1294.99	67.066
