Measurement: Raman, 780 nm, unoriented, Raman Data Processed
Mineral: Hannebachite
Rruff sample: R060572
Ideal chemistry: (CaSO_3_)_2_H_2_O
Locality: Hannebacher Ley, near Hannebach, Eifel, Germany
Source: Michael Scott
Description: Colorless thin bladed crystals
Measured chemistry: 2Ca_1.00_S_1.00_O_3_Â·H_2_O; trace amounts of Fe; H_2_O estimated by difference
Raman shift (cm-1)	intensity
93.4884	0
96.8632	5.85034
100.238	15.904
103.613	19.4915
106.988	16.8412
110.362	18.2584
113.737	47.8052
117.112	122.168
120.487	135.239
123.862	105.457
127.237	80.3552
130.611	85.9332
133.986	42.9337
137.361	3.07782
140.736	4.44757
144.111	5.03046
147.485	0.900879
150.86	13.21
154.235	50.4935
157.61	75.4582
160.985	78.7907
164.359	98.5877
167.734	117.802
171.109	144.769
174.484	152.238
177.859	142.326
181.234	121.574
184.608	116.519
187.983	114.912
191.358	102.357
194.733	85.5915
198.108	67.4647
201.482	50.6953
204.857	43.1934
208.232	42.879
211.607	43.5345
214.982	42.497
218.357	35.1573
221.731	29.6497
225.106	24.5477
228.481	19.5055
231.856	23.9655
235.231	25.3759
238.605	31.9297
241.98	39.6046
245.355	44.3262
248.73	43.7083
252.105	39.5198
255.48	36.3496
258.854	38.0053
262.229	40.7838
265.604	42.7637
268.979	47.7788
272.354	52.5251
275.728	62.1455
279.103	72.3361
282.478	81.8839
285.853	61.6896
289.228	37.0487
292.602	18.0391
295.977	8.93637
299.352	4.8067
302.727	0.546585
306.102	1.37918
309.476	1.97499
312.851	1.71889
316.226	0.881302
319.601	0.319458
322.976	0.102448
326.351	0.861588
329.725	1.66802
333.1	2.55684
336.475	1.57427
339.85	4.86839
343.225	3.12262
346.599	3.54765
349.974	4.50847
353.349	2.61353
356.724	5.51321
360.099	3.63716
363.474	2.07402
366.848	1.13301
370.223	0.098083
373.598	0.007813
376.973	1.39456
380.348	0.357498
383.722	0.658066
387.097	1.05377
390.472	0.0121
393.847	1.79666
397.222	1.28725
400.596	0.283234
403.971	4.61023
407.346	5.90036
410.721	8.88081
414.096	16.6934
417.471	24.1194
420.845	33.8604
424.22	46.8319
427.595	65.204
430.97	77.7771
434.345	96.1337
437.719	105.708
441.094	106.787
444.469	101
447.844	88.4163
451.219	76.2774
454.594	61.6596
457.968	44.7266
461.343	35.4456
464.718	31.0908
468.093	32.7557
471.468	40.4938
474.842	55.1451
478.217	81.0108
481.592	110.789
484.967	145.804
488.342	187.607
491.716	220.536
495.091	203.165
498.466	156.16
501.841	110.361
505.216	91.0897
508.591	85.9176
511.965	98.876
515.34	133.092
518.715	189.591
522.09	229.104
525.465	197.286
528.84	148.322
532.214	123.63
535.589	89.7412
538.964	48.7677
542.339	23.5639
545.713	8.40649
549.088	1.44307
552.463	0.165604
555.838	2.80022
559.213	3.23563
562.588	2.34653
565.962	1.39493
569.337	0.518723
572.712	1.15001
576.087	0.129822
579.462	0.498734
582.837	3.62068
586.211	3.347
589.586	2.83194
592.961	4.14792
596.336	5.05954
599.711	4.76321
603.085	6.01924
606.46	7.65819
609.835	9.3503
613.21	11.3377
616.585	12.2821
619.96	14.1253
623.334	12.1646
626.709	14.2189
630.084	17.2738
633.459	21.7533
636.833	28.3112
640.208	40.8672
643.583	53.5738
646.958	74.3331
650.333	96.7734
653.708	103.55
657.082	91.5568
660.457	58.1701
663.832	30.289
667.207	15.791
670.582	8.53566
673.957	6.01918
677.331	5.40039
680.706	3.05331
684.081	2.08635
687.456	1.01555
690.831	0.424942
694.205	3.83295
697.58	6.74042
700.955	3.44421
704.33	3.35637
707.705	5.15167
711.079	14.8523
714.454	21.7478
717.829	10.8639
721.204	10.4937
724.579	11.4183
727.953	5.25034
731.328	0.541122
734.703	0.356735
738.078	0.400467
741.453	0.569061
744.828	0.989441
748.202	0.095032
751.577	0.339172
754.952	1.04518
758.327	1.24783
761.702	0.241989
765.077	1.38156
768.451	1.22458
771.826	1.71672
775.201	1.94771
778.576	2.22534
781.951	2.20662
785.325	2.65993
788.7	3.75783
792.075	2.66858
795.45	3.23027
798.825	4.02881
802.199	4.40297
805.574	2.45576
808.949	2.48982
812.324	3.40744
815.699	5.86192
819.073	5.13081
822.448	5.63049
825.823	4.97675
829.198	4.50554
832.573	5.53377
835.948	5.83632
839.322	8.76828
842.697	8.03922
846.072	5.40074
849.447	8.19658
852.822	7.61807
856.197	9.45944
859.571	8.91483
862.946	12.2406
866.321	10.2356
869.696	8.91401
873.071	9.13597
876.445	8.72677
879.82	9.24578
883.195	8.43881
886.57	5.50484
889.945	2.62627
893.319	3.37312
896.694	2.28809
900.069	1.40538
903.444	0.406265
906.819	0.91893
910.193	0.0634
913.568	1.02516
916.943	2.44354
920.318	0.056763
923.693	0.711746
927.068	0.797409
930.442	3.5611
933.817	8.68938
937.192	11.5564
940.567	20.945
943.942	30.2976
947.317	45.8602
950.691	69.6273
954.066	102.967
957.441	153.367
960.816	217.234
964.191	299.928
967.565	388.609
970.94	450.747
974.315	443.336
977.69	417.331
981.065	404.105
984.439	397.095
987.814	376.366
991.189	361.339
994.564	407.898
997.939	535.68
1001.31	770.619
1004.69	1078.39
1008.06	1131.69
1011.44	801.657
1014.81	489.918
1018.19	276.731
1021.56	159.853
1024.94	101.673
1028.31	65.431
1031.69	40.6467
1035.06	27.2165
1038.44	15.634
1041.81	9.66931
1045.19	4.28708
1048.56	5.04823
1051.94	2.95509
1055.31	2.15907
1058.68	2.33254
1062.06	0.272385
1065.43	1.63585
1068.81	3.21038
1072.18	3.67575
1075.56	6.70546
1078.93	18.0064
1082.31	41.2356
1085.68	102.722
1089.06	174.077
1092.43	102.965
1095.81	96.5798
1099.18	66.5064
1102.56	24.828
1105.93	6.38387
1109.31	2.5524
1112.68	2.28323
1116.06	2.72708
1119.43	2.04919
1122.81	1.44158
1126.18	0.968018
1129.56	1.72826
1132.93	1.37018
1136.31	0.89267
1139.68	1.91283
1143.06	2.45807
1146.43	1.72107
1149.81	0.495781
1153.18	2.30608
1156.56	2.15877
1159.93	1.92718
1163.31	1.21998
1166.68	2.18813
1170.05	1.9483
1173.43	3.23995
1176.8	2.35983
1180.18	2.16451
1183.55	1.25088
1186.93	1.79898
1190.3	0.351921
1193.68	1.78965
1197.05	2.10667
1200.43	3.29674
1203.8	2.47762
1207.18	5.38065
1210.55	7.27924
1213.93	8.6152
1217.3	7.96024
1220.68	6.51139
1224.05	6.19978
1227.43	3.53148
1230.8	4.5582
1234.18	1.2512
1237.55	2.34865
1240.92	0.224335
1244.3	0.51886
1247.67	2.97571
1251.05	0.982529
1254.42	3.94765
1257.8	6.04362
1261.17	4.81847
1264.55	5.54454
1267.92	4.7739
1271.3	6.05936
1274.67	2.44395
1278.05	4.08513
1281.42	3.43671
1284.8	0
