Measurement: Raman, 532 nm, unoriented, Raman Data Processed
Mineral: Hardystonite
Rruff sample: R040026
Ideal chemistry: Ca_2_ZnSi_2_O_7_
Locality: Franklin, Sussex County, New Jersey, USA
Source: University of Arizona Mineral Museum
Description: White massive
Measured chemistry: (Ca_1.98_Mn_0.02_)_Σ=2_(Zn_0.99_Al_0.01_)_Σ=1_(Si_1.99_Al_0.01_)_Σ=2_O_7_
Raman shift (cm-1)	intensity
117.512	0
120.887	3.34126
124.262	18.1279
127.636	21.805
131.011	27.0128
134.386	26.8853
137.761	31.3924
141.136	37.233
144.511	41.8265
147.885	34.2538
151.26	26.1664
154.635	24.7544
158.01	20.0993
161.385	23.255
164.76	21.4789
168.134	13.7782
171.509	10.6876
174.884	9.56995
178.259	2.10492
181.634	2.70889
185.008	3.59345
188.383	2.89276
191.758	5.23099
195.133	2.65054
198.508	0.996979
201.882	11.3415
205.257	23.7801
208.632	39.5652
212.007	58.5264
215.382	71.6143
218.756	82.8563
222.131	91.691
225.506	93.3588
228.881	94.1629
232.256	100.275
235.631	107.687
239.005	112.175
242.38	118.861
245.755	116.378
249.13	106.695
252.505	101.276
255.88	97.4252
259.254	93.3234
262.629	91.6312
266.004	91.8448
269.379	90.0111
272.754	85.455
276.128	74.0356
279.503	60.7465
282.878	47.962
286.253	36.2243
289.628	31.1201
293.002	25.0578
296.377	23.8757
299.752	30.9205
303.127	37.2612
306.502	47.5058
309.877	53.7614
313.251	59.2616
316.626	59.9419
320.001	52.7159
323.376	41.9344
326.751	36.6895
330.125	28.9649
333.5	23.2117
336.875	17.6568
340.25	10.4231
343.625	4.56982
347	2.05099
350.374	3.78497
353.749	4.3656
357.124	8.10086
360.499	4.57605
363.874	3.38306
367.248	1.81027
370.623	6.24417
373.998	18.1615
377.373	26.7921
380.748	37.3041
384.123	49.997
387.497	60.3572
390.872	73.804
394.247	80.5923
397.622	91.5247
400.997	94.0968
404.371	93.4305
407.746	86.2828
411.121	71.5899
414.496	51.2379
417.871	33.5937
421.245	20.0743
424.62	8.43387
427.995	10.5784
431.37	17.1116
434.745	29.8473
438.12	56.2308
441.494	71.7328
444.869	81.7733
448.244	68.3542
451.619	61.4979
454.994	62.6129
458.368	65.2481
461.743	75.0546
465.118	92.0849
468.493	114.209
471.868	139.435
475.243	167.777
478.617	180.977
481.992	180.482
485.367	164.454
488.742	136.225
492.117	107.3
495.491	75.1778
498.866	49.4755
502.241	31.8912
505.616	21.11
508.991	9.96652
512.365	8.52414
515.74	5.39911
519.115	1.07938
522.49	5.24747
525.865	4.34711
529.24	3.89761
532.614	10.0186
535.989	15.0198
539.364	18.356
542.739	24.4256
546.114	30.1685
549.489	25.8469
552.863	15.7844
556.238	1.05292
559.613	7.10321
562.988	6.85333
566.363	9.20721
569.737	9.09641
573.112	0.564362
576.487	7.71652
579.862	15.3213
583.237	34.1677
586.611	59.7715
589.986	84.712
593.361	127.045
596.736	194.201
600.111	299.761
603.486	446.199
606.86	653.172
610.235	884.767
613.61	988.719
616.985	837.102
620.36	596.064
623.734	437.551
627.109	330.813
630.484	264.093
633.859	215.872
637.234	208.025
640.609	245.354
643.983	339.726
647.358	513.901
650.733	789.473
654.108	1159.76
657.483	1644.38
660.857	2028.69
664.232	1936.91
667.607	1416.8
670.982	950.088
674.357	636.576
677.731	421.271
681.106	267.753
684.481	159.848
687.856	95.1973
691.231	51.6461
694.606	27.4913
697.98	9.26758
701.355	0.564575
704.73	5.23236
708.105	5.16827
711.48	5.45276
714.855	0.913635
718.229	0.822571
721.604	1.83783
724.979	5.4259
728.354	10.7754
731.729	12.6796
735.103	15.8505
738.478	19.9474
741.853	24.781
745.228	25.3618
748.603	29.1021
751.977	33.5966
755.352	30.5561
758.727	28.2318
762.102	31.6308
765.477	28.7357
768.852	25.184
772.226	19.2031
775.601	20.0878
778.976	12.5554
782.351	14.3906
785.726	8.60455
789.1	6.93823
792.475	3.53973
795.85	1.15933
799.225	0.304291
802.6	0.371613
805.975	3.97418
809.349	1.08249
812.724	1.34399
816.099	2.86792
819.474	2.49332
822.849	1.12503
826.223	3.60712
829.598	4.98172
832.973	4.74622
836.348	13.9504
839.723	15.2047
843.097	19.3621
846.472	16.1442
849.847	18.429
853.222	17.0245
856.597	19.0366
859.972	15.9203
863.346	13.6913
866.721	18.5828
870.096	29.4611
873.471	45.5907
876.846	66.5073
880.221	102.611
883.595	164.083
886.97	260.634
890.345	423.347
893.72	695.872
897.095	1118.36
900.469	1664.02
903.844	2278.03
907.219	2584.36
910.594	2096.8
913.969	1340.09
917.343	805.589
920.718	490.31
924.093	300.192
927.468	192.338
930.843	131.821
934.217	100.315
937.592	85.4329
940.967	70.3961
944.342	56.8998
947.717	41.2761
951.092	26.9311
954.466	18.335
957.841	7.35864
961.216	1.07983
964.591	2.67822
967.966	3.86578
971.341	1.70111
974.715	1.39197
978.09	1.11755
981.465	3.31659
984.84	9.9967
988.215	10.0815
991.589	13.7478
994.964	9.89008
998.339	12.5646
1001.71	12.7842
1005.09	16.3245
1008.46	24.9636
1011.84	21.2417
1015.21	18.9838
1018.59	24.7882
1021.96	21.042
1025.34	17.1675
1028.71	5.893
1032.09	4.40692
1035.46	1.35522
1038.84	0.040161
1042.21	2.17169
1045.59	0.769531
1048.96	0.143555
1052.34	0.246094
1055.71	0.340637
1059.09	0.341064
1062.46	0.141907
1065.84	5.56439
1069.21	3.73132
1072.59	12.2946
1075.96	19.2282
1079.34	27.4713
1082.71	37.5488
1086.08	41.6822
1089.46	26.2004
1092.83	13.9258
1096.21	9.34576
1099.58	8.01593
1102.96	6.05255
1106.33	1.7901
1109.71	4.83008
1113.08	4.98071
1116.46	5.6936
1119.83	6.59283
1123.21	10.855
1126.58	11.9422
1129.96	16.7553
1133.33	18.7216
1136.71	22.1403
1140.08	26.9087
1143.46	29.156
1146.83	33.7327
1150.21	35.2088
1153.58	39.0321
1156.95	41.8049
1160.33	48.0371
1163.7	48.1651
1167.08	49.3638
1170.45	47.3332
1173.83	44.9708
1177.2	44.5437
1180.58	39.2894
1183.95	41.408
1187.33	31.3672
1190.7	28.2592
1194.08	22.5358
1197.45	17.9741
1200.83	15.7688
1204.2	12.8999
1207.58	7.9137
1210.95	4.0719
1214.33	5.75781
1217.7	6.95428
1221.08	8.18976
1224.45	4.54504
1227.83	5.82147
1231.2	7.91431
1234.58	4.65448
1237.95	2.60803
1241.33	0.235046
1244.7	3.21112
1248.08	2.55438
1251.45	1.2594
1254.83	1.3714
1258.2	0.605042
1261.58	1.66419
1264.95	3.57941
1268.32	3.35657
1271.7	2.42188
1275.07	3.52264
1278.45	2.22528
1281.82	2.54126
1285.2	3.85529
1288.57	3.37848
1291.95	0.754578
