Measurement: Raman, 514 nm, unoriented, Raman Data Processed
Mineral: Hardystonite
Rruff sample: R040026
Ideal chemistry: Ca_2_ZnSi_2_O_7_
Locality: Franklin, Sussex County, New Jersey, USA
Source: University of Arizona Mineral Museum
Description: White massive
Measured chemistry: (Ca_1.98_Mn_0.02_)_Σ=2_(Zn_0.99_Al_0.01_)_Σ=1_(Si_1.99_Al_0.01_)_Σ=2_O_7_
Raman shift (cm-1)	intensity
112.864	0
117.034	72.043
121.203	84.78
125.369	492.616
129.534	884.231
133.696	1074.93
137.857	818.887
142.016	497.995
146.172	329.768
150.327	260.789
154.48	286.946
158.63	274.431
162.779	272.353
166.926	402.188
171.07	471.599
175.213	258.466
179.354	229.75
183.493	285.752
187.63	283.769
191.765	221.69
195.898	304.738
200.029	259.523
204.158	351.37
208.285	477.34
212.41	38.716
216.533	121.522
220.654	158.803
224.773	220.592
228.891	313.907
233.006	451.694
237.119	547.329
241.231	758.425
245.34	838.214
249.448	939.511
253.553	1157.67
257.657	1347.1
261.758	1473.1
265.858	1827.84
269.956	2190.43
274.052	2631.11
278.146	2738.08
282.237	2740.21
286.327	2346.05
290.416	2127.57
294.502	1921.49
298.586	2092.65
302.668	2237.93
306.749	2567.22
310.827	3120.49
314.903	2851.66
318.978	2516.71
323.051	1949.57
327.121	1398.51
331.19	1018.65
335.257	709.835
339.322	573.768
343.385	462.429
347.446	259.779
351.505	245.783
355.563	86.721
359.618	46.938
363.672	148.681
367.723	157.478
371.773	5.13
375.821	47.642
379.866	25.351
383.91	84.745
387.952	55.61
391.992	116.004
396.031	38.904
400.067	13.215
404.101	80.212
408.134	194.703
412.165	24.125
416.193	71.645
420.22	41.604
424.245	162.533
428.268	48.999
432.289	58.563
436.309	137.569
440.326	353.256
444.342	410.812
448.355	558.163
452.367	544.273
456.377	504.161
460.385	734.899
464.391	1023.41
468.395	1220.68
472.398	1389.61
476.398	1410.26
480.397	1663.55
484.394	1776.48
488.389	1522.03
492.382	1101.29
496.373	977.219
500.362	735.789
504.349	728.053
508.335	553.964
512.319	374.016
516.3	369.859
520.28	327.098
524.259	348.263
528.235	288.497
532.209	407.391
536.182	480.524
540.152	534.723
544.121	544.116
548.088	570.609
552.053	666.741
556.017	278.561
559.978	397.876
563.938	307.455
567.895	207.382
571.851	237.539
575.805	287.614
579.758	241.893
583.708	204.972
587.657	492.094
591.603	784.944
595.548	853.014
599.491	1221.84
603.432	2229.28
607.372	4493.51
611.309	7285.39
615.245	7481.63
619.179	5797.7
623.111	3989.58
627.041	3064.42
630.97	2309.78
634.896	2022.75
638.821	2086.93
642.744	2216.68
646.665	2744.36
650.584	4258.2
654.502	7782.59
658.418	12774
662.331	16791.7
666.244	14170.6
670.154	9265.56
674.062	6337.3
677.969	4329.68
681.874	2720.05
685.777	1880.29
689.678	1233.99
693.577	977.389
697.475	565.531
701.371	454.613
705.265	161.521
709.157	367.157
713.047	122.321
716.936	296.333
720.823	410.965
724.708	187.935
728.591	401.028
732.472	261.316
736.352	31.188
740.23	125.495
744.106	43.848
747.98	29.826
751.853	55.463
755.723	104.641
759.592	145.182
763.459	33.156
767.325	186.32
771.188	53.447
775.05	62.621
778.91	36.168
782.768	9.738
786.625	46.918
790.479	125.125
794.332	47.002
798.183	55.566
802.033	117.775
805.88	260.559
809.726	209.986
813.57	168.006
817.413	81.625
821.253	329.965
825.092	340.051
828.929	325.887
832.764	454.527
836.598	405.031
840.429	523.59
844.259	494.041
848.088	449.596
851.914	648.025
855.739	565.35
859.562	677.826
863.383	911.951
867.203	756.312
871.02	856.973
874.836	1162.06
878.65	1359.97
882.463	1746.45
886.274	2315.48
890.083	3392.93
893.89	4817.07
897.695	7924.34
901.499	14290.6
905.301	22893.3
909.102	24810.1
912.9	17427.2
916.697	10598.3
920.492	6277.72
924.285	3873.09
928.077	2839.98
931.867	2053.49
935.655	1728.46
939.442	1948.88
943.226	1621.57
947.009	1246.37
950.791	1144.26
954.57	1012.61
958.348	735.002
962.124	687.109
965.899	699.262
969.671	592.082
973.442	482.674
977.211	760.244
980.979	721.188
984.745	1161.18
988.509	1117.93
992.271	1331.41
996.032	1395.45
999.791	1609.62
1003.55	1196.69
1007.3	1361.69
1011.06	1231.06
1014.81	1029.98
1018.56	737.775
1022.31	878.398
1026.06	874.148
1029.8	619.863
1033.55	728.033
1037.29	638.686
1041.03	730.875
1044.77	836.307
1048.5	567.27
1052.24	383.328
1055.97	526.584
1059.7	456.176
1063.43	372.027
1067.16	360.754
1070.89	193.559
1074.61	187.432
1078.34	11.84
1082.06	212.916
1085.78	338.086
1089.5	272.799
1093.21	132.902
1096.93	104.232
1100.64	105.744
1104.35	52.424
1108.06	203.434
1111.77	158.615
1115.48	44.445
1119.18	74.836
1122.89	643.504
1126.59	350.424
1130.29	70.1
1133.99	10.033
1137.68	374.57
1141.38	73.547
1145.07	204.123
1148.76	134.561
1152.45	102.352
1156.14	175.783
1159.83	42.041
1163.51	185.615
1167.19	383.574
1170.88	311.889
1174.56	107.367
1178.23	128.777
1181.91	166.471
1185.59	324.346
1189.26	377.645
1192.93	214.93
1196.6	280.521
1200.27	322.01
1203.94	486.273
1207.6	263.691
1211.27	161.564
1214.93	169.15
1218.59	129.357
1222.25	255.102
1225.9	339.818
1229.56	106.047
1233.21	295.404
1236.86	371.107
1240.51	408.404
1244.16	338.916
1247.81	479.064
1251.45	457.152
1255.1	250.938
1258.74	75.082
1262.38	78.461
1266.02	294.055
1269.66	274.395
1273.29	241.887
1276.93	157.76
1280.56	363.475
1284.19	220.098
1287.82	315.857
1291.45	9.166
1295.07	122.725
1298.7	51.008
1302.32	67.58
1305.94	189.438
1309.56	165.891
1313.18	12.254
1316.8	149.537
1320.41	51.094
1324.02	116.77
1327.63	260.203
1331.24	129.363
1334.85	219.734
1338.46	166.092
1342.06	277.047
1345.67	237.975
1349.27	497.391
1352.87	627.125
1356.47	706.414
1360.07	755.004
1363.66	344.77
1367.25	379.625
1370.85	517.277
1374.44	390.281
1378.03	478.809
1381.61	436.371
1385.2	537.012
1388.78	524.574
1392.37	720.508
1395.95	652.105
1399.53	403.461
1403.1	492.133
1406.68	348.969
1410.26	447.297
1413.83	573.461
1417.4	407.016
1420.97	649.777
1424.54	419.852
1428.1	455.234
1431.67	318.191
1435.23	713.219
1438.8	745.391
1442.36	632.656
1445.91	509.68
1449.47	633.129
1453.03	849.559
1456.58	1021.7
1460.13	678.074
1463.68	560.988
1467.23	524.172
1470.78	567.672
1474.33	468.277
1477.87	300.836
1481.42	490.844
1484.96	471.723
1488.5	420.785
1492.04	274.242
1495.57	626.387
1499.11	243.996
1502.64	292.262
1506.17	290.996
1509.71	112.336
1513.23	378.617
1516.76	95.664
1520.29	123.535
1523.81	114.746
1527.34	0
