Measurement: Raman, 532 nm, unoriented, Raman Data Processed
Mineral: Harmotome
Rruff sample: R070015
Ideal chemistry: Ba_2_(Si_12_Al_4_)O_32_12H_2_O
Locality: Old Kilpatrick, Dumbartonshire, Scotland
Source: Michael Scott
Description: Colorless blocky crystals
Measured chemistry: (Ba_1.98_Ti_0.02_)_Σ=2_(Si_11.67_Al_4.33_)O_32_·12H_2_OK_0.16_Na_0.11_Ca_0.01_; H_2_O estimated by difference
Raman shift (cm-1)	intensity
148.735	0
152.109	75.8628
155.484	41.6577
158.859	16.1172
162.234	40.2524
165.609	62.4678
168.983	96.7212
172.358	140.345
175.733	193.818
179.108	284.75
182.483	282.5
185.858	383.021
189.232	363.369
192.607	345.679
195.982	317.545
199.357	294.084
202.732	227.86
206.107	136.656
209.481	122.003
212.856	130.708
216.231	26.3403
219.606	3.51733
222.981	48.7317
226.355	3.50244
229.73	23.0254
233.105	73.1074
236.48	15.7339
239.855	22.8455
243.23	53.6641
246.604	85.4334
249.979	76.0713
253.354	103.994
256.729	112.515
260.103	169.329
263.478	166.895
266.853	199.133
270.228	225.049
273.603	203.756
276.978	255.596
280.352	238.37
283.727	270.252
287.102	220.981
290.477	250.757
293.852	237.968
297.226	215.185
300.601	240.137
303.976	261.676
307.351	266.648
310.726	304.611
314.101	364.056
317.475	395.908
320.85	388.633
324.225	343.513
327.6	384.322
330.975	343.385
334.349	304.305
337.724	229.468
341.099	204.802
344.474	179.935
347.849	115.005
351.224	88.8272
354.598	38.727
357.973	59.8821
361.348	25.6685
364.723	6.90894
368.098	62.7419
371.473	71.9751
374.847	38.6282
378.222	54.3062
381.597	52.8125
384.972	24.0837
388.347	8.85156
391.721	68.4202
395.096	94.9648
398.471	155.203
401.846	288.892
405.221	495.151
408.596	605.517
411.97	832.583
415.345	1114.77
418.72	1425.7
422.095	1697.34
425.47	1942.21
428.844	1773.45
432.219	1454.47
435.594	1132.37
438.969	996.122
442.344	1049.79
445.719	1242.31
449.093	1576.96
452.468	2063.99
455.843	2725.25
459.218	3536.11
462.593	4453.49
465.967	5330.57
469.342	6124.86
472.717	6761.68
476.092	7414.84
479.467	7978.64
482.841	8613.82
486.216	8739.09
489.591	8043.12
492.966	6591.79
496.341	4843.19
499.716	3160.59
503.09	1932.62
506.465	1139.81
509.84	676.939
513.215	388.404
516.59	298.988
519.965	156.759
523.339	107.15
526.714	79.0503
530.089	107.581
533.464	83.1924
536.839	129.988
540.213	81.6279
543.588	92.1821
546.963	41.2905
550.338	4.71387
553.713	21.3975
557.087	13.9231
560.462	4.77197
563.837	51.3972
567.212	27.7905
570.587	31.2505
573.962	46.3513
577.336	23.6982
580.711	2.62109
584.086	32.709
587.461	63.3042
590.836	67.4626
594.21	99.1987
597.585	113.153
600.96	133.128
604.335	175.598
607.71	186.618
611.085	225.333
614.459	269.832
617.834	231.745
621.209	255.57
624.584	271.871
627.959	244.023
631.333	215.263
634.708	200.995
638.083	184.832
641.458	164.469
644.833	172.72
648.208	163.172
651.582	155.658
654.957	122.016
658.332	127.368
661.707	120.27
665.082	77.9746
668.457	100.82
671.831	49.5549
675.206	51.5618
678.581	40.7815
681.956	41.0139
685.331	6.58228
688.705	20.792
692.08	38.9329
695.455	22.4316
698.83	7.61475
702.205	5.51099
705.58	0.35376
708.954	102.096
712.329	68.2632
715.704	127.13
719.079	115.846
722.454	158.434
725.828	193.386
729.203	173.206
732.578	207.377
735.953	159.411
739.328	161.957
742.702	140.379
746.077	153.214
749.452	179.202
752.827	221.242
756.202	245.364
759.577	309.466
762.951	380.061
766.326	403.255
769.701	465.576
773.076	447.338
776.451	364.966
779.825	329.237
783.2	292.834
786.575	238.867
789.95	175.289
793.325	165.554
796.699	148.535
800.074	119.85
803.449	88.9021
806.824	66.6497
810.199	37.0381
813.574	47.3494
816.948	27.0176
820.323	42.9827
823.698	28.7847
827.073	38.7278
830.448	23.113
833.822	36.7698
837.197	52.2778
840.572	55.2517
843.947	8.59424
847.322	23.5186
850.697	1.48169
854.071	46.4966
857.446	9.26977
860.821	36.4995
864.196	96.4788
867.571	74.3291
870.946	45.873
874.32	56.564
877.695	93.5374
881.07	28.7817
884.445	56.1287
887.82	108.232
891.194	82.3381
894.569	85.0601
897.944	44.043
901.319	111.694
904.694	70.5469
908.068	53.7498
911.443	68.1987
914.818	47.6438
918.193	72.3125
921.568	115.727
924.943	21.9558
928.317	37.3196
931.692	96.7305
935.067	34.6846
938.442	84.9036
941.817	13.7444
945.192	14.7087
948.566	29.8061
951.941	5.37305
955.316	9.45654
958.691	5.78564
962.066	15.0078
965.44	33.0713
968.815	33.3379
972.19	38.0342
975.565	24.6157
978.94	15.4492
982.314	102.837
985.689	107.864
989.064	92.8135
992.439	49.4365
995.814	62.3374
999.189	76.5332
1002.56	76.147
1005.94	93.6269
1009.31	46.7822
1012.69	71.8975
1016.06	49.8032
1019.44	61.1899
1022.81	17.6753
1026.19	0.19043
1029.56	9.94385
1032.94	10.3765
1036.31	66.7705
1039.69	27.5977
1043.06	22.4302
1046.44	23.5928
1049.81	36.2524
1053.19	39.0562
1056.56	34.7446
1059.93	8.25146
1063.31	10.9556
1066.68	96.4878
1070.06	167.377
1073.43	256.007
1076.81	273.418
1080.18	365.397
1083.56	462.15
1086.93	521.939
1090.31	545.31
1093.68	631.52
1097.06	571.322
1100.43	626.196
1103.81	688.429
1107.18	680.415
1110.56	680.893
1113.93	685.445
1117.31	618.216
1120.68	641.539
1124.06	632.37
1127.43	607.316
1130.81	556.409
1134.18	527.716
1137.56	475.752
1140.93	436.637
1144.31	421.842
1147.68	300.205
1151.06	293.447
1154.43	251.964
1157.81	217.692
1161.18	154.767
1164.56	157.499
1167.93	145.385
1171.3	123.26
1174.68	20.0723
1178.05	83.5723
1181.43	51.6001
1184.8	13.9717
1188.18	1.17383
1191.55	16.481
1194.93	35.3174
1198.3	25.1528
1201.68	30.148
1205.05	10.7602
1208.43	18.9761
1211.8	26.4102
1215.18	20.4971
1218.55	20.6758
1221.93	6.89795
1225.3	65.9048
1228.68	42.8066
1232.05	87.48
1235.43	43.8955
1238.8	73.7759
1242.17	43.2788
1245.55	90.7954
1248.92	108.585
1252.3	74.8115
1255.67	61.1953
1259.05	70.3794
1262.42	94.4648
1265.8	90.7231
1269.17	77.8467
1272.55	79.9263
1275.92	109.996
1279.3	63.6641
1282.67	85.2256
1286.05	85.5923
1289.42	46.0034
1292.8	14.3926
1296.17	29.5015
1299.55	56.4683
1302.92	48.6372
1306.3	8.90039
1309.67	46.9741
1313.05	6.63184
1316.42	35.3852
