Measurement: Raman, 532 nm, unoriented, Raman Data Processed
Mineral: Harmotome
Rruff sample: R070016
Ideal chemistry: Ba_2_(Si_12_Al_4_)O_32_12H_2_O
Locality: Idar-Oberstein, Germany
Source: Michael Scott
Description: Colorless to milky-white prismatic crystals
Raman shift (cm-1)	intensity
152.591	0
155.966	36.353
159.341	167.328
162.716	588.117
166.091	968.753
169.466	1405.66
172.84	1896.64
176.215	2181.92
179.59	2436.41
182.965	2559.54
186.34	2455.98
189.714	2318.69
193.089	2086
196.464	1864.17
199.839	1599.18
203.214	1244.43
206.589	739.219
209.963	423.692
213.338	255.627
216.713	144.197
220.088	9.82178
223.463	13.9473
226.838	19.3169
230.212	28.3608
233.587	31.9209
236.962	16.6562
240.337	82.8667
243.712	114.701
247.086	168.372
250.461	244.769
253.836	243.557
257.211	347.299
260.586	441.307
263.961	425.172
267.335	502.347
270.71	558.535
274.085	577.982
277.46	599.685
280.835	646.817
284.209	572.068
287.584	540.591
290.959	582.284
294.334	532.306
297.709	542.44
301.084	497.708
304.458	622.688
307.833	756.787
311.208	929.842
314.583	1076.43
317.958	1221.17
321.332	1090.5
324.707	1095.92
328.082	1071.49
331.457	971.195
334.832	840.236
338.207	700.129
341.581	496.51
344.956	386.557
348.331	301.181
351.706	154.831
355.081	139.397
358.455	67.4663
361.83	23.04
365.205	14.3896
368.58	53.3613
371.955	77.0029
375.329	2.08838
378.704	96.5088
382.079	18.7192
385.454	19.4936
388.829	10.669
392.204	115.081
395.578	244.683
398.953	434
402.328	535.354
405.703	762.987
409.078	1019.18
412.452	1170.46
415.827	1350.1
419.202	1731.97
422.577	2055.6
425.952	2270.74
429.327	2277.04
432.701	1799.27
436.076	1553.22
439.451	1468.98
442.826	1625.45
446.201	1843.74
449.575	2340.63
452.95	3104.87
456.325	3999.01
459.7	5060.78
463.075	6336.87
466.45	7467.9
469.824	8524.89
473.199	9349.21
476.574	10297.3
479.949	11348.6
483.324	12425.8
486.698	12702
490.073	11667
493.448	9580.72
496.823	6733.38
500.198	4377.73
503.572	2643.87
506.947	1462.02
510.322	835.569
513.697	419.977
517.072	252.185
520.447	106.84
523.821	56.4336
527.196	17.9482
530.571	20.6724
533.946	32.5708
537.321	37.1113
540.696	58.3237
544.07	79.2085
547.445	88.8813
550.82	101.819
554.195	15.9287
557.57	23.541
560.944	28.6968
564.319	41.3247
567.694	53.9556
571.069	10.625
574.444	34.8486
577.818	10.8193
581.193	12.9673
584.568	5.75732
587.943	30.7786
591.318	111.567
594.693	89.7371
598.067	116.106
601.442	162.413
604.817	158.725
608.192	248.123
611.567	256.403
614.942	298.201
618.316	305.609
621.691	283.512
625.066	248.119
628.441	290.902
631.816	263.425
635.19	294.974
638.565	239.78
641.94	178.903
645.315	220.774
648.69	172.038
652.064	157.739
655.439	143.949
658.814	133.194
662.189	131.731
665.564	129.39
668.939	77.4878
672.313	136.896
675.688	166.666
679.063	59.157
682.438	53.8164
685.813	37.9009
689.188	48.7593
692.562	23.8503
695.937	30.7222
699.312	61.6167
702.687	114.107
706.062	82.3975
709.436	185.762
712.811	341.649
716.186	372.296
719.561	447.265
722.936	527.305
726.311	609.614
729.685	599.555
733.06	580.216
736.435	485.794
739.81	508.638
743.185	398.673
746.559	339.596
749.934	360.199
753.309	380.948
756.684	521.217
760.059	543.804
763.433	647.331
766.808	708.921
770.183	662.884
773.558	675.207
776.933	633.606
780.308	521.571
783.682	479.717
787.057	379.284
790.432	280.541
793.807	261.971
797.182	170.418
800.557	89.5007
803.931	105.855
807.306	13.8398
810.681	28.7695
814.056	44.5701
817.431	33.2058
820.805	3.52588
824.18	16.4712
827.555	3.67114
830.93	45.374
834.305	0.551514
837.679	64.1267
841.054	12.1887
844.429	23.2449
847.804	43.2393
851.179	84.2698
854.553	88.1328
857.928	83.5493
861.303	96.6399
864.678	103.32
868.053	86.4082
871.428	130.289
874.802	139.374
878.177	48.5835
881.552	114.043
884.927	115.513
888.302	95.2478
891.677	150.294
895.051	28.2146
898.426	60.1697
901.801	104.854
905.176	116.687
908.551	98.3169
911.925	96.2363
915.3	93.9919
918.675	87.6631
922.05	125.898
925.425	93.426
928.799	77.9136
932.174	116.571
935.549	141.54
938.924	71.8682
942.299	81.0161
945.674	85.436
949.048	12.1514
952.423	49.1626
955.798	3.95508
959.173	19.3174
962.548	11.8921
965.923	4.73242
969.297	21.7295
972.672	12.2925
976.047	17.2241
979.422	19.4385
982.797	95.2002
986.171	72.0859
989.546	164.282
992.921	137.823
996.296	139.648
999.671	131.255
1003.05	197.621
1006.42	178.825
1009.79	163.364
1013.17	148.688
1016.54	122.456
1019.92	167.925
1023.29	166.491
1026.67	129.915
1030.04	183.359
1033.42	130.594
1036.79	79.6133
1040.17	58.9009
1043.54	15.0918
1046.92	19.7217
1050.29	64.8887
1053.67	31.7476
1057.04	31.4434
1060.42	26.4746
1063.79	47.3491
1067.17	156.363
1070.54	229.633
1073.92	405.208
1077.29	486.779
1080.67	588.642
1084.04	681.894
1087.42	791.975
1090.79	887.616
1094.17	978.302
1097.54	978.968
1100.91	973.396
1104.29	1015.14
1107.66	1003.1
1111.04	932.637
1114.41	949.55
1117.79	871.98
1121.16	871.62
1124.54	800.512
1127.91	795.269
1131.29	771.494
1134.66	734.787
1138.04	620.742
1141.41	549.789
1144.79	538.924
1148.16	436.75
1151.54	417.463
1154.91	318.624
1158.29	302.614
1161.66	195.692
1165.04	208.336
1168.41	185.663
1171.79	97.0107
1175.16	83.5762
1178.54	61.5073
1181.91	55.7031
1185.29	2.79199
1188.66	65.8823
1192.04	16.6055
1195.41	20.8877
1198.79	14.1587
1202.16	19.4526
1205.54	25.52
1208.91	23.0889
1212.28	0.002441
1215.66	27.2222
1219.03	39.0581
1222.41	79.7314
1225.78	70.0288
1229.16	94.1348
1232.53	68.5991
1235.91	100.969
1239.28	34.7563
1242.66	107.044
1246.03	82.5625
1249.41	95.0098
1252.78	149.101
1256.16	116.51
1259.53	147.265
1262.91	126.964
1266.28	105.497
1269.66	88.4419
1273.03	133.649
1276.41	68.3711
1279.78	49.8555
1283.15	77.3457
1286.53	98.3608
1289.9	76.5195
1293.28	50.7085
1296.65	49.2441
1300.03	91.5596
1303.4	102.083
1306.78	34.0615
1310.15	27.7783
1313.53	70.2939
1316.9	19.8657
