Measurement: Raman, 785 nm, unoriented, Raman Data Processed
Mineral: Harmotome
Rruff sample: R070015
Ideal chemistry: Ba_2_(Si_12_Al_4_)O_32_12H_2_O
Locality: Old Kilpatrick, Dumbartonshire, Scotland
Source: Michael Scott
Description: Colorless blocky crystals
Measured chemistry: (Ba_1.98_Ti_0.02_)_Σ=2_(Si_11.67_Al_4.33_)O_32_·12H_2_OK_0.16_Na_0.11_Ca_0.01_; H_2_O estimated by difference
Raman shift (cm-1)	intensity
154.094	0
156.987	0.451172
159.879	1.98779
162.772	149.288
165.665	463.096
168.557	699.528
171.45	940.358
174.343	1017.55
177.236	1083.88
180.128	1071.28
183.021	1073.02
185.914	1053.11
188.806	1030.55
191.699	925.327
194.592	871.951
197.484	822.676
200.377	694.684
203.27	593.451
206.162	413.225
209.055	301.601
211.948	206.474
214.841	116.242
217.733	56.5579
220.626	117.872
223.519	22.3477
226.411	10.844
229.304	1.19897
232.197	35.1482
235.089	42.9678
237.982	27.9873
240.875	49.6079
243.768	43.7234
246.66	30.0908
249.553	43.9358
252.446	43.7081
255.338	99.2076
258.231	121.797
261.124	128.711
264.017	159.141
266.909	170.917
269.802	190.35
272.695	164.569
275.587	217.263
278.48	217.506
281.373	196.054
284.265	208.308
287.158	245.146
290.051	267.869
292.943	241.5
295.836	206.02
298.729	211.946
301.622	213.337
304.514	267.364
307.407	319.795
310.3	322.113
313.192	345.813
316.085	412.81
318.978	422.038
321.87	387.009
324.763	435.367
327.656	419.121
330.549	368.006
333.441	362.454
336.334	301.73
339.227	171.172
342.119	178.054
345.012	124.397
347.905	96.2734
350.798	39.3226
353.69	37.2316
356.583	58.9609
359.476	38.3795
362.368	39.3196
365.261	20.6534
368.154	14.7579
371.046	36.5112
373.939	47.4937
376.832	15.3322
379.724	30.332
382.617	1.46973
385.51	17.8438
388.403	36.5649
391.295	97.2207
394.188	98.2562
397.081	211.056
399.973	307.699
402.866	368.45
405.759	441.567
408.651	497.227
411.544	574.537
414.437	587.641
417.329	715.308
420.222	746.266
423.115	854.825
426.008	906.886
428.9	769.462
431.793	648.149
434.686	510.735
437.578	468.654
440.471	450.439
443.364	498.211
446.257	650.606
449.149	905.275
452.042	1217.54
454.935	1518.91
457.827	2075.71
460.72	2582.89
463.613	3162.37
466.505	3752.72
469.398	4197.5
472.291	4518
475.183	4934.25
478.076	5408.11
480.969	5853.31
483.862	6200.87
486.754	6066.2
489.647	5627.09
492.54	4680.73
495.432	3635.73
498.325	2550.36
501.218	1682.44
504.111	1097.5
507.003	680.816
509.896	404.846
512.789	252.021
515.681	144.723
518.574	142.991
521.467	55.5952
524.359	36.5764
527.252	5.40527
530.145	28.9066
533.038	57.179
535.93	13.6326
538.823	55.4582
541.716	4.5387
544.608	53.0286
547.501	30.6986
550.394	5.58911
553.286	53.0161
556.179	23.9579
559.072	5.65149
561.965	5.95642
564.857	18.2109
567.75	32.2915
570.643	32.5161
573.535	39.5023
576.428	2.74719
579.321	4.1134
582.213	6.80432
585.106	15.7867
587.999	20.1205
590.891	38.7307
593.784	43.5228
596.677	35.2128
599.57	54.8802
602.462	97.996
605.355	136.667
608.248	160.018
611.14	140.086
614.033	124.922
616.926	151.055
619.818	162.528
622.711	147.594
625.604	147.255
628.497	162.41
631.389	134.127
634.282	124.827
637.175	140.066
640.067	112.749
642.96	141.204
645.853	118.756
648.745	86.4407
651.638	55.9159
654.531	71.2656
657.424	41.2676
660.316	70.6009
663.209	43.0286
666.102	33.8399
668.994	31.446
671.887	32.2766
674.78	7.08905
677.673	31.2991
680.565	8.50879
683.458	28.1182
686.351	6.24976
689.243	13.2737
692.136	18.7882
695.029	9.72858
697.921	15.706
700.814	43.9859
703.707	47.0988
706.6	46.2294
709.492	66.854
712.385	58.7684
715.278	122.701
718.17	115.637
721.063	188.52
723.956	190.288
726.848	204.551
729.741	229.4
732.634	163.957
735.527	186.326
738.419	188.698
741.312	153.979
744.205	143.605
747.097	110.365
749.99	143.159
752.883	141.938
755.775	218.462
758.668	246.241
761.561	263.262
764.453	328.221
767.346	341.226
770.239	308.598
773.131	332.109
776.024	273.045
778.917	260.687
781.81	219.469
784.702	188.652
787.595	151.963
790.488	100.312
793.38	95.7933
796.273	104.93
799.166	46.724
802.058	40.035
804.951	44.2706
807.844	33.4597
810.737	9.41479
813.629	31.1828
816.522	36.8859
819.415	0.03418
822.307	24.8893
825.2	28.7463
828.093	10.5355
830.986	12.1075
833.878	9.15424
836.771	6.93445
839.664	7.04486
842.556	56.5692
845.449	29.0313
848.342	10.3762
851.234	15.8851
854.127	21.9003
857.02	37.532
859.913	30.8638
862.805	39.5966
865.698	68.9204
868.591	19.3207
871.483	34.6509
874.376	50.8876
877.269	23.2628
880.161	71.1002
883.054	43.1476
885.947	7.59723
888.84	42.8806
891.732	64.5763
894.625	44.3622
897.518	73.4003
900.41	87.7903
903.303	55.9616
906.196	29.9889
909.088	37.5364
911.981	62.3434
914.874	72.641
917.766	60.8731
920.659	64.0868
923.552	66.8889
926.445	70.6328
929.337	49.8455
932.23	24.741
935.123	28.0213
938.015	37.0109
940.908	51.2432
943.801	11.2216
946.693	29.1775
949.586	21.0292
952.479	38.0651
955.372	4.83026
958.264	12.978
961.157	8.81952
964.05	23.1541
966.942	46.8434
969.835	2.62183
972.728	42.255
975.62	37.7814
978.513	14.6444
981.406	7.53876
984.299	40.1915
987.191	51.8253
990.084	67.4753
992.977	66.0375
995.869	43.6086
998.762	37.9512
1001.65	63.0642
1004.55	41.3494
1007.44	66.6078
1010.33	79.973
1013.23	63.3513
1016.12	71.6914
1019.01	77.2335
1021.9	70.7399
1024.8	53.5947
1027.69	29.9462
1030.58	3.37292
1033.47	78.9802
1036.37	79.9244
1039.26	68.9786
1042.15	36.4213
1045.05	20.8777
1047.94	6.37256
1050.83	11.388
1053.72	14.5476
1056.62	9.68805
1059.51	13.7994
1062.4	34.7985
1065.29	47.2238
1068.19	79.1606
1071.08	109.797
1073.97	137.545
1076.87	195.78
1079.76	215.638
1082.65	268.771
1085.54	269.64
1088.44	318.761
1091.33	336.002
1094.22	310.562
1097.11	378.486
1100.01	355.264
1102.9	343.882
1105.79	406.663
1108.68	365.353
1111.58	383.803
1114.47	326.921
1117.36	381.014
1120.26	438.091
1123.15	374.083
1126.04	327.947
1128.93	337.958
1131.83	360.729
1134.72	284.079
1137.61	267.442
1140.5	244.094
1143.4	206.529
1146.29	193.112
1149.18	186.579
1152.08	163.901
1154.97	139.411
1157.86	134.146
1160.75	144.336
1163.65	49.5019
1166.54	89.1421
1169.43	55.6152
1172.32	43.7626
1175.22	8.31451
1178.11	34.2932
1181	39.6756
1183.89	39.352
1186.79	12.4641
1189.68	18.2942
1192.57	8.55939
1195.47	27.5734
1198.36	7.00629
1201.25	25.4452
1204.14	1.29065
1207.04	45.7877
1209.93	33.4254
1212.82	11.1536
1215.71	25.3222
1218.61	63.1177
1221.5	16.2699
1224.39	65.7537
1227.29	31.0429
1230.18	49.5096
1233.07	20.9257
1235.96	0.082458
1238.86	27.9447
1241.75	22.2172
1244.64	0.393005
