Measurement: Raman, 785 nm, unoriented, Raman Data Processed
Mineral: Harmotome
Rruff sample: R070016
Ideal chemistry: Ba_2_(Si_12_Al_4_)O_32_12H_2_O
Locality: Idar-Oberstein, Germany
Source: Michael Scott
Description: Colorless to milky-white prismatic crystals
Raman shift (cm-1)	intensity
155.058	0
157.951	28.2341
160.844	39.7776
163.736	276.618
166.629	553.887
169.522	728.504
172.414	877.254
175.307	999.644
178.2	1058.48
181.092	1091.19
183.985	1088.15
186.878	1105.33
189.77	1071.27
192.663	1016.28
195.556	1027.49
198.449	932.162
201.341	809.273
204.234	650.38
207.127	502.789
210.019	367.566
212.912	291.031
215.805	157.991
218.697	131.134
221.59	111.103
224.483	52.1965
227.376	39.1626
230.268	12.6672
233.161	3.32739
236.054	39.3023
238.946	5.40015
241.839	58.9187
244.732	18.45
247.625	47.968
250.517	3.1919
253.41	44.8648
256.303	68.4265
259.195	108.099
262.088	142.77
264.981	173.707
267.873	153.972
270.766	127.429
273.659	146.354
276.551	155.458
279.444	112.906
282.337	113.464
285.23	153.142
288.122	135.553
291.015	131.731
293.908	133.856
296.8	150.844
299.693	187.104
302.586	183.041
305.478	280.334
308.371	403.776
311.264	454.663
314.157	544.17
317.049	603.972
319.942	590.537
322.835	563.04
325.727	528.383
328.62	512.812
331.513	487.149
334.406	391.445
337.298	356.396
340.191	242.771
343.084	244.412
345.976	162.734
348.869	106.149
351.762	65.9596
354.654	17.6472
357.547	39.3231
360.44	38.6034
363.332	22.9663
366.225	45.5038
369.118	13.4114
372.011	46.5562
374.903	26.8652
377.796	4.78345
380.689	6.29456
383.581	4.18848
386.474	6.37939
389.367	5.37451
392.26	28.4338
395.152	97.4651
398.045	102.525
400.938	186.508
403.83	267.773
406.723	308.224
409.616	395.616
412.508	487.3
415.401	602.375
418.294	808.325
421.187	920.252
424.079	1029.18
426.972	1063.75
429.865	1033.06
432.757	895.228
435.65	752.913
438.543	699.92
441.435	716.612
444.328	783.31
447.221	1005.25
450.113	1224.93
453.006	1508.47
455.899	1779.59
458.792	2167.75
461.684	2602.39
464.577	3073.18
467.47	3356.62
470.362	3612.2
473.255	3682.83
476.148	3832.04
479.041	3976.86
481.933	4221.59
484.826	4345.78
487.719	4274.94
490.611	3870.23
493.504	3207.61
496.397	2368.38
499.289	1646.22
502.182	1016.1
505.075	633.318
507.967	413.771
510.86	230.301
513.753	127.983
516.646	66.9656
519.538	12
522.431	24.386
525.324	28.1946
528.216	6.3147
531.109	7.35547
534.002	26.624
536.894	40.0421
539.787	107.178
542.68	54.4885
545.573	91.6982
548.465	81.8112
551.358	46.2495
554.251	35.1704
557.143	6.42346
560.036	5.87061
562.929	14.7795
565.821	15.2823
568.714	24.1594
571.607	35.4174
574.5	8.95715
577.392	5.62866
580.285	35.2516
583.178	5.36548
586.07	0.203003
588.963	28.8951
591.856	41.9988
594.748	44.1622
597.641	53.5129
600.534	102.902
603.427	111.278
606.319	86.4416
609.212	114.153
612.105	115.298
614.997	98.3958
617.89	106.294
620.783	131.683
623.675	130.699
626.568	79.438
629.461	104.5
632.354	122.326
635.246	91.08
638.139	124.819
641.032	104.508
643.924	62.4327
646.817	86.2353
649.71	76.4163
652.602	70.6291
655.495	79.7848
658.388	29.6219
661.28	83.5648
664.173	53.0001
667.066	59.9176
669.959	78.507
672.851	24.9723
675.744	57.3856
678.637	50.7644
681.529	59.2826
684.422	33.1586
687.315	38.0178
690.207	1.31165
693.1	1.69995
695.993	9.09546
698.886	20.567
701.778	17.9259
704.671	50.4591
707.564	30.6964
710.456	51.384
713.349	42.7299
716.242	144.539
719.135	135.069
722.027	191.419
724.92	203.206
727.813	206.679
730.705	204.593
733.598	175.604
736.491	205.984
739.383	179.832
742.276	143.258
745.169	130.625
748.062	139.991
750.954	119.806
753.847	156.977
756.74	173.738
759.632	222.216
762.525	240.37
765.418	270.854
768.31	285.476
771.203	298.11
774.096	268.26
776.989	210.425
779.881	170.982
782.774	209.881
785.667	147.387
788.559	128.18
791.452	92.0768
794.345	73.327
797.237	71.7814
800.13	48.1808
803.023	47.0028
805.915	37.2889
808.808	33.8278
811.701	21.9067
814.594	44.7273
817.486	52.6238
820.379	12.9168
823.272	25.7037
826.164	1.63464
829.057	1.4773
831.95	54.4154
834.842	23.4936
837.735	43.3438
840.628	20.443
843.521	38.0608
846.413	29.583
849.306	35.662
852.199	35.5483
855.091	15.7006
857.984	26.5532
860.877	43.4661
863.769	33.3352
866.662	30.042
869.555	69.3339
872.448	31.5877
875.34	79.7236
878.233	35.4654
881.126	64.8398
884.018	41.0432
886.911	65.1476
889.804	49.5914
892.697	98.9814
895.589	37.7401
898.482	84.2264
901.375	30.892
904.267	63.6296
907.16	53.5452
910.053	27.2971
912.945	39.0074
915.838	25.8644
918.731	43.5846
921.624	32.767
924.516	16.5303
927.409	78.7661
930.302	40.8906
933.194	71.8615
936.087	32.043
938.98	53.0275
941.872	18.2256
944.765	0.403931
947.658	12.376
950.55	5.10455
953.443	28.354
956.336	13.9296
959.229	4.83282
962.121	16.5187
965.014	27.1876
967.907	25.7812
970.799	11.3849
973.692	5.99805
976.585	41.0914
979.477	10.3569
982.37	13.3354
985.263	22.5011
988.155	0.94104
991.048	28.0395
993.941	42.4542
996.834	56.8466
999.726	52.2811
1002.62	79.7982
1005.51	43.8174
1008.4	78.8285
1011.3	79.3658
1014.19	36.8738
1017.08	81.7719
1019.98	64.7747
1022.87	42.4215
1025.76	24.0475
1028.65	45.9441
1031.55	64.266
1034.44	13.2748
1037.33	64.2246
1040.22	52.7504
1043.12	0.066406
1046.01	45.934
1048.9	29.869
1051.8	17.2057
1054.69	21.2492
1057.58	6.49146
1060.47	6.92419
1063.37	23.7596
1066.26	12.4021
1069.15	85.0704
1072.04	80.1887
1074.94	74.6581
1077.83	145.087
1080.72	153.612
1083.62	227.602
1086.51	204.195
1089.4	186.311
1092.29	232.024
1095.18	231.333
1098.08	247.501
1100.97	257.232
1103.86	198.829
1106.76	218.181
1109.65	196.046
1112.54	222.378
1115.43	193.792
1118.33	208.036
1121.22	185.475
1124.11	168.161
1127.01	165.098
1129.9	163.353
1132.79	131.161
1135.68	112.21
1138.58	121.574
1141.47	129.085
1144.36	98.6338
1147.25	78.7472
1150.15	54.3734
1153.04	84.4537
1155.93	84.657
1158.83	57.2154
1161.72	52.2468
1164.61	36.3006
1167.5	10.0442
1170.4	62.5388
1173.29	2.47162
1176.18	11.4817
1179.07	0.219849
1181.97	19.6317
1184.86	8.15942
1187.75	21.0665
1190.64	12.5523
1193.54	1.10724
1196.43	29.5794
1199.32	11.9127
1202.21	2.79541
1205.11	9.52332
1208	34.0652
1210.89	45.7567
1213.79	14.525
1216.68	23.7074
1219.57	46.6071
1222.46	65.1172
1225.36	59.665
1228.25	88.0632
1231.14	80.2023
1234.04	28.2803
1236.93	27.0135
1239.82	17.4066
1242.71	1.48517
1245.61	9.84998
