Measurement: Raman, 532 nm, unoriented, Raman Data Processed
Mineral: Hashemite
Rruff sample: R100120
Ideal chemistry: BaCr^6+^O_4_
Locality: 60 kilometers south east of Aman, West Central Jordan
Source: William W. Pinch
Description: Doubly-terminated to tabular brown crystals with striations, associated with calcite and elongated yellow amorphous minerals.
Raman shift (cm-1)	intensity
91.0352	0
94.41	0.044247
97.7848	1.94986
101.16	3.11445
104.534	3.58116
107.909	5.48522
111.284	5.94211
114.659	6.08371
118.034	3.8527
121.409	3.64003
124.783	0.499434
128.158	0.707776
131.533	0.367637
134.908	0.928437
138.283	3.93963
141.657	15.9813
145.032	26.1981
148.407	32.1842
151.782	38.9267
155.157	49.306
158.532	52.2013
161.906	53.3565
165.281	60.1217
168.656	67.8205
172.031	71.6973
175.406	66.0152
178.78	58.9869
182.155	49.9423
185.53	42.82
188.905	39.283
192.28	34.7194
195.655	32.0535
199.029	30.2367
202.404	25.4773
205.779	24.481
209.154	22.9705
212.529	22.1559
215.904	19.5206
219.278	19.8723
222.653	18.8772
226.028	18.5687
229.403	20.0369
232.778	19.7845
236.152	15.0569
239.527	15.0127
242.902	13.3265
246.277	10.5759
249.652	9.80031
253.026	6.91832
256.401	7.07706
259.776	5.16528
263.151	4.12864
266.526	1.81311
269.901	1.24351
273.276	0.176575
276.65	1.25655
280.025	2.75502
283.4	3.90365
286.775	3.93526
290.15	3.30835
293.524	2.22469
296.899	1.33971
300.274	0.747658
303.649	3.05108
307.024	7.29217
310.399	15.6128
313.773	25.6311
317.148	40.849
320.523	60.2965
323.898	94.9385
327.273	157.725
330.647	283.512
334.022	526.038
337.397	793.239
340.772	1110.38
344.147	1642.38
347.522	2459.19
350.896	2888.04
354.271	1978.64
357.646	1507.69
361.021	1368.94
364.396	894.422
367.77	443.827
371.145	211.702
374.52	100.99
377.895	55.266
381.27	49.1806
384.644	82.7667
388.019	193.595
391.394	297.284
394.769	433.947
398.144	600.845
401.519	928.382
404.894	886.963
408.268	284.026
411.643	214.509
415.018	115.226
418.393	83.7287
421.767	107.646
425.142	159.518
428.517	125.152
431.892	44.4388
435.267	17.331
438.642	9.95168
442.017	5.55823
445.391	4.82466
448.766	0.440491
452.141	5.88544
455.516	5.0107
458.891	3.07399
462.265	1.34412
465.64	1.71877
469.015	2.20064
472.39	0.307419
475.765	0.221939
479.139	1.50864
482.514	2.93763
485.889	5.12603
489.264	6.2801
492.639	8.31578
496.014	10.6983
499.388	10.9203
502.763	12.3502
506.138	14.0323
509.513	13.92
512.888	13.8369
516.263	13.8605
519.637	13.9775
523.012	13.1013
526.387	12.8192
529.762	9.52969
533.137	9.30052
536.511	9.66176
539.886	7.78316
543.261	8.00933
546.636	7.29311
550.011	5.51835
553.386	6.59154
556.76	4.52649
560.135	5.41034
563.51	4.3159
566.885	3.89823
570.26	3.86543
573.635	3.24961
577.009	2.00425
580.384	2.44179
583.759	2.25856
587.134	0.793142
590.509	1.56899
593.883	1.34954
597.258	1.60898
600.633	2.84516
604.008	3.19072
607.383	4.2722
610.758	4.08292
614.132	5.92751
617.507	4.88497
620.882	1.74458
624.257	0.776793
627.632	1.96505
631.006	1.15177
634.381	2.51638
637.756	1.28217
641.131	0.203869
644.506	1.71631
647.881	0.453392
651.255	0.575552
654.63	0.089115
658.005	0.827148
661.38	1.4482
664.755	1.3135
668.13	2.45533
671.504	2.93694
674.879	5.09816
678.254	5.65398
681.629	6.48682
685.004	6.88418
688.378	8.29461
691.753	7.62236
695.128	8.21249
698.503	8.37642
701.878	8.75006
705.253	8.97368
708.627	8.90898
712.002	9.37881
715.377	9.6774
718.752	9.92088
722.127	12.3168
725.501	11.4366
728.876	12.3442
732.251	12.122
735.626	11.8187
739.001	12.9582
742.375	12.52
745.75	12.0376
749.125	11.7849
752.5	11.8613
755.875	11.5209
759.25	11.3086
762.625	8.33042
765.999	7.3071
769.374	6.71458
772.749	4.50449
776.124	3.11213
779.499	2.2657
782.873	1.48571
786.248	0.024612
789.623	1.23194
792.998	2.1405
796.373	3.68333
799.747	3.88089
803.122	3.09165
806.497	4.20789
809.872	3.24571
813.247	2.09297
816.621	3.1513
819.996	14.3384
823.371	28.6212
826.746	46.9503
830.121	69.3555
833.496	96.2403
836.87	145.812
840.245	238.634
843.62	405.531
846.995	776.169
850.37	1635.81
853.745	2706.02
857.119	4362.83
860.494	7190.07
863.869	7778.26
867.244	3560.41
870.619	2867.72
873.994	2059.05
877.368	1135.24
880.743	1052.93
884.118	1148.89
887.493	835.351
890.868	601.565
894.242	626.878
897.617	751.74
900.992	884.472
904.367	1090.33
907.742	1031.82
911.116	549.652
914.491	283.481
917.866	172.263
921.241	114.537
924.616	84.5054
927.991	64.0365
931.365	44.0248
934.74	26.2758
938.115	15.866
941.49	10.2253
944.865	1.99506
948.24	1.29923
951.614	4.85807
954.989	4.90884
958.364	4.76844
961.739	5.70895
965.114	5.22719
968.489	3.10921
971.863	11.7557
975.238	28.9355
978.613	63.9488
981.988	64.9455
985.362	10.2836
988.737	4.39903
992.112	3.06239
995.487	5.41176
998.862	8.08142
1002.24	9.81887
1005.61	11.7941
1008.99	11.151
1012.36	11.8608
1015.74	11.0802
1019.11	11.2662
1022.49	9.88878
1025.86	5.92408
1029.23	4.63826
1032.61	4.10871
1035.98	2.80432
1039.36	2.83801
1042.73	3.13219
1046.11	3.45927
1049.48	3.0738
1052.86	1.5115
1056.23	0.173817
1059.61	1.3393
1062.98	0.279369
1066.36	0.551064
1069.73	0.655037
1073.11	0.319473
1076.48	1.66485
1079.86	0.109066
1083.23	1.49453
1086.61	2.27535
1089.98	1.06177
1093.36	0.040066
1096.73	0.973854
1100.11	0.124046
1103.48	0.756279
1106.86	2.69124
1110.23	1.69642
1113.61	1.68856
1116.98	2.11045
1120.36	2.20152
1123.73	2.02882
1127.11	2.16466
1130.48	2.51003
1133.86	3.31237
1137.23	0.741879
1140.6	0.653061
1143.98	1.29981
1147.35	0.592014
1150.73	0.136368
1154.1	0.660629
1157.48	0.160772
1160.85	0.466372
1164.23	0.298649
1167.6	0.439003
1170.98	0.032284
1174.35	0.601297
1177.73	1.11891
1181.1	0.873545
1184.48	1.52104
1187.85	1.66046
1191.23	3.26802
1194.6	3.17961
1197.98	4.28417
1201.35	4.67447
1204.73	4.60116
1208.1	4.57298
1211.48	4.75925
1214.85	5.46185
1218.22	5.45118
1221.6	5.07179
1224.97	3.85524
1228.35	4.04352
1231.72	3.81051
1235.1	4.4336
1238.47	4.47639
1241.85	4.81578
1245.22	3.26502
1248.6	3.41187
1251.97	3.99069
1255.35	2.61967
1258.72	3.14087
1262.1	4.20147
1265.47	2.65354
1268.85	2.67726
1272.22	4.00142
1275.6	3.15645
1278.97	1.20047
1282.35	1.55201
1285.72	1.29981
1289.1	0.643688
1292.47	0.892124
1295.85	0.776325
1299.22	0.913532
1302.6	0
