Measurement: Raman, 780 nm, unoriented, Raman Data Processed
Mineral: Hashemite
Rruff sample: R100120
Ideal chemistry: BaCr^6+^O_4_
Locality: 60 kilometers south east of Aman, West Central Jordan
Source: William W. Pinch
Description: Doubly-terminated to tabular brown crystals with striations, associated with calcite and elongated yellow amorphous minerals.
Raman shift (cm-1)	intensity
96.873	0
100.248	0.187675
103.623	1.5913
106.997	3.61159
110.372	9.60632
113.747	8.99608
117.122	6.48134
120.497	6.97662
123.871	5.68886
127.246	6.75061
130.621	9.39614
133.996	8.299
137.371	5.5659
140.746	3.10461
144.12	1.18771
147.495	1.53623
150.87	1.09531
154.245	0.003914
157.62	0.226288
160.994	0.961264
164.369	1.46357
167.744	1.52123
171.119	4.19982
174.494	4.63421
177.869	3.37894
181.243	4.03186
184.618	5.22566
187.993	4.91834
191.368	5.63998
194.743	5.97909
198.117	6.40903
201.492	5.51824
204.867	5.86285
208.242	5.92234
211.617	5.6745
214.992	7.20744
218.366	5.76635
221.741	5.96964
225.116	5.85017
228.491	5.47985
231.866	5.93099
235.24	4.89504
238.615	6.19893
241.99	3.50455
245.365	5.12778
248.74	3.71891
252.114	1.7882
255.489	1.19568
258.864	2.05642
262.239	0.859806
265.614	0.33358
268.988	1.13037
272.363	0.369518
275.738	0.056234
279.113	0.294163
282.488	0.600821
285.863	0.531918
289.237	0.764193
292.612	0.217737
295.987	0.42893
299.362	0.959278
302.737	0.488432
306.111	0.446716
309.486	2.72397
312.861	3.02912
316.236	5.59253
319.611	10.4214
322.986	15.738
326.36	26.3493
329.735	44.9083
333.11	69.6028
336.485	101.631
339.86	144.654
343.234	202.809
346.609	273.79
349.984	321.39
353.359	292.993
356.734	286.402
360.108	270.663
363.483	184.138
366.858	98.6539
370.233	49.5553
373.608	25.4565
376.983	13.931
380.357	12.8112
383.732	21.5277
387.107	31.7832
390.482	43.9604
393.857	64.467
397.231	89.0435
400.606	134.117
403.981	98.9699
407.356	41.2449
410.731	28.5378
414.106	15.6724
417.48	10.607
420.855	10.6283
424.23	14.1561
427.605	9.18252
430.98	2.56438
434.354	0.604338
437.729	0.646843
441.104	0.107384
444.479	0.30036
447.854	0.375294
451.228	1.64112
454.603	0.467564
457.978	0.456261
461.353	0.94791
464.728	0.263607
468.103	0.096746
471.477	0.894271
474.852	0.048877
478.227	1.20291
481.602	0.657594
484.977	0.904116
488.351	0.270609
491.726	0.858206
495.101	1.92653
498.476	1.07952
501.851	1.21828
505.226	0.647027
508.6	2.00729
511.975	1.38041
515.35	1.89024
518.725	2.7922
522.1	2.73361
525.474	3.54198
528.849	2.02735
532.224	1.15427
535.599	2.6298
538.974	2.62765
542.348	1.71285
545.723	1.26638
549.098	1.5484
552.473	2.13055
555.848	1.92273
559.222	2.52748
562.597	0.669307
565.972	1.43544
569.347	0.593102
572.722	1.48373
576.097	0.36038
579.471	0.919657
582.846	0.41116
586.221	1.10282
589.596	1.23023
592.971	1.32389
596.346	0.849505
599.72	1.90552
603.095	2.02329
606.47	2.51147
609.845	1.65803
613.22	2.85689
616.594	1.99572
619.969	2.41566
623.344	2.53319
626.719	1.9279
630.094	1.63029
633.468	1.0774
636.843	2.24909
640.218	0.339378
643.593	0.621118
646.968	0.569666
650.342	0.795147
653.717	0.993749
657.092	0.311787
660.467	0.455981
663.842	1.24433
667.217	0.779591
670.591	0.971251
673.966	1.92129
677.341	1.28831
680.716	1.35977
684.091	1.46145
687.466	0.463921
690.84	2.59383
694.215	0.288991
697.59	0.825315
700.965	1.30546
704.34	0.848403
707.714	1.36261
711.089	1.52274
714.464	1.51158
717.839	2.12784
721.214	0.125108
724.588	1.40615
727.963	0.52326
731.338	2.52883
734.713	2.96929
738.088	1.21525
741.462	2.22893
744.837	2.88733
748.212	1.37402
751.587	0.591228
754.962	1.65128
758.337	0.027516
761.711	0.169443
765.086	0.703783
768.461	0.620565
771.836	0.727026
775.211	0.255604
778.586	0.122999
781.96	0.303423
785.335	0.49913
788.71	0.014423
792.085	1.06866
795.46	1.74771
798.834	0.539444
802.209	0.009686
805.584	0.301626
808.959	1.01337
812.334	2.05289
815.708	3.40437
819.083	5.77778
822.458	9.56021
825.833	12.338
829.208	16.5006
832.582	23.4806
835.957	31.5195
839.332	53.1096
842.707	92.1476
846.082	174.298
849.457	274.852
852.831	388.144
856.206	554.761
859.581	743.784
862.956	539.647
866.331	270.08
869.706	184.972
873.08	104.702
876.455	64.7167
879.83	55.1985
883.205	57.1748
886.58	60.0401
889.954	71.2141
893.329	90.2705
896.704	100.448
900.079	89.4461
903.454	75.9726
906.828	52.7123
910.203	31.25
913.578	17.7675
916.953	13.161
920.328	5.92558
923.702	5.13885
927.077	4.10764
930.452	1.83466
933.827	1.19276
937.202	0.644827
940.577	1.16331
943.951	0.046543
947.326	0.092098
950.701	0.112984
954.076	0.891034
957.451	0.783648
960.825	0.660401
964.2	1.3722
967.575	2.01081
970.95	2.13107
974.325	7.03168
977.699	12.1153
981.074	9.90089
984.449	5.4614
987.824	5.7846
991.199	4.93152
994.574	4.8967
997.948	4.8724
1001.32	6.02398
1004.7	5.68055
1008.07	4.9119
1011.45	4.9014
1014.82	4.34099
1018.2	3.5479
1021.57	2.10576
1024.95	0.174873
1028.32	0.267033
1031.7	0.485818
1035.07	0.725359
1038.45	1.03937
1041.82	0.103158
1045.2	0.637476
1048.57	0.982707
1051.94	0.105165
1055.32	0.422133
1058.69	1.14176
1062.07	1.42301
1065.44	1.45773
1068.82	0.94168
1072.19	0.864908
1075.57	0.872865
1078.94	0.967884
1082.32	1.08239
1085.69	3.04877
1089.07	0.914814
1092.44	0.749843
1095.82	1.22191
1099.19	0.542487
1102.57	0.012583
1105.94	0.536758
1109.32	0.680207
1112.69	1.04133
1116.07	0.830446
1119.44	0.209589
1122.82	1.44773
1126.19	0.914926
1129.57	0.586098
1132.94	0.526872
1136.32	1.27397
1139.69	0.515502
1143.07	0.672216
1146.44	0.628695
1149.82	1.19126
1153.19	0.972069
1156.57	0.745811
1159.94	0.229114
1163.31	0.819109
1166.69	0.30193
1170.06	0.168736
1173.44	0.4249
1176.81	0.781725
1180.19	0.311091
1183.56	0.621128
1186.94	0.744994
1190.31	0.667185
1193.69	0.865564
1197.06	0.489779
1200.44	0.64263
1203.81	0.066795
1207.19	1.07545
1210.56	0.657939
1213.94	0.865361
1217.31	0.813167
1220.69	1.11088
1224.06	0.882032
1227.44	0.342439
1230.81	1.46127
1234.18	1.76354
1237.56	0.18721
1240.93	1.71438
1244.31	2.4171
1247.68	2.39425
1251.06	1.09281
1254.43	0.770997
1257.81	0.644367
1261.18	0.89214
1264.56	1.22384
1267.93	2.00966
1271.31	0.420896
1274.68	0.280616
1278.06	0.561807
1281.43	0.193377
1284.81	0
