Measurement: Raman, 780 nm, unoriented, Raman Data Processed
Mineral: Hatchite
Rruff sample: R100058
Ideal chemistry: AgPbTlAs_2_S_5_
Locality: Lengenbach quarry, Binnental, Canton Wallis, Switzerland
Source: William W Pinch
Description: Black euhedral crystal embedded in white dolomite with red realgar
Raman shift (cm-1)	intensity
92.4974	0
95.8722	61.7715
99.2471	18.2106
102.622	1.12634
105.997	73.1088
109.371	191.525
112.746	371.105
116.121	598.36
119.496	960.189
122.871	1315.21
126.246	1610.83
129.62	1995.52
132.995	2409.92
136.37	2868.77
139.745	2991.4
143.12	1798.78
146.494	859.261
149.869	524.374
153.244	429.109
156.619	419.472
159.994	446.539
163.369	493.749
166.743	521.268
170.118	497.046
173.493	467.055
176.868	439.563
180.243	453.235
183.618	491.093
186.992	472.445
190.367	351.653
193.742	211.376
197.117	118.838
200.492	59.3775
203.866	20.0169
207.241	2.28113
210.616	27.6253
213.991	36.6906
217.366	41.4706
220.74	33.3422
224.115	20.7455
227.49	0.003784
230.865	36.9215
234.24	90.6455
237.615	155.078
240.989	219.182
244.364	323.893
247.739	350.889
251.114	382.352
254.489	386.998
257.863	353.432
261.238	275.207
264.613	155.584
267.988	54.1658
271.363	22.9424
274.738	43.8856
278.112	13.1284
281.487	76.6201
284.862	232.624
288.237	429.121
291.612	664.001
294.986	888.87
298.361	1093.51
301.736	1238.25
305.111	1358.84
308.486	1406.33
311.861	1403.04
315.235	1371.04
318.61	1370.74
321.985	1486.81
325.36	1671.51
328.735	1933.24
332.109	2210.28
335.484	2473.59
338.859	2716.88
342.234	2913.86
345.609	3156.22
348.984	3518.91
352.358	3992.32
355.733	4652.52
359.108	5687.8
362.483	7349.36
365.858	9700.65
369.233	11630.9
372.607	12577
375.982	13375.4
379.357	14143.5
382.732	15055.7
386.106	13061.8
389.481	6894.4
392.856	2842.88
396.231	1180.76
399.606	395.908
402.981	96.8882
406.355	11.8458
409.73	55.1439
413.105	62.7088
416.48	58.0966
419.855	46.315
423.229	21.336
426.604	0.55838
429.979	28.4
433.354	53.8505
436.729	84.4507
440.104	108.193
443.478	138.056
446.853	163.048
450.228	186.759
453.603	212.172
456.978	232.666
460.353	257.222
463.727	278.56
467.102	282.982
470.477	277.172
473.852	259.211
477.227	241.06
480.601	219.145
483.976	206.292
487.351	187.667
490.726	177.036
494.101	166.138
497.476	152.175
500.85	140.94
504.225	127.84
507.6	114.8
510.975	104.551
514.35	92.6655
517.724	84.3214
521.099	71.248
524.474	61.7475
527.849	51.6363
531.224	43.1986
534.598	34.645
537.973	27.5008
541.348	24.0642
544.723	20.0949
548.098	17.8199
551.472	12.7274
554.847	12.8528
558.222	10.7385
561.597	8.09168
564.972	5.68133
568.347	3.17459
571.721	17.7848
575.096	2.43774
578.471	0.745575
581.846	0.137466
585.221	0.482361
588.596	1.34114
591.97	2.74466
595.345	5.9586
598.72	3.92682
602.095	1.37228
605.47	2.5571
608.845	3.48839
612.219	0.781494
615.594	1.61154
618.969	0.814819
622.344	0.609711
625.719	8.87991
629.093	4.31735
632.468	10.0241
635.843	11.0434
639.218	13.4521
642.593	13.2246
645.967	16.9597
649.342	16.9834
652.717	20.5779
656.092	19.4878
659.467	19.7671
662.842	21.8507
666.216	21.6509
669.591	20.7506
672.966	22.8618
676.341	24.6948
679.716	25.1437
683.091	24.5632
686.465	23.8268
689.84	25.7956
693.215	24.6896
696.59	26.0061
699.965	27.0595
703.339	25.2296
706.714	25.4118
710.089	22.8625
713.464	22.3184
716.839	21.8579
720.213	19.8405
723.588	17.707
726.963	21.0536
730.338	18.7661
733.713	20.7122
737.087	21.2142
740.462	20.7383
743.837	21.0216
747.212	20.5044
750.587	18.1363
753.962	16.3747
757.336	11.381
760.711	12.3102
764.086	9.94083
767.461	9.47076
770.836	4.76933
774.211	5.42271
777.585	1.27086
780.96	2.08485
784.335	0.433975
787.71	1.41591
791.085	1.34416
794.459	1.86127
797.834	0.799332
801.209	1.91208
804.584	2.2395
807.959	4.8689
811.333	4.62294
814.708	5.44182
818.083	5.96388
821.458	9.34602
824.833	9.5457
828.208	9.72141
831.582	9.88522
834.957	11.2577
838.332	10.873
841.707	12.3244
845.082	11.9479
848.457	10.5491
851.831	8.49139
855.206	9.0997
858.581	8.37059
861.956	7.84695
865.331	6.57628
868.705	5.66428
872.08	6.7095
875.455	5.08247
878.83	4.99216
882.205	5.9789
885.58	3.01184
888.954	3.6505
892.329	3.77821
895.704	1.25156
899.079	22.7173
902.454	2.39662
905.828	3.11363
909.203	2.78979
912.578	3.00119
915.953	1.57037
919.328	4.09502
922.702	0.415558
926.077	2.15797
929.452	0.753952
932.827	0.847977
936.202	0.348831
939.577	0.058411
942.951	0.519745
946.326	0.636536
949.701	0.463623
953.076	0.538147
956.451	1.58379
959.825	2.00909
963.2	1.21263
966.575	0.463989
969.95	0.28476
973.325	1.004
976.699	0.304565
980.074	0.913834
983.449	1.25188
986.824	0.373901
990.199	1.33284
993.574	1.0873
996.948	8.85512
1000.32	1.40826
1003.7	1.01723
1007.07	1.82744
1010.45	0.618912
1013.82	2.07576
1017.2	1.56609
1020.57	8.302
1023.95	2.38072
1027.32	0.794281
1030.7	2.2019
1034.07	0.765213
1037.45	1.57387
1040.82	0.442566
1044.2	3.2867
1047.57	2.92537
1050.94	1.92848
1054.32	3.42857
1057.69	2.53683
1061.07	2.13286
1064.44	1.98762
1067.82	2.17415
1071.19	2.4301
1074.57	1.83885
1077.94	2.77989
1081.32	3.0228
1084.69	3.10194
1088.07	2.75491
1091.44	2.42712
1094.82	1.92717
1098.19	1.36374
1101.57	3.09312
1104.94	2.29475
1108.32	1.60933
1111.69	3.44354
1115.07	1.03066
1118.44	0.795731
1121.82	0.958389
1125.19	1.57213
1128.57	2.32639
1131.94	1.23811
1135.32	1.86659
1138.69	1.65645
1142.07	2.7587
1145.44	2.56828
1148.82	3.767
1152.19	3.31535
1155.57	3.39314
1158.94	1.66302
1162.31	2.96307
1165.69	0.93251
1169.06	1.65952
1172.44	1.25919
1175.81	0.947189
1179.19	3.60162
1182.56	2.52617
1185.94	1.06351
1189.31	1.08998
1192.69	1.83312
1196.06	3.18162
1199.44	2.16635
1202.81	2.88478
1206.19	3.74071
1209.56	2.43686
1212.94	0.996979
1216.31	2.12819
1219.69	2.74234
1223.06	1.53694
1226.44	1.13609
1229.81	2.90305
1233.19	2.19934
1236.56	1.35307
1239.93	2.63158
1243.31	1.92145
1246.68	2.32867
1250.06	0.397186
1253.43	1.19655
1256.81	0.178711
1260.18	2.19119
1263.56	2.88882
1266.93	0.948181
1270.31	0.281189
1273.68	1.93599
1277.06	1.3764
1280.43	0.034576
1283.81	1.11501
