Measurement: Raman, 785 nm, unoriented, Raman Data Processed
Mineral: Hauchecornite
Rruff sample: R060851
Ideal chemistry: Ni_9_BiSbS_8_
Locality: Vermilion mine, Sudbury, Ontario, Canada
Source: Michael Scott
Description: Bronze-yellow metallic massive
Raman shift (cm-1)	intensity
159.615	0
162.507	7.08618
165.4	69.8755
168.293	87.5974
171.185	95.4816
174.078	82.9337
176.971	95.1561
179.863	54.7992
182.756	92.3834
185.649	42.8329
188.542	44.8539
191.434	60.9686
194.327	36.3571
197.22	5.39404
200.112	37.1841
203.005	29.309
205.898	10.8269
208.791	18.0176
211.683	11.2156
214.576	24.8588
217.469	36.1556
220.361	55.6611
223.254	70.2424
226.147	85.1774
229.04	115.975
231.932	134.369
234.825	102.61
237.718	190.915
240.61	261.853
243.503	287.4
246.396	342.898
249.288	354.066
252.181	494.726
255.074	546.091
257.966	628.625
260.859	684.797
263.752	695.718
266.645	624.939
269.537	2210.78
272.43	1474.7
275.323	538.986
278.215	632.845
281.108	950.022
284.001	1489.34
286.894	1704.53
289.786	1426.23
292.679	845.755
295.572	453.161
298.464	243.828
301.357	234.208
304.25	166.281
307.142	256.476
310.035	409.065
312.928	517.216
315.82	499.105
318.713	374.226
321.606	167.354
324.499	106.207
327.391	115.112
330.284	70.8043
333.177	85.8509
336.069	57.9257
338.962	68.4596
341.855	111.647
344.748	215.524
347.64	222.86
350.533	160.988
353.426	54.5421
356.318	49.3662
359.211	54.2051
362.104	2.61731
364.996	15.0636
367.889	39.8639
370.782	43.2426
373.675	7.6405
376.567	13.0516
379.46	5.51404
382.353	22.0977
385.245	17.8408
388.138	7.70508
391.031	28.7677
393.923	0.626709
396.816	41.3114
399.709	35.8597
402.601	13.8419
405.494	48.0028
408.387	32.1432
411.28	46.9767
414.172	52.7366
417.065	47.5067
419.958	44.2721
422.85	80.9971
425.743	67.7045
428.636	54.7423
431.529	71.7138
434.421	24.6998
437.314	74.7305
440.207	33.2783
443.099	1.36926
445.992	9.82581
448.885	36.4514
451.777	51.2887
454.67	4.34302
457.563	31.9927
460.455	76.1732
463.348	55.9813
466.241	63.1495
469.134	68.6885
472.026	37.8962
474.919	104.325
477.812	42.2388
480.704	44.1945
483.597	25.6095
486.49	76.6664
489.382	5.98206
492.275	69.2085
495.168	62.2471
498.061	40.302
500.953	29.8068
503.846	29.2103
506.739	13.5879
509.631	28.9091
512.524	31.3713
515.417	0.754395
518.309	62.3599
521.202	20.0909
524.095	24.2416
526.988	41.9011
529.88	59.5504
532.773	0.81311
535.666	25.1699
538.558	54.2084
541.451	0.025024
544.344	61.2118
547.236	50.4541
550.129	14.892
553.022	25.2267
555.915	13.8461
558.807	33.9216
561.7	37.0322
564.593	19.2544
567.485	5.76917
570.378	37.9363
573.271	25.7671
576.163	15.8239
579.056	3.8064
581.949	58.1913
584.842	31.1708
587.734	37.7222
590.627	25.5198
593.52	8.11755
596.413	11.8201
599.305	27.3302
602.198	45.6456
605.091	31.0122
607.983	11.7247
610.876	3.83691
613.769	12.1751
616.661	48.8971
619.554	13.8651
622.447	2.35156
625.34	28.723
628.232	5.92688
631.125	12.5803
634.018	30.6498
636.91	68.2924
639.803	1.90021
642.696	53.2434
645.588	43.1213
648.481	17.5124
651.374	14.5587
654.266	58.1479
657.159	61.0393
660.052	6.82666
662.945	44.6384
665.837	48.1517
668.73	37.5125
671.623	7.97003
674.515	4.58911
677.408	33.3278
680.301	66.5466
683.193	15.845
686.086	62.2957
688.979	71.1821
691.872	44.3292
694.764	66.5122
697.657	50.3103
700.55	44.301
703.442	43.4089
706.335	68.3924
709.228	37.5707
712.12	50.3706
715.013	65.2999
717.906	45.4909
720.799	111.793
723.691	65.5086
726.584	37.5492
729.477	47.9349
732.369	32.5356
735.262	40.1354
738.155	70.4868
741.048	82.5762
743.94	71.7612
746.833	23.9014
749.726	50.8043
752.618	2.09686
755.511	35.4146
758.404	60.6412
761.296	32.7158
764.189	28.7734
767.082	20.0022
769.975	1.11017
772.867	28.1274
775.76	25.2289
778.653	52.87
781.545	37.6119
784.438	2.4126
787.331	31.1826
790.223	30.769
793.116	21.1512
796.009	3.29858
798.902	4.91516
801.794	16.7474
804.687	18.382
807.58	3.29242
810.472	19.5257
813.365	14.7147
816.258	48.6802
819.15	26.1493
822.043	77.9374
824.936	19.997
827.828	63.2789
830.721	1.53461
833.614	58.1184
836.507	18.8672
839.399	45.8112
842.292	27.4972
845.185	35.0662
848.077	34.7168
850.97	37.001
853.863	16.9943
856.755	26.9003
859.648	18.6295
862.541	72.9213
865.434	87.5606
868.326	20.1816
871.219	34.7683
874.112	6.03577
877.004	34.071
879.897	15.697
882.79	23.2668
885.683	6.85284
888.575	3.927
891.468	27.2596
894.361	76.2809
897.253	58.3366
900.146	71.6064
903.039	18.4913
905.931	17.9127
908.824	59.8477
911.717	23.7213
914.61	62.9446
917.502	89.6997
920.395	6.96265
923.288	26.5759
926.18	57.4091
929.073	54.9648
931.966	27.9792
934.859	32.6295
937.751	12.8221
940.644	28.4539
943.537	41.0868
946.429	0.345825
949.322	59.3346
952.215	37.7562
955.107	16.9913
958	41.8152
960.893	19.2222
963.785	55.5046
966.678	65.545
969.571	23.5224
972.464	7.08282
975.356	17.8085
978.249	51.2325
981.142	28.7925
984.034	35.1636
986.927	25.9365
989.82	26.5523
992.712	30.5497
995.605	36.7938
998.498	46.5306
1001.39	16.4418
1004.28	86.481
1007.18	6.63513
1010.07	26.9639
1012.96	21.8796
1015.85	19.9164
1018.75	45.9609
1021.64	13.9745
1024.53	31.3923
1027.42	2.6499
1030.32	54.1072
1033.21	10.2807
1036.1	30.6429
1039	48.7657
1041.89	8.75153
1044.78	66.712
1047.67	19.9515
1050.57	49.6646
1053.46	35.9659
1056.35	10.7172
1059.24	52.3886
1062.14	0.884705
1065.03	32.3237
1067.92	44.3466
1070.82	36.5328
1073.71	19.7615
1076.6	25.6497
1079.49	55.9034
1082.39	30.6107
1085.28	40.7277
1088.17	55.2454
1091.06	21.3538
1093.96	55.514
1096.85	36.2585
1099.74	58.3196
1102.63	21.2443
1105.53	44.7758
1108.42	7.75012
1111.31	21.0874
1114.21	72.9005
1117.1	49.1287
1119.99	12.0753
1122.88	95.7814
1125.78	74.0008
1128.67	50.7977
1131.56	82.9645
1134.45	45.9833
1137.35	48.8134
1140.24	66.8225
1143.13	27.4376
1146.03	68.4506
1148.92	54.8888
1151.81	65.7311
1154.7	47.8378
1157.6	19.5036
1160.49	54.5598
1163.38	10.2329
1166.28	61.2094
1169.17	44.7567
1172.06	60.8596
1174.95	38.0854
1177.85	60.2574
1180.74	76.1702
1183.63	59.3228
1186.52	54.9932
1189.42	79.5911
1192.31	80.53
1195.2	30.6437
1198.09	73.1962
1200.99	71.6476
1203.88	70.9306
1206.77	41.4667
1209.66	45.9647
1212.56	73.6464
1215.45	101.596
1218.34	31.6384
1221.24	30.1791
1224.13	37.8565
1227.02	52.4263
1229.91	2.09027
1232.81	24.0111
