Measurement: Raman, 532 nm, unoriented, Raman Data Processed
Mineral: Hauchecornite
Rruff sample: R060851
Ideal chemistry: Ni_9_BiSbS_8_
Locality: Vermilion mine, Sudbury, Ontario, Canada
Source: Michael Scott
Description: Bronze-yellow metallic massive
Raman shift (cm-1)	intensity
164.913	0
167.806	6.38721
170.699	28.9558
173.591	59.3246
176.484	31.19
179.377	45.0217
182.269	7.64825
185.162	43.5847
188.055	15.2581
190.947	77.5439
193.84	71.41
196.733	69.8494
199.626	43.9581
202.518	34.4937
205.411	3.68127
208.304	24.7255
211.196	19.7878
214.089	14.1653
216.982	18.4977
219.875	8.56934
222.767	4.36292
225.66	27.8474
228.553	20.0339
231.445	20.3287
234.338	75.9477
237.231	113.096
240.123	114.23
243.016	182.943
245.909	186.775
248.802	294.463
251.694	306.771
254.587	366.598
257.48	427.664
260.372	493.402
263.265	532.672
266.158	535.238
269.05	634.942
271.943	758.172
274.836	1027.34
277.728	1611.36
280.621	2393.08
283.514	3172.57
286.406	3918.09
289.299	3630.43
292.192	2222.93
295.085	1061.25
297.977	594.81
300.87	347.524
303.763	261.877
306.655	322.968
309.548	346.058
312.441	443.257
315.334	448.312
318.226	456.033
321.119	405.36
324.012	337.185
326.904	240.922
329.797	208.6
332.69	234.081
335.582	284.01
338.475	265.94
341.368	354.645
344.26	465.274
347.153	611.844
350.046	628.352
352.939	468.661
355.831	275.278
358.724	171.241
361.617	147.949
364.509	144.726
367.402	128.229
370.295	87.3471
373.188	34.5828
376.08	11.9827
378.973	0.611267
381.866	49.0693
384.758	1.66241
387.651	11.5938
390.544	10.4393
393.436	19.7827
396.329	7.27234
399.222	11.4984
402.114	2.13415
405.007	36.8496
407.9	41.1247
410.793	49.6483
413.685	64.066
416.578	41.6694
419.471	43.5218
422.363	72.36
425.256	48.4487
428.149	76.3063
431.041	90.1779
433.934	52.353
436.827	92.9429
439.719	93.9761
442.612	97.2069
445.505	97.0792
448.398	119.967
451.29	104.787
454.183	131.353
457.076	180.847
459.968	229.114
462.861	283.44
465.754	326.222
468.647	374.742
471.539	337.713
474.432	287.565
477.325	190.359
480.217	161.669
483.11	88.8839
486.003	101.382
488.895	38.9141
491.788	47.2471
494.681	9.41193
497.574	30.5132
500.466	87.1439
503.359	10.0787
506.252	16.3453
509.144	21.4533
512.037	21.7875
514.93	23.1266
517.822	18.2886
520.715	35.916
523.608	18.7059
526.5	23.5762
529.393	28.6197
532.286	19.6177
535.179	22.0493
538.071	10.129
540.964	7.65497
543.857	1.61432
546.749	41.6902
549.642	39.4619
552.535	30.221
555.427	8.52472
558.32	3.87686
561.213	29.3466
564.106	40.6859
566.998	54.0529
569.891	24.4624
572.784	14.9233
575.676	48.0245
578.569	53.4906
581.462	12.4328
584.354	2.73886
587.247	24.2727
590.14	39.7055
593.033	57.204
595.925	7.93561
598.818	31.2203
601.711	31.8296
604.603	14.5042
607.496	39.2809
610.389	21.4552
613.281	48.9501
616.174	34.704
619.067	28.143
621.96	78.38
624.852	43.6536
627.745	10.7928
630.638	37.1394
633.53	36.2003
636.423	55.3271
639.316	38.0294
642.208	39.1043
645.101	43.9525
647.994	45.1652
650.886	48.8513
653.779	35.4605
656.672	11.8849
659.565	46.1456
662.457	72.5517
665.35	18.7415
668.243	57.1046
671.135	55.8631
674.028	45.106
676.921	25.2234
679.813	2.0755
682.706	55.4508
685.599	56.932
688.492	35.4007
691.384	93.4532
694.277	30.1182
697.17	23.1626
700.062	70.52
702.955	64.6211
705.848	55.0271
708.74	27.7156
711.633	13.4536
714.526	27.8607
717.418	56.1036
720.311	23.1645
723.204	23.5997
726.097	26.0074
728.989	36.4589
731.882	7.06342
734.775	7.43091
737.667	65.876
740.56	43.41
743.453	9.24823
746.346	29.1007
749.238	55.3544
752.131	13.4697
755.024	49.9858
757.916	56.4773
760.809	18.4767
763.702	14.557
766.594	28.6493
769.487	34.3742
772.38	28.8525
775.273	41.6165
778.165	39.3819
781.058	30.0795
783.951	29.7635
786.843	52.6796
789.736	9.07468
792.629	22.4671
795.521	1.85443
798.414	42.0566
801.307	32.7621
804.199	36.5168
807.092	32.9663
809.985	44.8984
812.878	26.4511
815.77	28.4797
818.663	67.3654
821.556	44.9263
824.448	9.08618
827.341	3.08502
830.234	9.62665
833.126	43.5245
836.019	16.2717
838.912	21.5769
841.805	33.0239
844.697	14.4411
847.59	33.4125
850.483	35.9539
853.375	18.5618
856.268	28.7199
859.161	39.1886
862.053	34.9708
864.946	33.8511
867.839	53.8864
870.731	36.1245
873.624	82.6877
876.517	67.1605
879.41	26.4042
882.302	51.3232
885.195	41.6287
888.088	17.2927
890.98	21.9664
893.873	11.2064
896.766	81.7689
899.659	32.2064
902.551	37.7096
905.444	29.5899
908.337	31.364
911.229	40.6293
914.122	28.5828
917.015	38.1341
919.907	18.6024
922.8	38.137
925.693	36.0336
928.586	19.2777
931.478	74.0674
934.371	22.9246
937.264	50.3758
940.156	46.6459
943.049	53.3757
945.942	4.47272
948.834	51.3556
951.727	24.0153
954.62	36.0079
957.513	36.4322
960.405	15.8192
963.298	19.6071
966.191	24.0417
969.083	7.27502
971.976	92.8912
974.869	65.8659
977.761	43.3156
980.654	28.818
983.547	52.8516
986.439	10.8027
989.332	46.7317
992.225	39.0223
995.118	12.9147
998.01	9.66596
1000.9	19.9941
1003.8	23.6304
1006.69	15.3654
1009.58	2.44891
1012.47	21.7514
1015.37	25.6468
1018.26	59.9848
1021.15	98.0581
1024.05	7.24518
1026.94	21.1679
1029.83	39.9368
1032.72	29.0817
1035.62	4.88129
1038.51	41.4891
1041.4	13.7062
1044.29	37.0194
1047.19	73.2502
1050.08	25.9478
1052.97	66.3639
1055.86	19.9768
1058.76	35.4623
1061.65	63.7478
1064.54	39.3339
1067.43	28.4329
1070.33	36.2253
1073.22	44.7121
1076.11	29.5745
1079.01	51.0425
1081.9	28.3017
1084.79	35.6166
1087.68	57.3565
1090.58	5.53424
1093.47	7.37286
1096.36	15.5217
1099.26	40.5827
1102.15	42.9806
1105.04	20.2143
1107.93	52.5452
1110.83	15.9913
1113.72	18.7234
1116.61	49.0101
1119.5	5.63123
1122.4	6.73334
1125.29	40.3035
1128.18	20.0692
1131.07	67.4615
1133.97	25.3056
1136.86	34.089
1139.75	38.8722
1142.64	50.4304
1145.54	82.055
1148.43	47.2927
1151.32	25.4098
1154.22	56.6891
1157.11	44.1499
1160	54.1018
1162.89	29.798
1165.79	10.88
1168.68	58.122
1171.57	33.5843
1174.46	45.404
1177.36	52.6338
1180.25	21.1209
1183.14	11.5207
1186.04	7.57849
1188.93	65.6008
1191.82	76.7904
1194.71	6.99359
1197.61	36.8394
1200.5	19.3193
1203.39	16.2529
1206.29	14.2979
1209.18	43.7128
1212.07	59.4317
1214.96	50.0739
1217.86	89.1517
1220.75	62.7798
1223.64	59.9893
1226.53	65.066
1229.43	32.5918
1232.32	57.8976
1235.21	49.291
1238.1	25.2742
1241	60.4811
1243.89	4.93085
1246.78	36.0255
1249.67	72.0283
1252.57	46.5734
1255.46	19.6553
1258.35	27.0198
1261.25	44.467
1264.14	13.1679
1267.03	15.7698
1269.92	50.9965
1272.82	74.4201
1275.71	11.1334
1278.6	47.1941
1281.49	62.3124
1284.39	30.4125
1287.28	53.4378
1290.17	71.4999
1293.07	30.6858
1295.96	1.21643
1298.85	19.4496
