Measurement: Raman, 785 nm, unoriented, Raman Data Processed
Mineral: Hauerite
Rruff sample: R070438
Ideal chemistry: MnS_2_
Locality: Machov, Poland
Source: Michael Scott
Description: Unconsolidated reddish brown platy fragments, sample was used to make ICDD pattern
Measured chemistry: Mn_1.00_S_2.00_
Raman shift (cm-1)	intensity
109.458	0
112.351	45.1923
115.244	148.391
118.136	218.169
121.029	153.547
123.922	170.026
126.815	119.318
129.707	36.0261
132.6	3.53534
135.493	21.7803
138.385	14.212
141.278	57.9342
144.171	415.33
147.064	812.216
149.956	1151.92
152.849	1172.63
155.742	901.47
158.634	508.671
161.527	484.971
164.42	538.71
167.312	620.929
170.205	602.482
173.098	525.382
175.99	505.799
178.883	404.04
181.776	360.371
184.669	292.122
187.561	183.725
190.454	129.441
193.347	49.5766
196.239	43.0984
199.132	44.8229
202.025	169.255
204.917	441.769
207.81	850.341
210.703	1517.88
213.596	2559.53
216.488	3939.7
219.381	5628.68
222.274	6650.48
225.166	8334.3
228.059	9410.53
230.952	8983.07
233.845	8937.07
236.737	10066.2
239.63	12774.7
242.523	16982.8
245.415	19152.5
248.308	15259.6
251.201	10093.8
254.093	7086.87
256.986	4621.12
259.879	2441.77
262.772	1344.12
265.664	748.176
268.557	373.889
271.45	109.698
274.342	37.091
277.235	2.2964
280.128	23.2375
283.02	32.0121
285.913	22.233
288.806	2.53645
291.699	12.5059
294.591	6.45201
297.484	15.8836
300.377	2.02491
303.269	5.3156
306.162	13.7407
309.055	28.8361
311.947	26.749
314.84	76.3127
317.733	101.642
320.625	152.447
323.518	138.191
326.411	225.252
329.304	223.983
332.196	246.473
335.089	241.06
337.982	300.257
340.874	257.393
343.767	244.113
346.66	151.658
349.553	150.086
352.445	148.394
355.338	138.465
358.231	111.168
361.123	134.833
364.016	55.0969
366.909	40.7061
369.801	28.3654
372.694	141.321
375.587	127.288
378.479	126.842
381.372	124.657
384.265	175.793
387.158	117.127
390.05	145.56
392.943	135.896
395.836	159.308
398.728	104.849
401.621	106.828
404.514	72.8692
407.406	69.7376
410.299	25.696
413.192	0.317679
416.085	1.48731
418.977	1.4998
421.87	0.071521
424.763	1.89323
427.655	8.61215
430.548	8.29907
433.441	9.0147
436.334	7.61507
439.226	11.1233
442.119	15.2591
445.012	5.05196
447.904	1.09922
450.797	99.8774
453.69	348.745
456.582	615.708
459.475	1127.1
462.368	1943.21
465.26	3390.11
468.153	5512.5
471.046	8872.99
473.939	13841.1
476.831	20151.7
479.724	28277.6
482.617	37485.3
485.509	46969.8
488.402	49590.6
491.295	40900.4
494.188	28372.6
497.08	19332.5
499.973	14020.1
502.866	10549.2
505.758	8334.81
508.651	6969.03
511.544	6035.84
514.436	5367.11
517.329	4703.19
520.222	4092.33
523.115	3551.86
526.007	3071.82
528.9	2500.93
531.793	1916.17
534.685	1333.42
537.578	772.398
540.471	427.286
543.363	219.762
546.256	63.7273
549.149	1.53991
552.041	3.87131
554.934	23.07
557.827	9.91518
560.72	2.43958
563.612	16.4631
566.505	18.8229
569.398	4.83442
572.29	3.79337
575.183	6.40785
578.076	4.92309
580.968	16.8686
583.861	12.1352
586.754	35.3485
589.646	71.4487
592.539	3.98497
595.432	15.7557
598.325	25.848
601.217	29.4835
604.11	45.9931
607.003	21.6535
609.895	98.4316
612.788	43.5489
615.681	115.695
618.573	103.473
621.466	165.108
624.359	166.855
627.252	200.167
630.144	175.168
633.037	165.875
635.93	237.975
638.822	184.009
641.715	175.223
644.608	172.395
647.5	177.147
650.393	177.101
653.286	184.642
656.179	119.237
659.071	124.131
661.964	55.3129
664.857	132.094
667.75	50.661
670.642	0.695771
673.535	27.7446
676.428	19.3709
679.32	22.8515
682.213	1.52458
685.106	3.40241
687.998	4.23857
690.891	4.06793
693.784	3.32599
696.677	2.32241
699.569	0.887604
702.462	33.6433
705.355	38.0472
708.247	3.08488
711.14	35.9917
714.033	61.8148
716.925	92.9621
719.818	70.964
722.711	148.171
725.604	222.725
728.496	244.638
731.389	229.441
734.282	227.305
737.174	255.669
740.067	305.822
742.96	270.128
745.852	236.293
748.745	269.72
751.638	240.733
754.53	193.79
757.423	154.837
760.316	166.917
763.209	121.68
766.101	58.1114
768.994	73.4569
771.887	74.3779
774.779	67.1744
777.672	83.1623
780.565	35.2098
783.457	44.2978
786.35	56.8583
789.243	1.98585
792.136	39.1913
795.028	26.089
797.921	3.26966
800.814	48.0726
803.706	0.365299
806.599	0.647092
809.492	7.61614
812.385	11.2132
815.277	1.15877
818.17	48.6201
821.063	54.0791
823.955	0.695636
826.848	1.51346
829.741	0.756761
832.633	56.6144
835.526	68.5178
838.419	55.7272
841.312	59.9433
844.204	40.7564
847.097	59.6542
849.99	25.6782
852.882	67.0947
855.775	62.9784
858.668	0.077356
861.56	63.3666
864.453	18.887
867.346	26.9071
870.239	98.9404
873.131	19.7676
876.024	59.9859
878.917	48.0822
881.809	28.5138
884.702	8.28964
887.595	2.23693
890.487	6.20294
893.38	19.374
896.273	4.15497
899.165	44.2614
902.058	0.23771
904.951	0.588663
907.844	1.50218
910.736	0.886731
913.629	3.17465
916.522	2.81184
919.414	9.42227
922.307	42.6577
925.2	4.61267
928.092	8.95338
930.985	54.0057
933.878	48.1051
936.771	95.5846
939.663	99.1167
942.556	109.496
945.449	129.793
948.341	221.78
951.234	338.288
954.127	393.35
957.019	522.807
959.912	619.535
962.805	746.995
965.698	799.663
968.59	897.366
971.483	995.638
974.376	877.176
977.268	732.074
980.161	599.475
983.054	473.988
985.947	445.339
988.839	282.252
991.732	256.959
994.625	222.969
997.517	152.714
1000.41	155.531
1003.3	233.04
1006.2	144.205
1009.09	133.643
1011.98	74.4336
1014.87	79.3036
1017.77	78.2463
1020.66	0.899592
1023.55	54.5375
1026.44	21.4167
1029.34	6.44242
1032.23	57.7881
1035.12	8.01659
1038.02	1.91197
1040.91	4.64427
1043.8	1.14144
1046.69	22.5733
1049.59	16.2265
1052.48	58.5709
1055.37	0.698518
1058.26	1.95588
1061.16	0.077696
1064.05	28.1509
1066.94	34.7835
1069.84	13.4458
1072.73	7.8659
1075.62	0.596419
1078.51	77.969
1081.41	25.2983
1084.3	52.9057
1087.19	15.6362
1090.08	49.7795
1092.98	91.7461
1095.87	40.3209
1098.76	42.9445
1101.65	27.8663
1104.55	6.81996
1107.44	83.534
1110.33	13.1354
1113.22	65.5164
1116.12	25.2297
1119.01	11.0209
1121.9	41.6771
1124.8	0.84631
1127.69	6.97962
1130.58	8.58996
1133.47	0.854552
1136.37	34.029
1139.26	9.64494
1142.15	28.984
