Measurement: Raman, 785 nm, unoriented, Raman Data Processed
Mineral: Hauerite
Rruff sample: R070506
Ideal chemistry: MnS_2_
Locality: Destricella mine, Raddusa, Catania Province, Italy
Source: James Shigley
Description: Metallic brownish-gray octahedral crystal
Measured chemistry: Mn_1.00_S_2.00_
Raman shift (cm-1)	intensity
146.47	0
149.363	516.669
152.256	951.112
155.148	689.003
158.041	438.838
160.934	710.792
163.826	776.577
166.719	756.638
169.612	618.197
172.504	266.354
175.397	102.829
178.29	65.3887
181.182	114.121
184.075	163.668
186.968	162.867
189.861	241.385
192.753	382.668
195.646	561.085
198.539	768.812
201.431	1324.69
204.324	1807.41
207.217	2579.46
210.109	3692.18
213.002	5275.15
215.895	7190.86
218.787	9418.95
221.68	11345.8
224.573	13661.8
227.466	14866.7
230.358	14328
233.251	13577
236.144	13875.4
239.036	15241.3
241.929	17605.1
244.822	18252.8
247.714	15535.1
250.607	12185.1
253.5	10024.2
256.393	7529.21
259.285	5265.92
262.178	3981.22
265.071	3424.86
267.963	2929.87
270.856	2403.42
273.749	1592.89
276.642	1019.08
279.534	548.395
282.427	240.727
285.32	172.098
288.212	33.8408
291.105	20.8906
293.998	113.261
296.89	6.8291
299.783	70.8398
302.676	8.86426
305.568	24.8555
308.461	9.23633
311.354	26.4814
314.247	37.1826
317.139	58.8145
320.032	49.6006
322.925	123.156
325.817	164.957
328.71	202.148
331.603	228.875
334.495	228.807
337.388	317.839
340.281	323.375
343.174	270.578
346.066	277.271
348.959	301.053
351.852	229.401
354.744	135.968
357.637	168.138
360.53	153.936
363.422	194.583
366.315	246.197
369.208	177.709
372.101	262.461
374.993	276.094
377.886	276.891
380.779	407.923
383.671	358.684
386.564	286.623
389.457	216.586
392.349	197.394
395.242	247.92
398.135	113.217
401.027	115.168
403.92	13.1172
406.813	41.1934
409.706	89.7168
412.598	50.4824
415.491	26.9492
418.384	10.9521
421.276	50.9619
424.169	23.873
427.062	2.3125
429.954	54.3115
432.847	21.5859
435.74	63.1055
438.633	17.4521
441.525	108.322
444.418	32.0557
447.311	530.201
450.203	448.472
453.096	719.743
455.989	1102.81
458.882	1732.75
461.774	2803.8
464.667	4366.6
467.56	6791.24
470.452	10625.5
473.345	15896.9
476.238	22542.4
479.13	30426.8
482.023	38346.6
484.916	44900.7
487.808	45710.1
490.701	37748.3
493.594	26686.2
496.487	18463.8
499.379	13479.3
502.272	10152.1
505.165	8114.74
508.057	6696.65
510.95	5791.42
513.843	5121.01
516.736	4366.91
519.628	3696.91
522.521	3212.2
525.414	2718.1
528.306	2255.3
531.199	1755.11
534.092	1180.65
536.984	888.108
539.877	620.872
542.77	394.353
545.662	275.69
548.555	190.248
551.448	158.677
554.341	72.9014
557.233	49.2891
560.126	21.8857
563.019	78.6494
565.911	21.1221
568.804	25.3125
571.697	38.8613
574.589	24.3877
577.482	26.8213
580.375	14.3467
583.268	86.3428
586.16	37.1475
589.053	1.125
591.946	40.4385
594.838	14.6377
597.731	15.3818
600.624	109.141
603.516	63.3809
606.409	42.3047
609.302	84.0654
612.194	143.064
615.087	162.463
617.98	206.963
620.873	237.815
623.765	324.423
626.658	345.903
629.551	358.874
632.443	342.644
635.336	276.76
638.229	262.932
641.121	351.729
644.014	244.989
646.907	215.745
649.8	185.85
652.692	123.155
655.585	174.68
658.478	149.2
661.37	110.562
664.263	97.0059
667.156	46.5029
670.048	19.7471
672.941	21.3906
675.834	19.1074
678.727	3.81348
681.619	46.9609
684.512	48.5225
687.405	0.108398
690.297	18.7109
693.19	14.2759
696.083	68.1821
698.976	62.7705
701.868	80.5713
704.761	140.102
707.654	195.058
710.546	216.191
713.439	315.014
716.332	375.986
719.224	380.411
722.117	396.156
725.01	415.381
727.903	435.504
730.795	397.348
733.688	404.704
736.581	467.006
739.473	411.552
742.366	391.078
745.259	428.713
748.151	349.612
751.044	281.702
753.937	343.807
756.829	323.455
759.722	206.889
762.615	207.408
765.508	136.158
768.4	57.8223
771.293	93.0791
774.186	49.0127
777.078	100.949
779.971	72.7632
782.864	24.1216
785.756	50.5239
788.649	56.7012
791.542	11.3877
794.434	93.2114
797.327	58.8848
800.22	17.3882
803.113	55.9785
806.005	11.7671
808.898	57.2329
811.791	36.0825
814.683	54.3594
817.576	24.0259
820.469	17.977
823.361	45.8516
826.254	56.2905
829.147	57.5967
832.04	27.9839
834.932	59.9717
837.825	50.625
840.718	8.30518
843.61	66.7725
846.503	66.374
849.396	63.8257
852.288	40.8042
855.181	103.744
858.074	62.6426
860.967	34.374
863.859	77.1548
866.752	57.2051
869.645	94.1099
872.537	95.4795
875.43	0.657227
878.323	47.4136
881.216	5.08447
884.108	107.106
887.001	102.733
889.894	64.0962
892.786	84.5757
895.679	33.6045
898.572	6.02295
901.464	0.981934
904.357	5.44385
907.25	37.0864
910.143	37.9072
913.035	96.0229
915.928	17.6597
918.821	8.92871
921.713	23.249
924.606	34.8418
927.499	60.9409
930.391	147.911
933.284	277.364
936.177	123.402
939.069	183.001
941.962	233.115
944.855	278.327
947.747	399.061
950.64	467.307
953.533	593.994
956.426	685.382
959.318	827.244
962.211	893.988
965.104	1042.64
967.996	1072.2
970.889	1061.72
973.782	957.93
976.674	844.166
979.567	711.384
982.46	550.242
985.353	447.804
988.245	395.488
991.138	312.139
994.031	321.207
996.923	311.847
999.816	329.192
1002.71	384.399
1005.6	335.754
1008.49	273.859
1011.39	134.549
1014.28	73.6006
1017.17	128.493
1020.07	112.731
1022.96	46.4102
1025.85	17.4561
1028.74	38.7529
1031.64	10.2427
1034.53	1.33838
1037.42	50.8315
1040.31	24.0044
1043.21	30.9722
1046.1	49.9688
1048.99	2.4668
1051.88	48.523
1054.78	49.8843
1057.67	57.4937
1060.56	17.2041
1063.45	13.0981
1066.35	20.9365
1069.24	51.3355
1072.13	15.0723
1075.03	44.8594
1077.92	12.3032
1080.81	66.2896
1083.7	10.3481
1086.6	47.1782
1089.49	9.16357
1092.38	66.0229
1095.28	44.8086
1098.17	7.3335
1101.06	70.7656
1103.95	30.5689
1106.85	82.6128
1109.74	9.51416
1112.63	69.9746
1115.52	113.788
1118.42	77.5019
1121.31	9.7544
1124.2	98.3794
1127.1	10.7031
1129.99	38.1865
1132.88	48.9653
1135.77	90.7339
1138.67	33.9614
1141.56	72.4248
1144.45	26.3804
1147.34	32.3794
1150.24	63.9707
1153.13	27.0962
1156.02	62.5542
1158.91	70.772
1161.81	40.1406
1164.7	35.1992
1167.59	42.8643
1170.48	64.0161
1173.38	107.453
1176.27	44.1309
1179.16	65.3066
1182.06	10.4277
1184.95	92.439
1187.84	39.2827
1190.73	64.5874
1193.63	50.2764
1196.52	85.481
1199.41	21.1948
1202.31	91.1397
1205.2	43.7456
1208.09	97.0317
1210.98	71.0615
1213.88	69.5962
1216.77	47.9839
1219.66	66.4434
1222.55	39.1797
1225.45	43.9595
1228.34	17.1094
1231.23	20.4307
1234.12	56.8486
1237.02	61.2412
1239.91	65.2241
1242.8	31.251
1245.69	53.9233
1248.59	18.582
1251.48	25.3218
1254.37	15.2231
1257.27	37.0874
1260.16	55.812
1263.05	5.74805
