Measurement: Raman, 532 nm, unoriented, Raman Data Processed
Mineral: Hauerite
Rruff sample: R070438
Ideal chemistry: MnS_2_
Locality: Machov, Poland
Source: Michael Scott
Description: Unconsolidated reddish brown platy fragments, sample was used to make ICDD pattern
Measured chemistry: Mn_1.00_S_2.00_
Raman shift (cm-1)	intensity
154.262	0
157.155	193.64
160.047	27.1401
162.94	26.8182
165.833	0.650177
168.725	29.6613
171.618	43.3046
174.511	35.5533
177.404	49.7554
180.296	73.7605
183.189	147.536
186.082	126.255
188.974	93.5282
191.867	58.2391
194.76	92.5411
197.652	81.0307
200.545	195.221
203.438	496.842
206.331	748.351
209.223	1085.72
212.116	1721.81
215.009	2813.25
217.901	3817.71
220.794	3015.57
223.687	932.2
226.579	886.75
229.472	830.253
232.365	759.563
235.257	769.004
238.15	894.191
241.043	1143.43
243.936	1389.08
246.828	1382.66
249.721	1027.26
252.614	715.052
255.506	548.283
258.399	327.57
261.292	183.143
264.185	97.7756
267.077	63.8872
269.97	56.8222
272.863	26.6819
275.755	27.8169
278.648	11.4866
281.541	28.9882
284.433	15.0003
287.326	2.10913
290.219	14.8393
293.111	14.3487
296.004	13.5641
298.897	7.3349
301.79	2.05884
304.682	1.81027
307.575	1.10898
310.468	12.3668
313.36	28.8211
316.253	28.6238
319.146	25.5453
322.038	20.3853
324.931	15.216
327.824	20.6317
330.717	19.623
333.609	61.3261
336.502	41.2764
339.395	21.073
342.287	8.3081
345.18	17.3106
348.073	25.6717
350.966	7.06494
353.858	13.8027
356.751	11.4344
359.644	1.38171
362.536	6.49881
365.429	9.07227
368.322	0.066345
371.214	11.444
374.107	24.5536
377	35.1658
379.893	18.6666
382.785	29.3752
385.678	41.1418
388.571	44.8146
391.463	15.3015
394.356	10.0995
397.249	4.0495
400.142	5.74972
403.034	0.61969
405.927	4.51642
408.82	20.2847
411.712	3.21637
414.605	2.33734
417.498	57.2175
420.39	35.4424
423.283	105.687
426.176	126.22
429.068	135.831
431.961	183.077
434.854	192.561
437.747	192.145
440.639	119.228
443.532	7.56171
446.425	26.9819
449.317	8.12646
452.21	66.8722
455.103	231.406
457.995	522.443
460.888	922.786
463.781	1494.5
466.674	2178.88
469.566	2965.3
472.459	3914.16
475.352	3842.18
478.244	4158.22
481.137	5422.95
484.03	6873.92
486.923	7981.77
489.815	7595.83
492.708	5554.43
495.601	3776.76
498.493	2655.33
501.386	1923.18
504.279	1481.94
507.171	1210.75
510.064	1063.14
512.957	944.71
515.85	828.455
518.742	734.755
521.635	679.197
524.528	570.017
527.42	503.587
530.313	418.43
533.206	326.474
536.098	245.244
538.991	162.382
541.884	131.935
544.777	93.3637
547.669	92.4829
550.562	78.9175
553.455	45.4885
556.347	28.0337
559.24	10.172
562.133	10.878
565.025	0.410156
567.918	0.219788
570.811	11.165
573.704	9.27496
576.596	1.3562
579.489	21.0147
582.382	19.7984
585.274	3.08337
588.167	0.048889
591.06	16.3409
593.952	19.4416
596.845	29.7691
599.738	26.2841
602.631	25.1851
605.523	14.7081
608.416	37.4878
611.309	112.083
614.201	96.1951
617.094	109.732
619.987	134.525
622.88	159.138
625.772	161.882
628.665	147.731
631.558	167.827
634.45	134.433
637.343	137.468
640.236	156.204
643.128	146.923
646.021	138.151
648.914	160.555
651.807	151.802
654.699	180.165
657.592	157.853
660.485	140.023
663.377	95.0516
666.27	74.0488
669.163	44.0007
672.055	56.8974
674.948	27.6652
677.841	49.9523
680.734	34.7809
683.626	13.9315
686.519	0.712524
689.412	10.6217
692.304	0.296326
695.197	9.30719
698.09	9.49057
700.982	3.67215
703.875	11.2633
706.768	8.49951
709.66	20.2332
712.553	39.8074
715.446	36.6649
718.339	67.6719
721.231	72.0382
724.124	73.2639
727.017	104.742
729.909	148.614
732.802	117.499
735.695	124.422
738.587	152.412
741.48	151.844
744.373	145.394
747.266	142.882
750.158	158.949
753.051	148.156
755.944	128.242
758.837	120.129
761.729	112.107
764.622	60.8715
767.515	53.63
770.407	19.1749
773.3	21.1731
776.193	37.6636
779.085	26.9455
781.978	15.758
784.871	16.6314
787.764	2.54617
790.656	3.55154
793.549	14.4268
796.442	5.659
799.334	1.57913
802.227	17.0886
805.12	6.43015
808.012	23.0496
810.905	16.7804
813.798	26.8545
816.691	16.3152
819.583	25.4684
822.476	21.749
825.369	22.5484
828.261	14.3666
831.154	3.31103
834.047	25.0703
836.939	18.5691
839.832	18.0754
842.725	24.2948
845.617	25.639
848.51	22.1232
851.403	27.1789
854.296	25.418
857.188	34.7893
860.081	33.148
862.974	48.2364
865.866	26.0462
868.759	46.8679
871.652	40.0904
874.544	33.6638
877.437	33.6125
880.33	18.1819
883.223	27.3489
886.115	23.9943
889.008	2.94211
891.901	4.46036
894.793	1.7706
897.686	1.97775
900.579	14.448
903.472	18.7282
906.364	17.0056
909.257	2.71139
912.15	13.4823
915.042	5.65704
917.935	27.712
920.828	22.7482
923.721	25.9174
926.613	25.2924
929.506	11.2841
932.399	22.495
935.291	26.5058
938.184	29.1535
941.077	46.0457
943.969	81.7261
946.862	85.6178
949.755	135.624
952.648	163.963
955.54	229.612
958.433	285.885
961.326	363.466
964.218	446.202
967.111	504.489
970.004	583.295
972.896	538.899
975.789	526.145
978.682	464.137
981.574	386.168
984.467	321.991
987.36	251.085
990.253	218.542
993.145	200.571
996.038	214.945
998.931	235.006
1001.82	259.308
1004.72	277.263
1007.61	212.291
1010.5	130.769
1013.39	85.5434
1016.29	77.8642
1019.18	48.8122
1022.07	53.5566
1024.96	52.7437
1027.86	33.9323
1030.75	12.0859
1033.64	9.11279
1036.54	12.8501
1039.43	19.3731
1042.32	22.335
1045.21	24.0111
1048.11	20.9114
1051	30.7842
1053.89	4.33554
1056.79	5.94922
1059.68	17.2425
1062.57	18.9948
1065.46	10.0486
1068.36	2.61826
1071.25	16.3827
1074.14	24.3122
1077.03	26.7164
1079.93	18.7849
1082.82	24.7729
1085.71	27.4568
1088.6	26.7405
1091.5	6.45932
1094.39	3.79279
1097.28	4.91354
1100.17	13.8974
1103.07	7.91824
1105.96	10.8722
1108.85	16.1388
1111.75	22.3937
1114.64	26.7913
1117.53	23.16
1120.42	26.7039
1123.32	15.4967
1126.21	16.1367
1129.1	8.9158
1131.99	19.6782
1134.89	22.1371
1137.78	3.38904
1140.67	5.01172
1143.57	29.5045
1146.46	9.84784
1149.35	3.52744
1152.24	20.1941
1155.14	3.04562
1158.03	11.7166
1160.92	21.7651
1163.82	20.5194
1166.71	20.4539
1169.6	5.7937
1172.49	0
