Measurement: Raman, 780 nm, unoriented, Raman Data Processed
Mineral: Hausmannite
Rruff sample: R110179
Ideal chemistry: Mn^2+^Mn^3+^_2_O_4_
Locality: Cumbria, England
Source: Smithsonian
Description: Druse of sharp black octahedra
Raman shift (cm-1)	intensity
163.921	0
166.814	0.10207
169.706	2.32366
172.599	7.5065
175.492	4.54599
178.385	1.19613
181.277	0.744568
184.17	3.08232
187.063	2.76064
189.955	2.36152
192.848	2.07433
195.741	2.69823
198.633	1.48005
201.526	1.60413
204.419	0.442913
207.311	1.33104
210.204	0.102287
213.097	1.44726
215.99	0.098999
218.882	2.46906
221.775	1.36058
224.668	1.03101
227.56	3.97366
230.453	1.01298
233.346	1.20176
236.238	1.57659
239.131	3.09617
242.024	1.50013
244.917	0.092663
247.809	0.590092
250.702	2.23066
253.595	2.72038
256.487	0.39275
259.38	0.708237
262.273	0.340683
265.166	2.8859
268.058	1.16369
270.951	0.101402
273.844	2.63526
276.736	5.81831
279.629	10.9642
282.522	20.0356
285.414	41.7508
288.307	64.0654
291.2	56.8588
294.092	29.6613
296.985	18.4361
299.878	8.84155
302.771	8.38009
305.663	9.90977
308.556	12.2501
311.449	19.3501
314.341	30.7088
317.234	44.4966
320.127	48.1012
323.019	36.3676
325.912	19.9026
328.805	11.8275
331.698	8.18961
334.59	6.43539
337.483	6.52927
340.376	5.51063
343.268	4.91519
346.161	8.92299
349.054	11.0616
351.947	13.7734
354.839	19.44
357.732	28.1213
360.625	45.1843
363.517	63.2372
366.41	79.3738
369.303	92.6154
372.195	96.393
375.088	85.9824
377.981	56.8763
380.873	33.7663
383.766	20.1932
386.659	12.3788
389.552	8.61367
392.444	6.26674
395.337	3.36469
398.23	2.32693
401.122	2.5889
404.015	1.83665
406.908	0.738441
409.8	1.11078
412.693	0.705547
415.586	0.142887
418.479	1.04014
421.371	0.620193
424.264	0.548653
427.157	0.788349
430.049	0.447861
432.942	1.09661
435.835	1.41068
438.728	0.371471
441.62	4.15307
444.513	1.38012
447.406	2.19915
450.298	2.90365
453.191	4.55941
456.084	4.43092
458.976	3.60046
461.869	8.66012
464.762	11.1178
467.654	13.4377
470.547	20.9343
473.44	24.1305
476.333	28.4794
479.225	26.5214
482.118	20.7609
485.011	16.2947
487.903	11.3141
490.796	9.13791
493.689	5.27987
496.582	6.81957
499.474	5.25269
502.367	4.25889
505.26	3.40206
508.152	3.34755
511.045	2.53464
513.938	3.59148
516.83	2.06963
519.723	0.524767
522.616	1.72483
525.509	0.541489
528.401	0.571075
531.294	2.70391
534.187	0.098333
537.079	3.9867
539.972	1.8056
542.865	3.15061
545.757	1.41787
548.65	1.45578
551.543	1.7988
554.436	2.2676
557.328	3.06006
560.221	3.62001
563.114	3.74737
566.006	3.47099
568.899	4.51469
571.792	4.32198
574.684	2.53579
577.577	2.41551
580.47	1.7685
583.362	2.14007
586.255	0.850533
589.148	0.119087
592.041	0.966759
594.933	1.16596
597.826	0.547569
600.719	0.464146
603.611	1.86537
606.504	2.71886
609.397	4.41322
612.29	4.65829
615.182	7.79265
618.075	8.70764
620.968	11.0931
623.86	16.4144
626.753	19.6078
629.646	25.0712
632.538	30.9086
635.431	43.9288
638.324	57.7011
641.217	78.5074
644.109	110.264
647.002	159.31
649.895	235.51
652.787	355.131
655.68	520.96
658.573	645.911
661.466	598.072
664.358	419.263
667.251	264.719
670.144	167.442
673.036	107.403
675.929	71.7338
678.822	47.0519
681.714	35.4184
684.607	24.4225
687.5	18.6415
690.393	12.3102
693.285	7.30666
696.178	6.75675
699.071	2.62626
701.963	1.74054
704.856	0.533401
707.749	0.798634
710.641	0.196068
713.534	1.07631
716.427	0.651123
719.319	0.781601
722.212	1.29422
725.105	0.18243
727.998	0.385178
730.89	2.18023
733.783	1.31461
736.676	1.6204
739.568	2.47764
742.461	0.472187
745.354	1.8411
748.246	0.489727
751.139	1.6236
754.032	0.793785
756.925	0.842796
759.817	1.00422
762.71	0.77113
765.603	2.19377
768.495	2.18541
771.388	1.04358
774.281	0.267982
777.173	1.0143
780.066	1.0678
782.959	1.02023
785.852	1.36637
788.744	0.321327
791.637	2.60586
794.53	0.358757
797.422	1.75787
800.315	1.69555
803.208	1.54651
806.101	3.7584
808.993	1.7869
811.886	2.67007
814.779	4.40862
817.671	2.48027
820.564	4.63437
823.457	3.15727
826.349	3.24043
829.242	3.9427
832.135	5.54055
835.028	3.17465
837.92	5.44721
840.813	4.50959
843.706	4.5054
846.598	4.4041
849.491	4.29406
852.384	3.9418
855.276	3.29515
858.169	4.43886
861.062	3.75987
863.955	4.01983
866.847	4.94894
869.74	3.78451
872.633	3.7612
875.525	5.81033
878.418	3.23836
881.311	2.17498
884.203	2.98653
887.096	1.25609
889.989	1.85089
892.881	3.28598
895.774	1.69589
898.667	2.10931
901.56	0.639189
904.452	1.34813
907.345	0.051105
910.238	1.39947
913.13	0.410124
916.023	1.18941
918.916	0.862772
921.808	1.09881
924.701	0.869474
927.594	2.08502
930.487	0.501358
933.379	0.931103
936.272	0.000624
939.165	0.800627
942.057	0.252922
944.95	2.9936
947.843	0.494566
950.736	1.46114
953.628	1.74261
956.521	0.768753
959.414	1.73284
962.306	1.94387
965.199	1.14591
968.092	2.81123
970.984	2.70994
973.877	4.02487
976.77	3.45609
979.663	1.48099
982.555	0.785833
985.448	1.72168
988.341	1.53325
991.233	3.33588
994.126	3.14617
997.019	0.399971
999.911	2.13797
1002.8	0.402174
1005.7	0.625088
1008.59	1.058
1011.48	0.821899
1014.38	2.31021
1017.27	1.17679
1020.16	2.59302
1023.05	1.5877
1025.95	1.64922
1028.84	2.37058
1031.73	2.26578
1034.62	1.92841
1037.52	0.871578
1040.41	0.081274
1043.3	1.27162
1046.19	3.35346
1049.09	1.58235
1051.98	0.958889
1054.87	1.7856
1057.77	2.17965
1060.66	1.94486
1063.55	1.17825
1066.44	1.79718
1069.34	1.06361
1072.23	0.508272
1075.12	0.270847
1078.01	0.511473
1080.91	1.05146
1083.8	1.17223
1086.69	1.55616
1089.59	0.245958
1092.48	0.942497
1095.37	1.07053
1098.26	0.566084
1101.16	1.85792
1104.05	1.35955
1106.94	0.681942
1109.83	1.25654
1112.73	1.33559
1115.62	2.24307
1118.51	3.81469
1121.4	3.30942
1124.3	3.59045
1127.19	2.4257
1130.08	2.34382
1132.98	3.37186
1135.87	4.36931
1138.76	1.22342
1141.65	2.95319
1144.55	1.12774
1147.44	2.45928
1150.33	2.30795
1153.22	3.51374
1156.12	0.076288
1159.01	2.59406
1161.9	1.20526
1164.8	1.10344
1167.69	3.42266
1170.58	1.28976
1173.47	1.06265
1176.37	1.94314
1179.26	2.75098
1182.15	0.551929
1185.04	1.13085
1187.94	1.33787
1190.83	0.577829
1193.72	2.0284
1196.62	2.26731
1199.51	0.023424
1202.4	0.905615
1205.29	0.26375
1208.19	1.70103
1211.08	0.089748
1213.97	1.4654
1216.86	2.28348
1219.76	3.96275
1222.65	1.42333
1225.54	2.36107
1228.43	1.35614
1231.33	3.05213
1234.22	2.1087
1237.11	1.90717
1240.01	0.677458
1242.9	0.794691
1245.79	3.03722
1248.68	2.93895
1251.58	2.79339
1254.47	2.89345
1257.36	3.57265
1260.25	1.60276
1263.15	4.63617
1266.04	2.81533
1268.93	2.98088
1271.83	2.55007
1274.72	4.67532
1277.61	2.9792
1280.5	3.3961
1283.4	0.02952
