Measurement: Raman, 532 nm, unoriented, Raman Data Processed
Mineral: Hausmannite
Rruff sample: R110179
Ideal chemistry: Mn^2+^Mn^3+^_2_O_4_
Locality: Cumbria, England
Source: Smithsonian
Description: Druse of sharp black octahedra
Raman shift (cm-1)	intensity
172.452	0
175.345	2.50776
178.237	13.4455
181.13	9.34353
184.023	19.3903
186.916	20.4167
189.808	23.6043
192.701	12.5297
195.594	20.342
198.486	8.8823
201.379	12.6362
204.272	13.2064
207.164	9.65639
210.057	12.9814
212.95	10.2161
215.843	5.48542
218.735	7.64044
221.628	9.03098
224.521	4.67686
227.413	6.67431
230.306	5.39817
233.199	2.94047
236.091	3.9399
238.984	9.22077
241.877	6.16136
244.769	2.17326
247.662	2.67074
250.555	4.80736
253.448	10.7811
256.34	13.4696
259.233	8.80375
262.126	9.30083
265.018	14.629
267.911	4.1354
270.804	1.08673
273.697	0.571503
276.589	1.14423
279.482	0.232712
282.375	2.04793
285.267	5.09607
288.16	9.84328
291.053	9.63628
293.945	11.7239
296.838	8.58559
299.731	9.04833
302.623	8.9381
305.516	16.8513
308.409	26.4567
311.302	33.9606
314.194	42.9333
317.087	67.245
319.98	79.4549
322.872	76.0234
325.765	49.6639
328.658	28.6035
331.55	20.5098
334.443	16.1814
337.336	8.38329
340.229	12.6822
343.121	7.29874
346.014	14.0116
348.907	16.9029
351.799	15.0831
354.692	18.1277
357.585	18.039
360.478	34.8916
363.37	44.4575
366.263	45.3419
369.156	49.9534
372.048	44.1606
374.941	44.0834
377.834	25.9376
380.726	14.8764
383.619	12.1291
386.512	8.22995
389.404	7.66329
392.297	5.54529
395.19	1.1713
398.083	4.01379
400.975	2.4384
403.868	4.56319
406.761	0.349686
409.653	4.19151
412.546	4.34118
415.439	1.84788
418.332	0.306961
421.224	2.77739
424.117	0.260429
427.01	3.31688
429.902	0.805504
432.795	2.39069
435.688	2.17313
438.58	1.54652
441.473	10.2466
444.366	3.21938
447.259	3.16763
450.151	4.62411
453.044	5.59901
455.937	6.01196
458.829	0.631256
461.722	8.92989
464.615	8.44459
467.507	8.82783
470.4	15.5061
473.293	8.54143
476.185	11.8537
479.078	10.7368
481.971	9.22825
484.864	9.97161
487.756	10.1848
490.649	9.74416
493.542	4.50903
496.434	8.08719
499.327	9.62917
502.22	3.60098
505.113	3.03803
508.005	3.92005
510.898	0.841484
513.791	4.14403
516.683	5.67573
519.576	1.58562
522.469	0.596771
525.361	1.50411
528.254	0.184227
531.147	5.61991
534.04	2.36829
536.932	13.5904
539.825	10.6275
542.718	18.6228
545.61	17.4546
548.503	21.3952
551.396	31.0663
554.288	34.6485
557.181	43.0901
560.074	39.1546
562.967	43.8628
565.859	36.5432
568.752	32.1633
571.645	26.8512
574.537	23.2401
577.43	23.0985
580.323	18.0095
583.216	8.09925
586.108	0.830093
589.001	4.07766
591.894	6.61874
594.786	0.494972
597.679	0.690292
600.572	0.242142
603.464	0.333191
606.357	11.0087
609.25	8.53571
612.142	21.7199
615.035	31.8306
617.928	43.3366
620.821	51.8012
623.713	64.9284
626.606	72.0994
629.499	84.8888
632.391	104.441
635.284	139.161
638.177	181.522
641.069	239.314
643.962	324.997
646.855	462.12
649.747	661.316
652.64	950.877
655.533	1280.74
658.426	1550.81
661.318	1547.6
664.211	1211.99
667.104	794.181
669.996	498.704
672.889	318.73
675.782	207.794
678.674	142.287
681.567	94.5888
684.46	72.1391
687.353	50.1568
690.245	39.7665
693.138	25.2735
696.031	14.1511
698.923	13.5583
701.816	3.91214
704.709	0.234573
707.601	0.260773
710.494	3.44156
713.387	1.14248
716.28	2.46503
719.172	1.93613
722.065	2.52365
724.958	3.7655
727.85	4.15794
730.743	0.952881
733.636	2.21429
736.529	0.74926
739.421	3.22517
742.314	4.7491
745.207	3.87639
748.099	3.88319
750.992	2.05906
753.885	5.66818
756.777	5.41746
759.67	6.65742
762.563	7.99483
765.456	7.40406
768.348	3.59135
771.241	0.099251
774.134	0.381813
777.026	5.1204
779.919	1.20928
782.812	6.5873
785.704	6.56216
788.597	4.01443
791.49	3.06072
794.383	3.02889
797.275	4.50499
800.168	8.56142
803.061	9.72015
805.953	6.65518
808.846	4.18961
811.739	8.26015
814.631	5.82881
817.524	5.27825
820.417	12.0467
823.309	8.62442
826.202	13.0435
829.095	7.43797
831.988	10.0695
834.88	10.106
837.773	15.7628
840.666	12.6852
843.558	15.0734
846.451	13.9452
849.344	10.7035
852.236	14.0699
855.129	13.9622
858.022	13.8708
860.915	11.2227
863.807	13.5016
866.7	9.84273
869.593	13.1793
872.485	14.9481
875.378	10.9984
878.271	9.36003
881.163	12.7179
884.056	9.11719
886.949	6.23512
889.842	5.19618
892.734	3.97852
895.627	6.75465
898.52	6.6695
901.412	3.67586
904.305	4.10364
907.198	3.72055
910.091	1.19994
912.983	1.20178
915.876	1.22636
918.769	3.90008
921.661	0.619362
924.554	1.6291
927.447	2.76357
930.339	5.91478
933.232	1.67858
936.125	1.81928
939.018	0.5994
941.91	4.95855
944.803	2.9505
947.696	5.3774
950.588	3.84137
953.481	7.74956
956.374	0.37196
959.266	3.1156
962.159	3.19259
965.052	0.485641
967.944	5.2182
970.837	3.99244
973.73	1.49715
976.623	5.82198
979.515	7.37508
982.408	8.79544
985.301	9.02501
988.193	5.06224
991.086	1.10941
993.979	0.744572
996.871	3.78424
999.764	5.95963
1002.66	8.30442
1005.55	4.02264
1008.44	3.99561
1011.34	0.128265
1014.23	9.93689
1017.12	2.77663
1020.01	2.04099
1022.91	4.61122
1025.8	2.932
1028.69	4.72467
1031.58	3.39806
1034.48	3.00051
1037.37	6.59642
1040.26	7.51837
1043.15	2.82987
1046.05	8.31879
1048.94	4.39471
1051.83	3.87463
1054.73	6.10682
1057.62	1.47113
1060.51	5.78515
1063.4	5.07741
1066.3	0.366867
1069.19	2.02982
1072.08	2.3215
1074.97	3.06358
1077.87	1.35263
1080.76	3.40697
1083.65	0.350224
1086.55	0.863911
1089.44	0.134129
1092.33	4.36532
1095.22	4.68762
1098.12	5.83025
1101.01	0.096867
1103.9	3.8279
1106.79	4.7629
1109.69	4.82552
1112.58	7.19436
1115.47	7.4178
1118.37	7.09959
1121.26	10.3868
1124.15	9.66176
1127.04	12.4602
1129.94	16.015
1132.83	13.0221
1135.72	18.7495
1138.61	19.344
1141.51	16.0027
1144.4	17.4018
1147.29	10.0001
1150.18	11.3917
1153.08	11.8876
1155.97	9.14436
1158.86	11.3404
1161.76	12.8337
1164.65	11.5349
1167.54	5.90342
1170.43	1.78213
1173.33	10.2805
1176.22	7.13507
1179.11	5.10768
1182	9.27255
1184.9	2.46853
1187.79	5.18314
1190.68	5.53714
1193.58	6.40567
1196.47	0.671764
1199.36	1.90163
1202.25	4.29175
1205.15	1.97101
1208.04	4.77644
1210.93	4.3274
1213.82	1.04887
1216.72	6.24228
1219.61	0.592197
1222.5	6.66954
1225.39	4.46897
1228.29	11.1335
1231.18	7.77827
1234.07	7.5092
1236.97	6.40306
1239.86	5.86586
1242.75	5.36543
1245.64	10.7699
1248.54	5.46098
1251.43	7.95512
1254.32	3.88462
1257.21	3.83553
1260.11	8.13194
1263	4.92715
1265.89	1.92316
1268.79	0.971085
1271.68	7.19231
1274.57	4.45693
1277.46	9.58831
1280.36	9.00713
1283.25	4.11492
1286.14	5.92452
1289.03	9.18412
1291.93	13.6603
1294.82	7.01226
1297.71	10.2523
1300.61	2.68207
