Measurement: Raman, 532 nm, unoriented, Raman Data Processed
Mineral: Hausmannite
Rruff sample: R040091
Ideal chemistry: Mn^2+^Mn^3+^_2_O_4_
Locality: Germany
Source: University of Arizona Mineral Museum
Description: Mass of black octahedral crystals
Measured chemistry: (Mn^2+^_0.96_Zn_0.02_Mg_0.02_)Mn^3+^_2.00_O_4_
Raman shift (cm-1)	intensity
103.244	0
106.619	1.04053
109.994	12.0345
113.369	6.69516
116.744	40.9964
120.118	54.1461
123.493	118.577
126.868	161.617
130.243	138.388
133.618	131.682
136.993	112.661
140.367	120.105
143.742	99.4788
147.117	102.219
150.492	86.0066
153.867	91.1085
157.241	82.9853
160.616	79.0165
163.991	79.5651
167.366	59.6061
170.741	62.9054
174.115	43.9524
177.49	45.2538
180.865	45.0766
184.24	40.3745
187.615	48.8712
190.989	43.4907
194.364	39.7316
197.739	32.7769
201.114	30.1438
204.489	31.0932
207.864	19.44
211.238	28.8057
214.613	19.8679
217.988	24.2298
221.363	8.35553
224.738	11.6214
228.113	17.1762
231.487	26.7961
234.862	0.449387
238.237	5.77469
241.612	0.564896
244.987	0.419907
248.361	7.52414
251.736	0.332092
255.111	1.21043
258.486	6.12251
261.861	4.56073
265.236	7.77275
268.61	11.821
271.985	6.98349
275.36	19.4732
278.735	26.9593
282.11	52.5073
285.484	52.555
288.859	70.3553
292.234	36.7074
295.609	25.7021
298.984	31.4903
302.358	38.9859
305.733	62.5819
309.108	132.487
312.483	196.688
315.858	232.676
319.233	219.636
322.607	139.679
325.982	74.6112
329.357	43.7534
332.732	27.3646
336.107	17.1209
339.481	20.9632
342.856	26.7289
346.231	28.2599
349.606	21.4869
352.981	51.3557
356.355	72.6821
359.73	122.435
363.105	179.685
366.48	251.058
369.855	295.224
373.229	307.873
376.604	216.561
379.979	125.56
383.354	64.6684
386.729	33.5797
390.104	17.1239
393.478	13.6334
396.853	1.86075
400.228	0.12825
403.603	8.24454
406.978	1.64079
410.353	1.35135
413.727	9.16418
417.102	11.9228
420.477	5.25594
423.852	4.449
427.227	3.8411
430.601	0.585541
433.976	0.698853
437.351	14.2912
440.726	13.445
444.101	4.04364
447.475	10.862
450.85	8.13513
454.225	14.6056
457.6	27.3171
460.975	27.0753
464.349	38.9611
467.724	32.5686
471.099	51.2655
474.474	51.7229
477.849	59.9418
481.224	51.8414
484.598	35.7386
487.973	30.6207
491.348	17.3358
494.723	22.4668
498.098	24.0037
501.473	24.3058
504.847	19.561
508.222	16.7028
511.597	9.96451
514.972	4.15701
518.347	5.69168
521.721	8.31955
525.096	5.78708
528.471	0.65567
531.846	2.55258
535.221	2.80704
538.595	5.02267
541.97	4.76779
545.345	6.42609
548.72	3.86987
552.095	17.9563
555.47	27.8584
558.844	29.7997
562.219	43.0834
565.594	24.4956
568.969	29.5102
572.344	19.4907
575.718	13.2089
579.093	21.6487
582.468	17.8953
585.843	7.41208
589.218	3.25159
592.592	1.50073
595.967	4.37115
599.342	2.11008
602.717	8.22723
606.092	16.6139
609.467	23.9848
612.841	28.8394
616.216	31.2458
619.591	57.6602
622.966	67.0771
626.341	78.1544
629.715	136.76
633.09	158.047
636.465	248.365
639.84	396.213
643.215	638.396
646.59	981.647
649.964	1410.77
653.339	1925.01
656.714	2298.49
660.089	2104.51
663.464	1421.78
666.838	853.177
670.213	481.068
673.588	310.8
676.963	190.839
680.338	129.506
683.712	79.2099
687.087	61.745
690.462	35.2817
693.837	17.1586
697.212	6.32251
700.587	16.5029
703.961	6.10233
707.336	6.79437
710.711	9.65216
714.086	1.28165
717.461	0.806519
720.835	2.09167
724.21	4.10217
727.585	16.5723
730.96	11.9715
734.335	11.7822
737.71	7.56177
741.084	0.282318
744.459	0.080963
747.834	9.08054
751.209	4.53818
754.584	17.5629
757.958	21.81
761.333	15.4539
764.708	24.2888
768.083	8.45062
771.458	4.35245
774.832	8.41483
778.207	2.45346
781.582	10.7076
784.957	8.13962
788.332	4.21899
791.707	14.9635
795.081	11.272
798.456	9.33789
801.831	5.76163
805.206	7.04495
808.581	2.01373
811.955	12.4968
815.33	9.53949
818.705	10.3138
822.08	8.38428
825.455	4.5105
828.83	13.4649
832.204	12.6149
835.579	22.4271
838.954	11.1245
842.329	3.39829
845.704	12.7188
849.078	6.94855
852.453	3.54733
855.828	14.4746
859.203	27.1693
862.578	9.23837
865.952	14.0462
869.327	1.57208
872.702	14.4277
876.077	13.9284
879.452	6.2746
882.827	8.66141
886.201	4.34509
889.576	16.7461
892.951	6.10257
896.326	3.08197
899.701	2.99741
903.075	18.5115
906.45	13.664
909.825	13.0096
913.2	0.247467
916.575	5.87051
919.949	1.42279
923.324	10.6747
926.699	0.165039
930.074	16.8673
933.449	2.83844
936.823	20.6156
940.198	8.35339
943.573	15.5908
946.948	12.1235
950.323	24.709
953.698	6.42493
957.072	8.96606
960.447	27.2745
963.822	22.6805
967.197	18.572
970.572	18.9458
973.947	15.787
977.321	20.0238
980.696	11.4154
984.071	25.9404
987.446	37.1001
990.821	18.7887
994.195	43.6018
997.57	21.683
1000.95	6.76437
1004.32	12.7685
1007.7	32.1492
1011.07	19.9922
1014.44	12.8708
1017.82	0.028839
1021.19	15.552
1024.57	13.1521
1027.94	13.6851
1031.32	9.14282
1034.69	16.1761
1038.07	19.623
1041.44	19.2755
1044.82	10.6967
1048.19	18.5623
1051.57	1.22736
1054.94	6.54288
1058.32	18.2655
1061.69	6.72043
1065.07	13.3829
1068.44	7.83884
1071.82	18.6001
1075.19	19.2956
1078.57	18.4329
1081.94	37.7457
1085.32	45.2694
1088.69	5.78812
1092.07	8.87405
1095.44	17.2654
1098.82	3.36981
1102.19	7.70825
1105.56	3.71716
1108.94	1.68637
1112.31	14.5746
1115.69	29.1986
1119.06	32.5738
1122.44	22.2046
1125.81	35.0671
1129.19	19.2832
1132.56	5.86731
1135.94	37.2422
1139.31	31.3872
1142.69	23.3532
1146.06	17.2871
1149.44	3.19135
1152.81	17.352
1156.19	38.8141
1159.56	15.7607
1162.94	9.99142
1166.31	7.92303
1169.69	4.28534
1173.06	18.5084
1176.43	15.1401
1179.81	11.0349
1183.18	12.5038
1186.56	10.0735
1189.93	20.8718
1193.31	26.0084
1196.68	5.07947
1200.06	11.9382
1203.43	5.30011
1206.81	3.66126
1210.18	16.3673
1213.56	17.5364
1216.93	10.7759
1220.31	6.34131
1223.68	20.6679
1227.06	0.738586
1230.43	33.1741
1233.81	3.73743
1237.18	18.6032
1240.56	13.8953
1243.93	6.99622
1247.31	25.3366
1250.68	7.43933
1254.06	11.689
1257.43	9.46692
1260.81	2.97308
1264.18	18.347
1267.56	18.0508
1270.93	21.9197
1274.31	1.65857
1277.68	6.74457
1281.06	19.9737
1284.43	5.06067
1287.8	5.74731
