Measurement: Raman, 514 nm, unoriented, Raman Data Processed
Mineral: Hausmannite
Rruff sample: R040090
Ideal chemistry: Mn^2+^Mn^3+^_2_O_4_
Locality: Ã–hrenstock, Ilmenau, near Thuringia, Germany
Source: University of Arizona Mineral Museum
Description: Mass of black octahedral crystals
Measured chemistry: (Mn^2+^_0.71_Zn_0.28_)Mn^3+^_2.00_O_4_
Raman shift (cm-1)	intensity
158.63	0
162.779	84.809
166.926	41.428
171.07	92.89
175.213	114.949
179.354	100.216
183.493	221.941
187.63	143.904
191.765	292.759
195.898	351.49
200.029	424.853
204.158	505.195
208.285	743.151
212.41	248.492
216.533	96.7
220.654	91.266
224.773	93.854
228.891	96.827
233.006	27.059
237.119	27.023
241.231	46.738
245.34	70.399
249.448	56.8
253.553	26.06
257.657	26.898
261.758	0.641
265.858	4.787
269.956	64.555
274.052	83.637
278.146	146.426
282.237	236.786
286.327	253.267
290.416	537.47
294.502	507.28
298.586	490.067
302.668	686.201
306.749	989.553
310.827	1578.02
314.903	2205.55
318.978	2956.29
323.051	2764.28
327.121	1824.28
331.19	1224.28
335.257	868.031
339.322	788.422
343.385	779.407
347.446	780.935
351.505	782.981
355.563	809.582
359.618	978.73
363.672	1207.25
367.723	1576.32
371.773	2009.68
375.821	2382.66
379.866	2385.18
383.91	1783.61
387.952	1046.45
391.992	703.061
396.031	302.276
400.067	178.124
404.101	116.689
408.134	41.417
412.165	32.803
416.193	42.513
420.22	36.947
424.245	3.781
428.268	38.949
432.289	84.845
436.309	43.908
440.326	5.206
444.342	70.641
448.355	11.998
452.367	39.433
456.377	77.962
460.385	83.309
464.391	163.325
468.395	144.163
472.398	199.889
476.398	186.521
480.397	176.852
484.394	239.891
488.389	195.563
492.382	160.193
496.373	140.8
500.362	100.391
504.349	184.96
508.335	146.509
512.319	203.051
516.3	225.591
520.28	259.158
524.259	203.762
528.235	187.502
532.209	289.292
536.182	280.18
540.152	254.17
544.121	373.269
548.088	340.476
552.053	363.778
556.017	384.251
559.978	535.918
563.938	644.706
567.895	689.356
571.851	765.392
575.805	781.222
579.758	692.198
583.708	652.306
587.657	737.056
591.603	755.393
595.548	734.425
599.491	770.894
603.432	784.419
607.372	966.608
611.309	1157.9
615.245	1379.25
619.179	1781.96
623.111	1933.44
627.041	2383.36
630.97	2683.86
634.896	3335.43
638.821	4414.08
642.744	5374.79
646.665	6802.57
650.584	9105.07
654.502	13017.5
658.418	17400.2
662.331	20953.3
666.244	19600
670.154	14193.8
674.062	9748.46
677.969	6561.75
681.874	4242.1
685.777	3158.93
689.678	2111.9
693.577	1834.46
697.475	1335.44
701.371	1219.13
705.265	951.353
709.157	822.171
713.047	738.281
716.936	739.517
720.823	805.672
724.708	740.285
728.591	689.149
732.472	680.641
736.352	508.954
740.23	588.157
744.106	494.153
747.98	514.949
751.853	461.537
755.723	580.022
759.592	480.009
763.459	447.684
767.325	342.764
771.188	407.922
775.05	378.987
778.91	356.171
782.768	255.56
786.625	187.093
790.479	240.818
794.332	228.689
798.183	109.499
802.033	94.254
805.88	71.047
809.726	51.625
813.57	51.095
817.413	2.476
821.253	18.756
825.092	32.919
828.929	35.997
832.764	56.895
836.598	9.568
840.429	30.967
844.259	53.8
848.088	36.841
851.914	3.126
855.739	27.763
859.562	3.235
863.383	133.765
867.203	65.443
871.02	61.161
874.836	49.467
878.65	3.12
882.463	32.773
886.274	25.946
890.083	31.392
893.89	70.651
897.695	87.877
901.499	113.839
905.301	107.734
909.102	168.294
912.9	112.021
916.697	172.152
920.492	169.126
924.285	132.097
928.077	102.939
931.867	120.777
935.655	49.22
939.442	219.667
943.226	163.861
947.009	157.964
950.791	179.239
954.57	197.199
958.348	171.146
962.124	308.974
965.899	226.988
969.671	220.737
973.442	312.17
977.211	334.492
980.979	294.257
984.745	333.335
988.509	275.543
992.271	231.483
996.032	193.286
999.791	261.257
1003.55	112.793
1007.3	126.229
1011.06	129.43
1014.81	100.006
1018.56	150.855
1022.31	101.687
1026.06	84.45
1029.8	36.459
1033.55	16.491
1037.29	51.179
1041.03	46.014
1044.77	73.559
1048.5	62.025
1052.24	8.683
1055.97	65.387
1059.7	0.257
1063.43	53.293
1067.16	91.682
1070.89	35.251
1074.61	15.418
1078.34	3.663
1082.06	83.935
1085.78	48.556
1089.5	26.765
1093.21	81.922
1096.93	98.033
1100.64	10.924
1104.35	30.033
1108.06	133.407
1111.77	188.72
1115.48	97.583
1119.18	163.416
1122.89	215.228
1126.59	150.049
1130.29	111.917
1133.99	204.847
1137.68	361.879
1141.38	112.94
1145.07	130.053
1148.76	203.238
1152.45	145.491
1156.14	65.801
1159.83	220.99
1163.51	92.397
1167.19	189.79
1170.88	185.08
1174.56	187.516
1178.23	99.149
1181.91	82.993
1185.59	125.347
1189.26	202.891
1192.93	140.041
1196.6	147.009
1200.27	68.16
1203.94	246.911
1207.6	172.189
1211.27	60.74
1214.93	223.104
1218.59	89.425
1222.25	229.306
1225.9	209.533
1229.56	214.41
1233.21	274.564
1236.86	238.095
1240.51	132.963
1244.16	237.536
1247.81	261.256
1251.45	252.03
1255.1	231.973
1258.74	168.965
1262.38	331.128
1266.02	349.772
1269.66	250.098
1273.29	323.481
1276.93	283.436
1280.56	364.492
1284.19	303.998
1287.82	415.728
1291.45	314.074
1295.07	367.967
1298.7	251.687
1302.32	435.28
1305.94	361.746
1309.56	427.368
1313.18	190.516
1316.8	247.744
1320.41	250.64
1324.02	103.166
1327.63	278.326
1331.24	92.95
1334.85	51.448
1338.46	20.616
1342.06	146.469
1345.67	103.002
1349.27	112.212
1352.87	129.125
1356.47	216.965
1360.07	78.23
1363.66	14.785
1367.25	54.945
1370.85	109.343
1374.44	81.339
1378.03	58.294
1381.61	56.237
1385.2	85.209
1388.78	64.115
1392.37	89.947
1395.95	75.614
1399.53	65.756
1403.1	70.879
1406.68	35.79
1410.26	104.562
1413.83	80.267
1417.4	27.919
1420.97	57.518
1424.54	60.974
1428.1	127.505
1431.67	22.597
1435.23	81.81
1438.8	63.374
1442.36	1.1
1445.91	194.53
1449.47	144.152
1453.03	295.803
1456.58	175.568
1460.13	187.299
1463.68	226.773
1467.23	117.054
1470.78	129.838
1474.33	164.111
1477.87	51.896
1481.42	214.59
1484.96	193.168
1488.5	140.405
1492.04	13.646
1495.57	182.851
1499.11	58.311
1502.64	70.758
1506.17	95.63
1509.71	7.562
