Measurement: Raman, 785 nm, unoriented, Raman Data Processed
Mineral: Hausmannite
Rruff sample: R040090
Ideal chemistry: Mn^2+^Mn^3+^_2_O_4_
Locality: Ã–hrenstock, Ilmenau, near Thuringia, Germany
Source: University of Arizona Mineral Museum
Description: Mass of black octahedral crystals
Measured chemistry: (Mn^2+^_0.71_Zn_0.28_)Mn^3+^_2.00_O_4_
Raman shift (cm-1)	intensity
106.684	0
110.059	14.2605
113.433	4.35761
116.808	26.6833
120.183	33.5577
123.558	51.326
126.933	92.5367
130.308	180.017
133.682	307.044
137.057	277.531
140.432	243.927
143.807	206.272
147.182	368.785
150.556	354.668
153.931	263.42
157.306	191.207
160.681	174.547
164.056	188.558
167.43	110.571
170.805	108.047
174.18	95.4668
177.555	79.7052
180.93	71.4801
184.305	42.622
187.679	33.5753
191.054	17.4543
194.429	30.3964
197.804	26.1055
201.179	24.7678
204.554	19.6042
207.928	12.5489
211.303	13.5771
214.678	10.6761
218.053	1.68819
221.428	0.42289
224.802	2.62615
228.177	0.107117
231.552	10.2229
234.927	9.30091
238.302	2.97574
241.676	10.0358
245.051	1.32169
248.426	0.6866
251.801	0.821907
255.176	2.36079
258.55	1.26915
261.925	0.469185
265.3	2.1635
268.675	8.23469
272.05	3.96944
275.425	6.43261
278.799	2.89517
282.174	0.158859
285.549	0.709602
288.924	0.334541
292.299	4.12772
295.673	11.0774
299.048	17.0639
302.423	28.8405
305.798	51.1708
309.173	74.3191
312.548	128.388
315.922	183.516
319.297	210.721
322.672	160.553
326.047	98.671
329.422	60.7345
332.796	54.3163
336.171	51.488
339.546	63.4245
342.921	71.0171
346.296	76.5483
349.671	112.764
353.045	161.363
356.42	236.913
359.795	385.232
363.17	557.575
366.545	799.659
369.919	1071.04
373.294	1292.22
376.669	1280.25
380.044	918.561
383.419	509.162
386.793	283.916
390.168	166.899
393.543	111.808
396.918	72.5322
400.293	42.5954
403.668	34.5471
407.042	28.081
410.417	11.5222
413.792	15.3168
417.167	4.52499
420.542	7.70592
423.916	8.99907
427.291	0.942734
430.666	3.49521
434.041	8.13399
437.416	5.51596
440.791	0.347725
444.165	1.83073
447.54	1.74774
450.915	1.94458
454.29	15.3505
457.665	10.4317
461.039	7.14731
464.414	17.477
467.789	12.6419
471.164	17.4854
474.539	19.6948
477.914	6.71847
481.288	18.475
484.663	14.5796
488.038	11.2319
491.413	22.6375
494.788	22.7426
498.163	17.8536
501.537	15.9314
504.912	20.1405
508.287	16.5367
511.662	13.3351
515.037	17.4908
518.411	26.1683
521.786	7.43914
525.161	12.9131
528.536	6.28088
531.911	5.22243
535.285	8.96351
538.66	1.86894
542.035	10.4574
545.41	2.17697
548.785	7.76141
552.159	6.29654
555.534	14.938
558.909	9.3345
562.284	5.92984
565.659	0.265961
569.034	2.12446
572.408	12.606
575.783	15.0875
579.158	7.41689
582.533	7.8353
585.908	2.97224
589.283	6.01007
592.657	0.008385
596.032	1.62194
599.407	0.01516
602.782	1.26308
606.157	14.5014
609.531	14.0224
612.906	26.1804
616.281	43.5289
619.656	48.5032
623.031	59.2289
626.405	86.5169
629.78	106.241
633.155	149.102
636.53	193.646
639.905	244.006
643.279	352.83
646.654	506.42
650.029	767.914
653.404	1200.01
656.779	1819.46
660.154	2409.38
663.528	2532.4
666.903	1967.45
670.278	1267.69
673.653	728.823
677.028	436.869
680.403	266.793
683.777	170.393
687.152	91.9707
690.527	66.0252
693.902	48.2775
697.277	42.8162
700.651	17.1003
704.026	2.00095
707.401	0.567696
710.776	6.23342
714.151	4.45888
717.525	8.52864
720.9	1.00191
724.275	3.04964
727.65	5.30671
731.025	4.35548
734.4	4.24281
737.774	9.60442
741.149	18.3053
744.524	1.20274
747.899	14.1609
751.274	5.59038
754.649	5.38924
758.023	10.7376
761.398	3.42751
764.773	8.15822
768.148	5.71001
771.523	16.4344
774.897	7.53442
778.272	8.9418
781.647	4.68282
785.022	10.0627
788.397	6.14156
791.771	2.58488
795.146	2.93732
798.521	3.99036
801.896	1.36927
805.271	2.96356
808.646	14.2721
812.02	9.40822
815.395	11.5458
818.77	8.16708
822.145	8.33115
825.52	3.29209
828.894	10.6817
832.269	6.17085
835.644	7.79715
839.019	9.88097
842.394	2.97828
845.769	7.7991
849.143	3.41282
852.518	15.6401
855.893	3.66097
859.268	0.982517
862.643	9.75745
866.018	6.07175
869.392	9.60116
872.767	9.48133
876.142	3.75487
879.517	8.158
882.891	9.32635
886.266	8.27901
889.641	3.03767
893.016	6.52626
896.391	6.70884
899.766	10.1448
903.14	10.5507
906.515	1.62782
909.89	9.74808
913.265	5.73332
916.64	2.36705
920.014	7.82844
923.389	11.4629
926.764	2.48888
930.139	5.53998
933.514	5.59399
936.889	7.98674
940.263	2.30479
943.638	5.22187
947.013	1.38274
950.388	7.65089
953.763	2.30197
957.138	20.1394
960.512	18.8695
963.887	7.98021
967.262	11.378
970.637	15.2775
974.011	8.93697
977.386	21.1627
980.761	16.3035
984.136	10.61
987.511	8.36347
990.886	4.14858
994.26	1.6954
997.635	16.6994
1001.01	0.26643
1004.38	8.22199
1007.76	9.82714
1011.13	14.8616
1014.51	8.73303
1017.88	0.823765
1021.26	5.48725
1024.63	0.577911
1028.01	7.29374
1031.38	0.268997
1034.76	9.52875
1038.13	6.4393
1041.51	13.8024
1044.88	12.9407
1048.26	5.06519
1051.63	19.6385
1055.01	4.03769
1058.38	14.7671
1061.76	15.1301
1065.13	0.955105
1068.51	1.65077
1071.88	12.8043
1075.26	3.85308
1078.63	7.11408
1082.01	6.90053
1085.38	13.0935
1088.76	4.25621
1092.13	7.19878
1095.51	4.29367
1098.88	13.0401
1102.26	2.05793
1105.63	6.56484
1109	6.01901
1112.38	11.252
1115.75	15.6801
1119.13	18.2162
1122.5	9.48208
1125.88	6.17612
1129.25	13.4087
1132.63	13.0515
1136	16.2217
1139.38	17.9732
1142.75	22.1426
1146.13	17.8935
1149.5	11.2658
1152.88	5.88214
1156.25	6.69757
1159.63	16.6603
1163	15.4051
1166.38	11.2262
1169.75	21.0718
1173.13	15.5158
1176.5	13.0326
1179.88	4.96148
1183.25	3.8869
1186.62	9.48759
1190	10.4689
1193.38	9.24941
1196.75	16.3174
1200.12	10.3784
1203.5	1.36373
1206.87	1.37686
1210.25	15.8059
1213.62	9.53849
1217	10.1278
1220.37	8.19129
1223.75	10.8796
1227.12	2.37701
1230.5	3.78888
1233.87	2.97568
1237.25	16.4027
1240.62	17.1628
1244	16.0687
1247.37	9.93641
1250.75	15.2946
1254.12	16.1018
1257.5	14.7338
1260.87	7.68057
1264.25	10.98
