Measurement: Raman, 532 nm, unoriented, Raman Data Processed
Mineral: Hausmannite
Rruff sample: R060512
Ideal chemistry: Mn^2+^Mn^3+^_2_O_4_
Locality: N'Chwaning II mine, Kalahari Manganese Field, northern Cape Province, Republic of South Africa
Source: Michael Scott
Description: Group of black pseudo-octahedra with striations parallel to the (001) plane
Measured chemistry: Mn^2+^_0.99_Mn^3+^_1.98_O_4_
Raman shift (cm-1)	intensity
93.158	0
96.5328	32.1622
99.9077	14.4967
103.282	2.95019
106.657	14.3441
110.032	67.4558
113.407	21.0897
116.782	65.6244
120.157	59.7636
123.531	48.4777
126.906	50.0104
130.281	42.4551
133.656	43.2885
137.031	23.9474
140.405	56.9165
143.78	25.6513
147.155	17.6906
150.53	16.9836
153.905	18.531
157.28	29.3082
160.654	5.91718
164.029	13.8243
167.404	9.54034
170.779	7.57971
174.154	8.46472
177.528	6.54321
180.903	9.71033
184.278	8.15063
187.653	11.6468
191.028	5.98138
194.403	5.87524
197.777	4.44733
201.152	3.42383
204.527	5.41901
207.902	0.392456
211.277	2.44098
214.651	2.17914
218.026	1.91058
221.401	2.06152
224.776	0.653015
228.151	0.047241
231.525	3.28357
234.9	1.31574
238.275	0.975586
241.65	0.753479
245.025	0.067322
248.4	0.582764
251.774	0.640137
255.149	2.14404
258.524	1.55127
261.899	2.41443
265.274	1.9682
268.649	3.49603
272.023	7.85278
275.398	12.4857
278.773	20.2352
282.148	26.1436
285.523	40.142
288.897	53.0565
292.272	52.1362
295.647	44.799
299.022	45.5919
302.397	57.2419
305.772	78.7976
309.146	105.003
312.521	137.314
315.896	182.469
319.271	211.671
322.646	187.743
326.02	120.019
329.395	74.2964
332.77	50.2255
336.145	40.2967
339.52	32.6423
342.894	30.6733
346.269	31.8823
349.644	31.1437
353.019	33.7452
356.394	39.3698
359.769	44.2474
363.143	52.5607
366.518	59.9944
369.893	59.6907
373.268	54.4133
376.643	42.3162
380.017	28.9255
383.392	16.9769
386.767	9.62189
390.142	5.9455
393.517	1.94879
396.892	0.810913
400.266	0.855164
403.641	1.61542
407.016	0.97937
410.391	1.39905
413.766	0.187256
417.14	2.92108
420.515	1.97784
423.89	2.54242
427.265	0.945984
430.64	0.621216
434.014	1.31201
437.389	0.602234
440.764	1.73029
444.139	4.35437
447.514	3.07941
450.889	3.03534
454.263	7.93988
457.638	12.4247
461.013	16.1876
464.388	22.1458
467.763	29.1272
471.137	33.2901
474.512	38.3058
477.887	39.9898
481.262	36.288
484.637	29.2148
488.012	21.923
491.386	19.4846
494.761	13.6131
498.136	9.75525
501.511	6.32007
504.886	8.81213
508.26	6.62402
511.635	3.70044
515.01	1.13391
518.385	2.64056
521.76	1.54565
525.135	1.70685
528.509	1.33704
531.884	1.8457
535.259	1.47382
538.634	3.1131
542.009	8.04571
545.384	10.2625
548.758	13.4228
552.133	18.123
555.508	22.2848
558.883	27.0454
562.258	31.3467
565.632	35.0477
569.007	32.0296
572.382	28.3735
575.757	24.5486
579.132	18.4318
582.506	9.20276
585.881	5.72937
589.256	5.18243
592.631	0.115173
596.006	2.67133
599.381	0.904724
602.755	0.101013
606.13	5.86322
609.505	10.2146
612.88	15.814
616.255	24.0963
619.63	33.0494
623.004	41.3916
626.379	50.4388
629.754	67.6053
633.129	92.0059
636.504	124.763
639.878	176.337
643.253	253.497
646.628	362.055
650.003	511.753
653.378	680.146
656.752	838.599
660.127	844.186
663.502	641.755
666.877	405.467
670.252	249.653
673.626	163.654
677.001	109.685
680.376	82.9965
683.751	60.0833
687.126	43.5398
690.501	32.4323
693.875	20.7873
697.25	13.1474
700.625	4.65997
704	2.23108
707.375	1.10376
710.75	1.64648
714.124	2.89868
717.499	2.1792
720.874	2.33081
724.249	0.03595
727.624	0.952698
730.998	0.452393
734.373	0.238831
737.748	2.70538
741.123	1.23804
744.498	0.20575
747.872	2.98578
751.247	7.05139
754.622	2.40045
757.997	4.21625
761.372	3.66003
764.747	6.71295
768.121	4.401
771.496	8.44824
774.871	3.70679
778.246	4.57989
781.621	4.89496
784.995	7.46722
788.37	7.54279
791.745	8.96924
795.12	10.7293
798.495	13.032
801.87	13.2903
805.244	18.619
808.619	21.6526
811.994	24.5943
815.369	24.2342
818.744	25.2217
822.119	29.1137
825.493	29.3077
828.868	32.6893
832.243	33.5314
835.618	34.1189
838.993	39.1217
842.367	41.4135
845.742	46.8168
849.117	46.2534
852.492	44.252
855.867	45.5149
859.241	44.2438
862.616	44.6827
865.991	42.1516
869.366	39.6258
872.741	39.6276
876.115	32.6172
879.49	32.7151
882.865	30.5466
886.24	25.254
889.615	21.5667
892.99	20.2426
896.364	16.8732
899.739	13.1215
903.114	8.22717
906.489	6.08685
909.864	3.22449
913.239	1.77356
916.613	2.19733
919.988	2.48309
923.363	1.09131
926.738	1.57288
930.113	1.61639
933.487	0.911926
936.862	1.23517
940.237	1.51343
943.612	2.52258
946.987	3.22125
950.361	8.75494
953.736	4.6369
957.111	3.91882
960.486	4.3349
963.861	8.88763
967.236	9.24445
970.61	10.8986
973.985	9.81543
977.36	10.2089
980.735	10.2123
984.11	9.13318
987.485	11.3295
990.859	10.6377
994.234	8.62042
997.609	6.98041
1000.98	8.42816
1004.36	8.19665
1007.73	6.53644
1011.11	8.04303
1014.48	9.08722
1017.86	9.43274
1021.23	7.94818
1024.61	9.66608
1027.98	11.119
1031.36	12.2883
1034.73	12.7058
1038.11	15.1114
1041.48	14.7672
1044.86	17.01
1048.23	13.1663
1051.61	15.5252
1054.98	14.4775
1058.36	7.5882
1061.73	6.67395
1065.11	5.60687
1068.48	6.78449
1071.86	3.75159
1075.23	4.23077
1078.6	0.485413
1081.98	1.40497
1085.35	1.69873
1088.73	1.16779
1092.1	0.280273
1095.48	0.865479
1098.85	1.53186
1102.23	1.06683
1105.6	0.074768
1108.98	3.26288
1112.35	3.32349
1115.73	4.11273
1119.1	7.76215
1122.48	6.40704
1125.85	5.99573
1129.23	7.28033
1132.6	5.74371
1135.98	6.5622
1139.35	7.34924
1142.73	10.0309
1146.1	5.88647
1149.48	4.68323
1152.85	7.52679
1156.22	6.88605
1159.6	4.68359
1162.97	1.64697
1166.35	2.68597
1169.72	2.00964
1173.1	0.766113
1176.47	1.77478
1179.85	1.67877
1183.22	5.52106
1186.6	4.05096
1189.97	0.298889
1193.35	0.704529
1196.72	1.2124
1200.1	2.61188
1203.47	0.329529
1206.85	6.47406
1210.22	2.52069
1213.6	3.47504
1216.97	1.43909
1220.35	3.86597
1223.72	2.31726
1227.1	1.82648
1230.47	2.93945
1233.85	1.94299
1237.22	0.918762
1240.6	3.32214
1243.97	4.22729
1247.35	2.69775
1250.72	2.44977
1254.1	3.05444
1257.47	2.82733
1260.85	2.91956
1264.22	0.153687
1267.59	2.58972
1270.97	0.52417
1274.34	2.25684
1277.72	0.817688
1281.09	6.57379
1284.47	3.23572
1287.84	2.91888
1291.22	4.80762
1294.59	3.17304
1297.97	0.55603
1301.34	0.820984
