Measurement: Raman, 514 nm, unoriented, Raman Data Processed
Mineral: Hausmannite
Rruff sample: R040091
Ideal chemistry: Mn^2+^Mn^3+^_2_O_4_
Locality: Germany
Source: University of Arizona Mineral Museum
Description: Mass of black octahedral crystals
Measured chemistry: (Mn^2+^_0.96_Zn_0.02_Mg_0.02_)Mn^3+^_2.00_O_4_
Raman shift (cm-1)	intensity
158.63	0
162.779	147.498
166.926	93.771
171.07	172.442
175.213	169.046
179.354	118.872
183.493	108.559
187.63	178.869
191.765	231.888
195.898	346.378
200.029	440.678
204.158	463.242
208.285	643.228
212.41	146.643
216.533	46.51
220.654	40.436
224.773	7.446
228.891	1.58
233.006	9.084
237.119	15.673
241.231	27.444
245.34	0.657
249.448	11.927
253.553	37.607
257.657	23.178
261.758	10.71
265.858	10.135
269.956	63.413
274.052	113.499
278.146	204.747
282.237	461.022
286.327	632.255
290.416	477.798
294.502	329.202
298.586	324.989
302.668	473.998
306.749	905.945
310.827	1519.26
314.903	1968.92
318.978	1654.56
323.051	1000.91
327.121	547.841
331.19	380.346
335.257	284.296
339.322	273.546
343.385	260.408
347.446	296.855
351.505	274.907
355.563	387.552
359.618	480.693
363.672	638.298
367.723	755.578
371.773	725.405
375.821	456.091
379.866	260.13
383.91	178.866
387.952	122.945
391.992	60.37
396.031	42.94
400.067	8.665
404.101	2.119
408.134	4.443
412.165	16.747
416.193	2.534
420.22	14.419
424.245	12.68
428.268	7.687
432.289	65.295
436.309	28.444
440.326	15.504
444.342	47.608
448.355	4.785
452.367	24.979
456.377	14.675
460.385	69.259
464.391	152.534
468.395	206.216
472.398	312.656
476.398	282.112
480.397	250.583
484.394	153.063
488.389	116.5
492.382	71.886
496.373	72.225
500.362	67.52
504.349	68.777
508.335	63
512.319	47.219
516.3	51.444
520.28	76.678
524.259	44.949
528.235	33.291
532.209	27.785
536.182	63.086
540.152	94.524
544.121	96.982
548.088	136.486
552.053	179
556.017	221.332
559.978	310.652
563.938	410.507
567.895	447.878
571.851	384.481
575.805	353.935
579.758	242.46
583.708	189.796
587.657	209.81
591.603	202.183
595.548	221.207
599.491	240.573
603.432	267.518
607.372	322.74
611.309	402.377
615.245	405.191
619.179	547.61
623.111	596.056
627.041	721.529
630.97	937.03
634.896	1229.56
638.821	1913.11
642.744	2944.69
646.665	4889.3
650.584	8349.93
654.502	12987.6
658.418	13148.3
662.331	9332
666.244	5479.74
670.154	3206.95
674.062	2066.91
677.969	1336.84
681.874	947.116
685.777	749.967
689.678	550.497
693.577	478.103
697.475	356.511
701.371	299.901
705.265	270.045
709.157	312.256
713.047	244.85
716.936	298.26
720.823	255.534
724.708	250.881
728.591	264.026
732.472	261.367
736.352	260.401
740.23	254.449
744.106	230.208
747.98	247.314
751.853	187.468
755.723	229.808
759.592	210.003
763.459	158.69
767.325	184.348
771.188	141.683
775.05	141.905
778.91	140.112
782.768	116.303
786.625	45.48
790.479	85.644
794.332	28.789
798.183	101.916
802.033	99.023
805.88	63.11
809.726	64.176
813.57	70.22
817.413	56.243
821.253	19.758
825.092	26.142
828.929	14.019
832.764	13.729
836.598	1.664
840.429	9.194
844.259	9.086
848.088	0.525
851.914	83.731
855.739	4.947
859.562	27.413
863.383	4.217
867.203	46.759
871.02	12.881
874.836	18.11
878.65	7.029
882.463	2.887
886.274	47.038
890.083	21.54
893.89	15.015
897.695	41.576
901.499	51.686
905.301	42.354
909.102	29.713
912.9	30.117
916.697	47.112
920.492	44.674
924.285	34.305
928.077	51.52
931.867	23.71
935.655	87.978
939.442	74.503
943.226	119.628
947.009	111.729
950.791	48.809
954.57	155.877
958.348	99.92
962.124	83.946
965.899	107.956
969.671	113.953
973.442	135.344
977.211	129.462
980.979	127.985
984.745	133.112
988.509	99.092
992.271	139.573
996.032	69.848
999.791	104.661
1003.55	39.634
1007.3	59.938
1011.06	35.931
1014.81	52.422
1018.56	3.634
1022.31	7.64
1026.06	38.416
1029.8	11.001
1033.55	14.407
1037.29	45.421
1041.03	25.01
1044.77	41.175
1048.5	7.681
1052.24	42.909
1055.97	25.172
1059.7	48.311
1063.43	34.646
1067.16	41.02
1070.89	18.565
1074.61	3.781
1078.34	34.797
1082.06	33.902
1085.78	15.478
1089.5	10.094
1093.21	52.757
1096.93	13.473
1100.64	0.761
1104.35	53.058
1108.06	58.956
1111.77	57.98
1115.48	100.066
1119.18	91.209
1122.89	194.419
1126.59	196.741
1130.29	190.155
1133.99	221.666
1137.68	251.319
1141.38	165.072
1145.07	183.925
1148.76	170.485
1152.45	165.863
1156.14	146.956
1159.83	126.124
1163.51	97.372
1167.19	134.734
1170.88	130.026
1174.56	66.566
1178.23	78.785
1181.91	80.335
1185.59	87.804
1189.26	92.699
1192.93	53.657
1196.6	64.562
1200.27	69.653
1203.94	68.831
1207.6	88.006
1211.27	62.193
1214.93	79.532
1218.59	53.549
1222.25	81.026
1225.9	112.572
1229.56	116.189
1233.21	149.253
1236.86	135.149
1240.51	69.461
1244.16	181.354
1247.81	106.306
1251.45	136.334
1255.1	111.976
1258.74	151.688
1262.38	169.97
1266.02	173.426
1269.66	174.812
1273.29	219.296
1276.93	181.071
1280.56	234.637
1284.19	213.271
1287.82	214.006
1291.45	251.776
1295.07	269.615
1298.7	234.129
1302.32	245.086
1305.94	253.895
1309.56	219.656
1313.18	191.02
1316.8	142.162
1320.41	128.152
1324.02	130.286
1327.63	151.319
1331.24	121.986
1334.85	51.645
1338.46	59.516
1342.06	95.172
1345.67	62.907
1349.27	92.469
1352.87	66.879
1356.47	44.167
1360.07	50.555
1363.66	63.04
1367.25	75.096
1370.85	68.299
1374.44	51.882
1378.03	19.716
1381.61	2.388
1385.2	13.101
1388.78	49.824
1392.37	73.606
1395.95	20.557
1399.53	22.314
1403.1	81.232
1406.68	46.221
1410.26	50.291
1413.83	9.452
1417.4	11.282
1420.97	32.099
1424.54	75.624
1428.1	57.283
1431.67	56.04
1435.23	68.889
1438.8	92.838
1442.36	100.585
1445.91	150.639
1449.47	43.805
1453.03	67.356
1456.58	31.671
1460.13	112.379
1463.68	41.178
1467.23	45.998
1470.78	55.856
1474.33	74.079
1477.87	57.472
1481.42	10.76
1484.96	68.297
1488.5	13.04
1492.04	6.192
