Measurement: Raman, 785 nm, unoriented, Raman Data Processed
Mineral: Hausmannite
Rruff sample: R040091
Ideal chemistry: Mn^2+^Mn^3+^_2_O_4_
Locality: Germany
Source: University of Arizona Mineral Museum
Description: Mass of black octahedral crystals
Measured chemistry: (Mn^2+^_0.96_Zn_0.02_Mg_0.02_)Mn^3+^_2.00_O_4_
Raman shift (cm-1)	intensity
102.827	0
106.202	17.0393
109.576	7.7417
112.951	23.3012
116.326	46.6686
119.701	5.30077
123.076	27.3077
126.451	103.253
129.825	237.713
133.2	176.391
136.575	73.0755
139.95	75.6831
143.325	136.74
146.699	168.214
150.074	122.567
153.449	81.3491
156.824	88.7669
160.199	70.1295
163.573	63.8599
166.948	55.589
170.323	56.1299
173.698	51.5932
177.073	32.356
180.448	35.9102
183.822	22.7623
187.197	21.0693
190.572	13.6491
193.947	12.5595
197.322	18.6989
200.696	16.3058
204.071	19.1608
207.446	3.52948
210.821	4.98945
214.196	2.10861
217.571	6.31408
220.945	1.48847
224.32	9.36082
227.695	0.661934
231.07	0.120895
234.445	2.70614
237.82	3.16174
241.194	4.35452
244.569	3.89716
247.944	1.79681
251.319	0.853889
254.694	2.36857
258.068	1.9653
261.443	2.88146
264.818	1.57476
268.193	5.12024
271.568	12.4972
274.942	18.0371
278.317	30.875
281.692	75.2599
285.067	156.888
288.442	223.253
291.817	168.25
295.191	61.6898
298.566	42.4928
301.941	31.1495
305.316	46.856
308.691	90.9337
312.065	170.101
315.44	263.752
318.815	285.532
322.19	188.604
325.565	102.931
328.94	51.8217
332.314	40.738
335.689	36.8403
339.064	28.5573
342.439	42.0768
345.814	57.0302
349.188	66.0021
352.563	101.991
355.938	161.655
359.313	263.426
362.688	444.397
366.062	659.657
369.437	941.839
372.812	1055.2
376.187	856.118
379.562	433.66
382.937	232.62
386.311	107.504
389.686	63.8873
393.061	43.7122
396.436	34.0104
399.811	18.6807
403.185	15.9408
406.56	10.9706
409.935	6.55205
413.31	7.40848
416.685	4.6464
420.06	7.9855
423.434	3.73907
426.809	1.74053
430.184	4.05345
433.559	6.49511
436.934	8.13101
440.308	5.32624
443.683	0.342964
447.058	4.20764
450.433	6.86269
453.808	20.7149
457.183	17.1999
460.557	15.7972
463.932	38.5219
467.307	55.4783
470.682	95.8434
474.057	129.524
477.432	122.504
480.806	113.656
484.181	82.8146
487.556	54.7514
490.931	37.3235
494.305	23.2549
497.68	26.9578
501.055	24.0495
504.43	12.5635
507.805	11.3274
511.18	3.49273
514.554	7.19845
517.929	17.7341
521.304	1.28941
524.679	10.2433
528.054	5.56557
531.428	1.54536
534.803	5.1347
538.178	4.66206
541.553	4.41489
544.928	6.40865
548.303	12.5741
551.677	8.2896
555.052	3.10188
558.427	11.5675
561.802	3.73997
565.177	5.31546
568.552	1.3924
571.926	15.2674
575.301	10.2546
578.676	4.1788
582.051	4.76905
585.426	5.24729
588.8	10.4847
592.175	1.69788
595.55	0.219948
598.925	1.67265
602.3	2.45461
605.674	1.09214
609.049	8.39548
612.424	13.9729
615.799	23.8921
619.174	31.138
622.548	43.4111
625.923	67.4537
629.298	85.7823
632.673	130.425
636.048	189.947
639.423	283.383
642.797	456.248
646.172	804.48
649.547	1308.67
652.922	2177.04
656.297	3125.92
659.672	3342.06
663.046	2356.23
666.421	1392.03
669.796	798.384
673.171	473.594
676.546	273.573
679.92	189.052
683.295	127.951
686.67	87.3913
690.045	53.4884
693.42	28.8032
696.794	30.8302
700.169	4.81953
703.544	15.159
706.919	8.12724
710.294	5.93652
713.669	4.72559
717.043	0.581543
720.418	3.98083
723.793	9.6626
727.168	19.7863
730.543	10.3253
733.918	9.57819
737.292	10.2613
740.667	14.3488
744.042	7.68933
747.417	16.7152
750.792	9.57784
754.166	13.1786
757.541	12.1966
760.916	8.4397
764.291	11.1734
767.666	9.72018
771.04	11.1853
774.415	2.7186
777.79	14.1651
781.165	5.59802
784.54	3.08467
787.915	4.44367
791.289	0.02655
794.664	5.52071
798.039	3.96313
801.414	0.016098
804.789	2.37529
808.163	7.0856
811.538	2.62961
814.913	2.53719
818.288	9.76322
821.663	1.40478
825.038	7.12405
828.412	4.87585
831.787	3.63649
835.162	10.4061
838.537	3.3619
841.912	2.50957
845.286	6.41714
848.661	12.0728
852.036	9.60428
855.411	2.91115
858.786	2.96151
862.16	11.3956
865.535	2.88334
868.91	8.48589
872.285	9.01608
875.66	3.07787
879.035	10.8991
882.409	3.43642
885.784	6.80949
889.159	8.83492
892.534	7.93452
895.909	6.71965
899.284	13.3921
902.658	5.33337
906.033	6.68138
909.408	6.19365
912.783	17.6777
916.158	10.888
919.532	9.1243
922.907	3.9432
926.282	2.42288
929.657	2.9199
933.032	8.01995
936.406	7.5426
939.781	5.32525
943.156	9.99551
946.531	9.4931
949.906	11.5562
953.28	12.1001
956.655	18.5861
960.03	15.829
963.405	12.1484
966.78	9.64625
970.155	16.7288
973.529	6.81755
976.904	17.9058
980.279	8.23887
983.654	8.31545
987.029	6.12832
990.404	9.93919
993.778	0.033466
997.153	9.86703
1000.53	10.1018
1003.9	6.88445
1007.28	7.19478
1010.65	13.1261
1014.03	11.0695
1017.4	7.62297
1020.78	1.89145
1024.15	4.63494
1027.53	3.26412
1030.9	4.45157
1034.28	4.40673
1037.65	8.47408
1041.03	4.93217
1044.4	1.49902
1047.78	6.77359
1051.15	21.3131
1054.53	5.64985
1057.9	14.6495
1061.28	9.99574
1064.65	3.05618
1068.02	5.92004
1071.4	9.68417
1074.77	2.38625
1078.15	5.58866
1081.52	6.03751
1084.9	10.8637
1088.27	7.14557
1091.65	5.29816
1095.02	3.1491
1098.4	12.2537
1101.77	7.49972
1105.15	4.45073
1108.52	15.5384
1111.9	7.09154
1115.27	7.3048
1118.65	13.9748
1122.02	15.6301
1125.4	13.9125
1128.77	26.2291
1132.15	23.4321
1135.52	13.0985
1138.89	9.36131
1142.27	24.5197
1145.64	25.6276
1149.02	12.272
1152.39	5.36597
1155.77	9.10711
1159.14	15.115
1162.52	13.1902
1165.89	7.07536
1169.27	15.0541
1172.64	8.37648
1176.02	11.4497
1179.39	1.62504
1182.77	1.09335
1186.14	4.71225
1189.52	13.3296
1192.89	8.65214
1196.27	13.3837
1199.64	8.60502
1203.02	0.680866
1206.39	4.9075
1209.77	7.75281
1213.14	11.244
1216.52	1.54523
1219.89	11.9486
1223.27	3.04791
1226.64	3.50438
1230.02	13.7296
1233.39	4.36577
1236.77	8.631
1240.14	4.47049
1243.52	8.11206
1246.89	8.53147
1250.26	4.87881
1253.64	13.7608
1257.01	9.98183
1260.39	3.74392
1263.76	4.31115
1267.14	16.1486
1270.51	0.130508
