Measurement: Raman, 532 nm, unoriented, Raman Data Processed
Mineral: Hausmannite
Rruff sample: R040090
Ideal chemistry: Mn^2+^Mn^3+^_2_O_4_
Locality: Ã–hrenstock, Ilmenau, near Thuringia, Germany
Source: University of Arizona Mineral Museum
Description: Mass of black octahedral crystals
Measured chemistry: (Mn^2+^_0.71_Zn_0.28_)Mn^3+^_2.00_O_4_
Raman shift (cm-1)	intensity
104.691	0
108.066	17.2132
111.44	10.1315
114.815	11.0724
118.19	29.7728
121.565	47.882
124.94	57.4248
128.314	61.6831
131.689	52.7119
135.064	33.7414
138.439	36.1477
141.814	36.7479
145.189	30.5312
148.563	28.4789
151.938	19.9521
155.313	26.6161
158.688	20.7055
162.063	14.1755
165.437	9.39281
168.812	15.3358
172.187	9.54087
175.562	15.7224
178.937	18.7172
182.311	11.91
185.686	11.1243
189.061	10.9218
192.436	16.4657
195.811	10.8079
199.185	9.84333
202.56	15.1905
205.935	9.54975
209.31	9.55294
212.685	4.86467
216.06	10.3259
219.434	4.32497
222.809	3.10244
226.184	4.64483
229.559	1.71065
232.934	10.3831
236.309	5.3783
239.683	1.89553
243.058	5.46455
246.433	1.79263
249.808	1.76893
253.183	0.722889
256.557	7.34731
259.932	2.96939
263.307	0.103668
266.682	1.06636
270.057	3.14996
273.431	2.85312
276.806	5.87227
280.181	4.99163
283.556	0.877125
286.931	6.12814
290.305	4.43535
293.68	8.01177
297.055	14.1374
300.43	22.6586
303.805	37.1331
307.18	66.7213
310.554	99.6001
313.929	139.97
317.304	164.457
320.679	155.226
324.054	112.071
327.428	66.431
330.803	40.7458
334.178	40.3927
337.553	29.329
340.928	33.1078
344.303	45.7515
347.677	47.2375
351.052	58.1266
354.427	94.6708
357.802	139.01
361.177	199.126
364.551	280.018
367.926	345.883
371.301	419.447
374.676	430.743
378.051	363.219
381.425	232.296
384.8	125.66
388.175	70.2602
391.55	41.7031
394.925	28.6578
398.3	19.2511
401.674	7.46825
405.049	2.42578
408.424	4.31074
411.799	10.305
415.174	5.79781
418.548	2.27168
421.923	2.19856
425.298	1.80524
428.673	7.56599
432.048	5.59037
435.423	2.52896
438.797	7.09111
442.172	6.0572
445.547	8.96761
448.922	4.14261
452.297	6.1276
455.671	9.88317
459.046	4.74259
462.421	10.2469
465.796	14.3292
469.171	4.15947
472.546	12.1831
475.92	15.1291
479.295	10.046
482.67	10.2704
486.045	12.4447
489.42	12.2558
492.794	12.8548
496.169	11.5978
499.544	12.2563
502.919	8.59942
506.294	14.2443
509.668	9.61005
513.043	7.49012
516.418	11.9738
519.793	12.9375
523.168	4.95965
526.543	7.48865
529.917	1.58508
533.292	7.00766
536.667	0.299553
540.042	10.0511
543.417	2.5198
546.791	6.29773
550.166	5.42436
553.541	2.4946
556.916	1.33848
560.291	10.5954
563.665	2.82512
567.04	2.94813
570.415	9.80364
573.79	14.3837
577.165	5.70722
580.54	10.1721
583.914	6.53502
587.289	1.53515
590.664	0.968834
594.039	2.22836
597.414	4.24628
600.788	9.88564
604.163	8.12406
607.538	13.9912
610.913	31.2782
614.288	51.8981
617.663	68.7388
621.037	89.231
624.412	111.4
627.787	127.489
631.162	150.873
634.537	199.598
637.911	266.521
641.286	374.768
644.661	520.887
648.036	751.85
651.411	1050.2
654.785	1411.66
658.16	1702.22
661.535	1834.34
664.91	1552.48
668.285	1077.61
671.659	661.495
675.034	393.356
678.409	249.473
681.784	154.411
685.159	96.5793
688.534	68.4825
691.908	50.6108
695.283	25.7107
698.658	9.50019
702.033	20.6033
705.408	9.90976
708.783	4.52351
712.157	1.12535
715.532	7.35008
718.907	1.47867
722.282	1.81231
725.657	7.98853
729.031	5.35353
732.406	8.82093
735.781	0.46373
739.156	10.29
742.531	7.55674
745.905	13.6136
749.28	15.3889
752.655	6.71579
756.03	2.46056
759.405	8.6604
762.779	14.6461
766.154	16.9136
769.529	0.46447
772.904	8.60805
776.279	10.7208
779.654	12.2701
783.028	1.04234
786.403	5.07696
789.778	7.66022
793.153	1.62959
796.528	5.88875
799.903	2.45934
803.277	6.90868
806.652	9.90844
810.027	2.15367
813.402	0.938488
816.777	5.85072
820.151	1.87274
823.526	11.5736
826.901	2.68814
830.276	6.82861
833.651	3.10068
837.025	4.38438
840.4	7.1646
843.775	8.28828
847.15	10.1126
850.525	5.74875
853.899	4.02046
857.274	13.1996
860.649	3.50226
864.024	8.82249
867.399	2.1832
870.774	0.002621
874.148	11.4323
877.523	5.01185
880.898	12.4023
884.273	8.27558
887.648	5.18396
891.023	6.54072
894.397	10.0459
897.772	10.3412
901.147	8.22945
904.522	8.56036
907.896	5.96797
911.271	6.69025
914.646	8.17639
918.021	8.8381
921.396	5.91056
924.771	10.8519
928.145	3.32062
931.52	6.1056
934.895	6.40971
938.27	13.4641
941.645	11.0528
945.019	9.47171
948.394	9.7784
951.769	10.1296
955.144	15.4402
958.519	9.56546
961.894	11.8915
965.268	18.859
968.643	1.24127
972.018	23.4686
975.393	11.7302
978.768	17.7327
982.143	11.4089
985.517	18.9837
988.892	8.68639
992.267	13.5885
995.642	7.35562
999.016	8.27926
1002.39	4.77111
1005.77	17.0326
1009.14	8.725
1012.52	6.39401
1015.89	1.08469
1019.26	0.209328
1022.64	11.7416
1026.02	12.7086
1029.39	5.35931
1032.77	2.62265
1036.14	10.5082
1039.51	3.10674
1042.89	1.46215
1046.26	0.262337
1049.64	6.24191
1053.01	3.33513
1056.39	6.3511
1059.76	1.37329
1063.14	0.539726
1066.51	0.035267
1069.89	5.82104
1073.26	5.53893
1076.64	12.7005
1080.01	8.40004
1083.39	1.41954
1086.76	2.94039
1090.14	0.076519
1093.51	4.03849
1096.89	8.78613
1100.26	6.58153
1103.64	6.12091
1107.01	7.67017
1110.38	7.0319
1113.76	5.90868
1117.13	7.91671
1120.51	15.4246
1123.88	10.1492
1127.26	18.7494
1130.63	21.8065
1134.01	21.998
1137.38	32.707
1140.76	23.5161
1144.13	29.8362
1147.51	18.2805
1150.88	26.5232
1154.26	23.2545
1157.63	21.5692
1161.01	18.1222
1164.38	19.6875
1167.76	13.3429
1171.13	6.4579
1174.51	4.90874
1177.88	12.9408
1181.26	8.9521
1184.63	7.54012
1188.01	5.5447
1191.38	1.55183
1194.76	11.4
1198.13	11.0497
1201.51	10.8514
1204.88	7.05403
1208.26	4.72537
1211.63	6.47683
1215.01	4.39578
1218.38	5.06094
1221.75	1.70271
1225.13	6.19392
1228.5	10.4933
1231.88	9.73114
1235.25	6.39738
1238.63	15.6834
1242	4.28349
1245.38	6.20326
1248.75	1.26164
1252.13	4.14935
1255.5	3.90953
1258.88	15.3295
1262.25	9.02803
1265.63	1.93331
1269	7.09033
1272.38	4.68699
1275.75	1.00715
1279.13	0.371979
1282.5	0.228722
1285.88	4.95849
1289.25	2.04028
