Measurement: Raman, 785 nm, unoriented, Raman Data Processed
Mineral: Hausmannite
Rruff sample: R060512
Ideal chemistry: Mn^2+^Mn^3+^_2_O_4_
Locality: N'Chwaning II mine, Kalahari Manganese Field, northern Cape Province, Republic of South Africa
Source: Michael Scott
Description: Group of black pseudo-octahedra with striations parallel to the (001) plane
Measured chemistry: Mn^2+^_0.99_Mn^3+^_1.98_O_4_
Raman shift (cm-1)	intensity
100.315	0
103.69	13.286
107.064	13.128
110.439	4.559
113.814	114.638
117.189	222.318
120.564	106.542
123.939	37.241
127.313	283.908
130.688	726.058
134.063	938.057
137.438	524.281
140.813	378.997
144.188	425.178
147.562	622.812
150.937	678.041
154.312	632.242
157.687	464.656
161.062	406.588
164.436	393.073
167.811	432.666
171.186	494.28
174.561	435.744
177.936	320.193
181.311	301.466
184.685	293.044
188.06	255.179
191.435	201.388
194.81	160.21
198.185	157.595
201.559	145.453
204.934	160.879
208.309	108.457
211.684	107.448
215.059	96.243
218.434	74.87
221.808	76.339
225.183	47.679
228.558	28.4
231.933	21.733
235.307	11.229
238.682	12.974
242.057	34.083
245.432	13.137
248.807	0.033
252.182	20.629
255.556	16.987
258.931	14.52
262.306	13.923
265.681	7.519
269.056	17.759
272.431	53.869
275.805	173.121
279.18	484.815
282.555	985.521
285.93	1689.11
289.305	1903.9
292.679	1242.47
296.054	829.631
299.429	744.451
302.804	891.442
306.179	1269.64
309.553	2006.72
312.928	3136.8
316.303	4407.64
319.678	4869.98
323.053	3405.03
326.428	1905.69
329.802	1107.93
333.177	727.618
336.552	521.88
339.927	396.771
343.302	374.605
346.677	391.852
350.051	402.434
353.426	402.465
356.801	487.368
360.176	640.94
363.551	795.766
366.925	893.413
370.3	885.427
373.675	778.167
377.05	514.496
380.425	334.062
383.799	189.853
387.174	146.069
390.549	82.086
393.924	42.852
397.299	40.195
400.674	6.456
404.048	4.209
407.423	21.164
410.798	19.935
414.173	16.256
417.548	2.243
420.922	2.948
424.297	19.165
427.672	16.4
431.047	39.777
434.422	34.249
437.797	13.697
441.171	39.195
444.546	56.555
447.921	101.371
451.296	122.043
454.671	167.455
458.045	256.394
461.42	375.019
464.795	586.696
468.17	853.728
471.545	1174.91
474.919	1270.08
478.294	1134.45
481.669	862.249
485.044	637.787
488.419	451.873
491.794	321.068
495.168	270.431
498.543	197.375
501.918	165.48
505.293	92.06
508.668	89.004
512.042	56.69
515.417	43.063
518.792	15.762
522.167	19.283
525.542	7.16
528.917	14.775
532.291	12.329
535.666	7.181
539.041	17.145
542.416	62.033
545.791	95.288
549.166	113.844
552.54	160.284
555.915	180.062
559.29	229.938
562.665	228.688
566.04	218.9
569.414	181.533
572.789	131.602
576.164	103.88
579.539	67.623
582.914	34.261
586.289	20.413
589.663	0.985
593.038	16.649
596.413	43.651
599.788	11.376
603.162	67.283
606.537	136.413
609.912	213.294
613.287	294.388
616.662	416.318
620.037	522.865
623.411	677.374
626.786	912.131
630.161	1230.26
633.536	1672.72
636.911	2249.74
640.286	3114.48
643.66	4362.64
647.035	6479.97
650.41	9991.85
653.785	14236.7
657.16	17390.6
660.534	15820.5
663.909	10460
667.284	6187.36
670.659	3797.38
674.034	2484.83
677.409	1724.79
680.783	1211.93
684.158	888.539
687.533	643.813
690.908	430.948
694.283	315.966
697.657	176.017
701.032	116.626
704.407	57.756
707.782	17.112
711.157	24.418
714.531	2.779
717.906	20.045
721.281	4.657
724.656	1.198
728.031	11.786
731.406	2.838
734.78	1.108
738.155	22.693
741.53	4.537
744.905	18.543
748.28	5.429
751.654	4.771
755.029	6.483
758.404	9.105
761.779	10.378
765.154	23.147
768.529	3.879
771.903	3.367
775.278	16.588
778.653	9.798
782.028	12.228
785.403	11.239
788.778	28.19
792.152	37.858
795.527	31.559
798.902	41.273
802.277	15.549
805.652	17.716
809.026	19.546
812.401	11.562
815.776	38.542
819.151	6.781
822.526	29.908
825.901	29.628
829.275	29.842
832.65	31.746
836.025	27.923
839.4	30.222
842.774	19.34
846.149	12.153
849.524	5.38
852.899	6.862
856.274	16.775
859.649	9.987
863.023	8.217
866.398	14.64
869.773	28.044
873.148	17.898
876.523	5.642
879.898	13.001
883.272	21.5
886.647	14.129
890.022	3.347
893.397	3.532
896.772	14.64
900.146	9.455
903.521	30.199
906.896	32.874
910.271	23.916
913.646	26.771
917.021	25.469
920.395	32
923.77	10.585
927.145	49.314
930.52	7.17
933.895	6.758
937.269	30.648
940.644	34.004
944.019	46.794
947.394	41.345
950.769	44.237
954.143	45.238
957.518	44.101
960.893	40.668
964.268	55.414
967.643	58.164
971.018	69.212
974.392	47.189
977.767	48.43
981.142	62.049
984.517	36.698
987.892	47.229
991.266	54.677
994.641	21.771
998.016	24.55
1001.39	2.012
1004.77	24.478
1008.14	10.059
1011.51	29.246
1014.89	11.332
1018.26	12.414
1021.64	0.714
1025.02	16.664
1028.39	2.773
1031.76	15.784
1035.14	7.644
1038.51	0.903
1041.89	1.008
1045.26	28.474
1048.64	3.575
1052.01	12.461
1055.39	21.425
1058.76	29.607
1062.14	18.211
1065.51	18.32
1068.89	19.027
1072.26	14.314
1075.64	9.334
1079.01	10.86
1082.39	18.398
1085.76	18.208
1089.14	19.674
1092.51	16.727
1095.89	29.631
1099.26	43.241
1102.63	52.289
1106.01	39.414
1109.38	67.672
1112.76	61.018
1116.13	61.485
1119.51	87.028
1122.88	72.62
1126.26	85.977
1129.63	113.621
1133.01	90.228
1136.38	101.97
1139.76	109.281
1143.13	84.269
1146.51	78.075
1149.88	87.131
1153.26	78.334
1156.63	88.332
1160.01	48.06
1163.38	51.764
1166.76	59.482
1170.13	76.606
1173.51	74.219
1176.88	33.398
1180.26	40.3
1183.63	30.819
1187.01	11.179
1190.38	25.252
1193.76	15.956
1197.13	18.504
1200.51	16.977
1203.88	0.898
1207.26	10.365
1210.63	37.837
1214	2.289
1217.38	6.592
1220.75	8.614
1224.13	30.602
1227.5	9.416
1230.88	45.73
1234.25	18.07
1237.63	23.099
1241	12.424
1244.38	17.232
1247.75	16.989
1251.13	14.087
1254.5	20.205
1257.88	4.763
