Measurement: Raman, 532 nm, unoriented, Raman Data Processed
Mineral: Hauyne
Rruff sample: R050606
Ideal chemistry: Na_3_Ca(Si_3_Al_3_)O_12_(SO_4_)
Locality: Ariccia, near Rome, Italy
Source: University of Arizona Mineral Museum
Description: Blue crystal embedded in calcite
Raman shift (cm-1)	intensity
159.576	0
162.469	1.96448
165.361	5.45142
168.254	16.6387
171.147	27.2642
174.039	29.1956
176.932	34.0685
179.825	31.3402
182.718	34.5109
185.61	36.2288
188.503	33.116
191.396	26.6465
194.288	29.7592
197.181	26.8832
200.074	27.248
202.966	26.0884
205.859	15.1471
208.752	11.8668
211.645	6.62341
214.537	2.50391
217.43	5.68701
220.323	0.244873
223.215	2.41065
226.108	3.58167
229.001	1.01257
231.893	2.41394
234.786	0.876099
237.679	2.73218
240.572	6.00684
243.464	4.07385
246.357	7.1012
249.25	11.7104
252.142	15.5464
255.035	15.5684
257.928	17.3162
260.82	20.7237
263.713	11.0779
266.606	8.24756
269.499	9.59558
272.391	11.7639
275.284	15.6372
278.177	21.5038
281.07	24.2443
283.962	20.3584
286.855	23.7095
289.748	24.957
292.64	18.6764
295.533	5.08801
298.426	4.08728
301.318	2.74207
304.211	4.54932
307.104	7.13196
309.997	1.81592
312.889	5.99609
315.782	10.828
318.675	13.9839
321.567	6.48267
324.46	3.99902
327.353	4.44824
330.245	0.494751
333.138	3.49902
336.031	0.014038
338.923	5.11475
341.816	8.95203
344.709	0.31958
347.602	0.53772
350.494	4.646
353.387	8.03223
356.28	8.76977
359.173	11.0665
362.065	15.9886
364.958	13.6599
367.851	11.5405
370.743	10.9214
373.636	24.7018
376.529	22.4143
379.421	25.8503
382.314	24.7268
385.207	27.7631
388.099	39.2053
390.992	18.8746
393.885	17.4434
396.778	20.2421
399.67	31.7594
402.563	44.897
405.456	71.2947
408.348	98.1204
411.241	135.918
414.134	189.542
417.026	258.075
419.919	339.498
422.812	438.959
425.705	552.686
428.597	694.274
431.49	834.236
434.383	893.234
437.276	845.131
440.168	717.373
443.061	602.119
445.954	482.908
448.846	398.973
451.739	333.335
454.632	291.832
457.524	249.9
460.417	202.326
463.31	175.211
466.202	151.765
469.095	136.165
471.988	113.6
474.881	95.6938
477.773	74.8317
480.666	62.9558
483.559	57.5322
486.451	39.3612
489.344	31.1993
492.237	13.2502
495.13	8.40686
498.022	4.59338
500.915	4.30981
503.808	0.723022
506.7	1.23938
509.593	3.25293
512.486	9.44604
515.379	4.19019
518.271	0.608032
521.164	3.42114
524.057	15.6862
526.949	24.3126
529.842	48.3909
532.735	78.2281
535.627	127.884
538.52	185.418
541.413	270.551
544.306	363.247
547.198	418.259
550.091	340.373
552.984	178.002
555.876	77.7708
558.769	37.2941
561.662	14.34
564.554	4.08728
567.447	1.12329
570.34	7.06543
573.232	5.09045
576.125	8.65405
579.018	8.25891
581.911	21.3986
584.803	20.3954
587.696	33.5084
590.589	34.7424
593.481	34.0414
596.374	34.7949
599.267	51.639
602.159	69.517
605.052	93.3376
607.945	103.421
610.838	111.246
613.73	114.785
616.623	113.454
619.516	103.73
622.409	86.3511
625.301	69.4269
628.194	58.2943
631.087	47.2797
633.979	49.6533
636.872	56.1569
639.765	70.3782
642.657	73.8392
645.55	82.1996
648.443	79.7301
651.336	66.0509
654.228	50.3804
657.121	32.767
660.014	22.6696
662.906	9.2998
665.799	3.89526
668.692	8.44617
671.585	0.044067
674.477	3.51135
677.37	2.58874
680.263	4.7428
683.155	1.56152
686.048	0.930908
688.941	3.8894
691.833	5.41333
694.726	4.03113
697.619	2.68567
700.511	1.24439
703.404	3.95203
706.297	8.13318
709.19	13.9526
712.082	12.3855
714.975	12.314
717.868	23.6726
720.76	25.8235
723.653	31.1617
726.546	29.3602
729.438	26.4177
732.331	19.2546
735.224	15.2844
738.117	12.3024
741.009	14.1312
743.902	12.6676
746.795	8.70569
749.687	12.8054
752.58	12.6266
755.473	9.06262
758.366	1.65271
761.258	0.003296
764.151	1.37195
767.044	1.46094
769.936	6.40784
772.829	9.0144
775.722	6.56006
778.615	2.05896
781.507	1.38379
784.4	3.37659
787.293	8.26721
790.185	7.31091
793.078	4.20898
795.971	6.51282
798.863	6.69348
801.756	13.3097
804.649	16.0463
807.542	15.5872
810.434	13.3551
813.327	10.1409
816.22	12.7075
819.112	10.7263
822.005	10.2285
824.898	4.98669
827.79	11.0327
830.683	15.5289
833.576	7.88574
836.469	3.42212
839.361	6.18982
842.254	8.50635
845.147	8.88379
848.039	0.405396
850.932	1.65796
853.825	5.40247
856.717	3.71826
859.61	6.57495
862.503	4.25269
865.396	4.94385
868.288	8.79651
871.181	20.1665
874.074	10.6852
876.966	7.8584
879.859	6.25635
882.752	7.29639
885.644	13.8846
888.537	10.048
891.43	8.11621
894.323	14.1392
897.215	7.32886
900.108	5.62329
903.001	6.81897
905.894	11.2896
908.786	4.08765
911.679	9.25232
914.572	7.28674
917.464	10.8044
920.357	0.210083
923.25	10.7556
926.142	7.12244
929.035	2.65466
931.928	1.84851
934.821	2.73547
937.713	3.63831
940.606	0.458008
943.499	0.081299
946.391	0.859985
949.284	4.22424
952.177	19.0234
955.069	35.9089
957.962	68.5487
960.855	112.676
963.748	204.745
966.64	366.517
969.533	586.967
972.426	862.592
975.318	1133
978.211	1289.95
981.104	1193.82
983.996	1131.9
986.889	1187.8
989.782	1210.99
992.675	1120.73
995.567	998.183
998.46	928.099
1001.35	922.696
1004.25	858.763
1007.14	723.669
1010.03	546.957
1012.92	410.488
1015.82	295.188
1018.71	202.72
1021.6	155.636
1024.49	124.362
1027.39	124.696
1030.28	117.106
1033.17	110.501
1036.07	99.9981
1038.96	80.1982
1041.85	72.8674
1044.74	52.512
1047.64	34.7285
1050.53	32.0586
1053.42	16.8384
1056.31	5.93213
1059.21	1.83398
1062.1	6.47656
1064.99	10.0476
1067.88	5.23535
1070.78	4.31934
1073.67	11.1902
1076.56	11.0373
1079.46	26.832
1082.35	41.2454
1085.24	55.303
1088.13	65.0986
1091.03	89.4058
1093.92	92.7249
1096.81	77.6157
1099.7	66.4404
1102.6	47.4946
1105.49	26.0698
1108.38	14.6802
1111.28	8.47876
1114.17	14.019
1117.06	11.4014
1119.95	20.4065
1122.85	20.7898
1125.74	16.8501
1128.63	20.844
1131.52	16.4041
1134.42	23.0249
1137.31	26.2195
1140.2	27.2305
1143.1	35.322
1145.99	37.3367
1148.88	38.0855
1151.77	51.095
1154.67	34.6592
1157.56	38.8816
1160.45	31.0596
1163.34	30.3318
1166.24	31.1352
1169.13	26.6973
1172.02	29.0408
1174.91	23.0647
1177.81	17.8152
1180.7	11.8608
1183.59	12.6843
1186.49	3.94141
1189.38	2.01221
1192.27	1.44775
1195.16	4.28979
1198.06	2.70801
1200.95	4.06152
1203.84	0.690674
1206.73	5.27564
1209.63	1.65869
1212.52	3.08569
1215.41	11.3896
1218.31	8.24731
1221.2	10.3914
1224.09	6.7312
1226.98	5.76685
1229.88	5.9978
1232.77	6.61792
1235.66	1.48975
1238.55	1.42749
1241.45	4.79663
1244.34	6.95947
1247.23	6.93091
1250.12	7.55493
1253.02	11.0832
1255.91	11.7534
1258.8	15.081
1261.7	17.5076
1264.59	10.8328
1267.48	12.1365
1270.37	18.3599
1273.27	23.8276
1276.16	15.5293
1279.05	19.9646
1281.94	8.38525
1284.84	5.73242
1287.73	5.66602
1290.62	3.99927
1293.52	2.25586
1296.41	4.91602
1299.3	3.74463
1302.19	0.015381
