Measurement: Raman, 532 nm, unoriented, Raman Data Processed
Mineral: Hauyne
Rruff sample: R070557
Ideal chemistry: Na_3_Ca(Si_3_Al_3_)O_12_(SO_4_)
Locality: Badakhshan, Afghanistan
Source: Farooq Hashmi
Description: Sky blue fragment
Measured chemistry: Na_3.00_(Ca_0.84_Na_0.16_)_Σ=1_(Si_3.05_Al_2.95_)O_12_((SO_4_)_0.89_Cl_0.11_)_Σ=1_
Raman shift (cm-1)	intensity
161.672	0
164.565	28.4463
167.457	113.758
170.35	75.9502
173.243	242.701
176.135	215.553
179.028	318.538
181.921	428.178
184.814	411.853
187.706	516.521
190.599	396.169
193.492	505.762
196.384	511.721
199.277	396.229
202.17	494.609
205.062	409.171
207.955	270.312
210.848	181.277
213.74	47.8467
216.633	93.2285
219.526	44.7334
222.419	13.1846
225.311	0.245117
228.204	77.8398
231.097	89.3721
233.989	85.1123
236.882	153.302
239.775	334.845
242.667	461.988
245.56	718.658
248.453	793.275
251.346	1072.23
254.238	1331.53
257.131	1433.13
260.024	1219.68
262.916	988.135
265.809	813.523
268.702	649.888
271.594	557.678
274.487	628.471
277.38	572.117
280.273	716.894
283.165	647.595
286.058	649.332
288.951	625.394
291.844	647.844
294.736	556.081
297.629	440.321
300.522	406.634
303.414	391.926
306.307	396.181
309.2	295.205
312.092	368.284
314.985	261.328
317.878	190.227
320.771	142.857
323.663	158.872
326.556	151.157
329.449	54.8428
332.341	35.3418
335.234	70.4258
338.127	31.8965
341.019	2.39941
343.912	82.4336
346.805	56.6318
349.697	119.795
352.59	163.232
355.483	224.515
358.376	44.1807
361.268	140.442
364.161	188.04
367.054	237.645
369.946	249.862
372.839	279.953
375.732	158.284
378.625	217.239
381.517	176.094
384.41	238.679
387.303	178.901
390.195	128.324
393.088	73.957
395.981	92.3428
398.873	333.613
401.766	285.726
404.659	450.522
407.551	611.504
410.444	978.324
413.337	1445.78
416.23	1933.78
419.122	2703.27
422.015	3599.29
424.908	4442.7
427.8	5593.53
430.693	6742.78
433.586	7901.6
436.478	8878
439.371	9736.25
442.264	10020.7
445.157	9973.96
448.049	9670.94
450.942	9186.53
453.835	8587.91
456.727	7945.75
459.62	7308.19
462.513	6582.75
465.406	5713.28
468.298	4905.72
471.191	4024.39
474.084	3275.13
476.976	2791.23
479.869	2423.97
482.762	2003.15
485.654	1595.23
488.547	1198.1
491.44	831.347
494.333	452.529
497.225	249.79
500.118	158.628
503.011	4.95019
505.903	15.1406
508.796	213.764
511.689	122.544
514.582	59.3984
517.474	105.682
520.367	57.1992
523.26	214.266
526.152	611.796
529.045	1477.04
531.938	2573.67
534.83	4229.54
537.723	6872.1
540.616	10097.8
543.509	13314.8
546.401	15566.6
549.294	14147.2
552.187	9186.2
555.079	4863.35
557.972	2182.19
560.865	1175.7
563.757	637.365
566.65	470.929
569.543	295.949
572.436	363.281
575.328	412.32
578.221	418.444
581.114	609.985
584.006	710.539
586.899	651.988
589.792	460.269
592.684	417.478
595.577	392.971
598.47	507.019
601.362	614.092
604.255	1085.23
607.148	1675.02
610.041	2083.41
612.933	2382.31
615.826	2619.1
618.719	2507.74
621.611	2348.4
624.504	1968.79
627.397	1502.99
630.289	1305.6
633.182	1100.28
636.075	1054.19
638.968	1236.45
641.86	1259.55
644.753	1156.71
647.646	816.606
650.538	560.491
653.431	456.486
656.324	324.036
659.216	141.278
662.109	59.206
665.002	37.6309
667.895	53.292
670.787	37.581
673.68	12.8652
676.573	9.84668
679.466	32.2705
682.358	20.6182
685.251	50.8096
688.144	12.4629
691.036	95.1816
693.929	112.064
696.822	218.424
699.714	100.609
702.607	285.709
705.5	132.381
708.393	203.133
711.285	259.227
714.178	317.832
717.071	487.514
719.963	432.201
722.856	322.508
725.749	282.043
728.641	284.135
731.534	254.865
734.427	267.209
737.319	235.449
740.212	262.195
743.105	197.928
745.998	238.965
748.89	191.731
751.783	93.1172
754.676	63.9785
757.568	107.422
760.461	99.8555
763.354	22.9922
766.246	88.7129
769.139	2.14844
772.032	40.4805
774.925	26.4238
777.817	137.449
780.71	116.264
783.603	200.004
786.495	270.582
789.388	201.353
792.281	263.389
795.173	364.879
798.066	496.973
800.959	471.603
803.852	302.861
806.744	343.648
809.637	376.877
812.53	248.018
815.422	252.643
818.315	162.799
821.208	67.1289
824.101	103.121
826.993	175.969
829.886	89.918
832.779	172.797
835.671	102.193
838.564	175.863
841.457	115.115
844.349	34.9395
847.242	132.576
850.135	170.082
853.028	293.32
855.92	217.185
858.813	128.914
861.706	205.32
864.598	177.092
867.491	100.076
870.384	232.629
873.276	303.184
876.169	340.912
879.062	154.412
881.955	27.6035
884.847	72.166
887.74	283.455
890.633	181.664
893.525	117.863
896.418	135.191
899.311	45.3281
902.203	117.219
905.096	165.756
907.989	109.35
910.881	75.4883
913.774	106.666
916.667	158.06
919.56	85.9941
922.452	40.0859
925.345	96.5938
928.238	43.9609
931.13	6.20312
934.023	54.6719
936.916	9.89062
939.808	23.9629
942.701	51.8887
945.594	16.7402
948.487	41.373
951.379	86.8496
954.272	149.697
957.165	458.269
960.057	867.805
962.95	1548.1
965.843	2607.05
968.736	4710.6
971.628	7538.6
974.521	10268.4
977.414	12657.4
980.306	14601.4
983.199	17176.9
986.092	21009.5
988.984	24462.5
991.877	24422.2
994.77	20031.8
997.663	14757.5
1000.55	10648.6
1003.45	7368.3
1006.34	5108.81
1009.23	3612.04
1012.13	2692.78
1015.02	2219
1017.91	1518.08
1020.8	1217.28
1023.7	644.742
1026.59	394.557
1029.48	285.799
1032.38	231.578
1035.27	133.818
1038.16	118.936
1041.05	152.871
1043.95	63.418
1046.84	77.6699
1049.73	53.7188
1052.62	3.83008
1055.52	85.6719
1058.41	36.0684
1061.3	29.1113
1064.19	128.273
1067.09	365.977
1069.98	590.473
1072.87	1009.54
1075.77	1234.19
1078.66	1693.93
1081.55	2322.37
1084.44	2716.75
1087.34	3110.65
1090.23	3580.29
1093.12	3607.69
1096.01	3139.6
1098.91	2674.15
1101.8	1938.44
1104.69	1422.88
1107.59	985.08
1110.48	698.137
1113.37	596.004
1116.26	685.918
1119.16	654.936
1122.05	601.111
1124.94	551.332
1127.83	625.74
1130.73	633.016
1133.62	571.693
1136.51	555.244
1139.4	627.941
1142.3	472.547
1145.19	543.545
1148.08	628.621
1150.98	807.055
1153.87	806.402
1156.76	817.803
1159.65	867.016
1162.55	964.283
1165.44	920.891
1168.33	859.93
1171.22	860.996
1174.12	871.449
1177.01	852.019
1179.9	814.498
1182.8	661.156
1185.69	606.859
1188.58	418.121
1191.47	346.883
1194.37	224.367
1197.26	100.088
1200.15	42.9121
1203.04	30.0293
1205.94	21.2578
1208.83	50.5117
1211.72	53.6914
1214.62	29.6348
1217.51	14.0273
1220.4	7.25977
1223.29	46.2656
1226.19	208.023
1229.08	152.482
1231.97	156.051
1234.86	238.94
1237.76	128.586
1240.65	222.932
1243.54	121.875
1246.43	234.307
1249.33	153.344
1252.22	173.982
1255.11	223.434
1258.01	99.0098
1260.9	114.42
1263.79	106.728
1266.68	173.418
1269.58	70.5312
1272.47	188.496
1275.36	16.2793
1278.26	67.3828
1281.15	152.764
1284.04	7.17773
1286.93	9.1875
1289.83	0
