Measurement: Raman, 780 nm, unoriented, Raman Data Processed
Mineral: Hauyne
Rruff sample: R050606
Ideal chemistry: Na_3_Ca(Si_3_Al_3_)O_12_(SO_4_)
Locality: Ariccia, near Rome, Italy
Source: University of Arizona Mineral Museum
Description: Blue crystal embedded in calcite
Raman shift (cm-1)	intensity
149.919	0
152.812	0.325821
155.705	0.010468
158.597	1.4848
161.49	2.54806
164.383	8.52501
167.276	8.15166
170.168	11.5991
173.061	14.5072
175.954	14.8886
178.846	15.0768
181.739	18.8937
184.632	20.7737
187.524	20.6255
190.417	18.6137
193.31	20.6289
196.203	17.2947
199.095	17.7763
201.988	14.4829
204.881	15.9236
207.773	13.1214
210.666	12.9336
213.559	12.0942
216.451	12.3008
219.344	8.63724
222.237	9.43503
225.13	9.74538
228.022	9.54085
230.915	9.34073
233.808	9.91637
236.7	8.05063
239.593	8.13901
242.486	7.02712
245.378	5.93941
248.271	5.71037
251.164	1.24551
254.056	3.5269
256.949	1.18507
259.842	0.102951
262.735	1.87828
265.627	0.401169
268.52	0.605225
271.413	1.51623
274.305	5.78071
277.198	7.4698
280.091	10.763
282.983	10.439
285.876	9.81753
288.769	11.3113
291.662	10.8351
294.554	8.82391
297.447	8.70035
300.34	8.05688
303.232	6.22012
306.125	6.17755
309.018	4.06937
311.911	8.05086
314.803	8.54149
317.696	7.9029
320.589	8.35804
323.481	5.65997
326.374	1.97778
329.267	0.003822
332.159	1.31403
335.052	2.06055
337.945	0.800301
340.837	1.15392
343.73	0.670647
346.623	0.460052
349.516	2.34908
352.408	3.38727
355.301	5.1459
358.194	6.28476
361.086	9.81218
363.979	8.60838
366.872	9.12571
369.764	10.3421
372.657	12.1906
375.55	13.676
378.442	10.5613
381.335	14.1455
384.228	12.8266
387.121	12.7552
390.013	9.72786
392.906	7.48011
395.799	7.6145
398.691	10.8684
401.584	14.8424
404.477	23.8265
407.37	35.9001
410.262	50.5482
413.155	73.1946
416.048	100.088
418.94	131.639
421.833	166.115
424.726	210.879
427.618	270.412
430.511	337.02
433.404	386.358
436.296	385.398
439.189	337.521
442.082	279.874
444.975	223.356
447.867	183.914
450.76	153.29
453.653	127.692
456.545	109.09
459.438	93.1414
462.331	76.6569
465.224	66.5583
468.116	60.3722
471.009	49.2708
473.902	40.5495
476.794	35.8138
479.687	29.3857
482.58	26.6125
485.472	20.4533
488.365	18.1308
491.258	12.3128
494.151	4.69917
497.043	2.84692
499.936	3.25041
502.829	0.119217
505.721	0.016518
508.614	0.751938
511.507	0.444717
514.399	0.880859
517.292	1.91969
520.185	2.34026
523.077	0.851707
525.97	0.599075
528.863	0.516319
531.756	0.182999
534.648	1.17197
537.541	2.00822
540.434	8.1018
543.326	9.73338
546.219	12.2354
549.112	9.48178
552.004	7.62995
554.897	4.7926
557.79	3.11343
560.683	2.12814
563.575	3.7412
566.468	2.44266
569.361	3.29855
572.253	2.14077
575.146	4.84579
578.039	3.8122
580.931	4.63247
583.824	2.95897
586.717	2.37327
589.61	5.63973
592.502	7.25272
595.395	13.0797
598.288	19.2594
601.18	25.7093
604.073	37.5475
606.966	47.6765
609.858	52.4317
612.751	50.5421
615.644	53.2582
618.537	50.5812
621.429	45.4271
624.322	38.1832
627.215	30.5876
630.107	26.9965
633	24.8009
635.893	28.2265
638.785	29.5125
641.678	30.7854
644.571	32.8951
647.463	34.1103
650.356	30.3743
653.249	27.6251
656.141	20.2164
659.034	11.6555
661.927	8.54974
664.82	6.1054
667.712	4.29034
670.605	2.71924
673.498	3.00691
676.39	1.72415
679.283	1.85988
682.176	0.020592
685.068	1.94128
687.961	0.308632
690.854	0.095123
693.747	1.77478
696.639	0.839264
699.532	0.496964
702.425	1.4638
705.317	0.46241
708.21	2.15098
711.103	2.12268
713.995	3.61424
716.888	4.50259
719.781	7.28923
722.674	5.69921
725.566	7.43159
728.459	6.16344
731.352	6.60377
734.244	5.63155
737.137	2.96451
740.03	3.54111
742.923	4.04906
745.815	4.72986
748.708	3.89643
751.601	1.97768
754.493	1.0564
757.386	1.67466
760.279	1.88102
763.171	1.03564
766.064	1.23394
768.957	0.054062
771.85	0.658928
774.742	2.1031
777.635	0.400185
780.528	0.167984
783.42	1.46466
786.313	0.967957
789.206	0.13028
792.098	2.33355
794.991	1.30354
797.884	2.26498
800.776	1.2686
803.669	1.26715
806.562	1.95657
809.455	2.33778
812.347	1.30748
815.24	0.276741
818.133	2.3294
821.025	2.90043
823.918	2.72129
826.811	2.59971
829.703	3.21893
832.596	3.79109
835.489	2.90237
838.381	5.02654
841.274	2.76355
844.167	2.66386
847.06	2.92382
849.952	3.89107
852.845	5.21582
855.738	3.38171
858.63	3.6339
861.523	5.29901
864.416	4.25054
867.308	3.53656
870.201	3.27105
873.094	5.36566
875.987	2.86343
878.879	4.84256
881.772	3.58304
884.665	4.11507
887.557	3.34645
890.45	3.42393
893.343	4.73018
896.236	2.62037
899.128	2.649
902.021	2.62547
904.914	1.57084
907.806	1.85188
910.699	1.16502
913.592	2.08704
916.484	0.702522
919.377	0.151772
922.27	0.864067
925.163	0.718422
928.055	0.302658
930.948	1.55665
933.841	0.468788
936.733	0.353004
939.626	0.858055
942.519	0.125313
945.411	0.357201
948.304	1.56702
951.197	1.53819
954.09	8.02503
956.982	12.1455
959.875	27.4334
962.768	47.7093
965.66	85.4538
968.553	144.202
971.446	222.101
974.338	313.585
977.231	384.26
980.124	378.548
983.016	342.986
985.909	353.114
988.802	368.096
991.694	351.283
994.587	312.445
997.48	283.32
1000.37	276.123
1003.26	270.156
1006.16	244.606
1009.05	192.171
1011.94	144.259
1014.84	106.025
1017.73	75.1033
1020.62	53.3301
1023.51	39.6937
1026.41	38.5497
1029.3	35.2651
1032.19	34.6129
1035.09	30.8956
1037.98	27.16
1040.87	24.4008
1043.76	21.6477
1046.66	13.7525
1049.55	11.146
1052.44	8.35007
1055.33	7.88662
1058.23	4.63675
1061.12	2.12238
1064.01	2.59863
1066.9	0.925514
1069.8	1.17508
1072.69	0.138664
1075.58	0.663628
1078.47	0.775658
1081.37	1.59734
1084.26	1.06992
1087.15	0.479813
1090.05	2.57107
1092.94	0.172142
1095.83	1.41119
1098.72	0.235275
1101.62	0.473572
1104.51	0.643341
1107.4	0.37574
1110.3	1.44837
1113.19	1.16375
1116.08	0.842178
1118.97	1.89385
1121.87	3.96448
1124.76	3.05806
1127.65	5.49827
1130.54	5.62386
1133.44	9.66071
1136.33	8.99053
1139.22	13.2135
1142.12	15.8138
1145.01	14.1814
1147.9	19.8913
1150.79	18.2382
1153.69	19.2852
1156.58	20.3296
1159.47	17.2453
1162.36	17.1866
1165.26	16.4023
1168.15	14.6823
1171.04	13.7862
1173.93	10.9092
1176.83	9.68781
1179.72	8.33788
1182.61	9.60223
1185.51	6.65332
1188.4	5.92555
1191.29	3.67902
1194.18	5.9358
1197.08	3.69835
1199.97	6.33624
1202.86	1.7988
1205.75	5.31958
1208.65	2.64687
1211.54	2.9361
1214.43	2.6837
1217.33	3.52734
1220.22	0.734406
1223.11	1.05705
1226	1.23387
1228.9	0.887283
1231.79	0.876801
1234.68	0.374069
1237.57	3.27039
1240.47	1.44453
1243.36	3.56923
1246.25	5.07217
1249.14	6.71964
1252.04	4.78742
1254.93	5.62003
1257.82	6.09392
1260.71	5.92763
1263.61	5.58775
1266.5	3.98759
1269.39	4.71106
1272.29	4.41975
1275.18	7.85069
1278.07	0.681396
1280.96	5.0025
1283.86	2.78265
