Measurement: Raman, 785 nm, unoriented, Raman Data Processed
Mineral: Hauyne
Rruff sample: R070121
Ideal chemistry: Na_3_Ca(Si_3_Al_3_)O_12_(SO_4_)
Locality: Hesse, Germany
Source: Michael Scott
Description: Blue cut gemstones
Raman shift (cm-1)	intensity
167.111	0
169.522	8.27783
171.932	88.731
174.343	90.4214
176.753	64.2978
179.164	3.36182
181.575	24.0855
183.985	38.4692
186.396	7.10352
188.806	49.814
191.217	101.829
193.627	162.174
196.038	197.826
198.449	285.902
200.859	323.084
203.27	318.54
205.68	320.063
208.091	308.967
210.502	347.632
212.912	427.935
215.323	446.578
217.733	523.891
220.144	691.842
222.554	785.525
224.965	906.321
227.376	945.807
229.786	930.514
232.197	999.608
234.607	1113.22
237.018	1165.94
239.429	1234.34
241.839	1364.24
244.25	1350.44
246.66	1447.59
249.071	1457.73
251.482	1560.97
253.892	1593.07
256.303	1513.09
258.713	1633.71
261.124	1607.15
263.534	1701.41
265.945	1656.09
268.356	1674.89
270.766	1687.26
273.177	1678.38
275.587	1615.19
277.998	1658.86
280.409	1572.92
282.819	1606.32
285.23	1548.04
287.64	1531.63
290.051	1399.2
292.461	1289.75
294.872	1172.84
297.283	1087.94
299.693	894.98
302.104	932.828
304.514	761.383
306.925	765
309.336	654.055
311.746	605.163
314.157	488.313
316.567	422.498
318.978	293.785
321.388	251.234
323.799	209.424
326.21	151.166
328.62	58.2388
331.031	35.5913
333.441	17.8809
335.852	7.43652
338.262	12.522
340.673	29.4834
343.084	21.5288
345.494	71.9146
347.905	24.6914
350.315	9.01416
352.726	21.0732
355.137	63.5933
357.547	13.1934
359.958	22.1533
362.368	18.3608
364.779	48.3452
367.19	35.1597
369.6	18.7432
372.011	66.7412
374.421	59.4302
376.832	39.627
379.242	59.1465
381.653	62.002
384.063	49.79
386.474	45.0464
388.885	10.8843
391.295	18.189
393.706	2.56006
396.116	43.9268
398.527	83.1309
400.938	150.94
403.348	136.859
405.759	188.475
408.169	252.706
410.58	494.688
412.99	526.023
415.401	674.825
417.812	972.954
420.222	1152.49
422.633	1478.29
425.043	1805.12
427.454	2055.72
429.865	2493.76
432.275	2945.26
434.686	3371.86
437.096	3746.62
439.507	3994.3
441.918	4134.69
444.328	4080.11
446.739	3927.04
449.149	3653.65
451.56	3321.7
453.97	3054.64
456.381	2815.24
458.792	2579.67
461.202	2211.62
463.613	1981.99
466.023	1765.52
468.434	1530.71
470.844	1348.7
473.255	1181.13
475.666	970.87
478.076	868.97
480.487	776.588
482.897	679.942
485.308	565.863
487.719	493.658
490.129	444.014
492.54	348.835
494.95	285.491
497.361	210.059
499.772	178.167
502.182	154.008
504.593	80.9883
507.003	4.17627
509.414	0.007813
511.824	29.9087
514.235	5.15723
516.646	48.2671
519.056	45.7129
521.467	0.500977
523.877	20.9873
526.288	98.2051
528.698	160.596
531.109	244.82
533.52	450.622
535.93	613.619
538.341	897.755
540.751	1133.87
543.162	1283.14
545.573	1287.46
547.983	975.875
550.394	661.141
552.804	333.744
555.215	173.014
557.625	50.4468
560.036	70.9692
562.447	26.7949
564.857	2.33984
567.268	3.6875
569.678	36.5693
572.089	29.394
574.5	10.8125
576.91	80.2798
579.321	51.8706
581.731	149.14
584.142	103.484
586.553	76.8286
588.963	103.393
591.374	70.5693
593.784	133.77
596.195	234.108
598.605	327.545
601.016	506.252
603.427	629.697
605.837	879.603
608.248	1058.9
610.658	1095.78
613.069	1173.75
615.48	1084.57
617.89	1039.58
620.301	997.078
622.711	991.477
625.122	890.131
627.532	828.107
629.943	732.535
632.354	652.184
634.764	596.324
637.175	642.157
639.585	664.915
641.996	644.326
644.406	609.052
646.817	533.881
649.228	503.233
651.638	401.968
654.049	394.059
656.459	312.328
658.87	302.78
661.28	198.451
663.691	200.723
666.102	163.862
668.512	147.023
670.923	129.538
673.333	117.98
675.744	106.548
678.155	126.533
680.565	88.8442
682.976	54.4741
685.386	30.8174
687.797	32.419
690.207	7.75391
692.618	44.1221
695.029	24.3823
697.439	7.50537
699.85	63.2822
702.26	23.9893
704.671	0.608398
707.082	38.6519
709.492	24.1211
711.903	19.5078
714.313	24.3179
716.724	1.18945
719.135	12.3789
721.545	8.33935
723.956	18.3408
726.366	5.57715
728.777	24.2573
731.187	4.31055
733.598	23.8276
736.009	8.27441
738.419	6.84033
740.83	39.7183
743.24	29.6411
745.651	37.8188
748.062	86.2827
750.472	28.6494
752.883	12.3672
755.293	29.9043
757.704	21.3818
760.114	97.6323
762.525	59.8218
764.936	75.9727
767.346	105.014
769.757	75.6768
772.167	91.2417
774.578	162.226
776.989	126.301
779.399	131.475
781.81	148.183
784.22	141.333
786.631	144.191
789.041	148.072
791.452	216.839
793.863	219.016
796.273	158.016
798.684	233.993
801.094	277.628
803.505	276.091
805.915	278.947
808.326	242.84
810.737	253.881
813.147	333.807
815.558	338.668
817.968	315.036
820.379	347.391
822.79	307.036
825.2	303.96
827.611	296.597
830.021	250.216
832.432	298.547
834.842	294.748
837.253	240.376
839.664	223.109
842.074	220.049
844.485	209.9
846.895	181.896
849.306	158.79
851.717	198.179
854.127	133.918
856.538	212.747
858.948	121.078
861.359	68.5342
863.769	72.3267
866.18	57.1426
868.591	97.917
871.001	89.0864
873.412	16.8516
875.822	8.72021
878.233	50.2153
880.644	122.762
883.054	28.3726
885.465	9.08252
887.875	13.1646
890.286	56.6768
892.697	25.9502
895.107	34.2681
897.518	26.9854
899.928	75.124
902.339	69.9648
904.749	96.8291
907.16	26.8833
909.571	75.5859
911.981	54.8608
914.392	63.6148
916.802	32.6143
919.213	44.8374
921.624	14.4087
924.034	106.624
926.445	88.3843
928.855	32.0151
931.266	26.376
933.676	34.5381
936.087	26.4145
938.498	2.91455
940.908	42.9507
943.319	88.103
945.729	13.1602
948.14	61.9287
950.551	26.0327
952.961	21.8945
955.372	64.3472
957.782	151.905
960.193	321.913
962.603	603.597
965.014	1050.99
967.424	1690.49
969.835	2559.57
972.246	3200.84
974.656	3852.72
977.067	4329.14
979.477	4686.54
981.888	5383.23
984.299	6304.92
986.709	7036.69
989.12	7346.53
991.53	7032.87
993.941	6450.42
996.351	5533.73
998.762	4723.81
1001.17	4051.63
1003.58	3303.67
1005.99	2836.13
1008.4	2292.66
1010.82	1927.9
1013.23	1602.15
1015.64	1181.06
1018.05	807.684
1020.46	457.917
1022.87	241.451
1025.28	139.847
1027.69	40.71
1030.1	30.4248
1032.51	82.1475
1034.92	5.12012
1037.33	128.51
1039.74	178.606
1042.15	406.864
1044.56	486.877
1046.97	584.992
1049.38	777.443
1051.8	682.703
1054.2	788.362
1056.62	805.833
1059.03	658.268
1061.44	396.055
1063.85	369.853
1066.26	365.562
1068.67	331.5
1071.08	404.682
1073.49	206.273
1075.9	390.336
1078.31	48.4863
1080.72	213.91
1083.13	150.033
1085.54	91.8125
1087.95	31.4766
