Measurement: Raman, 785 nm, unoriented, Raman Data Processed
Mineral: Hauyne
Rruff sample: R070557
Ideal chemistry: Na_3_Ca(Si_3_Al_3_)O_12_(SO_4_)
Locality: Badakhshan, Afghanistan
Source: Farooq Hashmi
Description: Sky blue fragment
Measured chemistry: Na_3.00_(Ca_0.84_Na_0.16_)_Σ=1_(Si_3.05_Al_2.95_)O_12_((SO_4_)_0.89_Cl_0.11_)_Σ=1_
Raman shift (cm-1)	intensity
151.423	0
154.315	86.1262
157.208	72.4895
160.101	59.9529
162.994	30.613
165.886	5.43726
168.779	38.8831
171.672	81.1373
174.564	6.77087
177.457	47.3232
180.35	39.0266
183.243	62.584
186.135	38.3873
189.028	110.536
191.921	118.709
194.813	67.1346
197.706	29.5748
200.599	91.3931
203.491	20.9949
206.384	59.3584
209.277	46.3577
212.169	46.9281
215.062	20.4802
217.955	42.4651
220.848	25.1847
223.74	13.6415
226.633	22.5095
229.526	36.6857
232.418	26.7792
235.311	47.7291
238.204	26.7822
241.096	78.5593
243.989	85.0115
246.882	53.912
249.775	99.3888
252.667	97.8009
255.56	95.8509
258.453	112.459
261.345	126.135
264.238	116.453
267.131	110.298
270.024	113.955
272.916	157.722
275.809	136.274
278.702	192.056
281.594	193.793
284.487	191.197
287.38	174.523
290.272	162.043
293.165	165.334
296.058	156.756
298.95	84.5773
301.843	68.5122
304.736	107.712
307.629	74.6628
310.521	62.8684
313.414	61.1482
316.307	72.3956
319.199	29.2767
322.092	5.09912
324.985	11.0205
327.877	9.96094
330.77	25.6526
333.663	22.6503
336.556	20.7216
339.448	3.28577
342.341	3.25604
345.234	1.72064
348.127	20.2525
351.019	30.1005
353.912	34.6423
356.805	66.6135
359.697	50.4642
362.59	62.2833
365.483	65.4639
368.375	58.0256
371.268	76.4156
374.161	68.7389
377.053	83.5075
379.946	28.8096
382.839	63.2847
385.732	63.5032
388.624	62.2045
391.517	84.3435
394.41	17.5344
397.302	60.3118
400.195	64.6263
403.088	88.1653
405.981	109.451
408.873	195.216
411.766	313.141
414.659	426.507
417.551	567.733
420.444	751.84
423.337	976.966
426.229	1187.46
429.122	1447.1
432.015	1664.1
434.908	1904.38
437.8	2005.5
440.693	2087.27
443.586	2066.08
446.478	1970.56
449.371	1861.55
452.264	1735.76
455.156	1577.68
458.049	1454.09
460.942	1348.16
463.834	1115.98
466.727	1000.04
469.62	838.996
472.513	634.54
475.405	555.312
478.298	458.995
481.191	374.218
484.083	282.576
486.976	272.117
489.869	205.758
492.762	169.409
495.654	173.427
498.547	146.685
501.44	84.6167
504.332	32.4464
507.225	21.3607
510.118	16.7134
513.01	40.1818
515.903	2.15112
518.796	10.8829
521.688	14.1339
524.581	33.2634
527.474	5.96387
530.367	17.2895
533.259	109.819
536.152	188.953
539.045	283.584
541.937	363.334
544.83	373.864
547.723	277.519
550.615	147.308
553.508	65.788
556.401	37.006
559.294	27.8968
562.186	13.3147
565.079	3.73474
567.972	29.2219
570.864	23.4428
573.757	45.7614
576.65	45.191
579.543	35.6752
582.435	32.0015
585.328	31.9257
588.221	43.3123
591.113	70.4005
594.006	141.493
596.899	193.675
599.791	246.886
602.684	373.578
605.577	505.813
608.47	675.109
611.362	683.735
614.255	724.067
617.148	694.534
620.04	607.038
622.933	517.129
625.826	429.142
628.718	365.271
631.611	328.758
634.504	341.663
637.396	319.419
640.289	351.232
643.182	278.769
646.075	230.158
648.967	162.785
651.86	99.3354
654.753	96.3819
657.645	40.3987
660.538	33.6533
663.431	17.8922
666.323	21.7757
669.216	6.7807
672.109	17.9267
675.002	65.2304
677.894	22.4032
680.787	4.92456
683.68	0.947266
686.572	11.6591
689.465	4.75848
692.358	8.89996
695.25	9.30994
698.143	6.81616
701.036	9.24249
703.929	15.4948
706.821	31.2075
709.714	34.4136
712.607	29.6208
715.5	50.4717
718.392	43.5326
721.285	49.7942
724.178	78.6346
727.07	42.2487
729.963	20.9957
732.856	42.6713
735.748	65.1373
738.641	72.5588
741.534	24.2357
744.427	42.2105
747.319	23.1373
750.212	9.34479
753.105	18.4348
755.997	6.0769
758.89	20.4082
761.783	1.43494
764.675	11.5232
767.568	11.5452
770.461	2.6568
773.354	9.13977
776.246	10.3706
779.139	11.2385
782.032	23.5246
784.924	34.6222
787.817	18.884
790.71	34.8974
793.602	30.8851
796.495	29.4601
799.388	31.9971
802.28	21.6504
805.173	37.7916
808.066	52.8559
810.959	58.1194
813.851	43.3296
816.744	38.053
819.637	23.8801
822.529	37.1097
825.422	65.0996
828.315	45.193
831.207	44.4601
834.1	49.286
836.993	27.2967
839.886	58.3075
842.778	55.8185
845.671	27.2275
848.564	25.9063
851.456	40.1426
854.349	44.1148
857.242	14.9106
860.135	29.9977
863.027	17.9875
865.92	35.382
868.813	74.7458
871.705	58.3762
874.598	38.9628
877.491	28.9226
880.383	41.0263
883.276	35.0902
886.169	23.9691
889.062	41.0516
891.954	54.7683
894.847	33.6091
897.74	39.0563
900.632	4.76263
903.525	25.2553
906.418	29.9014
909.31	24.1205
912.203	32.3742
915.096	31.3832
917.989	15.8726
920.881	49.642
923.774	4.08545
926.667	10.8367
929.559	6.57752
932.452	6.91803
935.345	0.950378
938.237	6.23114
941.13	7.93189
944.023	6.31641
946.915	19.0826
949.808	20.8507
952.701	33.1125
955.594	116.767
958.486	186.031
961.379	376.895
964.272	643.772
967.164	1167.49
970.057	1737.22
972.95	2234.45
975.842	2530.61
978.735	2930.52
981.628	3581.62
984.521	4471.04
987.413	5005.03
990.306	4508.46
993.199	3524.14
996.091	2651.24
998.984	1865.3
1001.88	1265.76
1004.77	871.864
1007.66	693.005
1010.55	598.367
1013.45	584.999
1016.34	618.474
1019.23	434.975
1022.13	250.836
1025.02	129.998
1027.91	121.762
1030.8	96.5794
1033.7	68.4799
1036.59	91.5512
1039.48	109.992
1042.38	88.9698
1045.27	99.2738
1048.16	84.9332
1051.05	84.9807
1053.94	70.385
1056.84	15.4134
1059.73	27.082
1062.62	24.5929
1065.52	15.1408
1068.41	43.904
1071.3	32.5156
1074.19	33.1792
1077.09	18.1565
1079.98	16.609
1082.87	32.0975
1085.77	40.2507
1088.66	16.5317
1091.55	43.7207
1094.44	37.6105
1097.34	54.4
1100.23	28.7877
1103.12	29.6451
1106.01	58.5688
1108.91	44.5701
1111.8	55.1938
1114.69	36.553
1117.59	27.3931
1120.48	8.0459
1123.37	12.3469
1126.26	19.0476
1129.16	47.8225
1132.05	39.5505
1134.94	55.8342
1137.83	79.1902
1140.73	69.0142
1143.62	102.133
1146.51	133.716
1149.4	126.594
1152.3	110.891
1155.19	86.6279
1158.08	91.1504
1160.97	122.542
1163.87	114.441
1166.76	41.8037
1169.65	64.5408
1172.55	53.5659
1175.44	6.02588
1178.33	48.9761
