Measurement: Raman, 532 nm, unoriented, Raman Data Processed
Mineral: Hauyne
Rruff sample: R070121
Ideal chemistry: Na_3_Ca(Si_3_Al_3_)O_12_(SO_4_)
Locality: Hesse, Germany
Source: Michael Scott
Description: Blue cut gemstones
Raman shift (cm-1)	intensity
129.451	0
132.826	239.949
136.2	836.061
139.575	846.785
142.95	488.143
146.325	603.253
149.7	1003.95
153.074	1262.97
156.449	1290.77
159.824	1208.48
163.199	1185.2
166.574	1181.41
169.948	1288.39
173.323	1308.02
176.698	1314.79
180.073	1122.21
183.448	1066.84
186.822	1038.45
190.197	853.447
193.572	722.266
196.947	591.218
200.322	434.978
203.697	337.804
207.071	257.269
210.446	146.307
213.821	28.9482
217.196	3.25586
220.571	85.8877
223.946	46.8262
227.32	15.6357
230.695	66.4053
234.07	273.556
237.445	555.477
240.82	965.061
244.195	1625.91
247.569	2513.82
250.944	3427.84
254.319	4213.13
257.694	4251.89
261.068	3683.22
264.443	2735.96
267.818	2048.27
271.193	1705.85
274.568	1364.4
277.943	1198.03
281.317	1136.47
284.692	1184.74
288.067	1135.28
291.442	866.372
294.817	704.697
298.192	465.954
301.566	368.362
304.941	211.512
308.316	143.423
311.691	62.29
315.066	254.28
318.44	75.5781
321.815	8.66602
325.19	21.0488
328.565	24.3936
331.94	116.224
335.315	59.8682
338.689	102.986
342.064	35.9043
345.439	36.3867
348.814	116.045
352.189	445.942
355.563	201.654
358.938	170.328
362.313	197.291
365.688	231.222
369.063	278.303
372.438	243.858
375.812	301.211
379.187	234.702
382.562	316.454
385.937	248.637
389.312	209.15
392.687	96.2246
396.061	73.2139
399.436	176.174
402.811	209.246
406.186	358.076
409.56	730.36
412.935	1185.81
416.31	1880.89
419.685	2490.84
423.06	3402.45
426.435	4688.53
429.81	5881.42
433.184	7585.79
436.559	9056.66
439.934	9779.93
443.309	9894.07
446.684	9378.55
450.058	8509.37
453.433	7533.76
456.808	6687.47
460.183	5549.05
463.558	4175.27
466.933	3189.77
470.307	2441.96
473.682	1932.54
477.057	1160.99
480.432	888.607
483.807	490.065
487.181	304.299
490.556	2.97266
493.931	151.344
497.306	226.924
500.681	240.371
504.055	202.324
507.43	98.6914
510.805	284.981
514.18	900.055
517.555	1720.89
520.93	3207.99
524.304	5871.82
527.679	10452.1
531.054	18473.9
534.429	30848
537.804	47224.2
541.178	64806.4
544.553	74414.2
547.928	63030.4
551.303	36205.1
554.678	16162.8
558.053	7918.9
561.427	4862.24
564.802	3562.53
568.177	3433
571.552	3833.03
574.927	4888.59
578.302	5575.06
581.676	5523.14
585.051	4740.92
588.426	3715.93
591.801	2506.54
595.176	1706.71
598.55	1245.85
601.925	1340.08
605.3	1749.44
608.675	2386.3
612.05	2499.25
615.424	2424.31
618.799	2246.71
622.174	2117.7
625.549	1735.33
628.924	1281.86
632.299	1106.04
635.673	1012.96
639.048	1140.63
642.423	1254.9
645.798	1059.47
649.173	794.457
652.548	555.99
655.922	165.109
659.297	17.127
662.672	120.662
666.047	169.82
669.422	168.275
672.796	117.672
676.171	92.2637
679.546	46.4492
682.921	36.166
686.296	0.570313
689.67	15.9219
693.045	126.287
696.42	146.152
699.795	212.734
703.17	223.281
706.545	351.291
709.919	350.922
713.294	527.195
716.669	565.789
720.044	645.426
723.419	652.195
726.793	663.023
730.168	1017.56
733.543	861.662
736.918	326.107
740.293	339.668
743.668	257.955
747.042	250.275
750.417	147.367
753.792	80.4922
757.167	70.4824
760.542	24.3945
763.917	40.9688
767.291	47.3945
770.666	102.211
774.041	236.949
777.416	335.635
780.791	631.85
784.165	892.254
787.54	1232.18
790.915	1510.6
794.29	2030.78
797.665	2390.91
801.039	2450.11
804.414	2421.25
807.789	2300.24
811.164	1923.46
814.539	1703.24
817.914	1426.64
821.288	1188.05
824.663	1045.18
828.038	920.701
831.413	846.168
834.788	963.211
838.163	783.543
841.537	691.795
844.912	705.037
848.287	522.049
851.662	488.238
855.037	289.438
858.411	333.562
861.786	225.973
865.161	216.055
868.536	209.143
871.911	73.6914
875.285	43.1133
878.66	189.443
882.035	17.3281
885.41	6.26367
888.785	310.772
892.16	75.0703
895.534	104.174
898.909	80.5547
902.284	120.393
905.659	124.07
909.034	146.797
912.409	301.35
915.783	266.676
919.158	219.943
922.533	233.453
925.908	22.5332
929.283	180.826
932.657	204.834
936.032	56.8984
939.407	71.8672
942.782	23.125
946.157	24.5352
949.532	104.559
952.906	100.068
956.281	178.416
959.656	578.481
963.031	1639.96
966.406	3362.44
969.78	5913.52
973.155	8556.7
976.53	9895.84
979.905	11217.2
983.28	13714.8
986.654	16497.7
990.029	17129.8
993.404	15124.8
996.779	12538.8
1000.15	10128
1003.53	7349.39
1006.9	5355.88
1010.28	4357.09
1013.65	2953.34
1017.03	1736.48
1020.4	615.961
1023.78	176.711
1027.15	108.422
1030.53	218.984
1033.9	205.773
1037.28	35.7734
1040.65	61.1719
1044.03	452.231
1047.4	741.598
1050.78	688.266
1054.15	799.25
1057.53	1281.84
1060.9	1945.37
1064.28	2994.66
1067.65	4373.06
1071.03	6287.81
1074.4	8961.01
1077.78	11805.6
1081.15	15201.4
1084.52	17844.6
1087.9	19072.7
1091.27	18461.1
1094.65	16190
1098.02	12876
1101.4	9849.28
1104.77	7252.74
1108.15	5738.13
1111.52	5294.96
1114.9	5180.81
1118.27	4776.17
1121.65	4165.23
1125.02	3692.7
1128.4	2787.3
1131.77	2093.37
1135.15	1425.54
1138.52	1069.89
1141.9	1087.96
1145.27	1281.56
1148.65	947.769
1152.02	1292.1
1155.39	1323.63
1158.77	1429.07
1162.14	1489.27
1165.52	1361.19
1168.89	1445.65
1172.27	1373.07
1175.64	1211.73
1179.02	1065.57
1182.39	793.199
1185.77	537.316
1189.14	312.164
1192.52	169.707
1195.89	96.3906
1199.27	117.805
1202.64	123.531
1206.02	27.9297
1209.39	51.2734
1212.77	62.2148
1216.14	28.3711
1219.52	127.715
1222.89	141.367
1226.27	44.8945
1229.64	261.035
1233.02	103.438
1236.39	235.445
1239.77	303.715
1243.14	264.91
1246.52	220.594
1249.89	277.789
1253.27	371.082
1256.64	473.508
1260.02	539.688
1263.39	438.469
1266.76	430.297
1270.14	514.941
1273.51	400.117
1276.89	618.438
1280.26	409.793
1283.64	332.203
1287.01	328.223
1290.39	308.246
1293.76	216.961
1297.14	141.129
1300.51	216.805
1303.89	94.7344
1307.26	133.379
1310.64	102.602
