Measurement: Raman, 780 nm, unoriented, Raman Data Processed
Mineral: Haydeeite
Rruff sample: R120085
Ideal chemistry: Cu_3_Mg(OH)_6_Cl_2_
Locality: Haydee mine, Salar Grande, Atacama desert, Chile
Source: Bob Jenkins
Description: Short, blue to blue-green prismatic euhedral crystals, associated with pale green atacamite
Raman shift (cm-1)	intensity
134.994	0
137.887	7.31526
140.779	18.6126
143.672	27.6547
146.565	54.2331
149.458	89.6843
152.35	148.326
155.243	233.135
158.136	217.115
161.028	94.7453
163.921	28.6292
166.814	9.388
169.706	6.76677
172.599	6.49017
175.492	5.29057
178.385	3.30841
181.277	2.37485
184.17	5.69386
187.063	6.43436
189.955	3.81093
192.848	1.03268
195.741	2.73745
198.633	4.61102
201.526	3.40681
204.419	0.207764
207.311	2.87959
210.204	4.40382
213.097	5.15588
215.99	5.81829
218.882	6.99118
221.775	9.34869
224.668	9.03949
227.56	8.32077
230.453	11.9259
233.346	13.4547
236.238	13.1854
239.131	17.2546
242.024	21.0733
244.917	24.6586
247.809	28.2829
250.702	31.1236
253.595	41.3359
256.487	46.2939
259.38	57.762
262.273	69.4064
265.166	86.5873
268.058	105.217
270.951	116.49
273.844	111.997
276.736	88.8302
279.629	62.7357
282.522	40.2333
285.414	24.4922
288.307	17.1732
291.2	9.10997
294.092	7.0911
296.985	3.25711
299.878	4.43352
302.771	4.21223
305.663	7.45807
308.556	11.6089
311.449	16.4484
314.341	24.021
317.234	32.5346
320.127	44.1122
323.019	60.3651
325.912	76.4608
328.805	79.1823
331.698	67.0554
334.59	42.8598
337.483	25.1254
340.376	11.7643
343.268	6.67006
346.161	1.80381
349.054	1.68037
351.947	1.37072
354.839	1.40216
357.732	2.5909
360.625	2.57893
363.517	3.21358
366.41	0.019188
369.303	0.61731
372.195	5.35306
375.088	8.80138
377.981	14.2571
380.873	22.3683
383.766	36.8191
386.659	56.6323
389.552	82.6878
392.444	119.177
395.337	160.232
398.23	213.107
401.122	283.39
404.015	343.884
406.908	355.894
409.8	291.583
412.693	201.147
415.586	134.421
418.479	89.5884
421.371	57.4403
424.264	38.287
427.157	24.0604
430.049	14.2282
432.942	12.1495
435.835	8.45245
438.728	6.2189
441.62	8.41331
444.513	13.3616
447.406	18.9986
450.298	27.7299
453.191	37.4389
456.084	51.5283
458.976	64.8438
461.869	82.1992
464.762	99.1007
467.654	111.66
470.547	109.215
473.44	89.5476
476.333	69.2697
479.225	49.4649
482.118	30.2537
485.011	20.2445
487.903	11.8602
490.796	6.23163
493.689	2.84072
496.582	2.59901
499.474	0.114616
502.367	0.475662
505.26	0.982582
508.152	0.190796
511.045	0.888718
513.938	0.564095
516.83	1.03348
519.723	1.29759
522.616	0.969955
525.509	0.19249
528.401	0.933937
531.294	0.941727
534.187	1.60156
537.079	0.971931
539.972	3.23031
542.865	2.87318
545.757	2.82118
548.65	5.14002
551.543	6.54714
554.436	5.09765
557.328	5.4165
560.221	6.95946
563.114	2.31438
566.006	3.54013
568.899	6.3136
571.792	3.25006
574.684	5.35256
577.577	5.75253
580.47	3.07617
583.362	3.96944
586.255	0.154335
589.148	1.69047
592.041	1.7158
594.933	2.12573
597.826	0.415062
600.719	1.04453
603.611	0.309296
606.504	3.88414
609.397	0.671272
612.29	2.38214
615.182	3.1585
618.075	1.67161
620.968	0.689568
623.86	1.9427
626.753	4.20865
629.646	1.90759
632.538	3.42076
635.431	1.72001
638.324	3.08753
641.217	3.20425
644.109	3.37025
647.002	1.46711
649.895	0.588715
652.787	3.16805
655.68	2.49024
658.573	2.65036
661.466	3.38581
664.358	3.70441
667.251	2.51416
670.144	1.33086
673.036	2.55471
675.929	2.7213
678.822	1.16099
681.714	1.51891
684.607	1.17268
687.5	1.41758
690.393	3.16816
693.285	0.247833
696.178	1.55513
699.071	1.69904
701.963	0.250259
704.856	1.88325
707.749	1.64593
710.641	1.70573
713.534	1.923
716.427	2.87434
719.319	0.654732
722.212	2.44014
725.105	2.214
727.998	4.2851
730.89	4.17955
733.783	5.64911
736.676	6.53256
739.568	8.67761
742.461	10.1515
745.354	8.03114
748.246	9.61702
751.139	5.75932
754.032	6.2288
756.925	3.04284
759.817	3.84275
762.71	1.22704
765.603	0.041817
768.495	0.925003
771.388	1.40506
774.281	2.80908
777.173	0.237411
780.066	0.409325
782.959	0.535896
785.852	0.536346
788.744	3.24396
791.637	2.54997
794.53	1.37279
797.422	2.20371
800.315	0.591377
803.208	0.235107
806.101	1.77975
808.993	1.6133
811.886	3.77638
814.779	1.45626
817.671	4.95563
820.564	3.25406
823.457	4.59429
826.349	3.55811
829.242	4.60768
832.135	5.77819
835.028	6.80304
837.92	6.22736
840.813	7.46133
843.706	9.46395
846.598	11.0553
849.491	12.8651
852.384	13.4756
855.276	12.5279
858.169	11.2239
861.062	12.4011
863.955	9.02135
866.847	8.9225
869.74	5.57461
872.633	5.73024
875.525	3.2561
878.418	4.1404
881.311	2.53418
884.203	2.9407
887.096	3.05018
889.989	3.97587
892.881	3.83273
895.774	4.77371
898.667	3.44968
901.56	6.2895
904.452	5.42851
907.345	4.89227
910.238	7.69231
913.13	13.1745
916.023	14.6332
918.916	14.2024
921.808	13.592
924.701	9.64183
927.594	5.96774
930.487	3.73324
933.379	1.05568
936.272	2.50765
939.165	1.03548
942.057	0.01403
944.95	0.31522
947.843	0.093643
950.736	0.470589
953.628	0.311924
956.521	0.341003
959.414	1.51234
962.306	0.168106
965.199	0.286415
968.092	1.54424
970.984	1.96574
973.877	3.12789
976.77	2.35314
979.663	2.00962
982.555	2.76578
985.448	3.62238
988.341	1.03757
991.233	1.1665
994.126	1.62244
997.019	1.34234
999.911	0.494133
1002.8	0.49456
1005.7	0.102959
1008.59	2.42027
1011.48	3.33932
1014.38	1.08796
1017.27	3.38688
1020.16	0.505508
1023.05	3.22898
1025.95	3.63185
1028.84	3.09996
1031.73	2.64012
1034.62	1.28986
1037.52	2.49421
1040.41	5.38308
1043.3	5.63354
1046.19	4.71561
1049.09	7.4009
1051.98	5.75137
1054.87	5.30634
1057.77	4.23404
1060.66	1.71865
1063.55	3.30436
1066.44	0.232655
1069.34	0.99575
1072.23	3.06606
1075.12	0.24902
1078.01	2.70385
1080.91	0.428108
1083.8	1.78232
1086.69	0.95451
1089.59	3.07914
1092.48	0.393505
1095.37	2.72052
1098.26	2.77658
1101.16	2.77092
1104.05	1.19707
1106.94	1.83912
1109.83	0.222748
1112.73	1.85996
1115.62	2.71292
1118.51	1.32332
1121.4	1.43827
1124.3	2.29694
1127.19	0.095352
1130.08	1.6219
1132.98	0.300877
1135.87	0.03508
1138.76	1.21556
1141.65	0.157318
1144.55	0.243244
1147.44	0.67131
1150.33	1.95011
1153.22	2.3124
1156.12	0.106857
1159.01	1.95735
1161.9	0.415962
1164.8	2.13524
1167.69	1.20211
1170.58	1.4641
1173.47	1.19303
1176.37	1.24018
1179.26	2.18452
1182.15	2.66083
1185.04	3.04268
1187.94	2.09507
1190.83	2.42315
1193.72	3.43133
1196.62	2.16436
1199.51	1.30944
1202.4	4.24406
1205.29	4.55344
1208.19	2.93257
1211.08	3.53768
1213.97	3.81076
1216.86	1.84386
1219.76	4.796
1222.65	1.01068
1225.54	3.68765
1228.43	1.33931
1231.33	2.63631
1234.22	0.402496
1237.11	5.09749
1240.01	0.024807
1242.9	3.34175
1245.79	1.88628
1248.68	3.15025
1251.58	1.77782
1254.47	2.52132
1257.36	3.41365
1260.25	0.307579
1263.15	3.2047
1266.04	3.55759
1268.93	0.658955
1271.83	2.05553
1274.72	1.38314
1277.61	2.92209
1280.5	1.65954
1283.4	0.025429
