Measurement: Raman, 532 nm, unoriented, Raman Data Processed
Mineral: Haydeeite
Rruff sample: R120085
Ideal chemistry: Cu_3_Mg(OH)_6_Cl_2_
Locality: Haydee mine, Salar Grande, Atacama desert, Chile
Source: Bob Jenkins
Description: Short, blue to blue-green prismatic euhedral crystals, associated with pale green atacamite
Raman shift (cm-1)	intensity
206.2	0
209.093	2.0451
211.986	2.5307
214.878	4.85297
217.771	6.46753
220.664	9.68121
223.556	14.3856
226.449	11.1484
229.342	14.9525
232.234	17.454
235.127	17.2924
238.02	15.5037
240.913	13.6147
243.805	11.8543
246.698	14.1759
249.591	18.5919
252.483	20.024
255.376	26.0847
258.269	36.322
261.161	52.2099
264.054	72.1704
266.947	92.4002
269.84	120.125
272.732	162.291
275.625	203.226
278.518	198.906
281.41	140.916
284.303	84.6732
287.196	39.0431
290.089	18.4007
292.981	11.0203
295.874	5.46967
298.767	1.19782
301.659	0.386597
304.552	9.0979
307.445	15.8573
310.337	25.2542
313.23	51.6509
316.123	97.1989
319.015	149.243
321.908	199.835
324.801	274.767
327.694	392.404
330.586	523.059
333.479	528.494
336.372	359.597
339.264	193.463
342.157	96.1091
345.05	48.5471
347.942	22.6771
350.835	11.6907
353.728	3.54346
356.621	1.21698
359.513	2.24493
362.406	5.27716
365.299	5.95636
368.191	2.4978
371.084	4.68079
373.977	7.03119
376.87	15.5844
379.762	27.2225
382.655	46.5173
385.548	81.8106
388.44	133.647
391.333	229.498
394.226	388.955
397.118	587.032
400.011	805.039
402.904	1125.92
405.796	1617.86
408.689	2104.71
411.582	2032.55
414.475	1268.87
417.367	688.741
420.26	400.272
423.153	250.212
426.045	153.831
428.938	98.8744
431.831	58.9693
434.724	33.252
437.616	19.3079
440.509	10.137
443.402	11.2401
446.294	11.2221
449.187	11.7294
452.08	16.6314
454.972	26.8168
457.865	41.2583
460.758	68.3826
463.651	94.5471
466.543	128.857
469.436	161.442
472.329	182.974
475.221	185.368
478.114	183.514
481.007	189.549
483.899	146.697
486.792	82.5709
489.685	40.3274
492.577	25.2175
495.47	14.1031
498.363	5.80798
501.256	5.12756
504.148	0.107788
507.041	1.48627
509.934	0.893982
512.826	0.851746
515.719	0.01355
518.612	1.92676
521.505	2.02502
524.397	0.89624
527.29	3.00324
530.183	1.4848
533.075	0.515686
535.968	2.21918
538.861	1.09454
541.753	3.28436
544.646	3.62793
547.539	3.23602
550.432	6.38855
553.324	6.82636
556.217	5.85706
559.11	8.01032
562.002	4.87024
564.895	6.66693
567.788	4.51611
570.68	4.0404
573.573	6.32391
576.466	9.25738
579.359	8.79901
582.251	6.52972
585.144	8.83063
588.037	8.06018
590.929	8.83984
593.822	9.46271
596.715	6.80902
599.607	6.16138
602.5	5.16699
605.393	8.1687
608.285	6.71686
611.178	5.10352
614.071	7.04236
616.964	5.63812
619.856	4.32996
622.749	2.60303
625.642	3.68292
628.534	0.546997
631.427	0.575073
634.32	3.60358
637.212	0.510376
640.105	2.02808
642.998	2.05322
645.891	1.85577
648.783	0.150513
651.676	1.08112
654.569	4.94281
657.461	0.137207
660.354	4.95252
663.247	0.899963
666.139	1.47333
669.032	0.047424
671.925	0.47168
674.818	2.84277
677.71	5.17371
680.603	3.55475
683.496	6.68689
686.388	4.06207
689.281	4.34485
692.174	3.0257
695.067	3.52222
697.959	5.51251
700.852	2.37592
703.745	0.750366
706.637	2.08636
709.53	4.05499
712.423	2.2077
715.315	1.32196
718.208	0.195984
721.101	0.141418
723.994	1.94421
726.886	5.90601
729.779	8.58368
732.672	6.58215
735.564	9.2724
738.457	12.7244
741.35	16.2278
744.242	18.1996
747.135	24.5478
750.028	27.3358
752.92	37.2144
755.813	33.3531
758.706	26.351
761.599	16.8827
764.491	12.3378
767.384	8.68152
770.277	6.90625
773.169	4.07642
776.062	5.36212
778.955	2.66449
781.847	4.95697
784.74	1.7691
787.633	0.567566
790.526	0.07196
793.418	1.42291
796.311	1.32739
799.204	2.56445
802.096	2.92456
804.989	2.25739
807.882	0.615234
810.774	1.625
813.667	0.973083
816.56	3.03949
819.453	3.50617
822.345	5.6731
825.238	0.52478
828.131	0.231323
831.023	1.87006
833.916	0.901428
836.809	0.766235
839.702	1.75757
842.594	4.70136
845.487	4.12317
848.38	8.95923
851.272	11.4741
854.165	18.351
857.058	25.566
859.95	31.499
862.843	27.7615
865.736	14.5098
868.629	10.5868
871.521	7.15332
874.414	7.54224
877.307	4.63312
880.199	1.84247
883.092	0.64917
885.985	3.29932
888.877	3.15723
891.77	2.66095
894.663	0.458435
897.556	1.58814
900.448	0.480957
903.341	2.49963
906.234	6.21271
909.126	7.76025
912.019	9.48932
914.912	13.5068
917.804	23.2734
920.697	29.3981
923.59	33.5109
926.482	31.196
929.375	26.3401
932.268	13.9365
935.161	9.95129
938.053	6.21924
940.946	5.47534
943.839	3.66028
946.731	2.60223
949.624	0.821472
952.517	4.98712
955.409	0.766418
958.302	3.40192
961.195	1.90576
964.088	2.69354
966.98	2.95593
969.873	4.52484
972.766	4.84769
975.658	2.48306
978.551	1.97974
981.444	2.08868
984.337	3.5256
987.229	1.95077
990.122	3.45477
993.015	3.73245
995.907	4.19452
998.8	1.42981
1001.69	0.277649
1004.59	0.837036
1007.48	0.380493
1010.37	2.26239
1013.26	0.266632
1016.16	0.861481
1019.05	2.19086
1021.94	0.122925
1024.83	1.79388
1027.73	2.6145
1030.62	1.6113
1033.51	1.2056
1036.4	5.06738
1039.3	2.31158
1042.19	1.09064
1045.08	0.203217
1047.98	1.54166
1050.87	4.00131
1053.76	2.77325
1056.65	3.5137
1059.55	2.01932
1062.44	3.55728
1065.33	4.30124
1068.22	3.22742
1071.12	2.48541
1074.01	0.027435
1076.9	1.67007
1079.8	1.21274
1082.69	2.84644
1085.58	2.79861
1088.47	0.896362
1091.37	0.304138
1094.26	4.0145
1097.15	2.56845
1100.04	2.35333
1102.94	2.83917
1105.83	1.57727
1108.72	3.23257
1111.62	3.09412
1114.51	4.38275
1117.4	2.07306
1120.29	2.00589
1123.19	4.05685
1126.08	0.633331
1128.97	0.906952
1131.86	0.555481
1134.76	1.5199
1137.65	1.43945
1140.54	2.36276
1143.43	0.927521
1146.33	2.98785
1149.22	1.63458
1152.11	0.348846
1155.01	2.14572
1157.9	2.8374
1160.79	1.82013
1163.68	1.85318
1166.58	1.55695
1169.47	1.32715
1172.36	2.96243
1175.26	2.80505
1178.15	4.12805
1181.04	2.39551
1183.93	1.10336
1186.83	2.96024
1189.72	2.73593
1192.61	4.02823
1195.5	2.0379
1198.4	2.31555
1201.29	2.10846
1204.18	2.74204
1207.07	3.97794
1209.97	4.76959
1212.86	3.01932
1215.75	2.67889
1218.64	2.80725
1221.54	2.81628
1224.43	2.68417
1227.32	2.12454
1230.22	1.96106
1233.11	1.004
1236	1.0101
1238.89	1.12842
1241.79	0.724487
1244.68	4.18262
1247.57	2.16528
1250.46	0.364319
1253.36	2.9119
1256.25	1.46048
1259.14	2.33545
1262.04	2.431
1264.93	2.68344
1267.82	2.87235
1270.71	0.812592
1273.61	1.15863
1276.5	1.45126
1279.39	1.65228
1282.29	1.91986
1285.18	2.18271
1288.07	0.124725
1290.96	2.20972
1293.86	2.26065
1296.75	0.979034
1299.64	0.860229
1302.53	1.05475
