Measurement: Raman, 785 nm, unoriented, Raman Data Processed
Mineral: Haynesite
Rruff sample: R060599
Ideal chemistry: (UO_2_)_3_(Se^4+^O_3_)_2_(OH)_2_5H_2_O
Locality: Repete mine, San Juan County, Utah, USA
Source: Michael Scott
Description: Stellate group of yellow, bladed, poorly crystalline crystals
Raman shift (cm-1)	intensity
138.884	0
141.777	176.393
144.67	1029.97
147.562	1852.33
150.455	1940.37
153.348	1624.03
156.24	1278.65
159.133	1207.37
162.026	1275.5
164.919	1516.69
167.811	1563.14
170.704	1575.2
173.597	1301.84
176.489	1010.66
179.382	894.438
182.275	850.784
185.167	801.064
188.06	840.791
190.953	789.767
193.846	739.473
196.738	802.439
199.631	730.109
202.524	776.738
205.416	705.786
208.309	651.391
211.202	533.902
214.094	520.996
216.987	458.704
219.88	425.674
222.773	288.145
225.665	152.849
228.558	128.61
231.451	69.674
234.343	63.395
237.236	10.924
240.129	20.691
243.021	27.356
245.914	47.056
248.807	146.89
251.699	206.665
254.592	337.846
257.485	494.859
260.378	587.149
263.27	704.28
266.163	841.349
269.056	944.138
271.948	965.629
274.841	1042.24
277.734	1094.82
280.626	1114.23
283.519	1043.72
286.412	944.23
289.305	679.099
292.197	433.979
295.09	206.405
297.983	83.494
300.875	98.638
303.768	50.499
306.661	6.545
309.553	55.085
312.446	47.362
315.339	51.938
318.232	103.192
321.124	129.316
324.017	57.632
326.91	128.023
329.802	269.679
332.695	272.419
335.588	343.874
338.48	273.856
341.373	308.859
344.266	300.436
347.159	420.157
350.051	634.625
352.944	906.277
355.837	1233.48
358.729	1588.11
361.622	1771.82
364.515	1667.26
367.408	1262.63
370.3	875.118
373.193	555.844
376.086	329.385
378.978	152.068
381.871	66.787
384.764	156.382
387.656	279.929
390.549	357.383
393.442	661.32
396.335	1087.33
399.227	1615.02
402.12	2190.83
405.013	3036.35
407.905	4355.96
410.798	5974.02
413.691	7907.94
416.583	9333
419.476	9986.05
422.369	9281.56
425.262	7778.28
428.154	6128.84
431.047	4798.5
433.94	3957.67
436.832	3250.36
439.725	2705.3
442.618	2156.23
445.51	1715.83
448.403	1365.09
451.296	1051.09
454.189	848.05
457.081	842.293
459.974	940.472
462.867	1163.12
465.759	1335.19
468.652	1612.83
471.545	1693.92
474.437	1545.61
477.33	1324.55
480.223	819.597
483.116	597.513
486.008	430.872
488.901	250.916
491.794	203.774
494.686	75.514
497.579	0.076
500.472	106.741
503.364	113.814
506.257	85.33
509.15	5.482
512.042	14.2
514.935	12.172
517.828	39.518
520.721	45.856
523.613	40.117
526.506	54.207
529.399	68.23
532.291	15.662
535.184	32.958
538.077	73.716
540.969	143.357
543.862	216.317
546.755	237.669
549.648	286.918
552.54	259.071
555.433	352.869
558.326	363.359
561.218	446.354
564.111	478.993
567.004	423.989
569.896	378.604
572.789	489.2
575.682	477.105
578.575	519.523
581.467	572.324
584.36	621.42
587.253	569.194
590.145	574.134
593.038	541.422
595.931	430.6
598.823	388.028
601.716	405.18
604.609	374.707
607.502	300.024
610.394	211.875
613.287	255.94
616.18	196.849
619.072	135.737
621.965	157.729
624.858	174.066
627.75	208.896
630.643	149.004
633.536	216.821
636.429	82.393
639.321	129.333
642.214	107.177
645.107	64.554
647.999	79.14
650.892	21.78
653.785	109.791
656.677	79.134
659.57	58.896
662.463	32.169
665.356	9.709
668.248	27.849
671.141	12.158
674.034	0.559
676.926	10.958
679.819	26.377
682.712	29.757
685.604	64.132
688.497	67.38
691.39	34.118
694.283	31.271
697.175	133.174
700.068	166.789
702.961	204.568
705.853	337.608
708.746	494.167
711.639	683.788
714.531	977.473
717.424	1139.79
720.317	1288.5
723.21	1459.75
726.102	1560.89
728.995	1639.61
731.888	1853.81
734.78	1997.73
737.673	2145.11
740.566	2030.82
743.458	1786.9
746.351	1477.75
749.244	986.36
752.137	793.44
755.029	473.921
757.922	228.754
760.815	44.314
763.707	4.919
766.6	46.255
769.493	2.44
772.385	114.983
775.278	231.951
778.171	514.833
781.064	954.505
783.956	1822.98
786.849	3155.79
789.742	5258.61
792.634	8034.55
795.527	10684.5
798.42	11760.9
801.312	11051
804.205	10130.5
807.098	9812.9
809.991	9361.45
812.883	7826.49
815.776	5484.89
818.669	3406.27
821.561	2088.47
824.454	1259.44
827.347	760.598
830.24	488.895
833.132	264.429
836.025	232.773
838.918	134.132
841.81	174.677
844.703	276.497
847.596	424.201
850.488	619.527
853.381	933.897
856.274	990.074
859.167	900.021
862.059	790.05
864.952	678.384
867.845	522.797
870.737	338.747
873.63	218.163
876.523	165.39
879.415	60.443
882.308	41.103
885.201	4.444
888.094	36.218
890.986	31.938
893.879	25.397
896.772	20.705
899.664	7.489
902.557	10.882
905.45	7.552
908.342	36.219
911.235	9.011
914.128	91.623
917.021	92.22
919.913	114.905
922.806	54.173
925.699	70.131
928.591	125.014
931.484	73.385
934.377	175.865
937.269	170.007
940.162	142.325
943.055	177.196
945.948	174.103
948.84	141.261
951.733	102.583
954.626	160.928
957.518	156.296
960.411	127.401
963.304	99.942
966.196	104.663
969.089	66.332
971.982	87.778
974.875	84.087
977.767	154.726
980.66	119.839
983.553	93.08
986.445	117.843
989.338	109.948
992.231	98.388
995.123	18.001
998.016	31.946
1000.91	65.574
1003.8	48.096
1006.69	34.694
1009.59	37.915
1012.48	68.22
1015.37	45.124
1018.26	43.067
1021.16	39.66
1024.05	31.603
1026.94	12.036
1029.84	62.878
1032.73	33.883
1035.62	30.297
1038.51	44.245
1041.41	40.898
1044.3	36.089
1047.19	54.644
1050.09	4.598
1052.98	6.597
1055.87	83.11
1058.76	81.517
1061.66	37.059
1064.55	75.477
1067.44	25.782
1070.33	64.025
1073.23	14.354
1076.12	26.674
1079.01	0.92
1081.9	20.145
1084.8	19.24
1087.69	34.833
1090.58	76.016
1093.47	19.932
1096.37	84.312
1099.26	88.364
1102.15	46.692
1105.05	70.555
1107.94	53.767
1110.83	52.832
1113.72	111.559
1116.62	66.319
1119.51	67.406
1122.4	61.06
1125.3	57.172
1128.19	56.571
1131.08	39.452
1133.97	58.511
1136.87	44.763
1139.76	28.051
1142.65	52.417
1145.54	77.496
1148.44	48.914
1151.33	43.271
1154.22	8.574
1157.12	36.858
1160.01	43.546
1162.9	24.904
1165.79	40.936
1168.68	58.82
1171.58	24.732
1174.47	81.677
1177.36	29.444
1180.26	68.724
1183.15	9.307
1186.04	19.045
1188.93	58.854
1191.83	35.396
1194.72	29.193
1197.61	14.625
1200.51	34.093
1203.4	29.698
1206.29	53.366
1209.18	14.388
1212.08	36.527
1214.97	90.981
1217.86	73.603
1220.75	114.504
1223.65	92.014
1226.54	53.119
1229.43	35.772
1232.33	39.208
1235.22	62.875
1238.11	57.712
1241	36.634
1243.9	102.759
1246.79	52.042
1249.68	99.222
1252.57	147.093
1255.47	33.706
1258.36	74.188
1261.25	28.546
