Measurement: Raman, 532 nm, unoriented, Raman Data Processed
Mineral: Haynesite
Rruff sample: R060599
Ideal chemistry: (U^6+^O_2_)_3_(Se^4+^O_3_)_2_(OH)_2_5H_2_O
Locality: Repete mine, San Juan County, Utah, USA
Source: Michael Scott
Description: Stellate group of yellow, bladed, poorly crystalline crystals
Raman shift (cm-1)	intensity
89.7832	0
93.158	421.671
96.5328	387.567
99.9077	156.811
103.282	57.9902
106.657	127.057
110.032	430.573
113.407	734.541
116.782	919.356
120.157	952.875
123.531	958.481
126.906	964.316
130.281	913.634
133.656	869.032
137.031	830.604
140.405	752.04
143.78	571.565
147.155	436.735
150.53	333.698
153.905	299.317
157.28	221.889
160.654	219.035
164.029	224.724
167.404	187.63
170.779	166.977
174.154	116.197
177.528	100.143
180.903	39.7998
184.278	24.8652
187.653	37.5244
191.028	70.2959
194.403	43.2676
197.777	21.5156
201.152	17.5488
204.527	4.88574
207.902	20.5439
211.277	23.1328
214.651	12.1797
218.026	14.583
221.401	15.082
224.776	5.31055
228.151	17.7861
231.525	8.42578
234.9	23.5098
238.275	82.1816
241.65	124.403
245.025	169.046
248.4	161.762
251.774	171.871
255.149	185.44
258.524	232.415
261.899	242.717
265.274	256.974
268.649	264.148
272.023	271.261
275.398	317.478
278.773	308.269
282.148	264.127
285.523	240.773
288.897	224.198
292.272	177.249
295.647	117.347
299.022	42.3096
302.397	6.72656
305.772	0.176758
309.146	11.0898
312.521	25.2266
315.896	10.4453
319.271	25.166
322.646	19.9697
326.02	0.823242
329.395	3.40332
332.77	8.85449
336.145	26.3936
339.52	44.5283
342.894	57.8076
346.269	53.4424
349.644	71.5
353.019	82.5371
356.394	134.46
359.769	178.605
363.143	227.11
366.518	203.228
369.893	118.195
373.268	44.8594
376.643	40.3213
380.017	21.7959
383.392	32.7168
386.767	50.7119
390.142	61.0664
393.517	47.3213
396.892	144.987
400.266	260.288
403.641	425.815
407.016	573.703
410.391	789.012
413.766	1044.63
417.14	1352.22
420.515	1538.3
423.89	1465.75
427.265	1225.15
430.64	953.031
434.014	733.278
437.389	597.812
440.764	494.968
444.139	398.294
447.514	293.629
450.889	218.017
454.263	199.312
457.638	226.399
461.013	258.681
464.388	303.868
467.763	371.856
471.137	397.484
474.512	381.222
477.887	306.62
481.262	240.968
484.637	197.842
488.012	161.16
491.386	117.603
494.761	61.8662
498.136	19.7129
501.511	4.21777
504.886	0.865234
508.26	25.3516
511.635	3.27246
515.01	2.31055
518.385	1.31152
521.76	5.55566
525.135	4.59766
528.509	11.9756
531.884	8.23242
535.259	11.2832
538.634	3.13769
542.009	8.00586
545.384	30.1328
548.758	75.8779
552.133	59.1289
555.508	40.8594
558.883	64.0772
562.258	90.7471
565.632	115.224
569.007	72.1553
572.382	87.2529
575.757	105.435
579.132	150.585
582.506	134.352
585.881	161.19
589.256	130.726
592.631	110.42
596.006	82.9727
599.381	72.3037
602.755	63.167
606.13	42.6172
609.505	77.2773
612.88	70.6231
616.255	73.8603
619.63	56.25
623.004	36.8242
626.379	49.541
629.754	54.044
633.129	49.7441
636.504	41.4697
639.878	34.377
643.253	30.834
646.628	28.1797
650.003	46.3496
653.378	46.9414
656.752	2.31543
660.127	2.39453
663.502	0.814453
666.877	1.94043
670.252	19.0107
673.626	1.71387
677.001	10.042
680.376	12.3008
683.751	12.1094
687.126	2.50098
690.501	8.22949
693.875	6.04102
697.25	13.8613
700.625	46.6934
704	70.6221
707.375	125.462
710.75	168.043
714.124	218.424
717.499	283.667
720.874	344.496
724.249	392.546
727.624	463.404
730.998	476.515
734.373	545.776
737.748	580.471
741.123	533.472
744.498	476.202
747.872	373.214
751.247	303.415
754.622	188.913
757.997	75.1943
761.372	41.875
764.747	14.876
768.121	18.0283
771.496	54.8906
774.871	137.82
778.246	243.242
781.621	481.152
784.995	900.426
788.37	1460.5
791.745	2232.36
795.12	3140.12
798.495	3780.42
801.87	3632.63
805.244	3021.54
808.619	2639.85
811.994	2298.52
815.369	1737.51
818.744	1151.03
822.119	730.771
825.493	413.945
828.868	248.657
832.243	125.997
835.618	38.4395
838.993	11.5156
842.367	27.8027
845.742	30.3623
849.117	35.5654
852.492	66.8047
855.867	94.5107
859.241	126.393
862.616	119.13
865.991	55.9717
869.366	28.3486
872.741	37.7305
876.115	5.55957
879.49	5.19629
882.865	19.5771
886.24	33.2861
889.615	9.08301
892.99	16.2734
896.364	18.9668
899.739	32.6201
903.114	27.0596
906.489	28.2969
909.864	28.9932
913.239	39.8613
916.613	38.5225
919.988	39.0273
923.363	62.7998
926.738	49.7227
930.113	51.0312
933.487	66.8633
936.862	34.9404
940.237	45.8975
943.612	38.458
946.987	36.3281
950.361	41.9043
953.736	37.4912
957.111	26.0625
960.486	1.71484
963.861	33.5488
967.236	69.126
970.61	61.415
973.985	58.4785
977.36	62.7012
980.735	56.8359
984.11	66.251
987.485	63.2012
990.859	55.9658
994.234	56.5156
997.609	45.0977
1000.98	50.3525
1004.36	49.3262
1007.73	52.7373
1011.11	52.3828
1014.48	48.2295
1017.86	44.3135
1021.23	25.5596
1024.61	25.1494
1027.98	34.9697
1031.36	22.0732
1034.73	30.8936
1038.11	45.6992
1041.48	43.8408
1044.86	36.5781
1048.23	18.8955
1051.61	16.543
1054.98	23.6553
1058.36	11.0029
1061.73	3.12012
1065.11	5.24805
1068.48	10.7881
1071.86	5.76953
1075.23	7.89062
1078.6	1.95898
1081.98	4.51465
1085.35	34.6416
1088.73	16.6826
1092.1	20.8037
1095.48	2.64844
1098.85	4.26758
1102.23	28.0752
1105.6	29.9258
1108.98	21.127
1112.35	29.5
1115.73	18.4258
1119.1	31.3115
1122.48	43.1826
1125.85	8.41406
1129.23	10.7246
1132.6	0.549805
1135.98	10.541
1139.35	14.5156
1142.73	25.1016
1146.1	22.2676
1149.48	22.0703
1152.85	50.3008
1156.22	55.2685
1159.6	51.3506
1162.97	52.7402
1166.35	41.5947
1169.72	27.415
1173.1	43.2803
1176.47	61.3897
1179.85	41.6592
1183.22	56.0508
1186.6	73.3701
1189.97	49.4111
1193.35	56.3086
1196.72	65.3906
1200.1	45.5586
1203.47	39.9658
1206.85	62.2627
1210.22	51.4873
1213.6	42.7822
1216.97	39.1836
1220.35	62.8809
1223.72	47.5391
1227.1	22.8984
1230.47	28.9043
1233.85	18.7412
1237.22	35.9785
1240.6	34.8467
1243.97	48.4805
1247.35	43.7647
1250.72	45.6279
1254.1	44.9658
1257.47	53.2315
1260.85	27.3623
1264.22	16.6113
1267.59	17.7549
1270.97	7.73828
1274.34	17.7861
1277.72	7.00195
1281.09	14.3545
1284.47	11.7715
1287.84	19.0811
1291.22	17.3604
1294.59	1.71387
1297.97	12.2988
1301.34	2.12402
