Measurement: Raman, 780 nm, unoriented, Raman Data Processed
Mineral: Hazenite
Rruff sample: R100029
Ideal chemistry: KNaMg_2_(PO_4_)_2_14H_2_O
Locality: Mono Lake, California, USA
Source: Hexiong Yang
Description: Sprays of colorless bladed crystals, co-type sample
Raman shift (cm-1)	intensity
115.157	0
118.532	6.03073
121.907	2.89194
125.281	7.28348
128.656	13.9867
132.031	16.4323
135.406	13.7756
138.781	13.2446
142.155	14.9939
145.53	15.9801
148.905	11.4182
152.28	7.55696
155.655	3.7408
159.03	3.13229
162.404	0.698349
165.779	1.10552
169.154	0.964767
172.529	0.564133
175.904	1.355
179.278	0.541199
182.653	1.83604
186.028	0.222092
189.403	1.29903
192.778	0.615112
196.153	3.11733
199.527	3.08254
202.902	4.02142
206.277	7.7144
209.652	9.78441
213.027	15.9185
216.401	25.2692
219.776	33.7783
223.151	41.2866
226.526	47.3954
229.901	55.0328
233.275	57.1349
236.65	51.3252
240.025	32.9989
243.4	17.7996
246.775	7.92929
250.15	5.13634
253.524	1.65909
256.899	0.80571
260.274	1.70453
263.649	3.93108
267.024	6.85344
270.399	16.5943
273.773	19.8877
277.148	27.3742
280.523	36.9046
283.898	45.1884
287.273	48.4029
290.647	48.1589
294.022	46.7913
297.397	39.9865
300.772	36.3253
304.147	25.7786
307.522	15.7145
310.896	11.4083
314.271	6.89
317.646	3.40698
321.021	2.89978
324.396	4.05591
327.77	3.4641
331.145	0.684662
334.52	2.83327
337.895	0.040253
341.27	1.08665
344.644	0.372559
348.019	0.851181
351.394	0.467056
354.769	4.71553
358.144	4.64737
361.519	4.31624
364.893	8.15369
368.268	7.91782
371.643	10.0649
375.018	13.398
378.393	9.93869
381.767	12.1415
385.142	9.74942
388.517	7.356
391.892	6.08214
395.267	7.1595
398.642	5.22719
402.016	8.91484
405.391	11.3
408.766	15.8209
412.141	20.0816
415.516	22.8949
418.89	23.8434
422.265	25.0417
425.64	25.7026
429.015	25.3235
432.39	24.4535
435.765	22.2498
439.139	18.0942
442.514	15.0754
445.889	11.6669
449.264	9.72076
452.639	6.41248
456.014	5.79369
459.388	3.72488
462.763	3.00107
466.138	3.35704
469.513	1.80454
472.887	0.663086
476.262	0.67746
479.637	2.72156
483.012	0.044067
486.387	0.083572
489.762	0.565765
493.136	0.203796
496.511	0.57785
499.886	0.758484
503.261	0.511444
506.636	0.192261
510.01	0.402374
513.385	2.73914
516.76	3.47229
520.135	5.37552
523.51	7.00461
526.885	11.0107
530.259	14.6448
533.634	19.9719
537.009	26.9533
540.384	33.3201
543.759	38.3388
547.134	43.5326
550.508	45.4657
553.883	45.397
557.258	41.9438
560.633	37.217
564.008	34.5293
567.382	30.103
570.757	25.6285
574.132	20.9484
577.507	16.0687
580.882	9.50691
584.256	7.30348
587.631	5.46877
591.006	3.8387
594.381	1.1651
597.756	2.75227
601.131	2.25647
604.505	0.826118
607.88	2.08914
611.255	0.253136
614.63	0.516701
618.005	0.988693
621.38	1.87919
624.754	0.353737
628.129	1.9846
631.504	2.49892
634.879	2.62353
638.254	1.43755
641.628	2.5754
645.003	1.5044
648.378	2.31738
651.753	3.64755
655.128	4.50396
658.503	2.44884
661.877	2.78632
665.252	4.02573
668.627	2.02729
672.002	4.58488
675.377	2.53107
678.751	2.2089
682.126	1.87594
685.501	1.59219
688.876	0.636795
692.251	0.349594
695.625	2.3514
699	1.36325
702.375	2.08749
705.75	0.261971
709.125	0.026421
712.5	1.2231
715.874	1.49807
719.249	1.14897
722.624	1.04462
725.999	3.23077
729.374	2.45806
732.749	0.145065
736.123	2.42212
739.498	1.69457
742.873	1.70299
746.248	0.265129
749.623	2.55647
752.997	1.69068
756.372	2.68058
759.747	0.662903
763.122	0.124222
766.497	1.73612
769.871	1.40182
773.246	1.34295
776.621	1.27348
779.996	0.716301
783.371	1.49799
786.745	1.37551
790.12	3.70631
793.495	3.96584
796.87	3.09319
800.245	3.2337
803.62	3.8553
806.994	2.2975
810.369	3.24401
813.744	3.47239
817.119	2.88946
820.494	1.19442
823.869	0.064285
827.243	0.47036
830.618	1.00543
833.993	0.132187
837.368	1.93401
840.743	0.204964
844.117	2.51208
847.492	0.672928
850.867	0.657616
854.242	1.65402
857.617	0.609459
860.991	1.96732
864.366	3.33192
867.741	3.03396
871.116	0.78923
874.491	5.65486
877.866	5.0472
881.24	7.10348
884.615	7.90878
887.99	8.03006
891.365	12.7643
894.74	15.8206
898.115	22.0142
901.489	30.6359
904.864	38.7725
908.239	49.7386
911.614	63.3745
914.989	80.1432
918.363	101.317
921.738	118.987
925.113	134.766
928.488	146.417
931.863	148.459
935.237	138.634
938.612	121.704
941.987	104.261
945.362	90.2229
948.737	74.1682
952.112	60.0771
955.486	45.5989
958.861	35.2944
962.236	22.9012
965.611	13.7154
968.986	10.9658
972.361	4.99817
975.735	1.8902
979.11	0.242462
982.485	1.11446
985.86	0.020508
989.235	1.93183
992.609	2.71307
995.984	0.304367
999.359	1.1511
1002.73	3.65781
1006.11	3.00399
1009.48	3.72515
1012.86	0.091171
1016.23	3.60346
1019.61	3.10099
1022.98	1.43492
1026.36	1.37787
1029.73	1.492
1033.11	3.3494
1036.48	1.54861
1039.86	2.55791
1043.23	2.7536
1046.61	2.79245
1049.98	1.29345
1053.36	3.54032
1056.73	1.70747
1060.11	0.655289
1063.48	1.87178
1066.86	0.202248
1070.23	0.934888
1073.61	0.422783
1076.98	1.70276
1080.36	1.21829
1083.73	1.37272
1087.1	0.608505
1090.48	1.2921
1093.85	2.38261
1097.23	1.14876
1100.6	0.034966
1103.98	0.913101
1107.35	2.84683
1110.73	3.5714
1114.1	2.61552
1117.48	1.53667
1120.85	5.28576
1124.23	3.88449
1127.6	2.09813
1130.98	2.3883
1134.35	0.609825
1137.73	1.98103
1141.1	3.29423
1144.48	0.677841
1147.85	2.62482
1151.23	1.56807
1154.6	0.367157
1157.97	1.97293
1161.35	2.7698
1164.72	1.47574
1168.1	3.05244
1171.47	2.3984
1174.85	2.9788
1178.22	3.46354
1181.6	2.30966
1184.97	2.75235
1188.35	1.61775
1191.72	2.47971
1195.1	0.17382
1198.47	1.09621
1201.85	0.011337
1205.22	2.4834
1208.6	3.52439
1211.97	1.77519
1215.35	2.3957
1218.72	0.110489
1222.1	2.07094
1225.47	3.11989
1228.85	1.52154
1232.22	1.3363
1235.6	0.907684
1238.97	2.53886
1242.35	2.36581
1245.72	2.42825
1249.1	2.29731
1252.47	2.15553
1255.85	2.08803
1259.22	1.0887
1262.6	1.82392
1265.97	2.59489
1269.34	0.416527
1272.72	2.62902
1276.09	0.858055
1279.47	0.218056
1282.84	0.621437
