Measurement: Raman, 532 nm, unoriented, Raman Data Processed
Mineral: Hazenite
Rruff sample: R100029
Ideal chemistry: KNaMg_2_(PO_4_)_2_14H_2_O
Locality: Mono Lake, California, USA
Source: Hexiong Yang
Description: Sprays of colorless bladed crystals, co-type sample
Raman shift (cm-1)	intensity
174.381	0
177.273	1.76343
180.166	8.06097
183.059	10.2411
185.951	9.85089
188.844	11.754
191.737	9.90259
194.629	15.3758
197.522	17.6752
200.415	19.1257
203.308	17.7717
206.2	18.5251
209.093	14.7521
211.986	18.5656
214.878	14.2985
217.771	15.0983
220.664	12.8279
223.556	19.2713
226.449	21.6515
229.342	22.624
232.234	30.2311
235.127	28.6303
238.02	24.8273
240.913	16.1592
243.805	7.21979
246.698	5.28619
249.591	0.731506
252.483	0.572876
255.376	1.80011
258.269	1.11237
261.161	0.022766
264.054	7.06104
266.947	9.06061
269.84	12.994
272.732	16.5676
275.625	22.7932
278.518	34.6397
281.41	43.7082
284.303	58.9929
287.196	74.1797
290.089	79.955
292.981	85.2046
295.874	74.6918
298.767	61.3052
301.659	48.1257
304.552	32.7517
307.445	23.2504
310.337	14.2925
313.23	10.6484
316.123	4.52045
319.015	6.04132
321.908	8.2226
324.801	3.24713
327.694	4.17584
330.586	2.82544
333.479	2.36664
336.372	0.014771
339.264	1.30365
342.157	0.217896
345.05	0.984375
347.942	1.87549
350.835	2.42706
353.728	1.00195
356.621	3.11743
359.513	5.96845
362.406	2.52051
365.299	6.93481
368.191	4.53314
371.084	5.16998
373.977	7.30963
376.87	5.70831
379.762	6.65015
382.655	8.23431
385.548	9.15918
388.44	6.50403
391.333	9.48724
394.226	8.06043
397.118	8.79321
400.011	17.6048
402.904	18.1446
405.796	24.8889
408.689	33.2612
411.582	34.2626
414.475	45.0783
417.367	50.557
420.26	50.3879
423.153	52.3776
426.045	54.9019
428.938	55.681
431.831	54.4185
434.724	53.9229
437.616	50.6228
440.509	43.4854
443.402	38.3344
446.294	29.7078
449.187	25.1668
452.08	16.5216
454.972	13.0217
457.865	10.714
460.758	8.24585
463.651	5.49274
466.543	8.71381
469.436	3.46149
472.329	3.43133
475.221	5.82678
478.114	4.40533
481.007	3.45453
483.899	2.159
486.792	3.25256
489.685	0.168091
492.577	2.29462
495.47	1.73022
498.363	0.490112
501.256	2.98199
504.148	1.14038
507.041	2.13293
509.934	2.01331
512.826	2.00122
515.719	2.14813
518.612	0.540649
521.505	2.12115
524.397	9.22705
527.29	8.71808
530.183	8.68573
533.075	12.6949
535.968	18.8856
538.861	22.7053
541.753	34.1829
544.646	36.6458
547.539	46.6514
550.432	56.6055
553.324	60.2875
556.217	65.6179
559.11	71.6903
562.002	67.7298
564.895	63.52
567.788	58.2357
570.68	50.3464
573.573	39.2672
576.466	29.7857
579.359	21.9801
582.251	15.5062
585.144	14.1556
588.037	11.7492
590.929	5.68512
593.822	5.18658
596.715	5.83453
599.607	3.11267
602.5	3.79187
605.393	3.64081
608.285	4.71197
611.178	6.505
614.071	3.22797
616.964	1.29993
619.856	1.53265
622.749	2.37677
625.642	0.420105
628.534	2.18335
631.427	0.537903
634.32	2.17499
637.212	3.49329
640.105	0.92627
642.998	0.168701
645.891	1.02728
648.783	2.90894
651.676	2.5976
654.569	7.4892
657.461	4.26263
660.354	5.11768
663.247	6.51843
666.139	5.4057
669.032	6.341
671.925	6.72015
674.818	3.45282
677.71	5.52844
680.603	4.35974
683.496	3.38281
686.388	3.15326
689.281	0.684875
692.174	1.24323
695.067	0.854614
697.959	5.1438
700.852	2.92499
703.745	0.261292
706.637	2.2757
709.53	4.15936
712.423	3.57666
715.315	3.43292
718.208	4.93323
721.101	0.277649
723.994	3.74707
726.886	2.90772
729.779	6.62396
732.672	4.94794
735.564	5.0932
738.457	1.77338
741.35	0.248535
744.242	2.74591
747.135	3.55756
750.028	1.9165
752.92	4.89832
755.813	3.14685
758.706	0.578491
761.599	0.644897
764.491	0.693542
767.384	1.07123
770.277	5.02881
773.169	2.50409
776.062	2.42291
778.955	5.16925
781.847	6.43189
784.74	3.60516
787.633	2.66943
790.526	8.58972
793.418	5.08875
796.311	5.15918
799.204	2.62921
802.096	5.94025
804.989	4.31622
807.882	5.3114
810.774	6.05597
813.667	6.75739
816.56	1.85583
819.453	1.06659
822.345	2.84277
825.238	2.70435
828.131	1.18811
831.023	0.90448
833.916	0.561951
836.809	0.48999
839.702	0.869934
842.594	2.46606
845.487	2.58539
848.38	1.43744
851.272	2.12067
854.165	3.57873
857.058	5.83325
859.95	6.78979
862.843	5.89654
865.736	3.68414
868.629	1.83569
871.521	3.98785
874.414	8.41882
877.307	6.00519
880.199	10.7253
883.092	8.35346
885.985	12.2881
888.877	10.9168
891.77	15.8829
894.663	19.9423
897.556	24.0552
900.448	34.7959
903.341	39.3117
906.234	50.4415
909.126	63.3779
912.019	76.1083
914.912	94.8423
917.804	114.705
920.697	139.209
923.59	158.741
926.482	187.498
929.375	204.696
932.268	205.743
935.161	201.71
938.053	189.717
940.946	166.645
943.839	147.782
946.731	134.426
949.624	116.825
952.517	103.795
955.409	82.6896
958.302	66.5355
961.195	50.1236
964.088	35.0428
966.98	22.5037
969.873	12.9877
972.766	11.0107
975.658	2.95117
978.551	4.72168
981.444	1.29865
984.337	0.378479
987.229	2.01978
990.122	1.46655
993.015	0.200806
995.907	3.59924
998.8	1.19965
1001.69	0.609558
1004.59	3.33813
1007.48	4.9173
1010.37	5.52515
1013.26	7.5802
1016.16	6.84943
1019.05	5.97473
1021.94	3.5249
1024.83	0.501648
1027.73	1.95459
1030.62	1.03491
1033.51	4.17242
1036.4	2.86029
1039.3	0.293518
1042.19	3.28656
1045.08	5.08777
1047.98	0.165283
1050.87	0.268616
1053.76	4.75116
1056.65	6.2547
1059.55	2.95184
1062.44	0.418518
1065.33	2.70373
1068.22	1.62524
1071.12	5.18768
1074.01	0.672668
1076.9	0.532837
1079.8	3.15295
1082.69	5.01526
1085.58	7.12671
1088.47	5.7821
1091.37	2.52362
1094.26	9.09351
1097.15	4.90607
1100.04	7.95367
1102.94	8.45557
1105.83	8.28265
1108.72	9.55725
1111.62	7.81396
1114.51	8.11194
1117.4	8.69458
1120.29	10.5106
1123.19	11.2665
1126.08	4.11993
1128.97	4.66095
1131.86	3.93066
1134.76	4.30096
1137.65	2.68066
1140.54	7.82733
1143.43	3.01556
1146.33	3.29718
1149.22	6.52039
1152.11	3.22138
1155.01	5.58972
1157.9	5.37097
1160.79	3.70618
1163.68	3.14075
1166.58	2.02136
1169.47	6.54102
1172.36	4.93774
1175.26	3.37866
1178.15	1.31256
1181.04	4.09717
1183.93	5.19684
1186.83	0.263916
1189.72	1.27295
1192.61	1.95483
1195.5	1.40283
1198.4	4.12054
1201.29	3.59271
1204.18	1.53668
1207.07	3.8902
1209.97	2.67065
1212.86	5.03906
1215.75	2.24152
1218.64	2.88043
1221.54	2.06735
1224.43	1.36417
1227.32	3.49499
1230.22	2.43787
1233.11	2.57587
1236	0.831604
1238.89	5.03937
1241.79	4.09778
1244.68	5.21551
1247.57	2.86334
1250.46	8.50763
1253.36	5.25098
1256.25	2.69727
1259.14	3.24579
1262.04	5.60394
1264.93	0.693115
1267.82	5.92822
1270.71	6.42017
1273.61	6.95166
1276.5	4.71161
1279.39	7.68567
1282.29	1.70429
1285.18	4.02026
1288.07	1.19287
1290.96	0.142944
1293.86	4.27582
1296.75	2.0788
1299.64	5.25189
1302.53	0.88324
