Measurement: Raman, 785 nm, unoriented, Raman Data Processed
Mineral: Heazlewoodite
Rruff sample: R061074
Ideal chemistry: Ni_3_S_2_
Locality: Tasmania, Australia
Source: Michael Scott
Description: Pale gray metallic massive
Raman shift (cm-1)	intensity
160.681	0
163.573	88.0123
166.466	0.479004
169.359	58.6301
172.252	81.0409
175.144	21.9089
178.037	37.506
180.93	45.3344
183.822	86.156
186.715	170.563
189.608	146.94
192.5	31.7246
195.393	49.2023
198.286	3.823
201.179	26.9358
204.071	1.8335
206.964	30.0776
209.857	2.85388
212.749	47.2022
215.642	108.437
218.535	175.539
221.428	237.368
224.32	227.045
227.213	102.196
230.106	48.0052
232.998	49.697
235.891	35.8086
238.784	37.8734
241.676	29.7386
244.569	24.3119
247.462	77.8626
250.355	57.1774
253.247	36.0155
256.14	54.7333
259.033	36.8633
261.925	17.2628
264.818	26.2158
267.711	23.1618
270.603	12.7705
273.496	3.63953
276.389	35.786
279.281	27.9683
282.174	1.04651
285.067	22.9676
287.96	1.03198
290.852	59.8329
293.745	98.7891
296.638	92.6353
299.53	132.709
302.423	147.353
305.316	111.263
308.209	57.4277
311.101	74.5927
313.994	73.8668
316.887	36.8082
319.779	29.9517
322.672	24.5284
325.565	21.4135
328.457	19.7286
331.35	17.2399
334.243	25.3251
337.135	23.2913
340.028	84.4354
342.921	115.71
345.813	176.825
348.706	181.742
351.599	162.096
354.492	100.324
357.384	38.3293
360.277	26.6367
363.17	16.8837
366.062	27.359
368.955	1.93616
371.848	4.87476
374.74	23.4165
377.633	3.14563
380.526	2.60944
383.419	13.8654
386.311	14.5117
389.204	16.1539
392.097	4.62842
394.989	24.6209
397.882	14.2503
400.775	7.67438
403.668	27.0765
406.56	27.9722
409.453	5.51685
412.346	44.642
415.238	23.7348
418.131	11.2409
421.024	7.95801
423.916	23.1108
426.809	58.0305
429.702	35.7646
432.594	30.0942
435.487	38.1564
438.38	30.9132
441.273	21.9209
444.165	31.6549
447.058	29.4778
449.951	23.7764
452.843	10.1732
455.736	25.8795
458.629	37.1795
461.522	30.428
464.414	24.4062
467.307	33.3805
470.2	32.4396
473.092	39.2191
475.985	23.1882
478.878	29.637
481.77	32.1884
484.663	11.9845
487.556	35.2526
490.449	17.1827
493.341	18.4484
496.234	43.668
499.127	25.5221
502.019	2.49939
504.912	21.5507
507.805	29.4273
510.697	18.4909
513.59	0.270325
516.483	41.3268
519.375	34.471
522.268	33.686
525.161	18.2682
528.054	31.1374
530.946	31.0123
533.839	30.5916
536.732	21.3904
539.624	35.808
542.517	22.0286
545.41	10.0843
548.303	14.6122
551.195	41.4808
554.088	32.6058
556.981	22.7349
559.873	28.7143
562.766	16.4605
565.659	28.8154
568.551	2.71222
571.444	28.0947
574.337	22.8867
577.23	29.7601
580.122	31.6528
583.015	29.4868
585.908	12.4494
588.8	20.4851
591.693	18.2162
594.586	20.7056
597.478	7.78857
600.371	16.0089
603.264	10.5995
606.156	46.4076
609.049	33.9595
611.942	19.7724
614.835	29.3874
617.727	31.796
620.62	10.1354
623.513	3.51471
626.405	23.6325
629.298	27.6922
632.191	8.08765
635.083	29.8661
637.976	14.4808
640.869	19.0897
643.761	17.716
646.654	46.0854
649.547	16.1726
652.44	23.4462
655.332	25.2723
658.225	21.4804
661.118	27.9802
664.01	8.4621
666.903	32.7959
669.796	38.7344
672.688	45.2703
675.581	15.0807
678.474	21.5646
681.367	26.3187
684.259	32.2495
687.152	25.1647
690.045	17.8166
692.937	2.08887
695.83	33.5731
698.723	29.1322
701.615	24.9388
704.508	40.3262
707.401	8.46838
710.294	36.3179
713.186	19.2283
716.079	41.1935
718.972	32.6887
721.864	7.8371
724.757	19.709
727.65	37.3701
730.543	45.4817
733.435	54.6711
736.328	50.6589
739.221	42.4207
742.113	39.1474
745.006	45.6869
747.899	39.6691
750.791	36.5529
753.684	51.0153
756.577	32.4988
759.47	33.7224
762.362	24.0389
765.255	0.14325
768.148	4.79474
771.04	36.0159
773.933	38.9637
776.826	34.2616
779.718	23.6825
782.611	9.12207
785.504	24.6334
788.396	26.27
791.289	43.0043
794.182	36.3666
797.075	15.7369
799.967	5.63788
802.86	42.9401
805.753	1.06592
808.645	13.7149
811.538	0.778503
814.431	24.9689
817.323	35.7284
820.216	34.8917
823.109	27.9006
826.002	45.4836
828.894	21.9069
831.787	2.07837
834.68	10.1727
837.572	12.797
840.465	31.2477
843.358	26.1531
846.25	15.5958
849.143	3.77295
852.036	12.2009
854.929	7.35681
857.821	20.7202
860.714	5.75201
863.607	33.9503
866.499	13.9122
869.392	20.4804
872.285	28.7002
875.177	32.1302
878.07	32.9113
880.963	24.533
883.856	27.6778
886.748	1.37921
889.641	24.9339
892.534	41.1451
895.426	16.751
898.319	13.5131
901.212	22.9858
904.104	29.0385
906.997	20.5297
909.89	21.2452
912.783	26.1359
915.675	7.78339
918.568	28.2949
921.461	13.7184
924.353	12.9287
927.246	7.94458
930.139	27.3223
933.031	20.6516
935.924	46.2222
938.817	25.3264
941.71	43.6764
944.602	9.18848
947.495	38.0211
950.388	21.4112
953.28	33.4158
956.173	33.9302
959.066	16.1744
961.958	49.5924
964.851	44.035
967.744	49.0861
970.636	58.184
973.529	37.7235
976.422	8.51483
979.315	32.2731
982.207	37.6701
985.1	23.6169
987.993	40.0857
990.885	8.9845
993.778	6.23785
996.671	37.5309
999.563	29.5495
1002.46	4.3017
1005.35	27.4094
1008.24	34.3933
1011.13	51.7949
1014.03	39.5672
1016.92	17.746
1019.81	4.51172
1022.71	6.93512
1025.6	28.4276
1028.49	27.6169
1031.38	26.6517
1034.28	27.0208
1037.17	29.1909
1040.06	30.6519
1042.95	18.3265
1045.85	38.1469
1048.74	49.9841
1051.63	23.8969
1054.53	29.0296
1057.42	21.3913
1060.31	24.7675
1063.2	45.6434
1066.1	28.3308
1068.99	8.62909
1071.88	20.4718
1074.77	9.20166
1077.67	26.3861
1080.56	42.3933
1083.45	44.4966
1086.34	11.928
1089.24	16.111
1092.13	35.2448
1095.02	7.67938
1097.91	19.1566
1100.81	14.0522
1103.7	27.6697
1106.59	0.621521
1109.49	25.4658
1112.38	36.8091
1115.27	30.5331
1118.16	21.7139
1121.06	15.4028
1123.95	17.9087
1126.84	7.40753
1129.73	18.1264
1132.63	10.3305
1135.52	20.7651
1138.41	11.1613
1141.31	2.2063
1144.2	18.7297
1147.09	11.8616
1149.98	31.1338
1152.88	23.7862
1155.77	37.1736
1158.66	24.8101
1161.56	27.0777
1164.45	45.678
1167.34	26.4196
1170.23	0.622253
1173.12	13.3431
1176.02	11.3484
1178.91	22.5903
1181.8	34.9099
1184.7	10.3016
1187.59	36.96
1190.48	17.9758
1193.37	14.2094
1196.27	28.2213
1199.16	51.3993
1202.05	34.4927
1204.94	4.68146
1207.84	31.3108
1210.73	31.0988
1213.62	18.3153
1216.52	21.9672
1219.41	13.6428
1222.3	40.9916
1225.19	40.8197
1228.09	12.6108
1230.98	39.108
1233.87	14.8305
1236.77	21.2567
1239.66	7.20044
1242.55	8.38544
1245.44	30.3029
1248.34	36.5452
1251.23	33.1557
1254.12	31.7986
1257.01	58.5884
1259.91	35.301
1262.8	23.374
1265.69	12.0119
1268.58	21.5754
