Measurement: Raman, 532 nm, unoriented, Raman Data Processed
Mineral: Hectorfloresite
Rruff sample: R080117
Ideal chemistry: Na_9_(IO_3_)(SO_4_)_4_
Locality: Pampa Rica, Antofagasta Province, Chile
Source: Bob Jenkins
Description: Pseudohexagonal light brown, twinned crystals associated with colorless thenardite
Raman shift (cm-1)	intensity
134.298	0
137.673	66.3075
141.047	130.533
144.422	119.841
147.797	39.5967
151.172	0.884644
154.547	1.63061
157.921	8.20984
161.296	13.8095
164.671	28.5689
168.046	24.3946
171.421	8.58099
174.796	1.12665
178.17	3.34857
181.545	1.00116
184.92	4.96295
188.295	7.73956
191.67	21.5678
195.044	38.8763
198.419	47.1551
201.794	56.4766
205.169	65.9532
208.544	74.671
211.918	78.207
215.293	83.2404
218.668	91.8418
222.043	84.1016
225.418	76.4598
228.792	74.7732
232.167	73.2925
235.542	71.8645
238.917	82.319
242.292	89.2864
245.667	101.195
249.041	108.497
252.416	117.684
255.791	117.729
259.166	117.313
262.541	116.545
265.916	93.6697
269.29	75.389
272.665	52.016
276.04	37.3162
279.415	29.1588
282.79	20.33
286.164	8.35107
289.539	8.02643
292.914	6.94958
296.289	2.12207
299.664	3.49768
303.038	1.12628
306.413	0.430786
309.788	0.237244
313.163	1.55975
316.538	0.178528
319.913	3.20007
323.287	2.22064
326.662	11.6894
330.037	10.887
333.412	19.1248
336.787	52.6544
340.161	44.8137
343.536	70.2811
346.911	100.992
350.286	141.162
353.661	184.87
357.036	232.334
360.41	259.748
363.785	275.353
367.16	292.024
370.535	327.243
373.91	373.108
377.284	448.986
380.659	570.04
384.034	767.917
387.409	851.339
390.784	579.012
394.159	276.217
397.533	130.053
400.908	68.2168
404.283	36.6195
407.658	20.6795
411.033	7.1449
414.408	0.263489
417.782	3.78497
421.157	4.02808
424.532	2.68536
427.907	2.95801
431.282	23.9578
434.656	58.1976
438.031	111.663
441.406	195.812
444.781	328.15
448.156	492.732
451.531	680.002
454.905	778.103
458.28	899.737
461.655	781.999
465.03	501.411
468.404	355.704
471.779	263.589
475.154	148.489
478.529	77.6162
481.904	42.0965
485.279	23.1267
488.653	22.6177
492.028	13.8638
495.403	7.42157
498.778	25.3674
502.153	9.45819
505.527	6.82666
508.902	9.85156
512.277	0.661255
515.652	0.169006
519.027	1.2923
522.402	0.493286
525.776	1.7182
529.151	2.96106
532.526	0.851746
535.901	2.11725
539.276	2.43225
542.65	0.219971
546.025	4.69293
549.4	4.47668
552.775	9.71435
556.15	7.49194
559.525	8.24756
562.899	8.48138
566.274	8.24481
569.649	7.72553
573.024	12.3165
576.399	10.3702
579.774	13.9363
583.148	16.0111
586.523	12.2232
589.898	12.8417
593.273	20.7001
596.648	24.2512
600.022	31.1166
603.397	48.747
606.772	86.6851
610.147	154.488
613.522	236.988
616.896	386.141
620.271	596.143
623.646	706.792
627.021	726.226
630.396	844.309
633.771	936.862
637.145	628.064
640.52	304.006
643.895	101.834
647.27	31.5121
650.645	15.4745
654.019	9.3169
657.394	5.0105
660.769	5.10303
664.144	1.66309
667.519	1.63623
670.894	0.912354
674.268	1.92786
677.643	3.10657
681.018	3.11572
684.393	2.6134
687.768	3.12854
691.143	3.0813
694.517	0.298706
697.892	2.09998
701.267	6.33118
704.642	6.24927
708.016	1.28528
711.391	6.23706
714.766	4.08106
718.141	4.23535
721.516	0.766479
724.891	4.29065
728.265	2.44434
731.64	3.61377
735.015	4.68567
738.39	1.97961
741.765	6.42517
745.139	8.35388
748.514	11.8195
751.889	16.7726
755.264	12.2445
758.639	16.0908
762.014	29.7006
765.388	46.1022
768.763	74.4436
772.138	142.084
775.513	320.216
778.888	707.153
782.263	1347.76
785.637	2144.1
789.012	3319.1
792.387	4451.18
795.762	3840.95
799.137	1880.13
802.511	1090.57
805.886	1183.08
809.261	1586.36
812.636	1440.21
816.011	202.432
819.385	61.7286
822.76	38.4951
826.135	18.6039
829.51	12.6083
832.885	11.8224
836.26	8.07495
839.634	4.57117
843.009	0.188232
846.384	1.25806
849.759	1.00342
853.134	6.28076
856.509	0.959351
859.883	2.32312
863.258	0.369019
866.633	0.869629
870.008	1.37634
873.383	4.03357
876.757	0.014282
880.132	0.16394
883.507	1.97827
886.882	3.01453
890.257	2.87512
893.631	1.01807
897.006	2.61963
900.381	7.19714
903.756	11.4387
907.131	12.3562
910.506	7.99817
913.88	8.17627
917.255	11.8534
920.63	8.09045
924.005	11.6069
927.38	14.1343
930.755	11.7803
934.129	8.07104
937.504	5.38428
940.879	0.234741
944.254	1.20178
947.629	22.6616
951.003	6.67383
954.378	9.97864
957.753	14.4203
961.128	19.9831
964.503	32.6503
967.877	61.3442
971.252	98.9391
974.627	171.359
978.002	387.669
981.377	954.118
984.751	2225.45
988.126	3617.94
991.501	6108.52
994.876	8498.76
998.251	6196.68
1001.63	1183.46
1005	415.523
1008.38	212.525
1011.75	126.3
1015.12	78.8884
1018.5	52.6987
1021.88	34.735
1025.25	26.5984
1028.62	18.7681
1032	16.8038
1035.37	7.76831
1038.75	2.87695
1042.12	3.27148
1045.5	6.30579
1048.87	7.88586
1052.25	2.70593
1055.62	1.17053
1059	1.91516
1062.37	2.53809
1065.75	3.61035
1069.12	1.71497
1072.5	21.7396
1075.87	39.7997
1079.25	95.7588
1082.62	148.223
1086	224.294
1089.37	338.909
1092.75	330.483
1096.12	370.722
1099.49	445.039
1102.87	300.007
1106.24	136.319
1109.62	100.081
1112.99	144.639
1116.37	217.839
1119.74	218.472
1123.12	223.633
1126.49	250.888
1129.87	298.05
1133.24	339.978
1136.62	251.915
1139.99	190.185
1143.37	205.267
1146.74	298.562
1150.12	362.879
1153.49	465.765
1156.87	686.276
1160.24	443.291
1163.62	132.771
1166.99	53.0842
1170.37	28.8903
1173.74	16.1733
1177.12	18.9479
1180.49	15.3267
1183.87	0.906006
1187.24	3.88672
1190.62	9.19678
1193.99	15.6156
1197.37	16.5952
1200.74	2.66711
1204.12	2.29968
1207.49	2.58972
1210.86	0.559814
1214.24	1.60559
1217.61	3.11731
1220.99	4.2489
1224.36	2.32056
1227.74	4.75989
1231.11	5.84827
1234.49	9.97461
1237.86	13.614
1241.24	9.46216
1244.61	7.99585
1247.99	14.3973
1251.36	13.6053
1254.74	10.9325
1258.11	11.5717
1261.49	9.47473
1264.86	10.6627
1268.24	5.6239
1271.61	10.3594
1274.99	10.152
1278.36	6.53198
1281.73	6.35962
1285.11	6.59509
1288.48	9.3407
1291.86	9.82605
1295.23	6.55164
1298.61	1.15552
1301.98	5.86743
