Measurement: Raman, 780 nm, unoriented, Raman Data Processed
Mineral: Hectorfloresite
Rruff sample: R080117
Ideal chemistry: Na_9_(IO_3_)(SO_4_)_4_
Locality: Pampa Rica, Antofagasta Province, Chile
Source: Bob Jenkins
Description: Pseudohexagonal light brown, twinned crystals associated with colorless thenardite
Raman shift (cm-1)	intensity
134.95	0
137.842	18.3662
140.735	40.2587
143.628	53.3754
146.52	42.2805
149.413	21.2205
152.306	6.83331
155.199	5.51547
158.091	0.624756
160.984	0.915924
163.877	2.17221
166.769	1.94882
169.662	2.29779
172.555	0.554596
175.447	2.65472
178.34	1.57294
181.233	3.38229
184.126	1.6235
187.018	1.8757
189.911	5.82904
192.804	7.95151
195.696	13.3355
198.589	16.3102
201.482	19.9646
204.375	22.4879
207.267	23.4671
210.16	24.9056
213.053	26.0266
215.945	26.581
218.838	27.1189
221.731	28.0208
224.623	27.5126
227.516	25.015
230.409	22.4493
233.302	19.436
236.194	16.2899
239.087	14.446
241.98	13.3153
244.872	14.7314
247.765	13.8268
250.658	18.6312
253.55	18.1971
256.443	16.6366
259.336	21.1362
262.228	20.0787
265.121	20.6025
268.014	17.7887
270.907	10.8395
273.799	8.44366
276.692	4.94513
279.585	2.67227
282.477	3.01654
285.37	1.14975
288.263	0.804688
291.156	1.08163
294.048	0.738159
296.941	0.730072
299.834	0.281189
302.726	0.250519
305.619	0.916504
308.512	0.52005
311.404	0.100494
314.297	2.965
317.19	2.80469
320.082	2.80972
322.975	5.20355
325.868	5.88611
328.761	7.97595
331.653	10.5154
334.546	14.6609
337.439	22.0406
340.331	32.2675
343.224	42.486
346.117	54.8202
349.01	72.1767
351.902	95.9295
354.795	122.188
357.688	146.911
360.58	152.284
363.473	145.723
366.366	129.076
369.258	105.736
372.151	79.7587
375.044	61.7609
377.937	55.99
380.829	58.0676
383.722	68.5622
386.615	82.0229
389.507	81.1658
392.4	53.2942
395.293	27.2289
398.185	13.0727
401.078	7.80939
403.971	4.55847
406.863	3.23556
409.756	0.480621
412.649	0.572235
415.542	0.312897
418.434	1.27603
421.327	2.13599
424.22	1.07587
427.112	2.93329
430.005	5.25494
432.898	9.63138
435.791	16.6998
438.683	26.1241
441.576	41.3649
444.469	64.7651
447.361	93.0799
450.254	144.336
453.147	197.796
456.039	233.294
458.932	289.43
461.825	300.092
464.717	245.021
467.61	198.357
470.503	171.355
473.396	132.792
476.288	80.1754
479.181	46.8134
482.074	27.658
484.966	18.3218
487.859	13.0725
490.752	8.86398
493.644	7.18311
496.537	5.48843
499.43	3.59958
502.323	0.808228
505.215	1.92401
508.108	1.13699
511.001	0.583496
513.893	0.920135
516.786	2.90067
519.679	0.439087
522.572	0.567963
525.464	0.313934
528.357	0.344269
531.25	0.655365
534.142	1.36499
537.035	0.091034
539.928	0.044556
542.82	0.522491
545.713	0.107391
548.606	0.371552
551.499	2.03143
554.391	1.0238
557.284	2.3017
560.177	1.08359
563.069	2.99789
565.962	1.69949
568.855	1.30386
571.747	3.70007
574.64	4.48914
577.533	3.1514
580.426	4.70215
583.318	4.4212
586.211	6.39145
589.104	8.20053
591.996	10.4669
594.889	8.70532
597.782	10.4073
600.674	13.9074
603.567	22.1806
606.46	36.8252
609.352	49.514
612.245	71.409
615.138	108.785
618.03	169.475
620.923	241.041
623.816	245.479
626.709	212.864
629.601	215.357
632.494	244.452
635.387	235.882
638.279	156.974
641.172	85.8089
644.065	41.9931
646.957	13.3603
649.85	8.00806
652.743	3.52756
655.636	1.58581
658.528	0.995453
661.421	1.46933
664.314	0.25589
667.206	0.026794
670.099	0.07428
672.992	0.351563
675.885	0.719788
678.777	0.255371
681.67	1.60849
684.563	1.29178
687.455	2.84778
690.348	1.42523
693.241	1.37408
696.133	3.82501
699.026	2.12259
701.919	1.50342
704.812	1.13666
707.704	1.93259
710.597	2.20813
713.49	1.23688
716.382	2.20871
719.275	0.971313
722.168	0.779053
725.06	0.053009
727.953	0.708862
730.846	1.25931
733.739	0.560547
736.631	1.77606
739.524	0.136993
742.417	1.10605
745.309	1.20782
748.202	3.98566
751.095	6.45694
753.987	6.66052
756.88	4.45786
759.773	6.10953
762.665	8.45929
765.558	14.8634
768.451	28.6069
771.344	47.7353
774.236	104.136
777.129	185.892
780.022	355.504
782.914	570.317
785.807	886.13
788.7	1444.48
791.592	1771.01
794.485	2318
797.378	1397.62
800.271	608.332
803.163	369.417
806.056	407.775
808.949	631.218
811.841	900.096
814.734	402.068
817.627	69.7942
820.519	24.942
823.412	12.0241
826.305	7.1283
829.198	5.83978
832.09	4.51611
834.983	2.55228
837.876	1.95673
840.768	0.512665
843.661	0.280579
846.554	0.680328
849.447	0.241821
852.339	1.02304
855.232	0.619171
858.125	0.873413
861.017	1.50198
863.91	0.110962
866.803	0.709381
869.695	1.15787
872.588	0.391479
875.481	0.796814
878.374	0.248627
881.266	0.697327
884.159	0.627533
887.052	0.140167
889.944	0.636963
892.837	0.110657
895.73	1.10623
898.622	0.799347
901.515	0.9729
904.408	0.8815
907.301	0.64444
910.193	1.92004
913.086	1.92374
915.979	1.39041
918.871	0.382095
921.764	0.585617
924.657	1.8685
927.549	2.42355
930.442	3.72847
933.335	1.51819
936.227	2.37202
939.12	1.99645
942.013	1.88275
944.906	2.05496
947.798	0.833252
950.691	1.52422
953.584	1.75197
956.476	2.54398
959.369	3.81401
962.262	5.26269
965.154	8.70677
968.047	12.9438
970.94	20.008
973.833	34.2457
976.725	59.0994
979.618	122.126
982.511	242.623
985.403	490.582
988.296	767.564
991.189	1412.68
994.082	2292.44
996.974	3075.54
999.867	1591.19
1002.76	370.49
1005.65	142.396
1008.54	75.2844
1011.44	45.9413
1014.33	28.9108
1017.22	20.8402
1020.12	15.8718
1023.01	10.7449
1025.9	7.44086
1028.79	6.58777
1031.69	4.03239
1034.58	2.28145
1037.47	1.91133
1040.37	1.48134
1043.26	0.050278
1046.15	0.205948
1049.04	0.931534
1051.94	0.900589
1054.83	0.248367
1057.72	0.506866
1060.61	0.616806
1063.51	0.953247
1066.4	0.900528
1069.29	1.14391
1072.18	0.677872
1075.08	3.94694
1077.97	7.89467
1080.86	15.4848
1083.76	24.8559
1086.65	38.0425
1089.54	55.1579
1092.43	53.8469
1095.33	47.7786
1098.22	54.1433
1101.11	59.0281
1104	38.9238
1106.9	25.4551
1109.79	27.5147
1112.68	39.5946
1115.58	65.5751
1118.47	84.7569
1121.36	76.9905
1124.25	69.7241
1127.15	70.6181
1130.04	69.0451
1132.93	82.0181
1135.82	72.3622
1138.72	52.9118
1141.61	43.0543
1144.5	51.3371
1147.39	58.0181
1150.29	55.4285
1153.18	60.0166
1156.07	83.1919
1158.96	101.446
1161.86	51.8795
1164.75	16.7211
1167.64	10.1412
1170.54	7.35979
1173.43	5.58691
1176.32	9.26964
1179.21	13.4518
1182.11	11.2
1185	4.98415
1187.89	1.47244
1190.79	1.74704
1193.68	4.43839
1196.57	5.91824
1199.46	6.82658
1202.36	2.50324
1205.25	0.364853
1208.14	0.643356
1211.03	0.062561
1213.93	0.092438
1216.82	2.13655
1219.71	0.953781
1222.61	0.448746
1225.5	0.722641
1228.39	1.1006
1231.28	1.09018
1234.18	0.863297
1237.07	2.37167
1239.96	3.15628
1242.85	3.21497
1245.75	4.47133
1248.64	3.8649
1251.53	3.20445
1254.42	2.26321
1257.32	1.36711
1260.21	2.51366
1263.1	2.36905
1265.99	2.29871
1268.89	3.66652
1271.78	1.91113
1274.67	1.21741
1277.57	0.773926
1280.46	2.82623
1283.35	0.447235
1286.24	0
