Measurement: Raman, 780 nm, unoriented, Raman Data Processed
Mineral: Hectorite
Rruff sample: R050134
Ideal chemistry: Na_0.3_(Mg,Li)_3_Si_4_O_10_(OH)_2_
Locality: Hector, California, USA
Source: University of Arizona Mineral Museum
Description: Compacted aggregate of fine-grained material
Raman shift (cm-1)	intensity
148.529	0
151.421	2.25232
154.314	0.444611
157.207	3.31635
160.1	7.6062
162.992	12.0185
165.885	21.356
168.778	26.4717
171.67	33.5924
174.563	41.9427
177.456	48.8733
180.348	54.9216
183.241	63.2542
186.134	60.0868
189.026	44.9519
191.919	27.6216
194.812	16.4622
197.705	11.3
200.597	10.7078
203.49	8.6629
206.383	7.94821
209.275	4.56711
212.168	3.54044
215.061	1.96451
217.953	2.77698
220.846	1.96655
223.739	3.41141
226.632	3.20935
229.524	1.3638
232.417	1.68829
235.31	1.66928
238.202	0.530731
241.095	0.634155
243.988	0.125793
246.881	0.711304
249.773	1.93466
252.666	0.05603
255.559	1.06287
258.451	1.07721
261.344	2.24512
264.237	4.65283
267.129	4.34244
270.022	5.72928
272.915	6.53314
275.808	6.65134
278.7	7.18677
281.593	9.49536
284.486	8.86771
287.378	8.55756
290.271	6.12671
293.164	6.20929
296.056	3.66843
298.949	4.1694
301.842	3.29272
304.735	4.31662
307.627	3.66843
310.52	3.61966
313.413	6.0285
316.305	6.75745
319.198	7.62085
322.091	9.62967
324.983	10.4183
327.876	10.8385
330.769	11.3711
333.661	12.8066
336.554	12.3111
339.447	11.5944
342.339	10.301
345.232	10.346
348.125	7.70294
351.018	8.33865
353.91	5.79794
356.803	7.68539
359.696	7.58603
362.588	6.83533
365.481	5.59686
368.374	3.7901
371.267	4.7952
374.159	3.98651
377.052	3.71481
379.945	4.95633
382.837	2.43375
385.73	3.34787
388.623	0.693634
391.515	0.614532
394.408	1.93567
397.301	1.14453
400.193	0.680481
403.086	2.12311
405.979	0.075897
408.872	0.344116
411.764	0.952362
414.657	0.043945
417.55	0.381012
420.442	1.55588
423.335	2.23422
426.228	0.69751
429.12	0.894745
432.013	2.2785
434.906	3.37286
437.799	4.08435
440.691	2.84705
443.584	3.34735
446.477	4.90674
449.369	3.48431
452.262	5.4036
455.155	5.81625
458.048	4.87283
460.94	5.50797
463.833	5.71362
466.726	5.85706
469.618	5.93619
472.511	4.40085
475.404	4.28616
478.296	1.73209
481.189	2.92831
484.082	4.92584
486.974	4.98648
489.867	3.62454
492.76	4.67728
495.653	4.60532
498.545	3.44205
501.438	4.34512
504.331	3.63455
507.223	4.14169
510.116	4.61777
513.009	4.70163
515.902	2.71777
518.794	3.10449
521.687	1.23932
524.58	2.43512
527.472	1.03903
530.365	2.1359
533.258	1.12942
536.15	1.6438
539.043	2.08423
541.936	1.37726
544.829	2.06574
547.721	0.039124
550.614	1.26114
553.507	1.28424
556.399	2.27832
559.292	1.38431
562.185	3.04886
565.077	0.586426
567.97	0.608673
570.863	1.96927
573.756	0.630707
576.648	1.54404
579.541	1.61935
582.434	2.11337
585.326	0.385315
588.219	1.8082
591.112	1.35858
594.004	0.680298
596.897	0.688019
599.79	1.81577
602.683	0.082886
605.575	0.168182
608.468	1.34885
611.361	0.311157
614.253	0.099792
617.146	0.614807
620.039	0.613586
622.931	2.53333
625.824	0.742523
628.717	1.44467
631.61	2.81354
634.502	1.62726
637.395	3.10239
640.288	3.99335
643.18	3.66785
646.073	3.2019
648.966	2.88187
651.858	4.09555
654.751	4.52786
657.644	6.27454
660.537	7.64606
663.429	10.6494
666.322	15.5195
669.215	22.0099
672.107	33.3608
675	39.7599
677.893	48.7826
680.785	56.7453
683.678	65.4393
686.571	71.9713
689.463	66.152
692.356	51.3281
695.249	34.3543
698.142	21.3128
701.034	14.4386
703.927	10.9462
706.82	6.63986
709.712	5.98923
712.605	5.40787
715.498	4.60992
718.39	3.66663
721.283	2.25919
724.176	0.875092
727.069	1.28461
729.961	0.575317
732.854	1.11987
735.747	0.068146
738.639	1.48007
741.532	0.706818
744.425	0.235321
747.317	1.0166
750.21	0.414246
753.103	1.10666
755.996	0.800476
758.888	0.57338
761.781	1.57649
764.674	1.08794
767.566	1.56979
770.459	2.72319
773.352	2.91972
776.245	1.49728
779.137	3.53992
782.03	2.83852
784.923	2.63261
787.815	2.99258
790.708	2.49832
793.601	3.08987
796.493	1.58009
799.386	2.07568
802.279	0.685791
805.172	0.860321
808.064	0.527771
810.957	0.402939
813.85	0.911057
816.742	1.09146
819.635	1.86101
822.528	0.104202
825.42	1.4387
828.313	0.37709
831.206	0.558075
834.098	1.74292
836.991	2.27556
839.884	1.77672
842.777	1.06976
845.669	0.137314
848.562	0.736343
851.455	1.13919
854.347	2.09747
857.24	2.14033
860.133	2.50343
863.025	1.04591
865.918	2.09904
868.811	1.69978
871.704	2.54033
874.596	2.10878
877.489	1.37639
880.382	0.724472
883.274	1.21522
886.167	0.729736
889.06	0.997223
891.952	1.60019
894.845	2.17014
897.738	1.27725
900.631	1.21988
903.523	1.14914
906.416	0.091476
909.309	0.705917
912.201	1.33106
915.094	1.10373
917.987	1.55644
920.88	1.44359
923.772	1.27084
926.665	1.02472
929.558	1.08156
932.45	0.687286
935.343	0.153793
938.236	1.36978
941.128	1.08476
944.021	0.557602
946.914	0.137421
949.807	0.718796
952.699	0.333908
955.592	0.579193
958.485	0.762161
961.377	1.73546
964.27	1.27473
967.163	1.30345
970.055	1.17893
972.948	0.073257
975.841	0.782379
978.734	1.53833
981.626	0.735031
984.519	0.522003
987.412	1.56485
990.304	2.57613
993.197	1.65175
996.09	2.24042
998.982	1.61891
1001.88	1.48155
1004.77	1.2211
1007.66	0.48587
1010.55	1.79758
1013.45	0.414459
1016.34	2.67961
1019.23	0.118942
1022.12	2.45728
1025.02	1.52174
1027.91	1.87929
1030.8	0.846786
1033.69	0.259491
1036.59	1.63973
1039.48	0.500214
1042.37	1.33112
1045.27	2.41864
1048.16	2.86226
1051.05	2.89752
1053.94	1.57681
1056.84	1.97215
1059.73	2.81097
1062.62	2.73534
1065.52	1.64731
1068.41	1.88499
1071.3	1.56085
1074.19	3.46419
1077.09	3.17482
1079.98	3.74381
1082.87	5.45709
1085.76	6.14493
1088.66	5.06067
1091.55	5.83069
1094.44	5.33443
1097.33	3.35452
1100.23	3.75163
1103.12	3.07776
1106.01	2.07091
1108.9	0.981979
1111.8	1.20377
1114.69	0.378723
1117.58	0.642334
1120.48	0.425186
1123.37	0.561005
1126.26	0.882721
1129.15	0.49646
1132.05	1.30788
1134.94	0.180695
1137.83	1.06415
1140.72	0.595154
1143.62	0.53241
1146.51	0.592514
1149.4	0.088058
1152.3	2.34448
1155.19	0.357605
1158.08	0.918701
1160.97	0.855682
1163.87	1.77573
1166.76	1.86679
1169.65	0.756271
1172.54	2.07294
1175.44	1.95155
1178.33	1.57149
1181.22	1.81692
1184.12	0.568161
1187.01	3.00545
1189.9	2.41745
1192.79	2.92361
1195.69	1.06758
1198.58	0.616531
1201.47	0.914474
1204.36	2.02858
1207.26	1.5739
1210.15	2.34821
1213.04	1.49934
1215.93	1.40524
1218.83	0.575317
1221.72	0.512527
1224.61	0.361618
1227.51	0.424698
1230.4	1.32066
1233.29	1.98746
1236.18	2.04471
1239.08	2.63301
1241.97	1.37009
1244.86	0.460678
1247.76	1.14839
1250.65	1.11075
1253.54	1.71149
1256.43	1.28632
1259.33	1.62724
1262.22	1.36679
1265.11	0.889114
1268	1.58186
1270.9	1.21214
1273.79	1.35492
1276.68	0.034912
