Measurement: Raman, 532 nm, unoriented, Raman Data Processed
Mineral: Hedenbergite
Rruff sample: R070236
Ideal chemistry: CaFe^2+^Si_2_O_6_
Locality: Dal'Negorsk, Primorskiy Kray; far eastern, Russia
Source: Michael Scott
Description: Gemmy drab to olive green orthorhombic prisms lining vug
Measured chemistry: Ca_1.00_(Fe^2+^_0.67_Mg_0.17_Mn^2+^_0.16_)_Î£=1_Si_2.00_O_6_
Raman shift (cm-1)	intensity
154.965	0
158.34	68.292
161.715	5.62305
165.09	116.804
168.464	186.042
171.839	244.112
175.214	345.151
178.589	421.389
181.964	392.935
185.339	389.439
188.713	368.879
192.088	389.231
195.463	226.117
198.838	228.225
202.213	129.728
205.587	187.953
208.962	67.269
212.337	107.652
215.712	139.472
219.087	126.728
222.462	144.928
225.836	209.701
229.211	249.852
232.586	285.056
235.961	143.817
239.336	82.9756
242.71	21.5225
246.085	20.0684
249.46	25.9111
252.835	51.3242
256.21	13.1065
259.584	28.9854
262.959	21.1514
266.334	73.835
269.709	191.868
273.084	208.366
276.459	165.247
279.833	259.446
283.208	362.238
286.583	487.29
289.958	763.368
293.333	1001.3
296.707	1310.82
300.082	1699.18
303.457	1999.84
306.832	1901.31
310.207	1531.53
313.582	950.34
316.956	506.81
320.331	328.306
323.706	364.992
327.081	533.97
330.456	741.723
333.83	1007.92
337.205	1376.44
340.58	1284.71
343.955	932.931
347.33	542.174
350.705	442.807
354.079	530.207
357.454	856.289
360.829	1413.84
364.204	2264.24
367.579	3406.98
370.954	4614.65
374.328	5107.06
377.703	4124.55
381.078	2429.83
384.453	1269.16
387.828	643.329
391.202	338.144
394.577	166.185
397.952	44.5107
401.327	36.6494
404.702	72.626
408.077	6.12207
411.451	40.6338
414.826	45.6025
418.201	1.34668
421.576	21.5605
424.951	35.3848
428.325	100.869
431.7	61.5029
435.075	248.186
438.45	195.07
441.825	188.255
445.2	95.8818
448.574	82.335
451.949	71.8818
455.324	96.3232
458.699	82.2148
462.074	120.546
465.448	70.5566
468.823	14.2979
472.198	13.7119
475.573	7.94922
478.948	79.8057
482.322	107.539
485.697	177.378
489.072	373.308
492.447	448.432
495.822	449.21
499.197	287.742
502.571	185.016
505.946	263.904
509.321	280.575
512.696	338.429
516.071	445.473
519.446	556.997
522.82	521.251
526.195	371.718
529.57	247.083
532.945	109.769
536.32	183.429
539.694	317.973
543.069	481.478
546.444	888.787
549.819	1264.17
553.194	1137.1
556.568	663.235
559.943	250.497
563.318	121.333
566.693	58.3984
570.068	28.9727
573.443	40.2588
576.817	32.8525
580.192	26.5684
583.567	1.95215
586.942	6.17481
590.317	28.1455
593.692	2.18848
597.066	59.5693
600.441	3.6543
603.816	54.918
607.191	149.527
610.566	101.537
613.94	55.2393
617.315	154.077
620.69	258.152
624.065	363.283
627.44	440.399
630.814	608.253
634.189	645.486
637.564	980.163
640.939	1488.32
644.314	2450.04
647.689	4138.41
651.063	6161.33
654.438	8268.4
657.813	9398.57
661.188	7708.19
664.563	4550.1
667.938	2451.82
671.312	1459.82
674.687	807.975
678.062	621.359
681.437	481.777
684.812	300.03
688.186	232.727
691.561	255.198
694.936	186.927
698.311	138.799
701.686	115.19
705.061	47.7949
708.435	47.6152
711.81	68.9893
715.185	11.5518
718.56	58.4717
721.935	1.35352
725.309	19.0654
728.684	26.668
732.059	20.8008
735.434	41.043
738.809	26.2471
742.183	67.9375
745.558	1.40039
748.933	45.1475
752.308	56.6504
755.683	179.467
759.058	79.4531
762.432	123.544
765.807	121.82
769.182	80.5762
772.557	91.9922
775.932	40.2861
779.307	26.2676
782.681	52.5898
786.056	76.3115
789.431	60.1934
792.806	6.88574
796.181	123.834
799.555	51.1025
802.93	51.7559
806.305	43.4209
809.68	66.5928
813.055	14.1533
816.429	59.0264
819.804	62.8301
823.179	33.5147
826.554	75.1953
829.929	16.8398
833.304	9.46973
836.678	10.8672
840.053	85.9277
843.428	104.523
846.803	198.594
850.178	241.072
853.553	214.324
856.927	110.785
860.302	120.652
863.677	28.9766
867.052	84.8711
870.427	140.945
873.801	156.941
877.176	162.769
880.551	74.0742
883.926	173.461
887.301	173.438
890.676	281.766
894.05	264.867
897.425	372.857
900.8	338.852
904.175	377.529
907.55	365.867
910.924	360.787
914.299	292.459
917.674	150.869
921.049	137.918
924.424	54.7617
927.798	40.7812
931.173	18.9004
934.548	16.2441
937.923	31.5625
941.298	23.1523
944.673	61.4414
948.047	101.394
951.422	209.875
954.797	72.8144
958.172	107.533
961.547	251.894
964.922	229.416
968.296	248.488
971.671	271.873
975.046	247.065
978.421	389.195
981.796	464.213
985.17	789.074
988.545	1029.12
991.92	1430.85
995.295	2256.6
998.67	4090.84
1002.04	8094.51
1005.42	15217.9
1008.79	22361
1012.17	24083.6
1015.54	14641
1018.92	6914.26
1022.29	4261.43
1025.67	3290.01
1029.04	2940.04
1032.42	2292.01
1035.79	1531.58
1039.17	1065.36
1042.54	609.936
1045.92	460.744
1049.29	171.596
1052.67	183.779
1056.04	85.291
1059.42	0.867188
1062.79	1.58984
1066.17	39.3652
1069.54	36.3262
1072.92	14.75
1076.29	69.3769
1079.66	76.8965
1083.04	20.666
1086.41	57.8691
1089.79	83.5723
1093.16	1.07812
1096.54	21.2559
1099.91	147.807
1103.29	23.6504
1106.66	11.7969
1110.04	32.4043
1113.41	129.668
1116.79	74.5644
1120.16	83.4824
1123.54	166.715
1126.91	107.516
1130.29	4.05273
1133.66	103.023
1137.04	23.0703
1140.41	117.295
1143.79	52.8145
1147.16	37.6367
1150.54	103.684
1153.91	107.398
1157.29	223.873
1160.66	183.627
1164.04	179.758
1167.41	11.0312
1170.79	73.5762
1174.16	138.9
1177.54	4.90039
1180.91	106.992
1184.29	104.734
1187.66	0.570313
1191.03	72.4023
1194.41	107.545
1197.78	49.4219
1201.16	10.8906
1204.53	232.768
1207.91	142.932
1211.28	70.9258
1214.66	106.709
1218.03	84.1094
1221.41	86.6133
1224.78	102.121
1228.16	21.6973
1231.53	89.2969
1234.91	114.01
1238.28	102.686
1241.66	125.158
1245.03	36.6836
1248.41	168.881
1251.78	89.1914
1255.16	103.258
1258.53	56.3965
1261.91	102.201
1265.28	201.877
1268.65	180.762
1272.03	152.41
1275.4	89.625
1278.78	72.4981
1282.15	224.457
1285.53	200.305
1288.9	48.7168
1292.28	158.611
1295.65	131.076
1299.03	185.432
1302.4	103.369
1305.78	262.191
1309.15	96.6894
1312.53	22.9492
