Measurement: Raman, 532 nm, unoriented, Raman Data Processed
Mineral: Hedenbergite
Rruff sample: R060040
Ideal chemistry: CaFe^2+^Si_2_O_6_
Locality: Rio Marina, Elba, Italy
Source: University of Arizona Mineral Museum
Description: Radial aggregate of green thin bladed crystals
Measured chemistry: Ca_1.00_(Fe^2+^_0.89_Mg_0.09_Mn_0.02_)_Î£=1_Si_2.00_O_6_
Raman shift (cm-1)	intensity
90.2653	0
93.6401	44.1042
97.0149	16.7766
100.39	2.16892
103.765	3.57031
107.139	53.5296
110.514	82.7335
113.889	94.6242
117.264	142.374
120.639	173.067
124.013	280.249
127.388	407.593
130.763	273.124
134.138	118.824
137.513	86.7016
140.888	120.291
144.262	112.381
147.637	93.622
151.012	70.4034
154.387	39.0882
157.762	34.6447
161.137	32.6678
164.511	45.5662
167.886	53.1056
171.261	71.3152
174.636	95.7873
178.011	127.823
181.385	134.573
184.76	116.942
188.135	124.858
191.51	141.611
194.885	122.953
198.26	69.321
201.634	27.7313
205.009	11.8849
208.384	2.99362
211.759	2.61267
215.133	0.886963
218.508	1.22861
221.883	5.07962
225.258	7.3407
228.633	17.3642
232.008	28.5631
235.382	29.1458
238.757	13.3176
242.132	5.31607
245.507	0.860413
248.882	2.26498
252.256	3.38037
255.631	2.27081
259.006	3.15747
262.381	4.27072
265.756	1.65064
269.131	2.71381
272.505	10.749
275.88	17.3849
279.255	28.2641
282.63	36.9464
286.005	50.5555
289.38	67.5221
292.754	85.4052
296.129	107.496
299.504	132.958
302.879	161.742
306.254	194.408
309.628	199.11
313.003	155.388
316.378	106.028
319.753	77.4347
323.128	72.727
326.502	80.1511
329.877	92.5871
333.252	113.95
336.627	143.317
340.002	172.771
343.377	164.358
346.751	117.435
350.126	82.9968
353.501	76.2828
356.876	95.1428
360.251	132.328
363.625	182.978
367	246.897
370.375	336.521
373.75	436.603
377.125	457.137
380.5	343.84
383.874	202.053
387.249	111.424
390.624	60.6329
393.999	33.6365
397.374	19.9109
400.748	11.7249
404.123	5.758
407.498	0.860199
410.873	3.63281
414.248	2.27701
417.623	1.57654
420.997	1.04901
424.372	2.11658
427.747	2.62256
431.122	0.938202
434.497	1.77869
437.872	1.43945
441.246	2.84854
444.621	1.99167
447.996	10.7869
451.371	8.72617
454.745	9.056
458.12	3.57498
461.495	3.5914
464.87	4.05978
468.245	4.63474
471.62	5.80261
474.994	5.95761
478.369	7.89499
481.744	12.4925
485.119	18.2476
488.494	23.9995
491.868	34.6516
495.243	41.2302
498.618	40.7983
501.993	31.5706
505.368	29.0709
508.743	30.408
512.117	36.1499
515.492	43.555
518.867	52.2079
522.242	57.0568
525.617	47.517
528.991	32.0681
532.366	21.3413
535.741	18.7156
539.116	18.8979
542.491	20.0669
545.866	25.509
549.24	33.4588
552.615	34.4122
555.99	27.3355
559.365	19.4049
562.74	15.9512
566.115	11.0299
569.489	8.59457
572.864	3.56692
576.239	4.79205
579.614	3.02533
582.989	1.31479
586.363	4.87949
589.738	0.971863
593.113	0.584137
596.488	2.81369
599.863	0.356995
603.237	0.941742
606.612	3.0531
609.987	6.39832
613.362	8.40945
616.737	8.35385
620.112	10.6654
623.486	14.9591
626.861	21.4746
630.236	28.6885
633.611	39.3474
636.986	50.8878
640.361	72.9298
643.735	110.143
647.11	172.916
650.485	264.706
653.86	392.436
657.235	552.784
660.609	664.98
663.984	545.6
667.359	318.236
670.734	175.845
674.109	104.659
677.484	65.9616
680.858	46.2375
684.233	33.559
687.608	22.7263
690.983	22.8657
694.357	16.1458
697.732	16.2445
701.107	18.2158
704.482	16.5192
707.857	9.93439
711.232	3.33594
714.606	0.993591
717.981	1.67902
721.356	1.63043
724.731	0.247803
728.106	0.023376
731.481	0.216675
734.855	2.54907
738.23	0.969116
741.605	0.044067
744.98	3.88196
748.355	5.58215
751.729	6.11395
755.104	6.72388
758.479	4.67438
761.854	4.38666
765.229	3.07886
768.604	4.76593
771.978	3.89838
775.353	2.54517
778.728	2.39789
782.103	0.433105
785.478	3.34949
788.852	1.4436
792.227	0.771973
795.602	0.208252
798.977	0.471863
802.352	0.901978
805.726	6.34503
809.101	6.85907
812.476	7.18365
815.851	6.89398
819.226	8.62732
822.601	7.59271
825.975	9.62396
829.35	8.91589
832.725	10.8649
836.1	10.4106
839.475	17.4793
842.85	26.4537
846.224	34.5669
849.599	47.5571
852.974	62.5894
856.349	58.1324
859.724	39.4019
863.098	30.7985
866.473	23.6955
869.848	22.4608
873.223	20.7891
876.598	21.3995
879.972	23.2202
883.347	26.3723
886.722	27.6119
890.097	27.7171
893.472	27.4845
896.847	22.4341
900.221	20.6464
903.596	17.7594
906.971	13.1121
910.346	11.7589
913.721	10.4946
917.096	8.81751
920.47	8.08496
923.845	5.97553
927.22	3.0722
930.595	0.325745
933.97	0.611816
937.344	1.32117
940.719	1.80463
944.094	0.193054
947.469	0.878601
950.844	0.021667
954.218	3.84522
957.593	3.23547
960.968	2.32684
964.343	4.85669
967.718	8.58179
971.092	7.89514
974.467	12.1686
977.842	13.5872
981.217	18.8233
984.592	28.1358
987.967	37.3198
991.341	57.5687
994.716	90.2254
998.091	156.852
1001.47	294.877
1004.84	508.659
1008.22	827.182
1011.59	1268.09
1014.97	1217.22
1018.34	630.565
1021.72	330.736
1025.09	219.721
1028.46	170.906
1031.84	138.221
1035.21	110.247
1038.59	80.9982
1041.96	61.6734
1045.34	47.3787
1048.71	34.4202
1052.09	26.6442
1055.46	21.0863
1058.84	11.7995
1062.21	8.98596
1065.59	7.1109
1068.96	6.52026
1072.34	4.38226
1075.71	2.01843
1079.09	1.172
1082.46	1.44482
1085.84	2.36719
1089.21	0.238525
1092.59	0.38385
1095.96	0.267944
1099.34	0.08667
1102.71	0.270508
1106.09	0.496277
1109.46	2.24823
1112.84	4.50214
1116.21	0.748352
1119.58	4.62115
1122.96	0.214417
1126.33	1.10388
1129.71	0.396973
1133.08	0.087646
1136.46	0.553711
1139.83	0.370972
1143.21	2.08429
1146.58	1.07513
1149.96	0.31781
1153.33	0.341187
1156.71	0.098877
1160.08	3.47546
1163.46	2.31555
1166.83	0.984497
1170.21	2.67224
1173.58	12.285
1176.96	4.22748
1180.33	5.52185
1183.71	6.54846
1187.08	6.92084
1190.46	6.08972
1193.83	7.44824
1197.2	5.20032
1200.58	5.39008
1203.95	4.67853
1207.33	5.06488
1210.7	5.13812
1214.08	3.63232
1217.45	5.34229
1220.83	3.91266
1224.2	5.03345
1227.58	1.87811
1230.95	0.713745
1234.33	3.34161
1237.7	4.06366
1241.08	1.98315
1244.45	3.99945
1247.83	4.87915
1251.2	3.68689
1254.58	1.81445
1257.95	5.99573
1261.33	6.10419
1264.7	1.19995
1268.08	1.53009
1271.45	6.10077
1274.83	2.4624
1278.2	4.03845
1281.58	2.80511
1284.95	0.97937
1288.33	1.60626
1291.7	1.7102
1295.08	0.621765
1298.45	3.87189
1301.83	0
