Measurement: Raman, 532 nm, unoriented, Raman Data Processed
Mineral: Hedenbergite
Rruff sample: R070136
Ideal chemistry: CaFe^2+^Si_2_O_6_
Locality: Vesper Peak, Snohomish County, Washington, USA
Source: Mark Mauthner
Description: Brownish green prismatic crystals with transparent sections
Raman shift (cm-1)	intensity
129.933	0
133.308	54.4451
136.682	12.0183
140.057	51.8694
143.432	246.468
146.807	674.75
150.182	458.885
153.556	338.891
156.931	467.272
160.306	443.164
163.681	643.389
167.056	1033.14
170.431	997.97
173.805	1514.71
177.18	2353.26
180.555	2338.51
183.93	1715.52
187.305	1872.23
190.679	2294.82
194.054	1811.97
197.429	846.111
200.804	368.169
204.179	187.556
207.554	103.21
210.928	40.817
214.303	58.3801
217.678	69.1976
221.053	155.662
224.428	306.352
227.803	629.502
231.177	1064.59
234.552	964.688
237.927	286.961
241.302	39.8904
244.677	58.5366
248.051	94.6172
251.426	76.6617
254.801	91.7805
258.176	25.5839
261.551	45.9254
264.925	140.404
268.3	296.983
271.675	457.297
275.05	662.233
278.425	812.533
281.8	1080.77
285.174	1375.43
288.549	1795.23
291.924	2372.26
295.299	3048.31
298.674	3873.11
302.048	5069.49
305.423	6249.01
308.798	5819.74
312.173	4037.91
315.548	2578.13
318.923	1981.13
322.297	2005.7
325.672	2540.97
329.047	3402.45
332.422	4355.05
335.797	5389.31
339.171	6203.31
342.546	5028
345.921	2863.37
349.296	1689.26
352.671	1193.75
356.046	1198.77
359.42	1696.62
362.795	2684.72
366.17	4485.31
369.545	7027.27
372.92	9999.33
376.295	10462.5
379.669	7031.97
383.044	3731.5
386.419	1876.53
389.794	954.989
393.169	531.641
396.543	230.677
399.918	101.253
403.293	8.67505
406.668	67.4664
410.043	61.5145
413.418	71.0405
416.792	70.1527
420.167	2.07129
423.542	38.1187
426.917	40.6447
430.292	102.386
433.666	223.375
437.041	335.049
440.416	288.123
443.791	143.477
447.166	59.3923
450.541	45.0424
453.915	57.9416
457.29	53.1624
460.665	55.0205
464.04	71.2277
467.415	73.6399
470.789	59.2659
474.164	48.71
477.539	92.347
480.914	151.416
484.289	280.239
487.663	537.467
491.038	868.057
494.413	1188.66
497.788	938.32
501.163	441.278
504.538	208.971
507.912	119.177
511.287	160.686
514.662	209.421
518.037	358.439
521.412	495.816
524.787	490.745
528.161	307.386
531.536	215.478
534.911	228.604
538.286	303.188
541.661	611.011
545.035	1100.46
548.41	1802.53
551.785	2668.79
555.16	1999.32
558.535	866.533
561.909	363.827
565.284	163.447
568.659	83.0285
572.034	14.3832
575.409	16.0382
578.784	12.0601
582.158	25.6271
585.533	38.1105
588.908	9.68188
592.283	12.055
595.658	32.4733
599.033	57.761
602.407	66.1981
605.782	130.054
609.157	165.918
612.532	229.203
615.907	286.121
619.281	397.748
622.656	503.304
626.031	625.186
629.406	859.977
632.781	1116.17
636.155	1481.42
639.53	2103.73
642.905	3213.39
646.28	5233.34
649.655	8890.78
653.03	14388.9
656.404	21615.5
659.779	26382.2
663.154	20029.5
666.529	10541.8
669.904	5592.99
673.279	3182.81
676.653	1936.14
680.028	1277.51
683.403	845.657
686.778	586.145
690.153	442.058
693.527	340.894
696.902	308.595
700.277	324.751
703.652	297.854
707.027	169.075
710.402	76.2763
713.776	12.5161
717.151	44.257
720.526	5.42303
723.901	23.5355
727.276	10.1643
730.65	5.4165
734.025	3.25958
737.4	2.05322
740.775	3.43005
744.15	10.7715
747.524	24.1414
750.899	9.48901
754.274	29.0304
757.649	18.6039
761.024	9.38068
764.399	17.2702
767.773	21.2863
771.148	5.28143
774.523	8.8241
777.898	16.8008
781.273	12.3901
784.648	26.1241
788.022	21.5698
791.397	4.86664
794.772	2.00519
798.147	13.4715
801.522	6.85626
804.896	1.58734
808.271	3.80273
811.646	2.28455
815.021	9.3855
818.396	6.73206
821.77	8.3714
825.145	19.9885
828.52	26.2424
831.895	45.8066
835.27	80.072
838.645	205.937
842.019	462.189
845.394	929.062
848.769	1707.75
852.144	2370.89
855.519	1708.1
858.894	851.36
862.268	413.969
865.643	252.932
869.018	193.262
872.393	157.394
875.768	145.514
879.142	173.65
882.517	185.721
885.892	258.955
889.267	322.64
892.642	384.182
896.016	442.602
899.391	538.748
902.766	647.771
906.141	673.658
909.516	659.83
912.891	590.625
916.265	422.279
919.64	288.634
923.015	193.688
926.39	103.672
929.765	17.1643
933.139	1.81653
936.514	28.5752
939.889	34.0818
943.264	39.1979
946.639	4.8938
950.014	5.08167
953.388	51.4846
956.763	112.121
960.138	197.154
963.513	269.051
966.888	308.125
970.263	319.394
973.637	372.208
977.012	478.72
980.387	590.651
983.762	802.615
987.137	1094.97
990.511	1607.46
993.886	2407.47
997.261	3936.09
1000.64	7201.52
1004.01	14646.9
1007.38	27985.5
1010.76	45917.5
1014.13	46455.4
1017.51	22373.1
1020.88	10571.2
1024.26	6558.78
1027.63	5121.47
1031.01	4235.48
1034.38	3164.49
1037.76	2172.52
1041.13	1463.63
1044.51	1008.26
1047.88	720.172
1051.26	508.643
1054.63	325.42
1058.01	262.251
1061.38	141.706
1064.76	108.569
1068.13	56.3368
1071.51	45.3135
1074.88	16.6904
1078.26	2.58496
1081.63	0.496582
1085.01	16.0753
1088.38	2.09497
1091.76	35.6796
1095.13	10.6266
1098.51	9.48596
1101.88	9.45752
1105.26	16.5702
1108.63	10.3943
1112.01	20.0936
1115.38	16.6711
1118.76	5.29596
1122.13	22.2082
1125.5	4.56372
1128.88	19.779
1132.25	38.3231
1135.63	15.1266
1139	22.8391
1142.38	16.2812
1145.75	1.88055
1149.13	12.3325
1152.5	6.74213
1155.88	1.0733
1159.25	22.8889
1162.63	22.4072
1166	12.5824
1169.38	19.136
1172.75	37.8573
1176.13	36.1406
1179.5	46.2028
1182.88	64.0544
1186.25	73.0204
1189.63	66.4916
1193	82.1038
1196.38	61.1841
1199.75	58.2685
1203.12	55.4234
1206.5	63.3817
1209.88	54.813
1213.25	57.1232
1216.62	31.6917
1220	39.1759
1223.37	23.3909
1226.75	31.9861
1230.12	36.1116
1233.5	37.3098
1236.87	50.7368
1240.25	46.4403
1243.62	78.2256
1247	62.8906
1250.37	35.5286
1253.75	79.0179
1257.12	54.7913
1260.5	69.7296
1263.87	41.459
1267.25	32.4661
1270.62	32.1072
1274	27.2778
1277.37	25.667
1280.75	12.5572
1284.12	8.26599
1287.49	5.63239
1290.87	18.2064
1294.24	19.3957
1297.62	1.12024
1300.99	20.4943
1304.37	0
