Measurement: Raman, 785 nm, unoriented, Raman Data Processed
Mineral: Hedenbergite
Rruff sample: R050030
Ideal chemistry: CaFe^2+^Si_2_O_6_
Locality: Heroult, Ontario, Canada
Source: University of Arizona Mineral Museum
Description: Green fragments
Measured chemistry: (Ca_.993_Na_.007_)(Fe_.860_Mn_.111_Mg_.029_)(Si_.993_Al_.007_)_2_O_6_
Raman shift (cm-1)	intensity
148.018	0
150.911	14.1381
153.803	13.5281
156.696	39.5342
159.589	8.59815
162.481	122.677
165.374	238.463
168.267	339.165
171.16	460.396
174.052	701.795
176.945	1132.75
179.838	1161.7
182.73	880.351
185.623	959.094
188.516	1313.77
191.408	1266.46
194.301	646.459
197.194	269.784
200.087	126.181
202.979	69.415
205.872	33.1157
208.765	19.8513
211.657	21.5195
214.55	35.5984
217.443	51.2163
220.335	76.7165
223.228	126.29
226.121	190.592
229.013	276.737
231.906	384.54
234.799	306.905
237.692	135.554
240.584	15.3595
243.477	4.73706
246.37	12.3266
249.262	26.4549
252.155	25.1742
255.048	13.5803
257.941	14.0432
260.833	16.8846
263.726	32.7604
266.619	44.6835
269.511	72.7593
272.404	122.446
275.297	175.233
278.19	256.887
281.082	358.017
283.975	493.643
286.868	687.565
289.76	871.681
292.653	1164.23
295.546	1532.51
298.438	1825.12
301.331	2238.55
304.224	2419.12
307.116	2115.24
310.009	1446.42
312.902	929.181
315.795	653.695
318.687	498.42
321.58	531.708
324.473	692.237
327.365	846.554
330.258	1096.44
333.151	1327.32
336.043	1644.27
338.936	1668.33
341.829	1251.97
344.721	773.079
347.614	561.097
350.507	478.235
353.4	597.021
356.292	819.51
359.185	1255.83
362.078	1759.43
364.97	2491.75
367.863	3433.55
370.756	4484.75
373.649	4835.35
376.541	3995.07
379.434	2437.27
382.327	1398.63
385.219	810.952
388.112	481.98
391.005	262.446
393.897	180.697
396.79	99.4285
399.683	72.6985
402.575	18.7432
405.468	11.8351
408.361	22.3997
411.254	11.8364
414.146	44.4269
417.039	5.80548
419.932	24.028
422.824	3.66669
425.717	15.6145
428.61	1.14593
431.502	32.3308
434.395	31.6759
437.288	76.1141
440.181	32.2917
443.073	36.6551
445.966	28.7629
448.859	2.0202
451.751	37.3679
454.644	26.7062
457.537	25.7009
460.43	21.1121
463.322	32.6492
466.215	11.0574
469.108	46.1749
472	44.0469
474.893	25.9377
477.786	37.2574
480.678	105.767
483.571	124.132
486.464	196.149
489.356	272.502
492.249	308.478
495.142	321.993
498.035	202.369
500.927	130.556
503.82	123.182
506.713	122.306
509.605	151.828
512.498	212.729
515.391	323.56
518.284	375.356
521.176	392.377
524.069	349.534
526.962	218.846
529.854	137.177
532.747	127.759
535.64	94.3903
538.533	128.332
541.425	186.22
544.318	228.104
547.211	330.02
550.103	429.281
552.996	419.651
555.889	276.132
558.781	142.679
561.674	79.3896
564.567	52.4576
567.459	26.9764
570.352	11.7466
573.245	22.2492
576.138	30.8668
579.03	2.15308
581.923	0.967957
584.816	3.26508
587.708	7.0813
590.601	4.88354
593.494	10.7985
596.386	0.688843
599.279	6.31146
602.172	23.2362
605.064	9.14374
607.957	50.3991
610.85	36.0838
613.743	71.9125
616.635	66.8482
619.528	83.6634
622.421	132.696
625.313	175.833
628.206	205.545
631.099	271.852
633.991	367.006
636.884	433.575
639.777	646.942
642.67	1006.86
645.562	1573.2
648.455	2453.2
651.348	3614.07
654.24	5103.51
657.133	6033.11
660.026	5319.93
662.918	3556.78
665.811	2078.1
668.704	1223.22
671.597	811.49
674.489	550.042
677.382	375.068
680.275	271.438
683.167	209.11
686.06	156.736
688.953	116.376
691.846	114.104
694.738	129.423
697.631	121.734
700.524	109.736
703.416	95.8638
706.309	38.9798
709.202	35.9136
712.094	3.45575
714.987	21.9944
717.88	6.19415
720.773	17.0882
723.665	2.69019
726.558	5.86151
729.451	7.39825
732.343	7.94013
735.236	11.4488
738.129	3.44797
741.021	8.1214
743.914	22.1847
746.807	3.02106
749.699	2.1015
752.592	8.85092
755.485	11.4452
758.378	4.30222
761.27	19.2303
764.163	8.5752
767.056	10.5219
769.948	33.2705
772.841	32.1814
775.734	17.2356
778.626	7.18942
781.519	2.32574
784.412	24.1832
787.305	10.707
790.197	20.2789
793.09	8.67276
795.983	12.1082
798.875	4.04675
801.768	0.715637
804.661	16.1849
807.553	0.040466
810.446	23.5841
813.339	6.98624
816.232	14.8347
819.124	31.3503
822.017	18.0682
824.91	2.07239
827.802	10.6052
830.695	10.6454
833.588	32.679
836.481	33.4456
839.373	68.7777
842.266	124.646
845.159	179.504
848.051	279.923
850.944	314.959
853.837	229.735
856.729	142.02
859.622	79.8428
862.515	38.3426
865.408	42.8338
868.3	40.0931
871.193	22.9696
874.086	11.557
876.978	22.9028
879.871	21.1692
882.764	28.6986
885.656	5.26138
888.549	41.069
891.442	49.9781
894.335	56.6787
897.227	86.8476
900.12	82.2312
903.013	114.823
905.905	96.3045
908.798	90.7585
911.691	107.195
914.583	84.388
917.476	61.0902
920.369	40.9844
923.261	13.7012
926.154	33.4109
929.047	38.0818
931.94	5.31644
934.832	6.43756
937.725	9.09143
940.618	16.9519
943.51	16.8371
946.403	19.6664
949.296	0.024902
952.188	9.89069
955.081	1.12445
957.974	16.3265
960.867	24.2283
963.759	0.150085
966.652	59.1359
969.545	59.6799
972.437	47.8233
975.33	61.8139
978.223	70.9101
981.115	116.886
984.008	144.441
986.901	212.937
989.794	300.13
992.686	416.874
995.579	623.115
998.472	1069.74
1001.36	1937.68
1004.26	3639.65
1007.15	6074.09
1010.04	9182.98
1012.93	9588.09
1015.83	5879.01
1018.72	3049
1021.61	1809.96
1024.51	1337.69
1027.4	1075.45
1030.29	902.742
1033.18	664.278
1036.08	440.418
1038.97	306.328
1041.86	228.396
1044.76	171.495
1047.65	139.344
1050.54	92.4651
1053.43	86.6668
1056.33	63.2398
1059.22	25.4349
1062.11	30.8469
1065	48.4094
1067.9	5.29529
1070.79	10.1097
1073.68	5.07806
1076.58	36.0348
1079.47	26.3844
1082.36	6.96909
1085.25	12.6928
1088.14	28.0732
1091.04	14.4658
1093.93	2.67673
1096.82	12.1068
1099.72	6.20428
1102.61	7.66946
1105.5	21.9192
1108.39	3.10776
1111.29	31.4233
1114.18	31.6314
1117.07	12.6653
1119.96	16.8336
1122.86	4.37363
1125.75	41.3681
1128.64	78.8795
1131.54	3.09601
1134.43	0.086334
1137.32	13.2411
1140.21	1.49853
1143.11	49.1189
1146	6.99146
1148.89	13.3478
1151.79	15.027
1154.68	5.18445
1157.57	12.1362
1160.46	17.6873
1163.36	10.8146
1166.25	3.65674
1169.14	46.1594
1172.03	11.2281
1174.93	12.6107
1177.82	11.1643
1180.71	20.2457
1183.6	25.5555
1186.5	20.933
1189.39	46.247
1192.28	44.616
1195.17	28.3908
1198.07	32.673
1200.96	42.9815
1203.85	28.8144
1206.75	19.6092
1209.64	21.1421
1212.53	11.1612
1215.42	3.79227
1218.32	11.2643
1221.21	35.7945
1224.1	32.4178
1226.99	32.2011
1229.89	25.799
1232.78	14.6885
1235.67	18.2486
1238.57	0
