Measurement: Raman, 514 nm, unoriented, Raman Data Processed
Mineral: Hedenbergite
Rruff sample: R050030
Ideal chemistry: CaFe^2+^Si_2_O_6_
Locality: Heroult, Ontario, Canada
Source: University of Arizona Mineral Museum
Description: Green fragments
Measured chemistry: (Ca_.993_Na_.007_)(Fe_.860_Mn_.111_Mg_.029_)(Si_.993_Al_.007_)_2_O_6_
Raman shift (cm-1)	intensity
97.554	0
101.732	10.164
105.908	717.728
110.082	292.041
114.254	936.858
118.424	2294.12
122.592	5284.66
126.758	4601.8
130.922	1639.14
135.083	473.681
139.243	649.907
143.401	659.553
147.557	785.846
151.711	334.949
155.863	366.096
160.013	430.429
164.161	761.855
168.308	902.129
172.452	2087.1
176.594	3470.96
180.734	2690.42
184.872	2460.13
189.008	2997.96
193.143	2065.48
197.275	921.188
201.405	556.028
205.534	328.711
209.66	209.06
213.784	7.79
217.907	48.697
222.027	60.251
226.146	172.911
230.263	512.178
234.377	591.541
238.49	188.992
242.601	78.412
246.709	114.777
250.816	188.786
254.921	46.283
259.024	43.008
263.125	26.199
267.224	3.354
271.321	115.969
275.416	94.403
279.51	341.02
283.601	697.42
287.69	1029.41
291.778	1403.21
295.863	2086.67
299.947	3611.55
304.029	4705.44
308.108	4174.29
312.186	2822.25
316.262	1738.25
320.336	1322.47
324.408	1289.16
328.478	1221.8
332.546	2005.5
336.612	2283.21
340.677	2267.57
344.739	1403.74
348.799	988.897
352.858	989.088
356.915	1181.33
360.969	1690.6
365.022	2919.89
369.073	5022.18
373.122	6514.6
377.169	5159.1
381.215	2655.33
385.258	1523.97
389.299	734.09
393.339	632.161
397.376	561.185
401.412	459.154
405.446	421.595
409.478	242.188
413.508	120.889
417.536	140.089
421.562	118.661
425.586	196.5
429.609	0.223
433.629	444.796
437.648	101.513
441.665	79.237
445.68	58.014
449.693	59.673
453.704	145.389
457.713	149.727
461.721	36.569
465.726	82.323
469.73	20.646
473.731	104.714
477.731	59.25
481.729	226.446
485.725	398.147
489.72	557.795
493.712	759.434
497.703	393.129
501.691	307.779
505.678	227.374
509.663	197.918
513.646	227.425
517.627	588.89
521.607	503.336
525.584	465.714
529.56	113.973
533.534	147.094
537.506	347.076
541.476	118.917
545.444	404.695
549.41	573.338
553.375	490.909
557.337	355.252
561.298	171.467
565.257	78.488
569.214	285.082
573.17	41.102
577.123	199.605
581.075	258.658
585.024	160.678
588.972	321.244
592.918	23.941
596.863	357.971
600.805	303.258
604.746	221.98
608.685	161.105
612.621	283.977
616.557	291.555
620.49	422.621
624.421	406.637
628.351	677.117
632.279	881.943
636.205	904.721
640.129	1459.17
644.051	2110
647.972	3830.54
651.89	7617.08
655.807	14806.7
659.722	17095.9
663.636	10284.1
667.547	5586.58
671.457	3172.99
675.365	1987.48
679.271	1270.25
683.175	1070.04
687.077	780.266
690.978	659.756
694.877	783.215
698.774	646.354
702.669	561.295
706.562	636.209
710.454	453.945
714.344	182.502
718.232	260.885
722.118	118.477
726.002	54.604
729.885	172.861
733.766	48.1
737.645	93.695
741.522	150.275
745.397	76.369
749.271	184.439
753.143	45.961
757.013	170.422
760.881	224.66
764.748	67.984
768.613	21.229
772.476	94.65
776.337	151.406
780.196	188.346
784.054	16.719
787.91	28.068
791.764	51.828
795.616	113.398
799.467	82.35
803.316	130.42
807.163	87.041
811.008	37.887
814.851	93.891
818.693	15.605
822.533	17.607
826.371	104.455
830.208	108.117
834.042	31.543
837.875	132.621
841.706	242.717
845.536	577.822
849.363	1034.86
853.189	1131.83
857.013	1057.74
860.836	694.66
864.656	349.502
868.475	177.324
872.292	240.119
876.108	56.594
879.922	390.271
883.733	183.467
887.544	154.49
891.352	266.676
895.159	271.732
898.964	544.51
902.767	324.609
906.568	366.141
910.368	496.312
914.166	412.447
917.962	485.029
921.757	483.113
925.55	447.625
929.341	366.633
933.13	452.688
936.918	232.797
940.703	231.934
944.488	288.242
948.27	495.453
952.051	391.992
955.83	477.379
959.607	341.133
963.383	366.209
967.156	463.348
970.928	672.064
974.699	580.23
978.468	528.807
982.234	716.441
986	1018.55
989.763	1202.62
993.525	1471.1
997.285	2273.96
1001.04	4147.82
1004.8	7627.35
1008.55	18896.4
1012.31	32732.3
1016.06	19423.7
1019.81	8874.07
1023.56	5426.35
1027.31	3996.4
1031.05	3377.95
1034.79	2694.2
1038.53	1790.21
1042.27	1449.98
1046.01	1352.43
1049.75	1438.58
1053.48	1272.11
1057.22	945.943
1060.95	902.156
1064.68	799.908
1068.4	730.434
1072.13	816.623
1075.86	842.754
1079.58	846.479
1083.3	543.736
1087.02	618.74
1090.74	483.016
1094.45	372.383
1098.17	340.6
1101.88	470.033
1105.59	452.504
1109.3	331.098
1113.01	228.631
1116.71	208.506
1120.42	352.029
1124.12	568.004
1127.82	295.99
1131.52	131.594
1135.22	101.723
1138.91	32.535
1142.61	13.316
1146.3	162.99
1149.99	13.684
1153.68	139.881
1157.37	18.764
1161.06	64.678
1164.74	7.115
1168.42	3.932
1172.1	16.318
1175.78	170.428
1179.46	24.061
1183.14	347.127
1186.81	37.85
1190.48	54.775
1194.15	40.059
1197.83	283.531
1201.49	109.787
1205.16	168.418
1208.82	408.506
1212.49	239.412
1216.15	193.244
1219.81	236.598
1223.46	143.369
1227.12	273.158
1230.78	435.936
1234.43	335.262
1238.08	313.154
1241.73	357.617
1245.38	440.605
1249.03	154.16
1252.67	322.1
1256.31	170.396
1259.95	238.133
1263.6	226.811
1267.23	134.012
1270.87	80.939
1274.51	26.004
1278.14	190.479
1281.77	223.852
1285.4	100.277
1289.03	233.949
1292.66	150.297
1296.28	4.674
1299.91	249.371
1303.53	45.082
1307.15	278.236
1310.77	278.473
1314.38	70.016
1318	244.504
1321.61	55.246
1325.23	53.758
1328.84	74.545
1332.45	296.178
1336.06	336.061
1339.66	88.682
1343.27	139.443
1346.87	245.32
1350.47	321.625
1354.07	429.098
1357.67	415.426
1361.26	542.816
1364.86	697.645
1368.45	617.668
1372.04	477.871
1375.63	687.562
1379.22	451.113
1382.81	504.285
1386.39	411.914
1389.98	247.438
1393.56	420.613
1397.14	382.16
1400.72	365.352
1404.3	441.945
1407.87	269.762
1411.45	122.859
1415.02	361.371
1418.59	369.656
1422.16	203.922
1425.73	363.219
1429.29	289.914
1432.86	221.586
1436.42	417.445
1439.98	269.707
1443.54	245.32
1447.1	219.359
1450.66	464.344
1454.21	543.973
1457.77	550.043
1461.32	1145.86
1464.87	645.426
1468.42	219.23
1471.96	616.961
1475.51	559.273
1479.06	480.363
1482.6	177.668
1486.14	363.617
1489.68	278.863
1493.22	598.047
1496.75	595.141
1500.29	39.57
1503.82	145.961
1507.35	293.969
1510.88	75.121
1514.41	212.598
