Measurement: Raman, 785 nm, unoriented, Raman Data Processed
Mineral: Hedenbergite
Rruff sample: R070136
Ideal chemistry: CaFe^2+^Si_2_O_6_
Locality: Vesper Peak, Snohomish County, Washington, USA
Source: Mark Mauthner
Description: Brownish green prismatic crystals with transparent sections
Raman shift (cm-1)	intensity
129.506	0
132.399	31.14
135.291	18.1898
138.184	17.1751
141.077	46.6806
143.97	158.576
146.862	376.546
149.755	489.721
152.648	490.295
155.54	548.75
158.433	618.585
161.326	630.465
164.218	744.146
167.111	1046.08
170.004	966.127
172.897	881.616
175.789	1167.27
178.682	1503.75
181.575	1644.16
184.467	1545.37
187.36	1610.26
190.253	1865.84
193.145	1817.59
196.038	1227.94
198.931	659.384
201.823	303.628
204.716	177.501
207.609	89.1124
210.502	25.5623
213.394	31.1071
216.287	21.6174
219.18	36.7615
222.072	67.554
224.965	179.391
227.858	303.599
230.75	606.074
233.643	802.608
236.536	540.046
239.429	211.415
242.321	38.0343
245.214	16.9307
248.107	36.6131
250.999	43.2321
253.892	32.105
256.785	10.7852
259.678	9.0918
262.57	38.7557
265.463	68.1985
268.356	147.792
271.248	229.786
274.141	313.576
277.034	356.06
279.926	431.236
282.819	515.903
285.712	734.664
288.604	949.399
291.497	1282.68
294.39	1760.03
297.283	2430.97
300.175	3331.12
303.068	4414.88
305.961	5364.87
308.853	5285.51
311.746	4067.7
314.639	2696.76
317.531	1818.95
320.424	1307.46
323.317	1144.73
326.21	1145.49
329.102	1207.23
331.995	1268.8
334.888	1290.32
337.78	1347.47
340.673	1310.2
343.566	1013.43
346.459	633.943
349.351	411.943
352.244	324.839
355.137	327.272
358.029	450.725
360.922	646.547
363.815	986.37
366.707	1517.14
369.6	2213.57
372.493	2962.88
375.385	3143.32
378.278	2348.4
381.171	1390.38
384.064	775.694
386.956	423.69
389.849	207.261
392.742	96.0911
395.634	50.4902
398.527	9.46954
401.42	15.1228
404.312	3.55987
407.205	27.2076
410.098	41.498
412.99	21.7347
415.883	9.29755
418.776	19.1045
421.669	13.2836
424.561	17.1805
427.454	36.1739
430.347	93.043
433.239	149.061
436.132	226.619
439.025	254.506
441.918	215.108
444.81	124.824
447.703	76.3685
450.596	69.2922
453.488	59.1447
456.381	37.0636
459.274	33.3723
462.166	20.1053
465.059	36.1287
467.952	23.8001
470.844	24.8996
473.737	43.9449
476.63	61.2736
479.523	84.3247
482.415	192.221
485.308	294.004
488.201	505.484
491.093	766.258
493.986	1029.06
496.879	977.999
499.772	623.5
502.664	329.286
505.557	187.411
508.45	138.202
511.342	99.1428
514.235	115.353
517.128	151.736
520.02	216.441
522.913	253.351
525.806	196.754
528.698	155.901
531.591	86.2404
534.484	95.621
537.377	112.919
540.269	176.022
543.162	298.167
546.055	477.185
548.947	716.277
551.84	950.429
554.733	865.471
557.625	466.983
560.518	249.282
563.411	127.673
566.304	76.8904
569.196	39.4131
572.089	21.1267
574.982	6.99261
577.874	10.959
580.767	14.4945
583.66	15.8994
586.553	26.0462
589.445	7.68469
592.338	3.87701
595.231	13.1854
598.123	14.2553
601.016	20.6417
603.909	48.9043
606.801	50.9872
609.694	82.3831
612.587	106.609
615.48	119.728
618.372	149.923
621.265	179.323
624.158	247.027
627.05	314.771
629.943	388.976
632.836	500.667
635.728	667.207
638.621	837.963
641.514	1174.99
644.407	1650.7
647.299	2578.54
650.192	4138.56
653.085	6509.74
655.977	9522.76
658.87	11835.7
661.763	11121.6
664.655	7533.04
667.548	4374.16
670.441	2529.81
673.333	1554.78
676.226	1018.2
679.119	687.506
682.012	520.807
684.904	350.711
687.797	264.832
690.69	220.609
693.582	169.543
696.475	166.51
699.368	148.381
702.26	170.254
705.153	120.813
708.046	69.4221
710.939	53.8381
713.831	35.7784
716.724	22.1456
719.617	55.9124
722.509	13.3575
725.402	7.94812
728.295	6.92425
731.188	2.87628
734.08	13.5114
736.973	13.498
739.866	13.7829
742.758	5.1084
745.651	6.4104
748.544	0.375977
751.436	2.29981
754.329	19.6392
757.222	12.2712
760.114	2.79456
763.007	2.16284
765.9	3.23291
768.793	18.0685
771.685	11.6796
774.578	39.0182
777.471	21.9844
780.363	7.48605
783.256	4.7356
786.149	20.4219
789.041	29.5953
791.934	25.141
794.827	10.0824
797.72	26.2007
800.612	8.88956
803.505	23.6495
806.398	10.6224
809.29	21.0944
812.183	18.5909
815.076	18.2373
817.968	7.52322
820.861	38.8268
823.754	3.73199
826.646	25.9434
829.539	9.48733
832.432	0.616852
835.325	3.37701
838.217	8.853
841.11	28.4667
844.003	51.0478
846.895	67.103
849.788	94.7488
852.681	123.86
855.573	103.544
858.466	66.4476
861.359	56.627
864.252	36.001
867.144	39.4997
870.037	8.28937
872.93	27.9661
875.822	49.6974
878.715	40.245
881.608	45.8183
884.5	74.9312
887.393	75.5793
890.286	76.1294
893.179	81.6725
896.071	112.397
898.964	121.104
901.857	126.745
904.75	153.732
907.642	136.7
910.535	104.938
913.428	88.7933
916.32	72.5557
919.213	41.5731
922.106	38.1254
924.998	38.9815
927.891	1.99414
930.784	2.68738
933.677	6.82568
936.569	1.57971
939.462	10.4935
942.355	0.650452
945.247	20.4238
948.14	2.85864
951.033	44.1
953.925	48.944
956.818	54.8597
959.711	54.7059
962.603	60.4833
965.496	89.2404
968.389	103.629
971.282	107.605
974.174	133.401
977.067	195.156
979.96	211.615
982.852	255.134
985.745	330.683
988.638	457.319
991.53	614.764
994.423	926.863
997.316	1320.58
1000.21	2151.67
1003.1	3746.29
1005.99	7157.69
1008.89	12511.8
1011.78	17099.1
1014.67	14269.1
1017.57	7970.84
1020.46	4077.82
1023.35	2357.79
1026.24	1681.94
1029.13	1337.84
1032.03	1039.25
1034.92	771.47
1037.81	585.54
1040.71	396.495
1043.6	287.323
1046.49	213.433
1049.38	141.29
1052.28	128.584
1055.17	90.1865
1058.06	55.7532
1060.95	46.7394
1063.85	11.0479
1066.74	18.9285
1069.63	21.8808
1072.53	7.49744
1075.42	11.505
1078.31	0.949982
1081.2	8.12146
1084.1	10.0342
1086.99	1.93457
1089.88	27.6802
1092.78	17.4475
1095.67	9.76858
1098.56	3.15942
1101.45	6.46411
1104.35	16.5583
1107.24	10.1345
1110.13	10.0842
1113.02	19.2971
1115.92	13.5735
1118.81	3.41724
1121.7	13.5554
1124.6	2.16647
1127.49	20.1447
1130.38	1.98523
1133.27	32.3978
1136.16	20.5751
1139.06	23.3122
1141.95	30.4785
1144.84	2.87363
1147.74	15.7955
1150.63	26.4309
1153.52	10.6028
1156.41	0.706573
1159.31	9.00424
1162.2	6.23126
1165.09	32.6271
1167.98	10.9492
1170.88	24.386
1173.77	36.3319
1176.66	16.9288
1179.56	50.1633
1182.45	29.9222
1185.34	29.2716
1188.23	30.1527
1191.13	44.3041
1194.02	16.2536
1196.91	39.5283
1199.81	12.6732
1202.7	22.8801
1205.59	7.04108
1208.48	32.2008
1211.38	12.5119
1214.27	26.299
1217.16	8.52722
1220.05	6.33942
1222.95	8.70377
1225.84	7.83685
