Measurement: Raman, 785 nm, unoriented, Raman Data Processed
Mineral: Hedenbergite
Rruff sample: R070236
Ideal chemistry: CaFe^2+^Si_2_O_6_
Locality: Dal'Negorsk, Primorskiy Kray; far eastern, Russia
Source: Michael Scott
Description: Gemmy drab to olive green orthorhombic prisms lining vug
Measured chemistry: Ca_1.00_(Fe^2+^_0.67_Mg_0.17_Mn^2+^_0.16_)_Î£=1_Si_2.00_O_6_
Raman shift (cm-1)	intensity
158.625	0
161.517	33.5719
164.41	86.511
167.303	129.716
170.195	140.554
173.088	78.7305
175.981	80.6567
178.873	146.119
181.766	199.021
184.659	202.305
187.552	214.153
190.444	247.985
193.337	199.397
196.23	146.621
199.122	133.451
202.015	105.675
204.908	124.756
207.8	62.4141
210.693	58.6936
213.586	87.5591
216.478	101.399
219.371	102.899
222.264	123.213
225.157	167.606
228.049	119.505
230.942	197.125
233.835	184.67
236.727	66.1443
239.62	33.2969
242.513	13.1152
245.405	13.8723
248.298	18.2664
251.191	56.9329
254.084	0.949707
256.976	30.2952
259.869	81.0547
262.762	110.564
265.654	172.521
268.547	221.992
271.44	276.402
274.332	354.035
277.225	288.485
280.118	326.543
283.011	284.137
285.903	331.011
288.796	459.447
291.689	549.099
294.581	677.662
297.474	869.505
300.367	1032.09
303.26	1150.77
306.152	1254.66
309.045	1104.28
311.938	800.5
314.83	520.557
317.723	256.204
320.616	199.236
323.508	211.311
326.401	243.585
329.294	417.872
332.187	524.371
335.079	649.84
337.972	794.471
340.865	826.051
343.757	609.561
346.65	352.652
349.543	234.773
352.435	85.6519
355.328	116.799
358.221	145.558
361.113	207.62
364.006	314.515
366.899	484.764
369.792	686.545
372.684	847.78
375.577	856.53
378.47	657.323
381.362	414.843
384.255	203.057
387.148	102.731
390.041	38.6309
392.933	13.7896
395.826	1.84668
398.719	12.8225
401.611	12.6946
404.504	12.3601
407.397	24.0127
410.289	10.6055
413.182	4.3479
416.075	31.2752
418.967	65.5354
421.86	32.4719
424.753	47.023
427.646	66.1499
430.538	96.6106
433.431	144.501
436.324	149.022
439.216	131.382
442.109	135.877
445.002	98.4683
447.894	52.8074
450.787	45.6775
453.68	46.9368
456.573	34.6355
459.465	33.1216
462.358	51.1567
465.251	33.0273
468.143	74.3535
471.036	24.595
473.929	35.5842
476.822	34.7087
479.714	35.1543
482.607	81.9206
485.5	85.9348
488.392	203.98
491.285	284.593
494.178	351.994
497.07	268.733
499.963	208.684
502.856	103.758
505.748	55.0752
508.641	24.3189
511.534	9.15503
514.427	33.0891
517.319	43.5518
520.212	7.38843
523.105	27.8782
525.997	13.2234
528.89	56.3252
531.783	58.2329
534.676	70.9036
537.568	125.322
540.461	257.237
543.354	336.066
546.246	455.6
549.139	665.057
552.032	777.776
554.924	623.134
557.817	346.816
560.71	153.137
563.602	88.6255
566.495	44.9331
569.388	15.7986
572.281	1.76196
575.173	5.54688
578.066	5.64551
580.959	19.8484
583.851	5.28442
586.744	6.85669
589.637	43.0469
592.529	6.10254
595.422	41.9202
598.315	23.5825
601.208	62.1797
604.1	60.5989
606.993	48.0706
609.886	59.3723
612.778	65.8181
615.671	111.675
618.564	145.741
621.457	198.253
624.349	206.555
627.242	276.087
630.135	324.687
633.027	431.381
635.92	560.44
638.813	731.314
641.705	1046.03
644.598	1527.22
647.491	2321.1
650.384	3453.35
653.276	4717.59
656.169	6072.22
659.062	6455.99
661.954	5194.78
664.847	3235.36
667.74	1832.45
670.632	1028.57
673.525	688.56
676.418	409.695
679.311	290.51
682.203	198.614
685.096	107.35
687.989	54.2942
690.881	70.5266
693.774	63.4722
696.667	13.1572
699.559	34.8955
702.452	20.1206
705.345	13.1331
708.237	0.627686
711.13	8.65161
714.023	23.2058
716.916	19.9439
719.808	9.03223
722.701	50.2012
725.594	29.2903
728.486	34.6582
731.379	12.9622
734.272	10.6648
737.164	9.40479
740.057	39.0793
742.95	22.3906
745.843	43.4187
748.735	39.0322
751.628	21.8843
754.521	67.5596
757.413	4.68066
760.306	39.7495
763.199	54.1675
766.091	29.9268
768.984	34.3223
771.877	8.69434
774.77	24.8374
777.662	73.5063
780.555	72.1587
783.448	50.5952
786.34	55.1065
789.233	25.0737
792.126	32.4065
795.019	60.2881
797.911	8.14136
800.804	65.8477
803.697	45.175
806.589	25.3794
809.482	18.602
812.375	20.2302
815.267	11.2341
818.16	35.0928
821.053	4.86548
823.946	12.3726
826.838	37.0537
829.731	8.45093
832.624	13.9202
835.516	47.7844
838.409	10.4026
841.302	57.8528
844.194	71.5708
847.087	96.9829
849.98	117.398
852.872	59.9031
855.765	56.6987
858.658	43.8164
861.551	50.3657
864.443	44.6765
867.336	30.5447
870.229	11.9087
873.121	51.178
876.014	18.7451
878.907	59.8486
881.799	45.0676
884.692	64.6809
887.585	48.7942
890.478	33.6057
893.37	86.0325
896.263	84.6616
899.156	89.8635
902.048	124.791
904.941	127.113
907.834	155.505
910.726	87.3602
913.619	115.707
916.512	68.1487
919.405	64.1312
922.297	22.9973
925.19	22.1432
928.083	2.49402
930.975	11.854
933.868	3.09241
936.761	20.7317
939.654	6.44775
942.546	32.5278
945.439	0.657349
948.332	14.91
951.224	39.2489
954.117	61.9275
957.01	58.2987
959.902	49.2279
962.795	81.0327
965.688	101.54
968.581	76.6694
971.473	99.2247
974.366	123.762
977.259	111.728
980.151	164.097
983.044	199.593
985.937	306.422
988.829	404.438
991.722	575.63
994.615	809.346
997.508	1256.16
1000.4	2042.91
1003.29	3628.68
1006.19	5899.94
1009.08	8805.93
1011.97	9968.86
1014.86	7123.3
1017.76	3742.72
1020.65	2029.95
1023.54	1393.83
1026.43	1123.17
1029.33	1104.83
1032.22	898.81
1035.11	724.547
1038.01	482.626
1040.9	347.813
1043.79	208.843
1046.68	140.15
1049.58	89.8226
1052.47	66.8164
1055.36	31.672
1058.25	14.8099
1061.15	19.713
1064.04	21.274
1066.93	9.10095
1069.83	18.8738
1072.72	0.470581
1075.61	9.3169
1078.5	22.2378
1081.4	5.12573
1084.29	3.69251
1087.18	5.83679
1090.07	18.1822
1092.97	19.5188
1095.86	44.1973
1098.75	16.6544
1101.64	13.6282
1104.54	54.9767
1107.43	44.5624
1110.32	48.7086
1113.21	9.94324
1116.11	8.42371
1119	15.4982
1121.89	16.4319
1124.79	24.9332
1127.68	15.8751
1130.57	42.9021
1133.46	27.1981
1136.36	39.1931
1139.25	49.7706
1142.14	50.6427
1145.04	47.0742
1147.93	58.9432
1150.82	23.0338
1153.71	10.3987
1156.61	10.0118
1159.5	26.8606
1162.39	32.4335
1165.28	41.3029
1168.18	49.8763
1171.07	64.2039
1173.96	24.0299
1176.86	45.6801
1179.75	51.0332
1182.64	57.8329
1185.53	14.4769
1188.43	29.3957
1191.32	23.2227
1194.21	22.7443
1197.1	17.7929
1200	1.72327
1202.89	13.9592
1205.78	36.4077
1208.67	41.5129
1211.57	36.0293
1214.46	27.4708
1217.35	24.1504
1220.24	73.1218
1223.14	53.0012
1226.03	11.6759
1228.92	26.7944
1231.82	15.5435
1234.71	43.7795
1237.6	43.1687
1240.49	0.408325
