Measurement: Raman, 532 nm, unoriented, Raman Data Processed
Mineral: Hedenbergite
Rruff sample: R050030
Ideal chemistry: CaFe^2+^Si_2_O_6_
Locality: Heroult, Ontario, Canada
Source: University of Arizona Mineral Museum
Description: Green fragments
Measured chemistry: (Ca_.993_Na_.007_)(Fe_.860_Mn_.111_Mg_.029_)(Si_.993_Al_.007_)_2_O_6_
Raman shift (cm-1)	intensity
134.716	0
138.091	47.621
141.466	191.083
144.841	398.602
148.215	195.534
151.59	206.509
154.965	324.737
158.34	291.285
161.715	414.678
165.09	721.058
168.464	932.288
171.839	1437.8
175.214	2368.57
178.589	2918
181.964	2292.5
185.339	2696.12
188.713	3546.23
192.088	2727.92
195.463	975.659
198.838	363.306
202.213	152.029
205.587	57.2762
208.962	12.1095
212.337	2.45544
215.712	44.7723
219.087	146.455
222.462	249.98
225.836	462.74
229.211	796.05
232.586	921.58
235.961	472.267
239.336	150.2
242.71	7.07434
246.085	51.7161
249.46	85.6133
252.835	42.418
256.21	72.8657
259.584	7.25354
262.959	52.7801
266.334	157.668
269.709	244.912
273.084	373.085
276.459	489.401
279.833	706.345
283.208	1005.27
286.583	1391.58
289.958	1951.34
293.333	2785.09
296.707	3562.9
300.082	4341.85
303.457	4841.98
306.832	4057.47
310.207	2586.43
313.582	1609.04
316.956	1057.75
320.331	1031.43
323.706	1334.77
327.081	1854.09
330.456	2466.34
333.83	3076.85
337.205	3509.53
340.58	2801.18
343.955	1706.77
347.33	1151.85
350.705	1120.89
354.079	1512.85
357.454	2354.5
360.829	3816.43
364.204	5929.29
367.579	8479.44
370.954	10645.8
374.328	10439.9
377.703	6693.99
381.078	3473.62
384.453	1868.34
387.828	974.458
391.202	526.745
394.577	322.459
397.952	147.943
401.327	34.0792
404.702	11.8232
408.077	36.0196
411.451	53.7398
414.826	67.2921
418.201	49.4532
421.576	20.1289
424.951	23.2862
428.325	89.5566
431.7	140.24
435.075	238.784
438.45	192.867
441.825	52.9658
445.2	41.0052
448.574	43.314
451.949	44.2315
455.324	54.4447
458.699	44.2079
462.074	49.3742
465.448	57.243
468.823	116.075
472.198	125.201
475.573	122.256
478.948	255.692
482.322	486.675
485.697	748.362
489.072	1056.08
492.447	1206.53
495.822	987.501
499.197	567.237
502.571	395.041
505.946	356.12
509.321	453.758
512.696	623.556
516.071	878.474
519.446	1033.79
522.82	888.853
526.195	486.768
529.57	296.392
532.945	177.278
536.32	258.496
539.694	439.273
543.069	758.065
546.444	1079.39
549.819	1372.5
553.194	1147.33
556.568	551.567
559.943	245.815
563.318	93.9755
566.693	27.2277
570.068	9.08935
573.443	11.8367
576.817	2.89783
580.192	18.1467
583.567	13.1433
586.942	30.9625
590.317	12.5245
593.692	4.31836
597.066	5.22559
600.441	33.5232
603.816	80.3704
607.191	111.177
610.566	127.927
613.94	160.28
617.315	221.652
620.69	236.886
624.065	406.028
627.44	513.489
630.814	728.969
634.189	1007.01
637.564	1507.99
640.939	2430.14
644.314	4299.69
647.689	7307.86
651.063	10963
654.438	14836
657.813	16225.6
661.188	11909.7
664.563	6622.9
667.938	3578.59
671.312	2117.23
674.687	1358.51
678.062	914.391
681.437	618.586
684.812	512.658
688.186	409.086
691.561	364.612
694.936	381.365
698.311	422.514
701.686	347.787
705.061	224.546
708.435	103.071
711.81	46.171
715.185	48.0688
718.56	3.29517
721.935	17.7946
725.309	9.74451
728.684	9.06189
732.059	1.97131
735.434	9.25598
738.809	19.4329
742.183	21.8662
745.558	66.1398
748.933	123.767
752.308	107.254
755.683	143.064
759.058	135.423
762.432	127.414
765.807	117.078
769.182	61.7532
772.557	98.3119
775.932	44.3434
779.307	53.573
782.681	33.4477
786.056	23.0158
789.431	3.3905
792.806	6.39624
796.181	28.9123
799.555	15.7646
802.93	4.46887
806.305	19.6977
809.68	13.7379
813.055	16.7699
816.429	4.81323
819.804	0.346191
823.179	21.673
826.554	12.1705
829.929	31.4395
833.304	75.0614
836.678	148.738
840.053	328.972
843.428	561.217
846.803	863.798
850.178	958.796
853.553	658.197
856.927	350.399
860.302	178.072
863.677	106.27
867.052	139.728
870.427	123.896
873.801	84.6974
877.176	161.433
880.551	148.161
883.926	137.794
887.301	205.424
890.676	253.463
894.05	293.039
897.425	355.507
900.8	375.89
904.175	367.412
907.55	333.253
910.924	265.005
914.299	187.926
917.674	137.913
921.049	60.7606
924.424	46.1642
927.798	1.31103
931.173	18.3126
934.548	26.2161
937.923	25.1273
941.298	8.81299
944.673	6.43457
948.047	13.0654
951.422	46.0022
954.797	61.6794
958.172	96.4575
961.547	140.478
964.922	127.627
968.296	187.865
971.671	188.811
975.046	314.269
978.421	416.918
981.796	585.373
985.17	784.259
988.545	1210.76
991.92	1817.43
995.295	2974.14
998.67	5525.21
1002.04	11442.4
1005.42	21911
1008.79	33062.1
1012.17	36198.4
1015.54	21424.4
1018.92	10157.1
1022.29	6134.39
1025.67	4677.94
1029.04	3748.97
1032.42	2647.98
1035.79	1712.36
1039.17	1118.38
1042.54	756.908
1045.92	539.233
1049.29	387.853
1052.67	260.043
1056.04	167.74
1059.42	130.267
1062.79	86.5208
1066.17	21.0945
1069.54	41.1367
1072.92	28.6274
1076.29	43.499
1079.66	17.157
1083.04	7.80908
1086.41	9.66113
1089.79	23.0941
1093.16	5.23144
1096.54	24.9294
1099.91	11.2335
1103.29	14.7033
1106.66	38.1516
1110.04	60.1539
1113.41	51.6512
1116.79	7.24731
1120.16	17.3784
1123.54	30.7546
1126.91	7.25891
1130.29	39.277
1133.66	21.5515
1137.04	0.802979
1140.41	8.42273
1143.79	23.8239
1147.16	18.4292
1150.54	8.00769
1153.91	17.8562
1157.29	35.5388
1160.66	38.4094
1164.04	62.5499
1167.41	46.2047
1170.79	31.593
1174.16	36.6883
1177.54	59.3624
1180.91	61.5116
1184.29	56.0684
1187.66	75.2643
1191.03	34.7731
1194.41	66.471
1197.78	60.8404
1201.16	37.8044
1204.53	88.663
1207.91	54.0185
1211.28	61.0992
1214.66	37.423
1218.03	69.7926
1221.41	48.9379
1224.78	40.5652
1228.16	21.9722
1231.53	71.2275
1234.91	42.8033
1238.28	40.1521
1241.66	26.2291
1245.03	47.7679
1248.41	16.2371
1251.78	56.6345
1255.16	73.7144
1258.53	20.3208
1261.91	30.9315
1265.28	42.1256
1268.65	31.8234
1272.03	62.7256
1275.4	33.8957
1278.78	25.7273
1282.15	47.207
1285.53	11.7495
1288.9	22.3094
1292.28	3.38013
1295.65	4.97607
1299.03	43.4341
1302.4	8.86853
