Measurement: Raman, 785 nm, unoriented, Raman Data Processed
Mineral: Hedyphane
Rruff sample: R070425
Ideal chemistry: Ca_2_Pb^2+^_3_(As^5+^O_4_)_3_Cl
Locality: Langban, Filipstad, Varmland, Sweden
Source: Michael Scott
Description: Aggregates of prismatic colorless crystals
Measured chemistry: Pb_3_(Ca_1.55_Ba_0.20_Pb_0.10_)_1.85_[(AsO_4_)_2.55_(PO_4_)_0.15_(SiO_4_)_0.17_]_2.87_[(OH)_0.55_Cl_0.37_]_0.92_. The darker phase is lizardite.
Raman shift (cm-1)	intensity
156.706	0
159.599	1.94971
162.491	75.5107
165.384	259.708
168.277	375.477
171.169	318.815
174.062	297.798
176.955	154.066
179.847	112.371
182.74	111.686
185.633	74.9224
188.525	7.93652
191.418	81.6484
194.311	15.5796
197.204	83.6113
200.096	51.79
202.989	107.723
205.882	88.5117
208.774	7.53516
211.667	84.6206
214.56	59.7026
217.452	115.97
220.345	181.156
223.238	319.599
226.131	406.667
229.023	379.424
231.916	445.224
234.809	451.913
237.701	425.918
240.594	513.254
243.487	542.655
246.38	495.689
249.272	626.095
252.165	561.575
255.058	625.496
257.95	678.505
260.843	664.023
263.736	623.053
266.628	513.566
269.521	438.378
272.414	356.834
275.307	208.241
278.199	141.356
281.092	101.746
283.985	65.0176
286.877	39.0312
289.77	60.5156
292.663	47.0918
295.555	95.8779
298.448	13.1143
301.341	189.648
304.233	381.708
307.126	723.409
310.019	1100.47
312.912	1514.83
315.804	2062.16
318.697	2420.4
321.59	2597.24
324.482	2519.52
327.375	2420.34
330.268	2262.41
333.161	2085.9
336.053	2107.68
338.946	2131.04
341.839	2227.85
344.731	2414.59
347.624	2366.71
350.517	2477.39
353.409	2395.36
356.302	2289.97
359.195	2037.11
362.087	1837.4
364.98	1596.93
367.873	1461.91
370.766	1430.92
373.658	1422.09
376.551	1384.29
379.444	1281.7
382.336	1129.57
385.229	955.392
388.122	887.604
391.014	831.586
393.907	735.014
396.8	589.808
399.693	450.544
402.585	306.101
405.478	174.111
408.371	39.3916
411.263	42.5147
414.156	1.05615
417.049	18.3677
419.942	17.8481
422.834	75.1382
425.727	206.845
428.62	368.138
431.512	378.04
434.405	446.909
437.298	448.601
440.19	557.107
443.083	627.268
445.976	740.141
448.868	752.963
451.761	792.233
454.654	783.694
457.547	798.975
460.439	680.394
463.332	511.581
466.225	433.018
469.117	225.28
472.01	84.731
474.903	45.6831
477.796	57.3389
480.688	84.8721
483.581	50.9028
486.474	18.5464
489.366	49.311
492.259	47.3442
495.152	67.0669
498.044	116.268
500.937	190.376
503.83	215.263
506.723	296.89
509.615	317.466
512.508	336.979
515.401	403.133
518.293	433.487
521.186	553.489
524.079	520.75
526.971	645.687
529.864	656.727
532.757	699.02
535.649	763.293
538.542	762.221
541.435	732.19
544.328	721.594
547.22	688.358
550.113	714.731
553.006	703.624
555.898	713.817
558.791	696.438
561.684	705.501
564.577	684.47
567.469	666.394
570.362	652.11
573.255	713.352
576.147	711.287
579.04	680.537
581.933	690.654
584.825	649.466
587.718	613.73
590.611	586.012
593.504	520.946
596.396	554.98
599.289	538.648
602.182	489.57
605.074	469.655
607.967	445.745
610.86	411.709
613.752	394.022
616.645	386.597
619.538	314.957
622.431	290.772
625.323	280.156
628.216	208.62
631.109	187.655
634.001	159.821
636.894	126.274
639.787	100.473
642.679	90.2183
645.572	87.6694
648.465	41.8687
651.357	27.2632
654.25	3.65234
657.143	4.24219
660.036	19.7305
662.928	49.7163
665.821	4.93018
668.714	4.04712
671.606	39.4761
674.499	121.633
677.392	100.793
680.284	109.904
683.177	177.454
686.07	110.823
688.963	96.1929
691.855	133.789
694.748	82.781
697.641	57.8062
700.533	73.0684
703.426	33.0962
706.319	32.8415
709.212	52.4805
712.104	12.1699
714.997	1.93506
717.89	2.22095
720.782	15.4463
723.675	37.7112
726.568	47.5632
729.46	50.4636
732.353	72.8023
735.246	84.7519
738.139	79.5864
741.031	0.941162
743.924	4.04736
746.817	52.9868
749.709	225.293
752.602	460.57
755.495	709.115
758.387	1179.12
761.28	1686.68
764.173	2171.67
767.066	2594.58
769.958	2813.14
772.851	2893.19
775.744	2813.97
778.636	2622.48
781.529	2538.72
784.422	2504.18
787.314	2499.97
790.207	2376.03
793.1	2260.03
795.992	2200.32
798.885	2312.68
801.778	2667.66
804.671	3415.87
807.563	4655.48
810.456	6534.04
813.349	9000.19
816.241	11300.2
819.134	12881.9
822.027	12902.3
824.919	11491.8
827.812	9106.98
830.705	6798.78
833.598	5131.15
836.49	3843.86
839.383	2988.64
842.276	2465.82
845.168	2090.08
848.061	1843.32
850.954	1594.52
853.846	1419.06
856.739	1177.44
859.632	999.885
862.525	863.66
865.417	601.032
868.31	611.261
871.203	440.544
874.095	321.494
876.988	227.651
879.881	204.46
882.774	185.624
885.666	110.883
888.559	134.535
891.452	112.615
894.344	2.13062
897.237	36.1565
900.13	32.9119
903.022	98.9597
905.915	104.002
908.808	53.8054
911.701	56.9204
914.593	14.6426
917.486	78.6355
920.379	86.856
923.271	191.715
926.164	205.03
929.057	155.809
931.949	146.786
934.842	111.236
937.735	171.284
940.628	110.74
943.52	133.478
946.413	91.3621
949.306	134.403
952.198	131.726
955.091	156.434
957.984	203.064
960.876	183.887
963.769	133.069
966.662	135.072
969.554	137.994
972.447	86.2358
975.34	120.715
978.233	121.221
981.125	221.485
984.018	242.968
986.911	444.779
989.803	276.416
992.696	100.506
995.589	106.624
998.481	131.185
1001.37	114.558
1004.27	102.215
1007.16	122.342
1010.05	56.8987
1012.95	30.793
1015.84	36.2122
1018.73	72.6536
1021.62	29.6326
1024.52	117.146
1027.41	110.624
1030.3	74.5144
1033.19	123.023
1036.09	120.686
1038.98	172.721
1041.87	165.078
1044.77	184.728
1047.66	204.563
1050.55	195.167
1053.44	168.978
1056.34	114.994
1059.23	147.683
1062.12	115.087
1065.01	117.541
1067.91	129.056
1070.8	126.79
1073.69	108.399
1076.58	25.6895
1079.48	39.8794
1082.37	30.2354
1085.26	61.9609
1088.15	38.7412
1091.05	12.6191
1093.94	6.1792
1096.83	2.46533
1099.73	83.5981
1102.62	125.926
1105.51	61.6592
1108.4	137.355
1111.3	132.886
1114.19	79.2407
1117.08	174.856
1119.97	110.737
1122.87	119.087
1125.76	73.9814
1128.65	115.669
1131.55	62.2685
1134.44	100.599
1137.33	13.3623
