Measurement: Raman, 532 nm, unoriented, Raman Data Processed
Mineral: Hedyphane
Rruff sample: R070425
Ideal chemistry: Ca_2_Pb^2+^_3_(As^5+^O_4_)_3_Cl
Locality: Langban, Filipstad, Varmland, Sweden
Source: Michael Scott
Description: Aggregates of prismatic colorless crystals
Measured chemistry: Pb_3_(Ca_1.55_Ba_0.20_Pb_0.10_)_1.85_[(AsO_4_)_2.55_(PO_4_)_0.15_(SiO_4_)_0.17_]_2.87_[(OH)_0.55_Cl_0.37_]_0.92_. The darker phase is lizardite.
Raman shift (cm-1)	intensity
143.655	0
146.548	9.99609
149.441	72.1279
152.333	201.376
155.226	354.224
158.119	615.842
161.012	772.975
163.904	798.926
166.797	809.434
169.69	809.993
172.582	877.222
175.475	851.582
178.368	821.698
181.26	742.247
184.153	690.54
187.046	640.497
189.939	619.315
192.831	617.805
195.724	526.36
198.617	579.738
201.509	494.705
204.402	505.779
207.295	428.297
210.187	328.13
213.08	263.814
215.973	251.261
218.865	233.767
221.758	200.97
224.651	215.345
227.544	138.94
230.436	222.738
233.329	264.979
236.222	236.673
239.114	224.868
242.007	273.574
244.9	231.386
247.792	276.358
250.685	257.263
253.578	298.879
256.471	223.525
259.363	146.779
262.256	198.645
265.149	133.227
268.041	67.9692
270.934	50.0395
273.827	59.8296
276.719	18.4546
279.612	9.16162
282.505	61.1528
285.398	7.08691
288.29	47.0449
291.183	2.42822
294.076	40.96
296.969	94.4336
299.861	223.638
302.754	375.082
305.647	638.648
308.539	929.369
311.432	1263.94
314.325	1606.64
317.217	1921.02
320.11	2006.7
323.003	1955.7
325.896	1749.18
328.788	1552.87
331.681	1464.89
334.574	1379
337.466	1483.33
340.359	1513.94
343.252	1649.51
346.144	1629.39
349.037	1576.93
351.93	1532.31
354.822	1320.56
357.715	1120.64
360.608	927.797
363.501	781.65
366.393	648.557
369.286	592.385
372.179	578.928
375.071	532.869
377.964	424.047
380.857	489.135
383.75	460.978
386.642	482.235
389.535	504.273
392.428	516.99
395.32	543.27
398.213	358.211
401.106	280.408
403.998	165.31
406.891	90.1738
409.784	7.37939
412.676	62.2217
415.569	8.80566
418.462	34.6787
421.355	158.562
424.247	221.417
427.14	329.721
430.033	409.987
432.925	464.672
435.818	573.543
438.711	623.37
441.603	825.782
444.496	982.919
447.389	1019.49
450.282	1230.45
453.174	1174.43
456.067	1068.19
458.96	932.058
461.852	783.273
464.745	550.28
467.638	403.174
470.531	235.481
473.423	164.758
476.316	56.1309
479.209	37.6973
482.101	6.21094
484.994	0.695313
487.887	10.085
490.779	15.4507
493.672	15.4951
496.565	12.6079
499.458	1.01172
502.35	64.688
505.243	9.3042
508.136	9.22363
511.028	14.7617
513.921	27.375
516.814	36.8857
519.707	14.5762
522.599	45.2441
525.492	60.5942
528.385	65.9853
531.277	133.212
534.17	65.3696
537.063	110.263
539.955	135.427
542.848	159.718
545.741	188.476
548.634	119.32
551.526	150.032
554.419	93.0659
557.312	115.807
560.204	152.057
563.097	157.85
565.99	132.326
568.882	203.288
571.775	157.593
574.668	192.714
577.561	148.006
580.453	229.601
583.346	161.649
586.239	188.749
589.131	164.464
592.024	188.47
594.917	218.533
597.809	219.401
600.702	190.46
603.595	214.856
606.487	275.324
609.38	263.978
612.273	225.78
615.166	321.162
618.058	260.951
620.951	198.268
623.844	267.633
626.736	223.574
629.629	203.618
632.522	204.102
635.415	204.578
638.307	123.416
641.2	136.848
644.093	82.1924
646.985	125.103
649.878	74.4121
652.771	87.2773
655.663	125.196
658.556	107.606
661.449	127.801
664.342	127.749
667.234	77.0684
670.127	182.731
673.02	160.828
675.912	176.972
678.805	198.343
681.698	169.695
684.591	143.222
687.483	126.816
690.376	109.716
693.269	154.356
696.161	95.5635
699.054	106.616
701.947	83.1152
704.839	38.7227
707.732	53.6475
710.625	38.2022
713.518	10.706
716.41	20.876
719.303	7.16016
722.196	39.6182
725.088	105.174
727.981	11.831
730.874	110.738
733.766	104.799
736.659	19.6494
739.552	4.87891
742.444	59.0303
745.337	62.7256
748.23	180.525
751.123	339.917
754.015	699.982
756.908	1084.68
759.801	1459.16
762.693	2032.14
765.586	2376.72
768.479	2685.45
771.371	2781.36
774.264	2785.28
777.157	2742.56
780.05	2680.78
782.942	2780.06
785.835	2757.54
788.728	2694.17
791.62	2596.39
794.513	2568.03
797.406	2736.72
800.298	3370.82
803.191	4605.88
806.084	6716.17
808.977	9811.49
811.869	13560.1
814.762	17188.8
817.655	19838.6
820.547	20137.7
823.44	18109.2
826.333	14353.6
829.226	10691.9
832.118	7854.02
835.011	5818.23
837.904	4272.68
840.796	3324.95
843.689	2738.12
846.582	2274.28
849.474	1816.6
852.367	1439.52
855.26	1244.89
858.153	949.441
861.045	804.073
863.938	646.939
866.831	396.534
869.723	406.92
872.616	179.201
875.509	101.665
878.401	153.064
881.294	162.69
884.187	8.54395
887.08	17.5029
889.972	39.044
892.865	6.30273
895.758	27.3672
898.65	44.667
901.543	94.2891
904.436	17.2793
907.328	32.4023
910.221	125.149
913.114	57.3818
916.007	85.4121
918.899	109.949
921.792	135.587
924.685	145.589
927.577	90.3174
930.47	116.702
933.363	132.628
936.255	47.6123
939.148	106.794
942.041	107.542
944.934	162.227
947.826	57.7422
950.719	210.493
953.612	246.678
956.504	188.067
959.397	170.601
962.29	184.589
965.183	211.769
968.075	120.849
970.968	63.9228
973.861	98.4238
976.753	152.204
979.646	116.65
982.539	148.206
985.431	171.792
988.324	197.373
991.217	153.004
994.11	114.415
997.002	153.848
999.895	69.291
1002.79	57.7051
1005.68	7.56934
1008.57	23.2627
1011.47	77.0566
1014.36	77.0654
1017.25	34.1484
1020.14	99.3545
1023.04	46.0029
1025.93	89.2676
1028.82	88.2168
1031.71	56.5879
1034.61	117.269
1037.5	40.999
1040.39	136.121
1043.29	4.94629
1046.18	112.552
1049.07	46.3838
1051.96	61.7002
1054.86	48.3057
1057.75	98.7061
1060.64	90.2656
1063.53	94.6856
1066.43	86.2617
1069.32	106.731
1072.21	104.585
1075.11	22.2598
1078	120.124
1080.89	156.562
1083.78	214.843
1086.68	242.537
1089.57	101.28
1092.46	1.34766
1095.35	66.958
1098.25	58.3242
1101.14	26.2988
1104.03	21.4336
1106.92	5.22754
1109.82	62.4541
1112.71	42.7344
1115.6	7.86231
1118.5	55.7285
1121.39	81.4697
1124.28	11.7402
1127.17	43.7227
1130.07	148.559
1132.96	98.2949
1135.85	44.9023
1138.74	60.7285
1141.64	87.3818
1144.53	140.538
1147.42	92.0859
1150.32	53.8662
1153.21	48.7549
1156.1	111.029
1158.99	110.375
1161.89	98.7666
1164.78	73.3574
1167.67	169.765
1170.56	77.1318
1173.46	96.5898
1176.35	171.833
1179.24	146.808
1182.13	121.647
1185.03	51.9307
1187.92	113.533
1190.81	129.252
1193.71	165.47
1196.6	174.179
1199.49	23.3418
1202.38	33.8897
1205.28	71.9629
1208.17	122.121
1211.06	69.4678
1213.95	42.2207
1216.85	13.6338
1219.74	0
