Measurement: Raman, 780 nm, unoriented, Raman Data Processed
Mineral: Heidornite
Rruff sample: R141086
Ideal chemistry: Na_2_Ca_3_B_5_O_8_(SO_4_)_2_(OH)_2_Cl
Locality: Bahrenborstel, Hannover, Germany
Source: Rock Currier
Description: Colorless massive in anhydrite
Raman shift (cm-1)	intensity
127.237	0
130.129	34.6586
133.022	43.9614
135.915	55.0781
138.807	13.0751
141.7	10.4568
144.593	27.772
147.485	8.10107
150.378	1.72354
153.271	1.48288
156.163	2.09451
159.056	9.58633
161.949	31.5235
164.842	56.6204
167.734	76.9542
170.627	114.479
173.52	158.326
176.412	247.559
179.305	266.091
182.198	128.983
185.09	36.2857
187.983	3.95431
190.876	1.63513
193.769	5.65759
196.661	16.5282
199.554	24.7536
202.447	16.2487
205.339	1.07855
208.232	3.30933
211.125	3.45245
214.018	0.584412
216.91	5.02161
219.803	14.3297
222.696	22.3198
225.588	22.5247
228.481	17.4634
231.374	16.527
234.266	23.9213
237.159	34.2059
240.052	28.769
242.945	23.8615
245.837	22.9215
248.73	29.6904
251.623	42.3568
254.515	55.3453
257.408	70.5635
260.301	70.6918
263.193	55.8312
266.086	43.8446
268.979	42.3548
271.872	40.3359
274.764	50.8582
277.657	72.0008
280.55	105.418
283.442	115.019
286.335	78.1556
289.228	35.3997
292.12	18.2794
295.013	7.16321
297.906	3.09583
300.798	0.613556
303.691	1.82861
306.584	0.383606
309.476	1.51392
312.369	3.13629
315.262	6.49942
318.155	10.5574
321.047	17.495
323.94	28.4915
326.833	44.1391
329.725	69.8966
332.618	103.745
335.511	162.55
338.404	212.609
341.296	223.037
344.189	232.434
347.082	273.527
349.974	338.586
352.867	394.199
355.76	366.425
358.652	254.176
361.545	161.294
364.438	111.767
367.33	97.5915
370.223	106.962
373.116	107.311
376.009	78.3672
378.901	43.277
381.794	23.3936
384.687	13.7172
387.579	10.7542
390.472	8.12881
393.365	4.49393
396.257	6.12164
399.15	2.16303
402.043	0.804169
404.935	2.68298
407.828	1.88126
410.721	3.07275
413.614	5.32568
416.506	2.95844
419.399	3.11926
422.292	4.89835
425.184	5.15945
428.077	14.5746
430.97	20.8237
433.863	32.5186
436.755	51.9314
439.648	76.253
442.541	120.659
445.433	159.49
448.326	172.786
451.219	223.855
454.111	318.82
457.004	444.899
459.897	530.9
462.789	445.447
465.682	310.448
468.575	263.429
471.468	290.886
474.36	384.844
477.253	518.533
480.146	550.473
483.038	404.29
485.931	272.448
488.824	223.282
491.716	218.445
494.609	276.984
497.502	403.499
500.395	587.061
503.287	596.581
506.18	289.505
509.073	109.438
511.965	50.5148
514.858	34.5062
517.751	34.2093
520.644	57.6642
523.536	102.251
526.429	131.009
529.322	88.6457
532.214	22.243
535.107	4.12216
538	10.1971
540.892	9.13586
543.785	3.53815
546.678	7.77493
549.57	25.0765
552.463	58.5291
555.356	96.0171
558.249	146.723
561.141	212.446
564.034	277.902
566.927	314.11
569.819	276.567
572.712	193.234
575.605	118.837
578.497	76.7545
581.39	70.4705
584.283	77.6337
587.176	92.1413
590.068	133.451
592.961	231.287
595.854	399.664
598.746	388.848
601.639	137.454
604.532	40.1924
607.424	14.705
610.317	14.4811
613.21	26.5901
616.102	44.9054
618.995	73.2675
621.888	107.786
624.781	129.401
627.673	114.955
630.566	94.9207
633.459	116.6
636.351	138.098
639.244	160.184
642.137	265.931
645.029	412.156
647.922	482.002
650.815	360.774
653.708	122.922
656.6	42.2667
659.493	18.8592
662.386	6.83057
665.278	1.38867
668.171	3.34302
671.064	3.19028
673.957	3.0838
676.849	2.96387
679.742	0.619232
682.635	2.8985
685.527	2.03949
688.42	7.52402
691.313	18.0006
694.205	28.4312
697.098	39.4588
699.991	35.908
702.884	19.0493
705.776	13.4865
708.669	11.9688
711.562	11.7983
714.454	10.9729
717.347	12.1012
720.24	15.1511
723.132	16.5009
726.025	13.0816
728.918	11.5773
731.81	14.3105
734.703	16.3236
737.596	28.2419
740.489	49.4412
743.381	86.3501
746.274	126.95
749.167	208.817
752.059	386.051
754.952	611.297
757.845	409.815
760.737	148.181
763.63	61.3419
766.523	33.8585
769.415	20.7012
772.308	10.0386
775.201	6.77594
778.094	2.63147
780.986	3.47055
783.879	1.99298
786.772	0.971313
789.664	0.503754
792.557	0.726318
795.45	2.01587
798.342	1.27701
801.235	0.028381
804.128	0.892212
807.021	4.13507
809.913	8.42267
812.806	11.4052
815.699	18.9882
818.591	27.5976
821.484	40.3007
824.377	52.4644
827.269	56.7279
830.162	50.0767
833.055	41.2212
835.948	37.9004
838.84	35.4913
841.733	38.1947
844.626	45.6708
847.518	55.6403
850.411	70.5387
853.304	90.7596
856.197	116.016
859.089	147.153
861.982	185.451
864.875	197.443
867.767	145.537
870.66	86.3089
873.553	52.0401
876.445	31.1377
879.338	18.0863
882.231	11.9731
885.123	12.3393
888.016	7.77432
890.909	4.19813
893.802	1.50589
896.694	1.47047
899.587	0.338364
902.48	1.12347
905.372	0.92392
908.265	0.853622
911.158	0.974518
914.05	2.58334
916.943	7.83617
919.836	15.4496
922.729	21.1147
925.621	30.6715
928.514	39.7876
931.407	44.2884
934.299	38.6912
937.192	26.9058
940.085	13.0421
942.977	6.33107
945.87	3.66678
948.763	5.02983
951.655	3.19423
954.548	1.38121
957.441	0.589447
960.334	2.73894
963.226	2.12378
966.119	3.28827
969.012	5.50687
971.904	11.5037
974.797	23.1832
977.69	37.4706
980.582	64.8354
983.475	119.311
986.368	234.733
989.261	598.03
992.153	999.527
995.046	1687.31
997.939	3505.18
1000.83	7602.87
1003.72	3691.66
1006.62	813.843
1009.51	290.695
1012.4	136.408
1015.29	74.0138
1018.19	47.5106
1021.08	31.1925
1023.97	20.3517
1026.87	14.6777
1029.76	9.98967
1032.65	3.44484
1035.54	0.852127
1038.44	0.896133
1041.33	2.09908
1044.22	0.006958
1047.12	0.344604
1050.01	1.23144
1052.9	9.57245
1055.79	16.1513
1058.68	26.4411
1061.58	27.1257
1064.47	22.7935
1067.36	17.679
1070.26	11.3448
1073.15	4.73142
1076.04	1.19904
1078.93	3.3818
1081.83	4.09032
1084.72	10.4408
1087.61	21.2467
1090.51	34.2666
1093.4	62.9705
1096.29	104.503
1099.18	153.593
1102.08	123.329
1104.97	58.7738
1107.86	31.9996
1110.75	12.2265
1113.65	4.4119
1116.54	2.60202
1119.43	2.97447
1122.33	1.86275
1125.22	1.57361
1128.11	12.0792
1131	18.7221
1133.9	35.0251
1136.79	62.3565
1139.68	106.303
1142.57	171.232
1145.47	280.663
1148.36	339.217
1151.25	215.269
1154.14	96.3645
1157.04	48.5281
1159.93	29.0842
1162.82	19.0008
1165.71	14.3077
1168.61	15.3263
1171.5	16.0088
1174.39	20.2653
1177.29	22.8653
1180.18	24.3344
1183.07	20.2728
1185.96	18.9464
1188.86	16.771
1191.75	13.7059
1194.64	6.72058
1197.54	4.40706
1200.43	2.00589
1203.32	0.754898
1206.21	0.496155
1209.11	0.994476
1212	0.280487
1214.89	4.99474
1217.78	11.6131
1220.68	26.3371
1223.57	50.9693
1226.46	81.035
1229.35	96.8614
1232.25	83.4332
1235.14	49.8876
1238.03	27.7967
1240.92	13.4307
1243.82	5.85576
1246.71	1.26765
1249.6	0.582718
1252.5	0.009781
