Measurement: Raman, 532 nm, unoriented, Raman Data Processed
Mineral: Heidornite
Rruff sample: R141086
Ideal chemistry: Na_2_Ca_3_B_5_O_8_(SO_4_)_2_(OH)_2_Cl
Locality: Bahrenborstel, Hannover, Germany
Source: Rock Currier
Description: Colorless massive in anhydrite
Raman shift (cm-1)	intensity
125.942	0
128.835	29.8655
131.727	44.1185
134.62	51.919
137.513	12.7738
140.405	9.45859
143.298	26.8667
146.191	14.5416
149.084	2.32941
151.976	11.5007
154.869	8.1371
157.762	19.0415
160.654	44.1104
163.547	73.7962
166.44	90.9984
169.333	120.526
172.225	159.596
175.118	238.993
178.011	283.511
180.903	149.954
183.796	51.6725
186.689	13.5403
189.581	1.24293
192.474	5.30488
195.367	17.1853
198.26	23.9484
201.152	15.7291
204.045	0.231934
206.938	6.15034
209.83	6.50375
212.723	1.56062
215.616	6.04714
218.508	15.978
221.401	27.4892
224.294	28.6652
227.186	24.6574
230.079	28.842
232.972	40.8404
235.865	51.9705
238.757	45.4307
241.65	30.5008
244.543	27.3522
247.435	32.259
250.328	42.6639
253.221	61.9563
256.113	81.0385
259.006	84.6133
261.899	74.8812
264.792	66.534
267.684	69.569
270.577	77.0942
273.47	101.791
276.362	152.806
279.255	222.559
282.148	245.842
285.041	159.056
287.933	78.1988
290.826	41.4712
293.719	21.4112
296.611	9.80154
299.504	4.1197
302.397	2.42029
305.289	0.761353
308.182	0.147697
311.075	0.828552
313.967	1.18423
316.86	5.79546
319.753	10.4326
322.646	17.9146
325.538	30.3192
328.431	46.0603
331.324	74.4011
334.216	115.899
337.109	158.59
340.002	174.262
342.894	182.457
345.787	212.326
348.68	273.336
351.573	329.719
354.465	316.486
357.358	227.594
360.251	144.192
363.143	96.5416
366.036	78.1648
368.929	78.1303
371.822	74.8583
374.714	55.735
377.607	32.5791
380.5	18.4545
383.392	10.0923
386.285	6.05904
389.178	4.29312
392.07	0.248131
394.963	0.861069
397.856	1.92299
400.748	2.99538
403.641	3.34051
406.534	2.14468
409.427	2.1893
412.319	2.91158
415.212	0.200546
418.105	2.35798
420.997	7.19998
423.89	11.7842
426.783	18.7052
429.675	30.7178
432.568	44.2546
435.461	66.2007
438.354	100.58
441.246	155.016
444.139	214.025
447.032	265.686
449.924	342.317
452.817	496.252
455.71	691.972
458.603	835.421
461.495	741.416
464.388	577.678
467.281	556.109
470.173	675.263
473.066	924.225
475.959	1236.68
478.851	1312.33
481.744	924.857
484.637	557.57
487.529	377.51
490.422	296.334
493.315	296.371
496.208	368.892
499.1	482.812
501.993	496.372
504.886	255.513
507.778	101.305
510.671	59.7793
513.564	56.4757
516.457	76.2251
519.349	124.622
522.242	202.629
525.135	241.68
528.027	149.459
530.92	48.7291
533.813	3.08229
536.705	12.7035
539.598	14.5613
542.491	7.80139
545.384	3.24535
548.276	27.1803
551.169	58.5727
554.062	107.429
556.954	167.718
559.847	246.665
562.74	327.712
565.632	366.45
568.525	318.948
571.418	219.066
574.311	130.889
577.203	80.0157
580.096	60.7866
582.989	72.2267
585.881	98.7667
588.774	153.953
591.667	253.151
594.559	393.653
597.452	426.264
600.345	146.876
603.237	36.2424
606.13	8.56053
609.023	8.9326
611.916	22.0207
614.808	41.2704
617.701	74.8453
620.594	116.759
623.486	152.725
626.379	152.629
629.272	153.592
632.164	205.811
635.057	239.18
637.95	236.983
640.843	339.661
643.735	499.174
646.628	509.171
649.521	407.049
652.413	150.005
655.306	48.2426
658.199	17.7221
661.091	5.01459
663.984	0.742477
666.877	2.694
669.77	3.24931
672.662	3.21452
675.555	2.69685
678.448	1.57176
681.34	1.62448
684.233	5.13816
687.126	9.54523
690.019	16.0645
692.911	27.8652
695.804	41.2408
698.697	38.0524
701.589	21.7976
704.482	14.9158
707.375	15.3851
710.267	14.515
713.16	16.487
716.053	18.9117
718.946	19.0389
721.838	19.7007
724.731	19.6689
727.624	18.4772
730.516	16.9254
733.409	17.7573
736.302	24.8386
739.194	40.295
742.087	76.057
744.98	126.385
747.872	216.018
750.765	379.345
753.658	582.384
756.551	436.565
759.443	159.263
762.336	65.1512
765.229	33.964
768.121	19.3003
771.014	11.0937
773.907	7.42783
776.799	6.30772
779.692	1.68964
782.585	0.892799
785.478	0.634888
788.37	0.206978
791.263	1.21339
794.156	0.169212
797.048	0.525398
799.941	0.259735
802.834	0.007317
805.726	2.57354
808.619	4.13551
811.512	9.30101
814.405	14.8155
817.297	23.7487
820.19	35.8573
823.083	48.4769
825.975	55.3072
828.868	48.6675
831.761	45.039
834.654	42.1248
837.546	38.1676
840.439	36.6445
843.332	42.9167
846.224	53.651
849.117	65.5398
852.01	87.1701
854.902	111.693
857.795	142.061
860.688	180.728
863.581	194.892
866.473	151.229
869.366	90.9879
872.259	53.0997
875.151	31.6945
878.044	20.2847
880.937	14.2334
883.829	10.1102
886.722	6.06859
889.615	4.50566
892.508	1.28471
895.4	0.099442
898.293	0.750153
901.186	1.50897
904.078	1.32616
906.971	0.589882
909.864	1.04023
912.756	2.95247
915.649	6.49301
918.542	13.4694
921.434	21.809
924.327	34.5238
927.22	45.4238
930.113	48.8131
933.005	41.6495
935.898	28.0541
938.791	15.9842
941.683	8.15419
944.576	4.33301
947.469	2.13605
950.361	2.70154
953.254	4.53936
956.147	3.70886
959.04	2.73315
961.932	0.065361
964.825	0.555176
967.718	4.02054
970.61	12.2039
973.503	24.2143
976.396	36.5776
979.288	61.2876
982.181	113.515
985.074	213.56
987.967	508.134
990.859	1141.37
993.752	1922.19
996.645	4082.46
999.537	8387.96
1002.43	5239.15
1005.32	1124.31
1008.22	389.174
1011.11	184.674
1014	107.874
1016.89	70.3629
1019.79	52.1347
1022.68	42.5181
1025.57	39.7328
1028.46	31.7291
1031.36	20.7953
1034.25	7.5442
1037.14	0.61898
1040.04	2.21217
1042.93	3.31761
1045.82	1.44101
1048.71	6.24755
1051.61	15.6512
1054.5	27.9101
1057.39	45.154
1060.28	54.9529
1063.18	53.5836
1066.07	39.7659
1068.96	24.8668
1071.86	13.1193
1074.75	7.74972
1077.64	10.459
1080.53	8.66428
1083.43	17.6692
1086.32	35.5108
1089.21	69.8648
1092.1	121.483
1095	207.23
1097.89	295.73
1100.78	261.204
1103.67	143.595
1106.57	70.4862
1109.46	32.5215
1112.35	13.7111
1115.24	4.97395
1118.14	1.03795
1121.03	3.41573
1123.92	1.09063
1126.82	4.05348
1129.71	14.3864
1132.6	31.2767
1135.49	58.4296
1138.39	107.642
1141.28	182.844
1144.17	305.387
1147.07	405.45
1149.96	296.736
1152.85	143.494
1155.74	73.7029
1158.64	45.6891
1161.53	37.6792
1164.42	34.6215
1167.31	36.5456
1170.21	43.843
1173.1	50.7612
1175.99	62.9563
1178.88	70.8681
1181.78	73.4905
1184.67	66.2253
1187.56	57.0819
1190.46	45.9693
1193.35	31.4833
1196.24	19.249
1199.13	11.3226
1202.03	5.48043
1204.92	2.28565
1207.81	0.183426
1210.7	1.68961
1213.6	5.76846
1216.49	4.49295
1219.38	2.29778
1222.28	0
