Measurement: Raman, 780 nm, unoriented, Raman Data Processed
Mineral: Heinrichite
Rruff sample: R060254
Ideal chemistry: Ba(U^6+^O_2_)_2_(As^5+^O_4_)_2_10H_2_O
Locality: White King mine, 14 miles northwest of Lakeview, Lake County, Oregon, USA
Source: Michael Scott
Description: Pale yellow scaly aggregates
Raman shift (cm-1)	intensity
116.121	0
119.496	2.42816
122.871	14.8417
126.246	0.657898
129.62	8.66382
132.995	3.65839
136.37	21.1167
139.745	24.9868
143.12	31.1367
146.494	57.4025
149.869	75.9011
153.244	86.7868
156.619	58.8458
159.994	36.1555
163.369	44.2372
166.743	77.6898
170.118	97.9971
173.493	109.891
176.868	152.929
180.243	189.195
183.618	214.334
186.992	199.088
190.367	149.636
193.742	105.409
197.117	72.364
200.492	46.1504
203.866	49.2717
207.241	35.4905
210.616	41.319
213.991	67.0717
217.366	73.5392
220.74	79.8879
224.115	10.9744
227.49	3.67963
230.865	10.1898
234.24	1.3457
237.615	3.62872
240.989	5.72076
244.364	8.85516
247.739	3.71783
251.114	1.66138
254.489	2.55768
257.863	2.47858
261.238	16.4568
264.613	18.3223
267.988	18.7945
271.363	18.3119
274.738	13.7756
278.112	26.3775
281.487	14.0921
284.862	9.31946
288.237	10.2466
291.612	2.97986
294.986	13.071
298.361	15.6572
301.736	16.3957
305.111	36.0439
308.486	37.5849
311.861	54.2972
315.235	60.7445
318.61	64.1176
321.985	53.0784
325.36	33.8292
328.735	15.7929
332.109	7.30695
335.484	3.24982
338.859	1.84485
342.234	11.8699
345.609	8.31067
348.984	4.88013
352.358	5.94757
355.733	0.17865
359.108	3.91522
362.483	6.89435
365.858	1.67432
369.233	3.1615
372.607	1.45294
375.982	13.1359
379.357	6.74628
382.732	11.7275
386.106	16.6485
389.481	19.4973
392.856	11.4586
396.231	9.48492
399.606	9.4339
402.981	10.0307
406.355	10.9499
409.73	15.0706
413.105	7.04718
416.48	5.91589
419.855	6.09021
423.229	6.56195
426.604	12.024
429.979	15.4268
433.354	14.0978
436.729	20.7152
440.104	32.0012
443.478	26.3789
446.853	31.7163
450.228	37.7694
453.603	47.2218
456.978	56.4361
460.353	64.7054
463.727	80.4498
467.102	79.9844
470.477	86.3306
473.852	77.1149
477.227	42.1322
480.601	28.4761
483.976	22.6308
487.351	16.058
490.726	15.1713
494.101	11.2425
497.476	18.4769
500.85	3.40204
504.225	7.66266
507.6	4.49518
510.975	0.008362
514.35	6.51074
517.724	4.48639
521.099	8.20105
524.474	0.823059
527.849	0.585205
531.224	2.36121
534.598	4.94452
537.973	1.98453
541.348	0.422363
544.723	8.60523
548.098	6.49854
551.472	9.76788
554.847	10.2907
558.222	8.47974
561.597	13.1035
564.972	8.58026
568.347	1.07886
571.721	5.32806
575.096	8.92703
578.471	7.37906
581.846	13.4889
585.221	0.964172
588.596	1.40988
591.97	7.5434
595.345	1.92664
598.72	6.07715
602.095	2.31662
605.47	5.7388
608.845	8.29034
612.219	2.17319
615.594	1.53027
618.969	5.91669
622.344	0.929565
625.719	11.6238
629.093	14.8224
632.468	9.36981
635.843	4.60352
639.218	8.46033
642.593	7.15967
645.967	10.5719
649.342	4.20547
652.717	0.087891
656.092	5.63522
659.467	10.1835
662.842	10.1477
666.216	10.2075
669.591	15.8842
672.966	5.29373
676.341	8.77402
679.716	13.0481
683.091	11.1168
686.465	0.705627
689.84	15.9519
693.215	8.17017
696.59	8.6861
699.965	7.00555
703.339	8.15482
706.714	3.56751
710.089	8.35596
713.464	0.933136
716.839	6.11465
720.213	4.92047
723.588	7.39478
726.963	3.15131
730.338	9.16315
733.713	0.869354
737.087	3.13388
740.462	0.631409
743.837	3.78116
747.212	3.90744
750.587	10.3164
753.962	4.13532
757.336	11.0914
760.711	9.39874
764.086	31.6012
767.461	37.6355
770.836	47.9141
774.211	58.9138
777.585	85.2937
780.96	108.515
784.335	158.371
787.71	212.161
791.085	287.113
794.459	387.162
797.834	528.458
801.209	722.28
804.584	966.145
807.959	1216.22
811.333	1429.42
814.708	1586.66
818.083	1575.45
821.458	1168.18
824.833	675.154
828.208	366.527
831.582	200.73
834.957	119.819
838.332	61.9675
841.707	34.9386
845.082	15.8029
848.457	12.8845
851.831	0.791901
855.206	2.39444
858.581	0.187561
861.956	3.42291
865.331	0.763428
868.705	3.45767
872.08	9.02249
875.455	19.664
878.83	24.6046
882.205	42.3217
885.58	66.7607
888.954	83.8622
892.329	113.029
895.704	116.905
899.079	97.1313
902.454	95.5859
905.828	85.1257
909.203	74.2202
912.578	51.0734
915.953	29.9405
919.328	15.6506
922.702	13.6164
926.077	4.74399
929.452	5.11569
932.827	0.513153
936.202	0.947601
939.577	2.2565
942.951	2.62265
946.326	3.92227
949.701	2.27426
953.076	1.40427
956.451	5.76642
959.825	3.84183
963.2	2.26733
966.575	4.5209
969.95	12.0804
973.325	19.5329
976.699	12.5745
980.074	17.4215
983.449	11.9374
986.824	19.2181
990.199	18.5082
993.574	21.6039
996.948	19.5671
1000.32	13.0189
1003.7	11.0383
1007.07	8.9819
1010.45	11.9024
1013.82	8.28055
1017.2	12.1482
1020.57	13.8964
1023.95	4.76675
1027.32	11.6935
1030.7	10.7511
1034.07	9.42892
1037.45	5.02148
1040.82	5.67303
1044.2	6.32474
1047.57	9.07977
1050.94	8.93079
1054.32	9.30667
1057.69	10.6453
1061.07	13.2252
1064.44	5.87949
1067.82	14.4324
1071.19	11.4765
1074.57	3.36154
1077.94	6.00082
1081.32	13.7869
1084.69	5.94534
1088.07	4.87268
1091.44	2.97546
1094.82	0.741669
1098.19	7.31665
1101.57	4.73236
1104.94	9.21649
1108.32	9.99795
1111.69	3.60638
1115.07	2.68704
1118.44	6.72754
1121.82	5.24429
1125.19	5.427
1128.57	1.79205
1131.94	1.47153
1135.32	3.49597
1138.69	8.38119
1142.07	7.75207
1145.44	5.84638
1148.82	5.00574
1152.19	3.3804
1155.57	10.1017
1158.94	3.46735
1162.31	13.6936
1165.69	1.29681
1169.06	6.98138
1172.44	8.28226
1175.81	4.8703
1179.19	7.34622
1182.56	8.86853
1185.94	7.08343
1189.31	0.844635
1192.69	2.53964
1196.06	0.416992
1199.44	6.15286
1202.81	4.42554
1206.19	2.76129
1209.56	6.35089
1212.94	0.312836
1216.31	4.00534
1219.69	10.9657
1223.06	9.3815
1226.44	6.10159
1229.81	4.93753
1233.19	7.45557
1236.56	13.5486
1239.93	1.68109
1243.31	12.0757
1246.68	2.69025
1250.06	7.13895
1253.43	9.08252
1256.81	0.877319
1260.18	6.95276
1263.56	11.9598
1266.93	13.4179
1270.31	2.16098
1273.68	14.4192
1277.06	13.6608
1280.43	4.47406
1283.81	3.04121
