Measurement: Raman, 532 nm, unoriented, Raman Data Processed
Mineral: Heinrichite
Rruff sample: R060254
Ideal chemistry: Ba(U^6+^O_2_)_2_(As^5+^O_4_)_2_10H_2_O
Locality: White King mine, 14 miles northwest of Lakeview, Lake County, Oregon, USA
Source: Michael Scott
Description: Pale yellow scaly aggregates
Raman shift (cm-1)	intensity
169.559	0
172.452	9.41284
175.345	37.919
178.237	71.4227
181.13	117.497
184.023	178.98
186.916	199.7
189.808	164.311
192.701	114.234
195.594	69.2993
198.486	51.4246
201.379	28.5745
204.272	26.8377
207.164	23.6945
210.057	19.4923
212.95	30.0725
215.843	27.6083
218.735	28.6425
221.628	27.863
224.521	9.01672
227.413	5.68628
230.306	0.49585
233.199	9.32239
236.091	3.67578
238.984	1.31543
241.877	0.593994
244.769	7.0813
247.662	7.3031
250.555	0.027954
253.448	13.75
256.34	9.32349
259.233	18.1708
262.126	10.033
265.018	15.2786
267.911	31.7669
270.804	29.168
273.697	27.9603
276.589	39.0262
279.482	26.5561
282.375	26.7203
285.267	27.2766
288.16	24.8015
291.053	13.8301
293.945	18.7086
296.838	24.9576
299.731	15.5142
302.623	44.5717
305.516	39.0374
308.409	52.1566
311.302	59.4873
314.194	82.8032
317.087	110.954
319.98	123.889
322.872	85.1632
325.765	55.8577
328.658	32.7148
331.55	20.7129
334.443	15.827
337.336	8.9198
340.229	20.1903
343.121	11.6683
346.014	3.44653
348.907	3.85815
351.799	6.73669
354.692	2.04736
357.585	0.326172
360.478	4.64758
363.37	7.80933
366.263	1.56689
369.156	6.25684
372.048	2.58508
374.941	16.2094
377.834	9.203
380.726	28.0051
383.619	22.5038
386.512	18.6209
389.404	28.9355
392.297	23.5615
395.19	20.2512
398.083	19.83
400.975	25.9882
403.868	16.4701
406.761	12.3643
409.653	16.1586
412.546	5.16919
415.439	2.15942
418.332	3.69153
421.224	1.19153
424.117	8.06189
427.01	1.34509
429.902	3.44531
432.795	4.79736
435.688	13.6877
438.58	19.9022
441.473	25.5561
444.366	20.2202
447.259	29.4497
450.151	38.1333
453.044	46.1337
455.937	57.1976
458.829	61.6174
461.722	76.9191
464.615	84.7696
467.507	77.6145
470.4	76.5386
473.293	70.8153
476.185	51.9807
479.078	29.4999
481.971	26.2004
484.864	18.5548
487.756	11.7797
490.649	13.0924
493.542	3.22742
496.434	9.10596
499.327	0.831299
502.22	6.19104
505.113	3.72363
508.005	1.31824
510.898	0.154419
513.791	4.79138
516.683	2.52002
519.576	12.8367
522.469	3.89441
525.361	2.2229
528.254	6.53345
531.147	3.86487
534.04	12.0297
536.932	3.47876
539.825	5.8457
542.718	0.624023
545.61	17.2406
548.503	5.51038
551.396	7.16614
554.288	12.3843
557.181	11.9624
560.074	7.57263
562.967	17.1155
565.859	15.0633
568.752	16.3301
571.645	13.3096
574.537	20.401
577.43	7.13086
580.323	8.1748
583.216	25.4382
586.108	17.3727
589.001	13.2255
591.894	24.1342
594.786	20.0498
597.679	22.1875
600.572	10.0947
603.464	11.8035
606.357	18.3307
609.25	29.0817
612.142	36.5986
615.035	22.6
617.928	19.8133
620.821	23.4869
623.713	24.4611
626.606	25.3921
629.499	30.662
632.391	35.6758
635.284	32.5891
638.177	27.0429
641.069	23.358
643.962	22.9443
646.855	21.5695
649.747	25.1185
652.64	24.4273
655.533	25.3859
658.426	22.8748
661.318	31.9984
664.211	22.0159
667.104	23.8724
669.996	20.2007
672.889	24.3597
675.782	20.579
678.674	19.5918
681.567	19.6711
684.46	31.0844
687.353	27.0345
690.245	11.686
693.138	13.3081
696.031	13.6166
698.923	13.496
701.816	8.28015
704.709	1.17956
707.601	10.8118
710.494	4.7887
713.387	8.84216
716.28	3.85083
719.172	0.059326
722.065	8.69482
724.958	5.72559
727.85	4.78479
730.743	1.92578
733.636	5.81348
736.529	1.03381
739.421	6.90527
742.314	4.35266
745.207	2.25488
748.099	2.24768
750.992	4.12805
753.885	11.4493
756.777	17.5245
759.67	17.6223
762.563	24.2252
765.456	34.6721
768.348	63.1688
771.241	70.0613
774.134	92.6691
777.026	133.286
779.919	167.929
782.812	226.084
785.704	287.517
788.597	381.607
791.49	494.181
794.383	630.603
797.275	818.075
800.168	1048.62
803.061	1386.09
805.953	1784.08
808.846	2267.01
811.739	2773.51
814.631	3292.14
817.524	3599.85
820.417	3416.85
823.309	2563.13
826.202	1619.67
829.095	979.207
831.988	598.979
834.88	367.238
837.773	227.71
840.666	148.604
843.558	84.6881
846.451	55.99
849.344	39.7532
852.236	27.0039
855.129	7.30444
858.022	9.44092
860.915	1.51807
863.807	2.13025
866.7	2.93494
869.593	1.33618
872.485	8.40881
875.378	27.2285
878.271	41.864
881.163	60.0554
884.056	72.9213
886.949	110.302
889.842	144.626
892.734	182.753
895.627	200.71
898.52	195.426
901.412	173.989
904.305	155.398
907.198	143.752
910.091	136.704
912.983	100.224
915.876	75.78
918.769	50.4303
921.661	33.3789
924.554	25.5956
927.447	6.95593
930.339	6.56494
933.232	3.56604
936.125	4.86426
939.018	0.719482
941.91	3.99451
944.803	3.46118
947.696	0.218384
950.588	6.38538
953.481	3.64221
956.374	4.88306
959.266	8.05664
962.159	13.7556
965.052	20.2378
967.944	17.1559
970.837	18.6094
973.73	23.7036
976.623	39.9834
979.515	46.345
982.408	50.3923
985.301	54.1671
988.193	60.0739
991.086	65.7882
993.979	50.9152
996.871	36.4968
999.764	35.5503
1002.66	36.3035
1005.55	28.1941
1008.44	21.1953
1011.34	14.3906
1014.23	17.4442
1017.12	15.3029
1020.01	17.6062
1022.91	18.7301
1025.8	15.1832
1028.69	14.991
1031.58	17.5609
1034.48	16.4171
1037.37	19.1323
1040.26	13.5394
1043.15	9.17273
1046.05	7.7124
1048.94	8.06885
1051.83	0.513062
1054.73	11.9235
1057.62	5.95227
1060.51	7.88733
1063.4	8.80762
1066.3	10.8214
1069.19	1.73022
1072.08	2.32764
1074.97	2.17542
1077.87	10.3483
1080.76	5.19275
1083.65	9.50854
1086.55	3.12073
1089.44	2.45032
1092.33	10.0309
1095.22	14.0384
1098.12	2.49414
1101.01	0.150024
1103.9	2.89319
1106.79	4.13599
1109.69	8.62476
1112.58	8.64368
1115.47	5.56628
1118.37	10.8751
1121.26	12.547
1124.15	4.80798
1127.04	6.15552
1129.94	4.97913
1132.83	1.36804
1135.72	3.82129
1138.61	10.4587
1141.51	7.76807
1144.4	0.116211
1147.29	12.3699
1150.18	11.6531
1153.08	13.9701
1155.97	17.7954
1158.86	8.14697
1161.76	0.995483
1164.65	9.85339
1167.54	0.976685
1170.43	8.54309
1173.33	7.38904
1176.22	11.5466
1179.11	0.930664
1182	5.61499
1184.9	0.258179
1187.79	3.18213
1190.68	1.93176
1193.58	3.76721
1196.47	10.3757
1199.36	6.68628
1202.25	3.97729
1205.15	4.89624
1208.04	15.661
1210.93	3.11499
1213.82	7.15784
1216.72	3.48523
1219.61	7.20117
1222.5	6.87354
1225.39	1.31494
1228.29	7.81421
1231.18	0.866333
1234.07	11.9127
1236.97	5.94934
1239.86	6.97058
1242.75	2.67835
1245.64	0.479736
1248.54	14.9352
1251.43	12.6312
1254.32	12.2505
1257.21	11.7181
1260.11	6.7749
1263	2.81751
1265.89	2.77148
1268.79	15.4767
1271.68	13.4208
1274.57	4.00745
1277.46	7.54358
1280.36	5.39685
1283.25	1.65454
1286.14	6.49915
1289.03	1.84741
1291.93	14.3498
1294.82	12.0655
1297.71	7.5929
1300.61	8.84058
