Measurement: Raman, 532 nm, unoriented, Raman Data Processed
Mineral: Heklaite
Rruff sample: R090034
Ideal chemistry: KNaSiF_6_
Locality: Bone Valley district, Bartow, Polk Co., Florida
Source: Thomas P. Moore
Description: Synthetic colorless hexagonal dipyramid
Raman shift (cm-1)	intensity
145.405	0
148.78	1.73821
152.155	2.94124
155.53	3.3793
158.905	0.043686
162.279	0.368389
165.654	0.943901
169.029	0.469521
172.404	1.05507
175.779	0.863895
179.153	1.02741
182.528	0.32106
185.903	0.630753
189.278	0.286087
192.653	0.665077
196.028	0.171055
199.402	0.618603
202.777	0.267197
206.152	0.030922
209.527	0.378689
212.902	0.662334
216.276	0.881172
219.651	0.866722
223.026	1.18091
226.401	1.10143
229.776	2.31738
233.15	0.944691
236.525	1.2224
239.9	1.84785
243.275	1.6841
246.65	2.48899
250.025	2.76148
253.399	3.90584
256.774	4.49886
260.149	6.5016
263.524	8.4211
266.899	10.4022
270.273	9.71443
273.648	7.8273
277.023	6.53493
280.398	5.41033
283.773	3.78261
287.147	3.47538
290.522	3.09956
293.897	2.27185
297.272	2.36543
300.647	2.43011
304.022	2.16892
307.396	1.50077
310.771	2.44921
314.146	2.23156
317.521	2.0198
320.896	1.98372
324.271	1.71765
327.645	0.753792
331.02	0.592236
334.395	0.29541
337.77	0.035126
341.145	0.205818
344.519	0.560368
347.894	0.616211
351.269	0.846348
354.644	0.162399
358.019	0.821827
361.394	0.29636
364.768	0.008789
368.143	0.393826
371.518	0.323318
374.893	1.05836
378.267	2.4501
381.642	5.50277
385.017	11.5433
388.392	23.3517
391.767	39.694
395.142	70.9903
398.516	129.151
401.891	207.453
405.266	201.512
408.641	164.373
412.016	138.43
415.39	81.4368
418.765	42.0699
422.14	24.4682
425.515	15.5985
428.89	10.5441
432.265	7.39248
435.639	5.33529
439.014	4.34538
442.389	4.87355
445.764	4.59516
449.139	4.49091
452.514	5.67412
455.888	7.93098
459.263	10.7404
462.638	18.4504
466.013	28.4984
469.388	44.1998
472.762	67.8873
476.137	103.814
479.512	145.604
482.887	176.097
486.262	171.347
489.637	137.606
493.011	98.1867
496.386	67.2479
499.761	53.4446
503.136	29.7402
506.511	14.5537
509.885	7.11876
513.26	3.94355
516.635	2.17683
520.01	2.73437
523.385	0.610382
526.76	0.777985
530.134	1.22327
533.509	0.487152
536.884	0.294838
540.259	0.616325
543.634	0.015724
547.008	0.263756
550.383	0.18515
553.758	0.07869
557.133	1.13959
560.508	0.06826
563.882	0.563919
567.257	0.685081
570.632	0.734497
574.007	0.528831
577.382	0.063316
580.756	0.322823
584.131	1.48331
587.506	0.56678
590.881	0.236923
594.256	0.305748
597.631	1.18745
601.005	0.6408
604.38	1.22736
607.755	1.40485
611.13	1.83752
614.505	0.779831
617.88	3.37526
621.254	3.26593
624.629	4.36488
628.004	5.69757
631.379	7.18088
634.754	11.0653
638.128	17.7976
641.503	28.4498
644.878	47.0277
648.253	87.5481
651.628	165.186
655.002	294.267
658.377	531.079
661.752	953.325
665.127	1301.54
668.502	863.2
671.876	389.882
675.251	191.031
678.626	108.15
682.001	65.9211
685.376	41.9463
688.751	27.9607
692.125	17.4217
695.5	11.6939
698.875	9.14283
702.25	5.89979
705.625	6.32565
709	7.58009
712.374	11.963
715.749	15.5626
719.124	18.4125
722.499	15.9084
725.874	8.35331
729.248	4.65784
732.623	2.34593
735.998	1.90656
739.373	1.69281
742.748	0.054596
746.122	0.100388
749.497	0.899422
752.872	0.849358
756.247	0.229897
759.622	0.30629
762.997	0.025543
766.371	0.649933
769.746	0.641373
773.121	0.583824
776.496	0.168068
779.871	0.138809
783.245	0.019218
786.62	1.07885
789.995	1.28908
793.37	0.748825
796.745	2.68586
800.12	2.79471
803.494	1.5343
806.869	1.41296
810.244	1.98009
813.619	1.38607
816.994	1.70416
820.368	2.29555
823.743	1.91545
827.118	1.91764
830.493	1.62883
833.868	1.0187
837.242	1.38355
840.617	1.19723
843.992	1.78179
847.367	0.070755
850.742	1.34355
854.117	1.68864
857.491	0.824211
860.866	1.05714
864.241	1.13368
867.616	1.64605
870.991	0.582634
874.365	0.720802
877.74	1.16027
881.115	0.625427
884.49	0.439781
887.865	0.682831
891.24	0.528702
894.614	0.20388
897.989	0.66806
901.364	0.428307
904.739	0.549286
908.114	1.17513
911.489	0.198654
914.863	0.243607
918.238	0.781525
921.613	1.18925
924.988	0.460861
928.362	0.203545
931.737	0.46907
935.112	0.672195
938.487	0.889908
941.862	0.778572
945.237	0.355026
948.611	1.17871
951.986	1.34116
955.361	0.648293
958.736	1.49411
962.111	1.40148
965.486	1.42841
968.86	0.804352
972.235	1.3084
975.61	1.37493
978.985	1.95127
982.36	1.5105
985.734	2.4514
989.109	1.97236
992.484	1.40031
995.859	1.55398
999.234	1.02831
1002.61	1.41885
1005.98	0.931778
1009.36	0.66713
1012.73	0.676247
1016.11	0.243668
1019.48	0.194084
1022.86	0.218887
1026.23	0.384583
1029.61	0.624184
1032.98	0.225983
1036.36	1.53706
1039.73	0.083153
1043.11	0.044632
1046.48	0.093132
1049.86	0.354851
1053.23	1.21348
1056.61	0.015656
1059.98	0.335922
1063.36	0.38575
1066.73	0.977608
1070.11	1.14909
1073.48	0.042259
1076.85	1.11758
1080.23	0.488953
1083.6	0.509819
1086.98	0.624092
1090.35	0.089531
1093.73	0.230057
1097.1	0.731575
1100.48	0.436073
1103.85	1.02471
1107.23	0.732803
1110.6	0.61657
1113.98	0.431786
1117.35	0.824188
1120.73	0.734734
1124.1	0.230927
1127.48	0.84922
1130.85	0.821472
1134.23	0.467857
1137.6	1.12322
1140.98	0.312798
1144.35	0.475266
1147.73	0.471832
1151.1	0.478821
1154.47	0.557167
1157.85	0.575722
1161.22	0.456383
1164.6	0.184441
1167.97	0.61544
1171.35	0.517128
1174.72	0.130562
1178.1	0.400719
1181.47	0.149971
1184.85	0.470772
1188.22	0.224327
1191.6	0.468994
1194.97	1.06733
1198.35	0.413177
1201.72	0.983727
1205.1	0.96801
1208.47	1.20383
1211.85	0.566917
1215.22	0.604652
1218.6	1.15186
1221.97	0.542732
1225.35	1.06275
1228.72	1.49332
1232.1	0.236839
1235.47	0.592377
1238.85	0.550674
1242.22	1.67329
1245.6	1.18864
1248.97	0.503899
1252.35	0.766891
1255.72	0.368591
1259.09	0.299652
1262.47	0.201782
1265.84	0.190002
1269.22	0.324188
1272.59	0.969543
1275.97	0.527809
1279.34	0.732079
1282.72	0.874779
1286.09	0.894432
1289.47	0.582825
1292.84	0.195236
1296.22	0.70639
1299.59	0.901161
1302.97	0.000404
