Measurement: Raman, 780 nm, unoriented, Raman Data Processed
Mineral: Heklaite
Rruff sample: R090034
Ideal chemistry: KNaSiF_6_
Locality: Bone Valley district, Bartow, Polk Co., Florida
Source: Thomas P. Moore
Description: Synthetic colorless hexagonal dipyramid
Raman shift (cm-1)	intensity
145.41	0
148.303	0.39257
151.195	0.983345
154.088	1.85384
156.981	1.75677
159.873	2.35068
162.766	1.57163
165.659	0.687698
168.551	1.99333
171.444	0.996559
174.337	1.89512
177.23	0.637962
180.122	0.915993
183.015	0.898605
185.908	0.825905
188.8	0.716003
191.693	0.501961
194.586	0.233871
197.478	0.24482
200.371	0.541924
203.264	0.24501
206.156	1.4813
209.049	1.05623
211.942	0.578613
214.835	1.5396
217.727	1.72587
220.62	1.14481
223.513	0.685989
226.405	0.356781
229.298	1.01097
232.191	1.36305
235.083	1.38731
237.976	2.18309
240.869	2.19822
243.762	1.96269
246.654	1.22249
249.547	1.26199
252.44	2.25642
255.332	1.59685
258.225	3.15527
261.118	3.08296
264.01	4.9036
266.903	5.6395
269.796	5.26565
272.689	4.81221
275.581	4.33953
278.474	3.49608
281.367	2.33253
284.259	1.87824
287.152	1.87309
290.045	0.566574
292.938	1.06583
295.83	1.02595
298.723	0.855598
301.616	1.17233
304.508	0.621414
307.401	0.517853
310.294	0.593216
313.186	1.11376
316.079	0.508842
318.972	0.077309
321.865	1.51732
324.757	0.438934
327.65	0.867485
330.543	1.13482
333.435	0.864243
336.328	0.299461
339.221	0.117027
342.113	0.179359
345.006	0.257401
347.899	0.199257
350.791	0.612564
353.684	0.351673
356.577	1.32539
359.469	0.314552
362.362	0.126301
365.255	0.204998
368.148	0.125156
371.04	0.083324
373.933	0.864304
376.826	1.2531
379.718	2.31979
382.611	5.20616
385.504	8.29039
388.397	13.0588
391.289	17.8922
394.182	28.7264
397.075	49.4897
399.967	85.4629
402.86	101.507
405.753	74.084
408.645	53.9815
411.538	43.0072
414.431	27.6234
417.324	15.5408
420.216	8.9021
423.109	6.15264
426.002	3.78908
428.894	2.35059
431.787	1.23905
434.68	1.41945
437.572	0.714264
440.465	0.159534
443.358	1.5725
446.25	0.90591
449.143	0.306984
452.036	1.31508
454.929	2.23519
457.821	3.40442
460.714	4.58509
463.607	7.23151
466.5	10.9895
469.392	15.2827
472.285	22.2676
475.178	31.6851
478.07	44.3272
480.963	59.8302
483.856	76.5789
486.748	84.7085
489.641	78.0767
492.534	58.417
495.426	36.0344
498.319	23.2094
501.212	16.4394
504.104	9.73148
506.997	5.04622
509.89	3.60075
512.783	2.60678
515.675	1.75824
518.568	1.56702
521.461	0.819916
524.354	0.858841
527.246	1.39647
530.139	0.564518
533.032	0.544048
535.924	0.531052
538.817	0.798218
541.71	0.790466
544.602	0.443176
547.495	0.219372
550.388	0.00219
553.28	0.035778
556.173	0.123932
559.066	0.546196
561.959	0.039402
564.851	0.256786
567.744	0.353996
570.637	0.219109
573.529	0.156776
576.422	0.077358
579.315	0.043816
582.207	0.103981
585.1	0.013996
587.993	0.113365
590.885	0.0172
593.778	0.002865
596.671	0.492489
599.564	0.111904
602.456	0.573612
605.349	0.502609
608.242	0.28159
611.134	0.957932
614.027	0.976818
616.92	1.2336
619.812	1.57985
622.705	2.78288
625.598	2.65037
628.491	4.0401
631.383	5.38974
634.276	7.55382
637.169	10.6271
640.061	15.7344
642.954	25.5665
645.847	41.585
648.74	69.8451
651.632	107.32
654.525	159.721
657.418	258.445
660.31	451.589
663.203	733.792
666.096	762.771
668.988	447.274
671.881	223.212
674.774	122.8
677.667	73.1604
680.559	46.3571
683.452	30.9816
686.345	21.3057
689.237	14.6399
692.13	10.2425
695.023	7.16906
697.915	5.4842
700.808	3.62085
703.701	3.23383
706.593	4.35511
709.486	5.84121
712.379	8.25423
715.272	10.5029
718.164	12.3643
721.057	11.5168
723.95	8.77811
726.842	4.65184
729.735	2.39215
732.628	1.01635
735.52	0.248512
738.413	0.448658
741.306	0.525574
744.199	0.521267
747.091	0.287102
749.984	0.00827
752.877	0.139698
755.769	0.123005
758.662	0.004347
761.555	0.992823
764.447	0.07823
767.34	0.115442
770.233	0.261091
773.126	0.188467
776.018	0.027769
778.911	0.629313
781.804	0.323847
784.696	0.818268
787.589	0.751888
790.482	0.776974
793.375	0.959223
796.267	1.16798
799.16	1.00018
802.053	0.547016
804.945	0.990469
807.838	0.857372
810.731	1.3274
813.623	1.59771
816.516	1.6542
819.409	1.71812
822.302	1.5577
825.194	1.18606
828.087	1.10208
830.98	1.33713
833.872	1.41244
836.765	1.73166
839.658	1.01826
842.55	0.956409
845.443	1.46232
848.336	1.51558
851.229	1.17632
854.121	1.46006
857.014	1.07542
859.907	1.48744
862.799	1.41654
865.692	1.31516
868.585	0.911139
871.477	1.06901
874.37	0.901873
877.263	0.85957
880.155	0.865986
883.048	0.865089
885.941	0.529839
888.834	0.646555
891.726	0.599905
894.619	0.150139
897.512	0.355639
900.404	0.141335
903.297	0.312387
906.19	0.205818
909.082	0.023525
911.975	0.082321
914.868	0.106873
917.761	0.309805
920.653	0.392313
923.546	0.343769
926.439	0.631449
929.331	0.12262
932.224	0.460833
935.117	0.304544
938.01	0.041851
940.902	0.45252
943.795	0.110292
946.688	0.372686
949.58	0.498289
952.473	0.160589
955.366	0.242836
958.258	0.388128
961.151	0.378979
964.044	0.901859
966.937	0.914145
969.829	0.741955
972.722	0.885128
975.615	0.921791
978.507	0.79287
981.4	0.661655
984.293	0.350826
987.185	1.02102
990.078	0.556866
992.971	0.154926
995.864	0.554443
998.756	0.977339
1001.65	0.307837
1004.54	0.511555
1007.43	0.472664
1010.33	0.197693
1013.22	0.149649
1016.11	0.439453
1019	0.621815
1021.9	0.37484
1024.79	0.061462
1027.68	0.210625
1030.58	0.543091
1033.47	0.235981
1036.36	0.005936
1039.25	0.188059
1042.15	0.318565
1045.04	0.022066
1047.93	0.813541
1050.83	0.351982
1053.72	0.242245
1056.61	0.091124
1059.5	0.662039
1062.4	0.800411
1065.29	0.654942
1068.18	0.064178
1071.07	0.082016
1073.97	0.220802
1076.86	0.346178
1079.75	0.210384
1082.64	0.241856
1085.54	0.259653
1088.43	0.395874
1091.32	0.769215
1094.21	0.187923
1097.11	0.506046
1100	0.385967
1102.89	0.460581
1105.79	0.310551
1108.68	0.245901
1111.57	0.034952
1114.46	0.431746
1117.36	0.043589
1120.25	0.186934
1123.14	0.211973
1126.04	0.369955
1128.93	0.740631
1131.82	0.197756
1134.71	0.592861
1137.61	0.145899
1140.5	0.577591
1143.39	0.078472
1146.28	0.601971
1149.18	0.591885
1152.07	0.32971
1154.96	0.34786
1157.86	0.360352
1160.75	0.360586
1163.64	0.572727
1166.53	0.222647
1169.42	0.615402
1172.32	0.33444
1175.21	0.521112
1178.1	0.490866
1181	0.066208
1183.89	0.930386
1186.78	0.306217
1189.67	0.214252
1192.57	0.761078
1195.46	0.287264
1198.35	0.475828
1201.24	0.273869
1204.14	0.60404
1207.03	0.523834
1209.92	0.723141
1212.82	0.719278
1215.71	0.39113
1218.6	0.687277
1221.49	0.86462
1224.39	0.652317
1227.28	0.720163
1230.17	0.382907
1233.07	0.523692
1235.96	0.60482
1238.85	0.294052
1241.74	0.366744
1244.64	0.941504
1247.53	0.37609
1250.42	0.585811
1253.31	0.26323
1256.21	0.4802
1259.1	0.077402
1261.99	0.347028
1264.88	0.42733
1267.78	0.479176
1270.67	0.308445
1273.56	0.357626
1276.45	0.20356
1279.35	0.04031
1282.24	0.913238
1285.13	0.09203
