Measurement: Raman, 532 nm, unoriented, Raman Data Processed
Mineral: Heliophyllite
Rruff sample: R060738
Ideal chemistry: Pb^2+^_6_As^3+^_2_O_7_Cl_4_
Locality: Laurium, Greece
Source: Michael Scott
Description: Tan colored spherical aggregates
Raman shift (cm-1)	intensity
130.683	0
134.058	1201.6
137.433	5039.23
140.807	9319.98
144.182	12882.1
147.557	15300.3
150.932	17288.6
154.307	19046.8
157.682	20964.1
161.056	22098.7
164.431	20784.4
167.806	17392.8
171.181	13506.3
174.555	10787.9
177.93	9384.98
181.305	8401.84
184.68	7999.91
188.055	7754.09
191.43	7110.41
194.804	6399.35
198.179	5438.31
201.554	4513.5
204.929	3263.77
208.304	2452.87
211.678	1130.78
215.053	159.25
218.428	422.234
221.803	820.043
225.178	1419.39
228.553	1631.08
231.927	1687.04
235.302	1776.21
238.677	1780.41
242.052	1786.79
245.427	1352.95
248.801	1239.88
252.176	1424.48
255.551	1230.91
258.926	1223.76
262.301	844.664
265.676	693.633
269.05	680.613
272.425	529.41
275.8	370.395
279.175	328.945
282.55	236.504
285.924	259.902
289.299	170.773
292.674	116.484
296.049	126.625
299.424	21.281
302.798	521.293
306.173	1019.66
309.548	1141.65
312.923	1053.06
316.298	1048.47
319.672	876.25
323.047	1011.65
326.422	914.105
329.797	1005.89
333.172	641.805
336.547	629.695
339.921	435.508
343.296	116.953
346.671	40.359
350.046	94.191
353.421	132.199
356.796	123.191
360.17	154.258
363.545	248.051
366.92	200.791
370.295	86.031
373.67	247.387
377.044	2.828
380.419	192.822
383.794	238.209
387.169	124.73
390.544	77.051
393.918	165.561
397.293	267.988
400.668	211.479
404.043	192.781
407.418	306.223
410.793	285.932
414.167	148.459
417.542	206.734
420.917	99.541
424.292	189.594
427.667	322.746
431.041	87.594
434.416	114.107
437.791	22.473
441.166	31.375
444.541	107.133
447.915	66.303
451.29	259.17
454.665	131.498
458.04	154.818
461.415	272.383
464.79	123.719
468.164	117.016
471.539	139.646
474.914	234.166
478.289	363.51
481.664	292.945
485.039	202.959
488.413	356.461
491.788	454.432
495.163	484.334
498.538	681.596
501.913	548.502
505.287	596.738
508.662	485.902
512.037	436.404
515.412	432.316
518.787	431.408
522.161	265.229
525.536	333.77
528.911	210.238
532.286	224.492
535.661	184.443
539.036	254.578
542.41	42.318
545.785	146.197
549.16	269.887
552.535	329.445
555.909	294.477
559.284	309.203
562.659	483.568
566.034	563.445
569.409	544.295
572.784	525.221
576.158	427.213
579.533	281.449
582.908	519.73
586.283	483.945
589.658	497.342
593.032	487.148
596.407	656.855
599.782	660.098
603.157	678.486
606.532	868.797
609.907	936.008
613.281	947.379
616.656	1054.85
620.031	1083.63
623.406	1353.18
626.781	1231.44
630.156	1236.56
633.53	1245.11
636.905	1334.7
640.28	1275.87
643.655	1452.01
647.029	1450.69
650.404	1910.76
653.779	1857.22
657.154	2033.26
660.529	2061.79
663.904	1976.66
667.278	2057.41
670.653	2143.61
674.028	2062.62
677.403	2045.59
680.778	2219.88
684.153	2501.73
687.527	2854.88
690.902	3314.4
694.277	3903.15
697.652	4741.72
701.027	5580.62
704.401	6558.82
707.776	7566.87
711.151	8119.6
714.526	8249.15
717.901	8462.28
721.276	8311.65
724.65	8063.03
728.025	8042.15
731.4	7925.64
734.775	8247.83
738.149	8608.36
741.524	8876.65
744.899	9025.46
748.274	8808.97
751.649	8171.54
755.024	7329.92
758.398	6359.43
761.773	5149.75
765.148	4373.45
768.523	3809.26
771.898	3387.43
775.273	3016.07
778.647	2867.32
782.022	3027.67
785.397	3211.38
788.772	3627.16
792.146	4337.94
795.521	5216.81
798.896	5879.26
802.271	6743.49
805.646	7345.19
809.021	7266.73
812.395	6797.41
815.77	6078.16
819.145	5146.65
822.52	4448.34
825.895	3788.21
829.269	3576.75
832.644	2844.79
836.019	2209.36
839.394	1764.5
842.769	1411.57
846.144	1262.69
849.518	939.535
852.893	687.59
856.268	382.746
859.643	309.051
863.018	287.043
866.393	74.332
869.767	32.641
873.142	49.887
876.517	62.809
879.892	17.512
883.266	118.57
886.641	69.34
890.016	116.059
893.391	92.902
896.766	75.156
900.141	153.645
903.515	355.367
906.89	506.52
910.265	403.293
913.64	428.91
917.015	374.285
920.39	264.418
923.764	91.203
927.139	87.809
930.514	101.582
933.889	50.777
937.264	12.66
940.638	99.195
944.013	120.684
947.388	71.773
950.763	92.211
954.138	288.824
957.513	249.324
960.887	434.012
964.262	545.441
967.637	386.289
971.012	408.113
974.386	78.336
977.761	132.82
981.136	179.359
984.511	119.145
987.886	261.391
991.261	163.949
994.635	330.668
998.01	191.344
1001.38	273.586
1004.76	89.105
1008.13	204.832
1011.51	104.297
1014.88	88.652
1018.26	100.824
1021.63	31.934
1025.01	182.727
1028.38	233.133
1031.76	177.59
1035.13	167.051
1038.51	406.328
1041.88	191.391
1045.26	161.344
1048.63	189.383
1052.01	221.297
1055.38	398.816
1058.76	291.594
1062.13	198.742
1065.51	78.637
1068.88	80.387
1072.26	192.449
1075.63	69.41
1079.01	64.477
1082.38	40.824
1085.76	128.188
1089.13	268.984
1092.51	102.305
1095.88	474.664
1099.26	328.293
1102.63	269.09
1106	316.004
1109.38	131.004
1112.75	112.258
1116.13	173.375
1119.5	39.316
1122.88	10.691
1126.25	107.359
1129.63	186.125
1133	245.512
1136.38	95.684
1139.75	138.914
1143.13	139.184
1146.5	7.547
1149.88	78.645
1153.25	152.797
1156.63	112.984
1160	20.988
1163.38	103.531
1166.75	105.145
1170.13	72.996
1173.5	47.727
1176.88	103.855
1180.25	128.91
1183.62	380.344
1187	119.465
1190.38	45.32
1193.75	11.434
1197.12	62.637
1200.5	172.27
1203.87	40.945
1207.25	13.855
1210.62	12.555
1214	73.02
1217.37	45.668
1220.75	64.137
1224.12	46.223
1227.5	104.008
1230.87	23.367
1234.25	67.648
1237.62	155.555
1241	150.398
1244.37	125.316
1247.75	216.312
1251.12	103.941
1254.5	9.125
1257.87	181.016
1261.25	193.465
1264.62	136.027
1267.99	49.383
1271.37	161.391
1274.74	177.301
1278.12	203.484
1281.49	42.492
1284.87	102.973
1288.24	99.461
1291.62	55.504
1294.99	65.223
