Measurement: Raman, 532 nm, unoriented, Raman Data Processed
Mineral: Hellandite-(Ce)
Rruff sample: R061013
Ideal chemistry: (Ca_3_Ce)Ce_2_Al(B_4_Si_4_O_22_)(OH)_2_
Locality: Campo Pefella, near Capranica, Viterbo, Latium, Italy
Source: Michael Scott
Description: Pale yellow platy crystals
Raman shift (cm-1)	intensity
170.698	0
173.591	95.6812
176.483	174.642
179.376	248.763
182.269	323.557
185.161	187.468
188.054	25.8213
190.947	49.8555
193.84	60.4351
196.732	38.6206
199.625	183.184
202.518	286.253
205.41	421.582
208.303	455.488
211.196	436.72
214.089	422.215
216.981	546.313
219.874	780.569
222.767	1146.53
225.659	1785.39
228.552	2437.09
231.445	3001.67
234.337	3531.89
237.23	3338.86
240.123	2665.36
243.016	2286.43
245.908	2333.69
248.801	2405.61
251.694	2348.5
254.586	2076.82
257.479	1871.6
260.372	1571.49
263.264	1271.54
266.157	835.686
269.05	438.443
271.942	97.6934
274.835	22.6201
277.728	188.142
280.62	613.204
283.513	1303.75
286.406	2446.09
289.299	3506.9
292.191	4364.11
295.084	4548.55
297.977	4144.67
300.869	3913.9
303.762	4105.62
306.655	4827.61
309.548	5821.02
312.44	6922.53
315.333	7894.47
318.226	7863.99
321.118	6873
324.011	6098.81
326.904	5843.57
329.796	5770.94
332.689	5959.31
335.582	6314.85
338.474	6803.03
341.367	7321.93
344.26	7595.35
347.153	7668.62
350.045	7229.36
352.938	6365.01
355.831	5168.44
358.723	4222.35
361.616	3316.97
364.509	2508.51
367.401	1791.48
370.294	1194.28
373.187	566.343
376.08	193.314
378.972	91.7002
381.865	151.984
384.758	205.244
387.65	152.066
390.543	152.883
393.436	36.0894
396.329	81.0322
399.221	390.921
402.114	743.97
405.007	1268.36
407.899	2008.46
410.792	2946.52
413.685	4072.01
416.577	5095.62
419.47	5773.46
422.363	6016.98
425.255	5711.14
428.148	5068.8
431.041	4246.28
433.934	3630.01
436.826	3123.48
439.719	2827.19
442.612	2534.71
445.504	2438.84
448.397	2351.08
451.29	2490.02
454.183	2804.92
457.075	3328.36
459.968	4067.2
462.861	4895.8
465.753	5714.61
468.646	6267.55
471.539	6502.51
474.431	6383.3
477.324	6172.1
480.217	5771.11
483.11	5190.56
486.002	4655.62
488.895	3993.04
491.788	3372.39
494.68	2747.45
497.573	2199.88
500.466	1629.48
503.358	1182.87
506.251	718.586
509.144	423.749
512.036	157.707
514.929	43.6904
517.822	157.449
520.715	234.107
523.607	192.688
526.5	92.7969
529.393	130.435
532.285	348.737
535.178	638.061
538.071	826.382
540.963	974.376
543.856	1055.18
546.749	1262.69
549.641	1500.03
552.534	1867.6
555.427	2534.16
558.32	3582.16
561.212	5069.56
564.105	6875.79
566.998	8547.67
569.89	9206.68
572.783	8235.1
575.676	6459.66
578.568	4581.02
581.461	3047.88
584.354	2079.68
587.247	1230.5
590.139	718.226
593.032	392.908
595.925	98.625
598.817	11.1543
601.71	86.4394
604.603	390.761
607.495	579.93
610.388	849.561
613.281	1138.18
616.174	1374.96
619.066	1538.09
621.959	1745.99
624.852	1837.52
627.744	1979.21
630.637	2083.69
633.53	1951.04
636.423	1950.84
639.315	1878.31
642.208	1693.65
645.101	1592.09
647.993	1561.88
650.886	1475.58
653.779	1425.48
656.671	1194.87
659.564	1092.26
662.457	957.911
665.35	895.663
668.242	779.177
671.135	685.089
674.028	487.345
676.92	410.654
679.813	335.237
682.706	221.882
685.598	189.566
688.491	144.56
691.384	136.473
694.276	101.08
697.169	271.446
700.062	291.901
702.955	463.968
705.847	424.94
708.74	438.827
711.633	440.824
714.525	395.369
717.418	316.147
720.311	311.274
723.203	305.303
726.096	323.558
728.989	229.28
731.881	252.262
734.774	280.582
737.667	179.603
740.56	146.422
743.452	105.067
746.345	5.18652
749.238	61.9912
752.13	294.503
755.023	295.937
757.916	259.434
760.808	197.664
763.701	120.076
766.594	2.9375
769.487	141.531
772.379	320.381
775.272	394.373
778.165	703.736
781.057	929.294
783.95	1010.76
786.843	1150.15
789.736	1204.15
792.628	1102.43
795.521	952.383
798.414	822.688
801.306	778.862
804.199	811.443
807.092	974.898
809.984	1316.52
812.877	1788.35
815.77	2299.44
818.663	2886.25
821.555	3559.35
824.448	4017.22
827.341	4571.05
830.233	5016.14
833.126	5356.99
836.019	5767.05
838.911	6334.96
841.804	6924.43
844.697	7631.93
847.59	8246.49
850.482	8530.52
853.375	8983.48
856.268	9208.76
859.16	9385.82
862.053	9507.89
864.946	9519.51
867.838	9483.4
870.731	9333.87
873.624	8911.33
876.516	8315.58
879.409	7445.86
882.302	6520.69
885.195	5664.29
888.087	4827.91
890.98	4156.77
893.873	3664.79
896.765	3223.34
899.658	2963.11
902.551	2913.22
905.443	2888.09
908.336	2983.72
911.229	3008.88
914.121	2779.62
917.014	2304.39
919.907	1695.84
922.8	1143.71
925.692	618.273
928.585	197.312
931.478	38.1465
934.37	188.059
937.263	193.456
940.156	246.589
943.048	189.647
945.941	142.312
948.834	9.77808
951.727	176.799
954.619	324.038
957.512	551.548
960.405	729.692
963.297	922.719
966.19	1114.84
969.083	1303.45
971.976	1452.91
974.868	1611.41
977.761	1769.42
980.654	1882.6
983.546	1962.92
986.439	2040.64
989.332	2110.17
992.224	2172.71
995.117	2182.6
998.01	2204.68
1000.9	2211.99
1003.79	2333.53
1006.69	2433.16
1009.58	2585.99
1012.47	2601.57
1015.37	2517.63
1018.26	2429.49
1021.15	2223.83
1024.04	1893.64
1026.94	1599.93
1029.83	1183.11
1032.72	821.036
1035.62	508.848
1038.51	333.201
1041.4	167.325
1044.29	91.2986
1047.19	52.4026
1050.08	26.842
1052.97	15.9663
1055.86	22.9062
1058.76	23.491
1061.65	1.3999
1064.54	4.71094
1067.43	2.07788
1070.33	0.319336
1073.22	9.89844
1076.11	14.821
1079.01	8.64551
1081.9	26.1306
1084.79	32.876
1087.68	27.8638
1090.58	6.52808
1093.47	47.5112
1096.36	33.9761
1099.25	52.7961
1102.15	35.3086
1105.04	19.2151
1107.93	51.26
1110.83	43.9509
1113.72	32.5127
1116.61	51.4458
1119.5	37.28
1122.4	27.6154
1125.29	27.9834
1128.18	53.4628
1131.07	59.0632
1133.97	57.5115
1136.86	87.8638
1139.75	47.9898
1142.64	22.8591
1145.54	24.1907
1148.43	39.91
1151.32	66.6
1154.22	32.5363
1157.11	67.8296
1160	48.5017
1162.89	58.6086
1165.79	52.7733
1168.68	63.7163
1171.57	26.0244
1174.46	53.0983
1177.36	52.0043
1180.25	69.0359
1183.14	58.2234
1186.04	51.0425
1188.93	73.318
1191.82	23.7781
1194.71	60.7165
1197.61	33.8179
1200.5	15.686
1203.39	28.0137
1206.28	32.7014
1209.18	38.6577
1212.07	34.0742
1214.96	4.89197
1217.86	10.831
1220.75	30.5828
1223.64	19.4243
1226.53	46.5596
1229.43	5.04907
1232.32	19.8375
1235.21	12.3761
1238.1	21.2737
1241	16.1831
1243.89	0.835693
1246.78	15.5861
1249.67	51.6551
1252.57	45.66
1255.46	24.1572
1258.35	50.329
1261.24	33.9197
1264.14	26.2795
1267.03	17.0551
1269.92	22.1836
1272.82	13.4402
