Measurement: Raman, 780 nm, unoriented, Raman Data Processed
Mineral: Helvine
Rruff sample: R060059
Ideal chemistry: Mn^2+^_4_(BeSiO_4_)_3_S
Locality: Schwarzenberg, Saxony, Germany
Source: University of Arizona Mineral Museum
Description: Yellow-tan colored tetrahedra
Measured chemistry: (Mn^2+^_2.93_Fe^2+^_0.48_Zn_0.35_Ca_0.15_Fe^3+^_0.09_)_Σ=4_Be_3.00_((Si_0.97_Al_0.03_)_Σ=1_O_4_)_3_S_1.00_; BeO assumed by stoichiometry
Raman shift (cm-1)	intensity
108.563	0
111.456	0.507542
114.349	2.37445
117.242	7.33382
120.134	12.1771
123.027	19.5431
125.92	27.0007
128.812	40.9604
131.705	36.5552
134.598	13.1609
137.49	9.02961
140.383	7.61907
143.276	2.04256
146.168	0.095562
149.061	2.77088
151.954	10.2043
154.847	18.1805
157.739	26.1502
160.632	24.9318
163.525	25.4398
166.417	28.6958
169.31	35.6535
172.203	42.6553
175.095	49.383
177.988	41.2536
180.881	15.5404
183.774	3.98576
186.666	0.135677
189.559	0.185364
192.452	0.382408
195.344	0.015205
198.237	0.567913
201.13	0.408363
204.022	0.043535
206.915	0.126883
209.808	0.398947
212.701	0.90247
215.593	1.65088
218.486	3.15935
221.379	3.83929
224.271	5.74803
227.164	6.60561
230.057	8.18381
232.949	9.7618
235.842	12.2133
238.735	11.8119
241.627	9.56344
244.52	8.07439
247.413	5.89467
250.306	4.54375
253.198	3.71458
256.091	3.57857
258.984	3.56614
261.876	4.58026
264.769	5.85516
267.662	7.38326
270.555	8.55843
273.447	9.7628
276.34	12.0908
279.233	14.7764
282.125	15.8628
285.018	17.9028
287.911	17.4574
290.803	16.3941
293.696	13.9259
296.589	12.1847
299.481	10.9016
302.374	10.6442
305.267	9.07148
308.16	6.80319
311.052	4.45064
313.945	2.55695
316.838	1.01819
319.73	1.04245
322.623	1.2293
325.516	0.249851
328.408	0.429045
331.301	0.095325
334.194	0.209337
337.087	0.582903
339.979	0.675222
342.872	0.477289
345.765	0.931614
348.657	1.16663
351.55	1.12847
354.443	2.11687
357.335	1.94975
360.228	3.19611
363.121	2.91465
366.014	2.50268
368.906	1.41079
371.799	0.768469
374.692	0.53722
377.584	0.099457
380.477	0.345375
383.37	0.356766
386.262	0.099405
389.155	0.428804
392.048	0.346691
394.94	0.078552
397.833	0.057156
400.726	0.120758
403.619	0.209003
406.511	0.28126
409.404	0.63995
412.297	0.735914
415.189	0.597147
418.082	0.615783
420.975	0.882215
423.868	1.2638
426.76	1.14793
429.653	2.82369
432.546	2.44605
435.438	2.67534
438.331	3.17605
441.224	4.87281
444.116	5.42486
447.009	4.8424
449.902	2.24011
452.795	1.40886
455.687	0.733364
458.58	0.32805
461.473	0.732325
464.365	0.180907
467.258	0.19224
470.151	0.238558
473.043	0.123036
475.936	0.072012
478.829	0.015814
481.721	0.189913
484.614	0.07432
487.507	0.362603
490.399	0.154123
493.292	0.431694
496.185	0.218362
499.078	0.505246
501.97	0.426543
504.863	0.403602
507.756	0.494324
510.648	0.910951
513.541	1.2717
516.434	1.44095
519.327	2.52707
522.219	3.37554
525.112	3.82444
528.005	3.81412
530.897	3.6907
533.79	4.1765
536.683	4.0081
539.575	3.98509
542.468	3.21645
545.361	3.25325
548.254	3.81819
551.146	4.78146
554.039	4.64798
556.932	7.18703
559.824	7.92415
562.717	8.70056
565.61	9.44905
568.502	7.79913
571.395	6.34725
574.288	4.70249
577.181	4.22936
580.073	3.58896
582.966	2.82141
585.859	2.04466
588.751	2.10842
591.644	2.13112
594.537	0.722018
597.429	1.8523
600.322	1.18258
603.215	0.699484
606.107	1.50734
609	1.31848
611.893	0.723387
614.786	1.10305
617.678	1.08507
620.571	0.685528
623.464	0.697601
626.356	0.151856
629.249	0.005863
632.142	0.408763
635.034	0.075125
637.927	0.24975
640.82	0.098539
643.712	0.162697
646.605	0.030891
649.498	0.115284
652.391	0.198954
655.283	0.488907
658.176	0.774824
661.069	0.837152
663.961	1.69341
666.854	1.78092
669.747	2.3159
672.639	2.60708
675.532	3.19794
678.425	3.4232
681.318	2.77761
684.21	1.60717
687.103	1.32345
689.996	1.33953
692.888	0.549967
695.781	1.03759
698.674	0.405785
701.567	0.427788
704.459	0.293429
707.352	0.450042
710.245	0.630177
713.137	0.277598
716.03	0.262552
718.923	0.109184
721.815	0.348901
724.708	0.823282
727.601	0.110898
730.494	0.552298
733.386	0.398365
736.279	0.722305
739.172	0.818937
742.064	0.681778
744.957	0.601168
747.85	1.21339
750.742	0.447152
753.635	1.00623
756.528	1.01494
759.42	0.286403
762.313	0.705113
765.206	0.568777
768.099	0.288013
770.991	0.238139
773.884	0.399386
776.777	0.101165
779.669	0.185778
782.562	0.221378
785.455	0.550141
788.347	0.00648
791.24	0.310317
794.133	0.095104
797.025	0.034285
799.918	0.009901
802.811	0.220813
805.704	0.174887
808.596	0.262751
811.489	0.256749
814.382	0.415431
817.274	0.155379
820.167	0.518454
823.06	0.277093
825.952	0.117235
828.845	0.812421
831.738	0.212011
834.631	0.389306
837.523	0.238834
840.416	0.854115
843.309	0.294029
846.201	0.772511
849.094	1.04961
851.987	2.23624
854.88	1.95422
857.772	1.73232
860.665	2.72064
863.558	3.43916
866.45	3.56696
869.343	6.20374
872.236	8.8429
875.128	13.5899
878.021	19.9404
880.914	28.0789
883.807	37.7177
886.699	49.8956
889.592	59.3044
892.485	60.6611
895.377	53.6414
898.27	43.6776
901.163	34.5246
904.055	25.3648
906.948	18.722
909.841	13.7185
912.734	10.209
915.626	7.78196
918.519	5.46851
921.412	4.09046
924.304	3.64491
927.197	2.93094
930.09	2.70176
932.982	2.65315
935.875	3.38685
938.768	3.14701
941.66	3.44847
944.553	3.40278
947.446	2.37253
950.339	0.824425
953.231	0.373593
956.124	0.083968
959.017	0.104084
961.909	0.112556
964.802	0.005905
967.695	0.290189
970.587	0.192009
973.48	0.081871
976.373	0.001546
979.265	0.174151
982.158	0.057836
985.051	0.20383
987.944	0.135419
990.836	0.261969
993.729	0.139158
996.622	0.640794
999.514	0.572851
1002.41	0.550123
1005.3	0.969166
1008.19	0.967257
1011.09	1.47662
1013.98	1.75015
1016.87	2.0802
1019.76	2.29159
1022.66	2.15394
1025.55	1.40103
1028.44	1.47064
1031.33	0.968516
1034.23	0.961961
1037.12	0.728016
1040.01	0.599573
1042.9	0.469535
1045.8	0.1846
1048.69	0.430327
1051.58	0.500112
1054.48	0.686313
1057.37	0.546087
1060.26	0.431304
1063.15	0.373004
1066.05	0.181575
1068.94	0.406124
1071.83	0.392369
1074.72	0.095451
1077.62	0.63681
1080.51	0.638757
1083.4	0.278692
1086.3	0.242777
1089.19	0.596457
1092.08	0.244464
1094.97	0.493824
1097.87	0.173463
1100.76	0.14435
1103.65	0.392712
1106.54	0.211628
1109.44	0.48448
1112.33	0.402945
1115.22	0.41437
1118.12	0.324403
1121.01	0.372028
1123.9	0.047413
1126.79	0.113189
1129.69	0.377834
1132.58	0.143352
1135.47	0.578823
1138.36	0.496912
1141.26	0.090948
1144.15	0.357072
1147.04	0.116189
1149.93	0.330066
1152.83	0.753095
1155.72	0.30486
1158.61	0.402063
1161.51	0.217696
1164.4	0.276984
1167.29	0.443892
1170.18	0.287787
1173.08	0.384558
1175.97	0.73894
1178.86	0.570793
1181.75	0.609717
1184.65	0.251556
1187.54	0.627309
1190.43	0.418385
1193.33	0.171579
1196.22	0.695388
1199.11	0.063335
1202	0.337539
1204.9	0.182612
1207.79	0.520391
1210.68	0.717807
1213.57	0.348294
1216.47	0.347018
1219.36	0.112644
1222.25	0.129385
1225.14	0.133508
1228.04	0.674819
1230.93	0.22341
1233.82	0.84273
1236.72	0.551334
1239.61	0.247027
1242.5	0.302983
1245.39	0.400743
1248.29	0.001327
1251.18	0.051525
1254.07	0.274832
1256.96	0.003099
