Measurement: Raman, 532 nm, unoriented, Raman Data Processed
Mineral: Helvine
Rruff sample: R060059
Ideal chemistry: Mn^2+^_4_(BeSiO_4_)_3_S
Locality: Schwarzenberg, Saxony, Germany
Source: University of Arizona Mineral Museum
Description: Yellow-tan colored tetrahedra
Measured chemistry: (Mn^2+^_2.93_Fe^2+^_0.48_Zn_0.35_Ca_0.15_Fe^3+^_0.09_)_Σ=4_Be_3.00_((Si_0.97_Al_0.03_)_Σ=1_O_4_)_3_S_1.00_; BeO assumed by stoichiometry
Raman shift (cm-1)	intensity
111.183	0
114.558	5.08656
117.932	16.0883
121.307	27.2892
124.682	52.09
128.057	95.7823
131.432	165.157
134.806	67.8315
138.181	40.1486
141.556	36.7665
144.931	13.3199
148.306	9.53224
151.68	17.5345
155.055	33.6164
158.43	57.8745
161.805	58.56
165.18	53.9769
168.554	65.8555
171.929	83.4186
175.304	110.647
178.679	116.996
182.054	38.2719
185.429	8.0609
188.803	2.39521
192.178	0.98671
195.553	4.23898
198.928	6.08583
202.303	2.3833
205.678	2.99096
209.052	3.2414
212.427	1.39909
215.802	0.606564
219.177	2.81771
222.552	7.34522
225.926	9.73358
229.301	15.3285
232.676	22.2489
236.051	31.6411
239.426	37.8752
242.8	24.6867
246.175	17.1698
249.55	9.93259
252.925	5.28413
256.3	5.93376
259.675	5.80672
263.049	7.91981
266.424	7.81514
269.799	10.7264
273.174	15.5903
276.549	20.2807
279.923	29.2358
283.298	35.7922
286.673	40.066
290.048	43.5251
293.423	39.4983
296.798	33.5892
300.172	29.8331
303.547	28.8089
306.922	24.4261
310.297	16.1688
313.672	9.49467
317.046	3.58464
320.421	1.41558
323.796	0.353428
327.171	1.15619
330.546	0.043571
333.921	1.05078
337.295	0.249445
340.67	0.149687
344.045	0.111361
347.42	0.823332
350.795	2.43964
354.169	3.81969
357.544	6.20134
360.919	7.22793
364.294	8.13292
367.669	5.49247
371.043	2.45738
374.418	0.64492
377.793	0.166506
381.168	0.750875
384.543	0.27503
387.918	0.146067
391.292	0.204447
394.667	0.825901
398.042	1.29238
401.417	2.18542
404.792	0.896576
408.166	0.79162
411.541	1.06658
414.916	0.652145
418.291	1.60511
421.666	2.03858
425.041	1.47561
428.415	2.55992
431.79	4.29807
435.165	4.9791
438.54	5.95172
441.915	8.76704
445.289	11.3079
448.664	8.71024
452.039	3.03051
455.414	1.14763
458.789	1.56566
462.163	1.26379
465.538	0.53927
468.913	0.636812
472.288	0.78109
475.663	0.293352
479.038	0.228689
482.412	0.212986
485.787	1.23974
489.162	0.370852
492.537	0.380699
495.912	1.17028
499.286	1.15641
502.661	2.48645
506.036	1.41467
509.411	2.12028
512.786	3.64549
516.16	4.55021
519.535	5.82597
522.91	8.51888
526.285	10.0377
529.66	11.2116
533.034	11.6958
536.409	11.6849
539.784	10.2009
543.159	7.01889
546.534	7.00042
549.909	9.14662
553.283	12.886
556.658	16.7208
560.033	22.092
563.408	26.5182
566.783	28.8661
570.158	21.7253
573.532	15.1302
576.907	13.3888
580.282	11.6776
583.657	10.2186
587.032	7.81799
590.406	6.47865
593.781	5.73853
597.156	5.48406
600.531	4.07043
603.906	4.35446
607.28	4.26577
610.655	4.43178
614.03	3.84291
617.405	2.47811
620.78	1.8253
624.154	0.827599
627.529	1.3121
630.904	0.824413
634.279	0.164507
637.654	0.353106
641.029	0.365894
644.403	1.0592
647.778	0.534393
651.153	0.739777
654.528	1.23485
657.903	0.153095
661.278	1.27747
664.652	2.51462
668.027	3.59303
671.402	5.2013
674.777	7.50375
678.152	9.58077
681.526	9.48561
684.901	5.16903
688.276	3.10018
691.651	1.69032
695.026	1.90816
698.4	2.20422
701.775	1.40424
705.15	0.229589
708.525	1.26132
711.9	1.50708
715.274	0.409933
718.649	1.98285
722.024	1.73918
725.399	1.19315
728.774	0.621969
732.149	0.744194
735.523	1.23641
738.898	0.822092
742.273	1.00052
745.648	2.14105
749.023	1.82706
752.398	1.39223
755.772	2.01857
759.147	2.64886
762.522	2.36653
765.897	2.66587
769.272	2.71842
772.646	1.82898
776.021	1.27488
779.396	1.46111
782.771	0.774227
786.146	1.01888
789.52	0.368298
792.895	0.389704
796.27	1.02904
799.645	0.02729
803.02	0.148882
806.395	0.381119
809.769	0.44663
813.144	0.100117
816.519	0.184694
819.894	1.76482
823.269	0.75605
826.643	0.117947
830.018	1.58336
833.393	0.654346
836.768	0.242268
840.143	1.15481
843.518	2.26576
846.892	2.26901
850.267	2.66847
853.642	4.36665
857.017	4.71904
860.392	5.25849
863.766	9.37068
867.141	12.972
870.516	19.0379
873.891	29.6321
877.266	47.8553
880.64	77.2108
884.015	117.507
887.39	169.436
890.765	219.71
894.14	231.364
897.515	196.874
900.889	148.764
904.264	110.722
907.639	81.4464
911.014	56.7612
914.389	40.3276
917.763	29.7015
921.138	23.2527
924.513	16.2415
927.888	12.1832
931.263	10.4421
934.638	10.9451
938.012	12.4505
941.387	14.5799
944.762	15.5659
948.137	10.612
951.512	3.56904
954.886	1.9418
958.261	0.141273
961.636	0.871542
965.011	0.767845
968.386	0.552132
971.76	0.17017
975.135	0.762848
978.51	0.344116
981.885	0.100643
985.26	0.273901
988.635	0.318573
992.009	0.226194
995.384	0.580341
998.759	0.507839
1002.13	1.05963
1005.51	2.37303
1008.88	3.76389
1012.26	5.001
1015.63	6.97961
1019.01	9.10269
1022.38	9.37552
1025.76	6.56279
1029.13	3.97117
1032.51	3.11924
1035.88	2.02528
1039.26	1.57067
1042.63	1.52349
1046.01	1.14398
1049.38	1.64685
1052.76	1.42842
1056.13	1.11921
1059.51	1.07892
1062.88	0.373047
1066.26	0.290974
1069.63	0.325302
1073.01	0.843592
1076.38	1.10341
1079.76	0.521397
1083.13	0.403238
1086.5	1.14973
1089.88	1.76961
1093.25	0.483032
1096.63	0.590233
1100	0.211123
1103.38	0.440287
1106.75	0.522179
1110.13	0.83791
1113.5	0.650215
1116.88	0.178223
1120.25	0.656197
1123.63	0.745157
1127	1.12297
1130.38	0.53264
1133.75	1.39122
1137.13	0.930538
1140.5	1.23684
1143.88	0.662882
1147.25	0.199615
1150.63	0.146919
1154	0.331791
1157.38	1.2756
1160.75	0.037041
1164.12	0.199125
1167.5	0.594521
1170.88	1.32883
1174.25	0.207535
1177.62	0.424734
1181	0.82666
1184.37	0.707541
1187.75	0.043467
1191.12	0.577065
1194.5	0.362427
1197.87	0.431086
1201.25	0.184885
1204.62	1.33225
1208	0.928671
1211.37	1.28187
1214.75	1.11799
1218.12	0.031406
1221.5	1.13139
1224.87	0.857199
1228.25	1.58809
1231.62	0.080206
1235	0.616829
1238.37	0.621984
1241.75	0.873421
1245.12	0.54513
1248.49	0.645786
1251.87	1.04832
1255.24	0.137598
1258.62	0.462313
1261.99	0.422184
1265.37	0.074362
1268.74	0.904131
1272.12	0.804386
1275.49	0.037697
1278.87	0.675543
