Measurement: Raman, 780 nm, unoriented, Raman Data Processed
Mineral: Hematite
Rruff sample: R050300
Ideal chemistry: Fe_2_O_3_
Locality: Argentina
Source: Eugene Schlepp
Description: Pseudomorph after magnetite
Measured chemistry: Fe_2.00_O_3_
Raman shift (cm-1)	intensity
122.897	0
126.272	0.022221
129.646	1.04128
133.021	1.20817
136.396	2.46009
139.771	3.41716
143.146	3.90685
146.52	3.75567
149.895	3.94922
153.27	3.50911
156.645	4.18098
160.02	3.08871
163.395	1.37447
166.769	0.843941
170.144	0.601237
173.519	0.135472
176.894	0.037502
180.269	0.309493
183.643	0.551749
187.018	0.821638
190.393	0.084665
193.768	0.440532
197.143	2.43915
200.518	5.91629
203.892	18.364
207.267	52.8571
210.642	58.7567
214.017	72.3223
217.392	94.1797
220.766	118.323
224.141	154.515
227.516	115.035
230.891	28.4798
234.266	11.1201
237.641	7.5689
241.015	5.91437
244.39	5.4654
247.765	3.71738
251.14	2.96776
254.515	3.75014
257.889	5.18113
261.264	7.84474
264.639	12.3154
268.014	21.4154
271.389	41.2979
274.764	74.2144
278.138	91.4796
281.513	120.447
284.888	150.788
288.263	184.221
291.638	196.519
295.012	129.606
298.387	85.1049
301.762	50.9962
305.137	27.7199
308.512	14.9243
311.887	8.8674
315.261	6.36723
318.636	3.77132
322.011	2.1296
325.386	1.70231
328.761	0.325954
332.135	0.437504
335.51	0.252157
338.885	0.01912
342.26	0.393346
345.635	0.651023
349.01	0.111162
352.384	0.30499
355.759	0.418304
359.134	0.152862
362.509	0.793159
365.884	1.32687
369.258	1.76176
372.633	2.53023
376.008	2.73593
379.383	3.57411
382.758	4.70501
386.132	6.31886
389.507	9.94688
392.882	14.2151
396.257	19.074
399.632	24.4266
403.007	27.6406
406.381	32.0659
409.756	31.557
413.131	23.4885
416.506	14.5227
419.881	8.99248
423.255	6.29763
426.63	4.18581
430.005	3.53729
433.38	3.56466
436.755	2.61392
440.13	2.41831
443.504	2.02066
446.879	1.82467
450.254	1.12624
453.629	0.656743
457.004	0.423151
460.378	0.144988
463.753	0.273116
467.128	0.162873
470.503	0.285741
473.878	1.49737
477.252	2.79357
480.627	5.69019
484.002	7.36177
487.377	10.5093
490.752	13.4794
494.127	13.147
497.501	13.9104
500.876	11.9948
504.251	8.00216
507.626	5.95319
511.001	3.80296
514.375	2.81828
517.75	1.85468
521.125	0.941025
524.5	0.562746
527.875	0.538853
531.25	0.030664
534.624	0.263041
537.999	0.321077
541.374	0.0745
544.749	0.035995
548.124	0.001542
551.498	0.212429
554.873	0.40877
558.248	0.255824
561.623	0.111307
564.998	0.065795
568.372	0.281789
571.747	0.314629
575.122	0.963899
578.497	1.6558
581.872	2.40998
585.247	3.68847
588.621	4.82236
591.996	6.61103
595.371	8.89052
598.746	11.5894
602.121	14.8183
605.495	17.3428
608.87	18.4072
612.245	16.747
615.62	12.5101
618.995	9.1601
622.37	6.85181
625.744	5.71987
629.119	5.71947
632.494	5.13501
635.869	5.13339
639.244	5.76277
642.619	6.44635
645.993	6.15792
649.368	6.43481
652.743	6.62789
656.118	5.9496
659.493	5.42187
662.867	4.30031
666.242	4.07009
669.617	2.94671
672.992	1.84786
676.367	1.16534
679.741	1.13456
683.116	0.714079
686.491	0.530851
689.866	0.329127
693.241	0.135039
696.615	0.223915
699.99	0.046698
703.365	0.045616
706.74	0.228006
710.115	0.079183
713.49	0.008562
716.864	0.109204
720.239	0.051537
723.614	0.051546
726.989	0.046317
730.364	0.263997
733.739	0.232463
737.113	0.328972
740.488	0.684534
743.863	0.678728
747.238	0.368179
750.612	0.721265
753.987	1.05659
757.362	0.44858
760.737	0.762517
764.112	0.126988
767.487	0.774235
770.861	0.399641
774.236	0.676614
777.611	0.528493
780.986	0.313473
784.361	0.411902
787.736	0.161259
791.11	0.747085
794.485	0.127111
797.86	0.640382
801.235	0.6832
804.61	0.679009
807.984	1.11192
811.359	1.11654
814.734	0.86593
818.109	0.666644
821.484	1.02094
824.859	0.783928
828.233	0.488701
831.608	0.561925
834.983	0.316509
838.358	0.462849
841.733	0.641244
845.107	0.757144
848.482	0.737556
851.857	0.787618
855.232	0.618049
858.607	0.584443
861.981	0.336241
865.356	0.450699
868.731	0.718548
872.106	0.525167
875.481	0.706157
878.856	0.446489
882.23	0.349792
885.605	0.24802
888.98	0.35156
892.355	0.729545
895.73	0.290759
899.105	0.043244
902.479	0.050421
905.854	0.078351
909.229	0.245491
912.604	0.098334
915.979	0.058303
919.353	0.000723
922.728	0.133572
926.103	0.191078
929.478	0.179893
932.853	0.045178
936.227	0.193671
939.602	0.216747
942.977	0.334005
946.352	0.105704
949.727	0.267409
953.102	0.231753
956.476	0.124453
959.851	0.31166
963.226	0.018217
966.601	0.183362
969.976	0.298158
973.35	0.019356
976.725	0.125753
980.1	0.072913
983.475	0.712193
986.85	0.000344
990.225	0.58086
993.599	0.43998
996.974	0.062757
1000.35	0.198343
1003.72	0.368815
1007.1	0.337124
1010.47	0.731599
1013.85	0.124896
1017.22	0.153208
1020.6	0.244663
1023.97	0.574378
1027.35	0.69674
1030.72	0.693578
1034.1	0.532193
1037.47	0.758846
1040.85	0.921834
1044.22	0.777408
1047.6	0.720222
1050.97	0.703163
1054.35	0.577723
1057.72	0.574696
1061.1	0.597128
1064.47	0.703211
1067.85	0.673032
1071.22	0.912097
1074.6	0.499139
1077.97	0.521619
1081.34	0.498446
1084.72	0.522195
1088.09	0.815257
1091.47	0.584803
1094.84	0.261055
1098.22	0.409516
1101.59	0.85088
1104.97	0.530219
1108.34	0.67176
1111.72	0.289385
1115.09	0.616571
1118.47	0.482415
1121.84	0.438177
1125.22	0.447519
1128.59	0.229912
1131.97	0.415187
1135.34	0.391589
1138.72	0.149133
1142.09	0.074426
1145.47	0.106901
1148.84	0.351446
1152.22	0.065922
1155.59	0.406841
1158.96	0.317061
1162.34	0.482022
1165.71	0.381892
1169.09	0.765322
1172.46	0.696527
1175.84	0.571394
1179.21	0.720307
1182.59	0.476778
1185.96	0.407466
1189.34	0.556409
1192.71	0.413926
1196.09	0.388875
1199.46	0.531165
1202.84	0.314374
1206.21	0.512931
1209.59	0.087343
1212.96	0.290853
1216.34	0.40264
1219.71	0.216649
1223.09	0.361372
1226.46	0.022967
1229.84	0.104891
1233.21	0.206102
1236.59	0.289343
1239.96	0.324817
1243.34	0.523231
1246.71	0.195114
1250.09	0.71934
1253.46	0.578231
1256.84	0.202439
1260.21	0.503836
1263.59	0.204705
1266.96	0.622689
1270.33	0.226683
1273.71	0.417069
1277.08	0.081866
1280.46	0.316079
1283.83	0.286559
