Measurement: Raman, 780 nm, unoriented, Raman Data Processed
Mineral: Hematophanite
Rruff sample: R070638
Ideal chemistry: Pb_4_Fe^3+^_3_O_8_Cl
Locality: Kombat mine, Kombat, Grootfontein District, Otjozondjupa Region, Namibia
Source: William W. Pinch
Description: Submetallic deep red-brown tabular crystals with colorless calcite, also associated with R070639 britvinite
Measured chemistry: Pb_4.00_(Fe^3+^_2.99_Mn^3+^_0.01_)_Î£=3_O_8_Cl_1.00_ ; Mn^3+^ by charge balance
Raman shift (cm-1)	intensity
123.38	0
126.273	21.4688
129.166	158.492
132.059	273.165
134.951	426.813
137.844	537.254
140.737	659.447
143.629	664.137
146.522	743.516
149.415	651.481
152.307	555.655
155.2	405.197
158.093	227.424
160.986	114.007
163.878	45.0088
166.771	3.5979
169.664	29.5161
172.556	20.0132
175.449	11.4851
178.342	48.4207
181.234	35.3035
184.127	25.1963
187.02	6.63477
189.912	69.1409
192.805	162.53
195.698	224.231
198.591	323.386
201.483	430.189
204.376	566.951
207.269	685.76
210.161	758.576
213.054	843.905
215.947	921.392
218.839	955.557
221.732	967.246
224.625	972.164
227.518	949.005
230.41	1045.72
233.303	1172.31
236.196	1360.13
239.088	1644.02
241.981	2011.75
244.874	2517.13
247.767	3201.77
250.659	3970.8
253.552	4970.7
256.445	6102.94
259.337	7153.18
262.23	8114.47
265.123	8790.32
268.015	9086.82
270.908	8624.61
273.801	7541.21
276.693	6275.87
279.586	5006.74
282.479	3806.88
285.372	2900.98
288.264	2128.28
291.157	1561.37
294.05	1134.79
296.942	876.336
299.835	628.773
302.728	495.677
305.62	335.038
308.513	285.999
311.406	220.292
314.299	143.669
317.191	47.3646
320.084	67.8988
322.977	53.5668
325.869	20.9699
328.762	19.1939
331.655	0.381836
334.548	50.4889
337.44	21.235
340.333	31.3426
343.226	15.0509
346.118	27.377
349.011	29.0524
351.904	35.8059
354.796	3.81421
357.689	31.7698
360.582	17.1658
363.474	14.2404
366.367	36.3115
369.26	13.9829
372.153	28.2194
375.045	71.6625
377.938	72.0135
380.831	58.8286
383.723	142.863
386.616	127.813
389.509	167.809
392.401	283.307
395.294	332.534
398.187	383.071
401.08	492.451
403.972	649.956
406.865	784.724
409.758	916.488
412.65	1014.33
415.543	1051.36
418.436	1068.81
421.329	1075.28
424.221	1080.19
427.114	1088.16
430.007	1082.3
432.899	1149.16
435.792	1223.1
438.685	1476.46
441.577	1649.03
444.47	1833.37
447.363	1845.3
450.255	1641.09
453.148	1302.63
456.041	1001.07
458.934	693.767
461.826	500.596
464.719	366.864
467.612	316.748
470.504	302.94
473.397	313.063
476.29	294.569
479.182	290.062
482.075	225.473
484.968	195.047
487.861	161.434
490.753	105.706
493.646	62.6361
496.539	47.6179
499.431	15.3657
502.324	17.6842
505.217	8.98657
508.109	31.7662
511.002	12.2391
513.895	1.2876
516.788	6.59521
519.68	14.6097
522.573	29.6503
525.466	38.547
528.358	51.6002
531.251	70.6544
534.144	106.332
537.036	135.319
539.929	156.778
542.822	161.218
545.715	223.669
548.607	231.788
551.5	258.189
554.393	225.687
557.285	265.472
560.178	228.198
563.071	224.684
565.963	222.783
568.856	189.415
571.749	189.643
574.641	167.974
577.534	184.863
580.427	151.373
583.32	163.286
586.212	144.964
589.105	139.692
591.998	158.589
594.89	102.486
597.783	130.954
600.676	98.9951
603.568	71.6453
606.461	78.8176
609.354	37.5873
612.247	45.4918
615.139	16.0651
618.032	13.5909
620.925	28.5414
623.817	4.46118
626.71	17.3726
629.603	4.17065
632.495	18.1973
635.388	27.9446
638.281	39.0913
641.174	82.6038
644.066	97.0335
646.959	190.62
649.852	288.063
652.744	397.654
655.637	531.874
658.53	667.168
661.423	776.898
664.315	829.691
667.208	773.681
670.101	731.186
672.993	587.261
675.886	473.357
678.779	397.986
681.671	320.584
684.564	239.125
687.457	252.113
690.35	195.485
693.242	180.792
696.135	166.208
699.028	116.354
701.92	84.0958
704.813	68.5397
707.706	54.6241
710.598	29.5443
713.491	23.9221
716.384	36.1026
719.277	36.8408
722.169	29.7422
725.062	0.768066
727.955	11.5765
730.847	4.51636
733.74	18.6111
736.633	12.2369
739.525	13.0487
742.418	25.5336
745.311	15.7355
748.204	1.85803
751.096	14.1807
753.989	21.3016
756.882	2.10309
759.774	21.1202
762.667	6.04663
765.56	16.1409
768.452	21.1309
771.345	5.13397
774.238	43.7729
777.131	20.7175
780.023	26.471
782.916	33.9369
785.809	61.6793
788.701	36.8727
791.594	50.1212
794.487	64.2979
797.38	73.2441
800.272	89.3624
803.165	106.597
806.058	70.7048
808.95	81.1074
811.843	96.8603
814.736	93.0778
817.628	93.9536
820.521	69.1148
823.414	68.8895
826.307	40.2048
829.199	33.3112
832.092	36.6136
834.985	8.72699
837.877	2.5484
840.77	2.1261
843.663	16.8774
846.555	2.66724
849.448	2.9964
852.341	0.915283
855.233	32.4833
858.126	31.8151
861.019	48.7895
863.912	53.1711
866.804	81.995
869.697	89.3942
872.59	82.1458
875.482	101.554
878.375	110.052
881.268	133.852
884.16	136.309
887.053	121.675
889.946	90.4324
892.838	117.853
895.731	96.943
898.624	118.879
901.517	95.6265
904.409	91.9875
907.302	105.083
910.195	64.4853
913.087	83.6853
915.98	56.1138
918.873	48.6684
921.765	46.6409
924.658	23.5722
927.551	30.2388
930.444	11.0231
933.336	15.2682
936.229	14.7637
939.122	27.5856
942.014	5.37067
944.907	6.76782
947.8	9.32886
950.692	0.114746
953.585	8.37811
956.478	8.04865
959.371	0.467896
962.263	0.286499
965.156	20.4783
968.049	29.7913
970.941	21.9698
973.834	24.8942
976.727	27.3326
979.62	31.8992
982.512	43.3392
985.405	74.2694
988.298	66.1172
991.19	66.5717
994.083	95.7669
996.976	80.8997
999.868	57.6912
1002.76	43.2056
1005.65	60.5943
1008.55	37.4966
1011.44	42.9092
1014.33	12.6097
1017.23	36.2378
1020.12	6.32495
1023.01	5.32666
1025.9	24.8544
1028.8	30.6298
1031.69	50.0583
1034.58	102.048
1037.47	116.601
1040.37	156.451
1043.26	116.227
1046.15	110.57
1049.04	84.5835
1051.94	65.7001
1054.83	4.10815
1057.72	3.9668
1060.62	14.0364
1063.51	7.11346
1066.4	10.4526
1069.29	11.885
1072.19	15.6186
1075.08	5.60687
1077.97	28.3522
1080.86	24.0463
1083.76	48.0468
1086.65	27.6414
1089.54	53.1938
1092.43	41.7046
1095.33	58.7438
1098.22	44.8034
1101.11	82.6617
1104.01	66.5042
1106.9	66.249
1109.79	62.0046
1112.68	78.9361
1115.58	61.4601
1118.47	79.989
1121.36	85.7374
1124.26	74.8095
1127.15	66.4836
1130.04	76.413
1132.93	78.5438
1135.83	87.7747
1138.72	59.4922
1141.61	81.4416
1144.5	72.2476
1147.4	62.0774
1150.29	98.0146
1153.18	91.6924
1156.07	82.9745
1158.97	80.5572
1161.86	92.1982
1164.75	93.3225
1167.64	93.6382
1170.54	80.4647
1173.43	88.8796
1176.32	87.7445
1179.22	86.1783
1182.11	79.1577
1185	84.7657
1187.89	55.9109
1190.79	50.4791
1193.68	45.9836
1196.57	40.1791
1199.46	43.8519
1202.36	37.2752
1205.25	16.7699
1208.14	6.55078
1211.04	22.1274
1213.93	2.07013
1216.82	9.86121
1219.71	4.46973
1222.61	2.7467
1225.5	10.1989
1228.39	8.09045
1231.28	1.94464
1234.18	7.48352
1237.07	5.16827
1239.96	9.67987
1242.86	31.6771
1245.75	16.4406
1248.64	19.2777
1251.53	47.7395
1254.43	2.00104
1257.32	12.988
1260.21	9.15991
1263.1	55.5507
1266	22.7595
