Measurement: Raman, 532 nm, unoriented, Raman Data Processed
Mineral: Hematophanite
Rruff sample: R070638
Ideal chemistry: Pb_4_Fe^3+^_3_O_8_Cl
Locality: Kombat mine, Kombat, Grootfontein District, Otjozondjupa Region, Namibia
Source: William W. Pinch
Description: Submetallic deep red-brown tabular crystals with colorless calcite, also associated with R070639 britvinite
Measured chemistry: Pb_4.00_(Fe^3+^_2.99_Mn^3+^_0.01_)_Î£=3_O_8_Cl_1.00_ ; Mn^3+^ by charge balance
Raman shift (cm-1)	intensity
145.679	0
148.572	129.678
151.465	59.907
154.358	125.094
157.25	46.3929
160.143	74.4681
163.036	30.3544
165.928	36.1168
168.821	37.2291
171.714	16.3035
174.607	23.1228
177.499	40.6239
180.392	2.29639
183.285	14.9959
186.177	29.7212
189.07	4.3479
191.963	19.5304
194.855	76.5386
197.748	36.8839
200.641	91.0653
203.534	116.065
206.426	197.581
209.319	233.39
212.212	293.861
215.104	340.295
217.997	386.45
220.89	436.736
223.782	505.336
226.675	545.045
229.568	558.644
232.46	603.782
235.353	650.005
238.246	659.211
241.138	635.981
244.031	602.292
246.924	577.698
249.817	664.651
252.709	632.341
255.602	691.016
258.495	699.724
261.387	706.668
264.28	718.609
267.173	698.644
270.066	647.764
272.958	527.465
275.851	459.684
278.744	360.397
281.636	302.545
284.529	276.288
287.422	136.593
290.314	158.381
293.207	98.7908
296.1	73.9836
298.993	82.3141
301.885	37.791
304.778	58.8464
307.671	5.83875
310.563	27.1559
313.456	52.6728
316.349	26.653
319.241	1.51471
322.134	27.73
325.027	0.663574
327.92	28.4874
330.812	8.29297
333.705	15.9148
336.598	14.3533
339.49	2.93897
342.383	22.3115
345.276	32.0374
348.168	11.6413
351.061	37.171
353.954	27.4503
356.846	11.7297
359.739	4.03619
362.632	13.3102
365.525	19.237
368.417	19.2528
371.31	13.3263
374.203	11.3005
377.095	26.3645
379.988	51.3779
382.881	58.1765
385.774	28.9752
388.666	72.8253
391.559	53.431
394.452	98.174
397.344	95.8729
400.237	116.684
403.13	166.598
406.022	176.964
408.915	244.139
411.808	282.267
414.7	323.644
417.593	452.919
420.486	513.091
423.379	664.12
426.271	870.199
429.164	1102.62
432.057	1388.54
434.949	1789.44
437.842	2227.81
440.735	2623.24
443.627	3010.87
446.52	3186.03
449.413	2984.05
452.306	2470.72
455.198	1922.15
458.091	1444.09
460.984	1034.52
463.876	750.613
466.769	542.881
469.662	388.252
472.555	305.951
475.447	265.069
478.34	172.053
481.233	132.847
484.125	110.469
487.018	90.632
489.911	53.1779
492.803	25.4454
495.696	14.4315
498.589	30.5969
501.481	8.83783
504.374	50.3735
507.267	9.50757
510.16	0.566406
513.052	19.5607
515.945	22.9725
518.838	42.4603
521.73	10.9861
524.623	15.587
527.516	16.8287
530.408	12.41
533.301	7.85053
536.194	49.6102
539.087	7.81152
541.979	7.48975
544.872	14.1046
547.765	20.8896
550.657	26.4491
553.55	18.01
556.443	18.3008
559.335	48.5787
562.228	39.9459
565.121	46.114
568.014	10.956
570.906	43.1954
573.799	43.861
576.692	62.8247
579.584	33.0911
582.477	79.5408
585.37	58.8867
588.263	38.2989
591.155	55.1007
594.048	24.6332
596.941	36.9748
599.833	53.34
602.726	61.5836
605.619	27.8505
608.511	33.4301
611.404	24.3322
614.297	11.3679
617.189	25.519
620.082	35.3928
622.975	5.34088
625.868	20.7833
628.76	51.9188
631.653	39.8551
634.546	44.9042
637.438	79.2925
640.331	81.5275
643.224	67.1332
646.116	104.886
649.009	104.537
651.902	149.565
654.795	165.643
657.687	175.372
660.58	222.323
663.473	233.305
666.365	209.824
669.258	193.631
672.151	136.928
675.043	127.912
677.936	106.165
680.829	95.8467
683.721	101.96
686.614	74.8216
689.507	55.4374
692.4	58.5268
695.292	65.0006
698.185	62.7164
701.078	54.9085
703.97	27.7553
706.863	24.47
709.756	7.5849
712.649	17.6083
715.541	34.4334
718.434	19.5007
721.327	5.35712
724.219	24.473
727.112	42.5505
730.005	38.1587
732.897	26.8185
735.79	9.08844
738.683	20.6267
741.576	12.0378
744.468	8.77612
747.361	12.8798
750.254	26.4053
753.146	4.05182
756.039	3.65472
758.932	20.5685
761.824	22.0279
764.717	8.95691
767.61	32.5999
770.503	21.8447
773.395	17.3249
776.288	23.639
779.181	4.0531
782.073	45.4667
784.966	16.8705
787.859	40.8969
790.751	25.5231
793.644	10.3253
796.537	0.519165
799.429	19.0486
802.322	18.3828
805.215	22.5727
808.108	2.39716
811	27.0876
813.893	9.27026
816.786	2.79053
819.678	57.9642
822.571	37.7058
825.464	19.7867
828.356	21.0663
831.249	35.3285
834.142	39.6879
837.034	10.1715
839.927	0.77417
842.82	25.015
845.713	21.4184
848.605	30.4832
851.498	28.429
854.391	40.7939
857.283	36.6792
860.176	62.7616
863.069	97.9984
865.962	80.9682
868.854	50.4211
871.747	77.009
874.64	92.3198
877.532	84.5915
880.425	77.2376
883.318	64.9934
886.21	89.5367
889.103	102.8
891.996	40.6954
894.889	90.4103
897.781	87.4865
900.674	85.8569
903.567	49.1226
906.459	57.8573
909.352	64.8939
912.245	40.5602
915.138	58.7683
918.03	31.8745
920.923	10.3242
923.816	39.1568
926.708	12.173
929.601	26.6552
932.494	9.47729
935.386	12.7349
938.279	37.1456
941.172	6.69348
944.064	55.9593
946.957	47.7753
949.85	5.89978
952.743	6.49286
955.635	12.6491
958.528	14.6937
961.421	28.7974
964.313	0.22699
967.206	18.881
970.099	9.20782
972.991	24.0373
975.884	29.6581
978.777	24.9587
981.67	20.3406
984.562	11.2269
987.455	52.7457
990.348	35.8997
993.24	48.4115
996.133	52.2264
999.026	60.4651
1001.92	63.4959
1004.81	86.3187
1007.7	71.4269
1010.6	51.3831
1013.49	45.0335
1016.38	67.6513
1019.27	41.7714
1022.17	11.7872
1025.06	45.2768
1027.95	63.4617
1030.85	45.946
1033.74	44.7405
1036.63	42.2782
1039.52	19.5815
1042.42	55.0072
1045.31	14.0412
1048.2	32.7421
1051.09	23.5389
1053.99	3.04211
1056.88	11.3517
1059.77	13.197
1062.66	10.8536
1065.56	17.7298
1068.45	37.9407
1071.34	11.4692
1074.24	52.5186
1077.13	2.06787
1080.02	24.2323
1082.91	1.47681
1085.81	1.50378
1088.7	17.898
1091.59	29.8999
1094.48	6.6795
1097.38	14.9114
1100.27	12.5581
1103.16	9.04718
1106.06	31.1649
1108.95	5.74628
1111.84	32.2643
1114.73	7.13611
1117.63	12.4805
1120.52	9.33582
1123.41	15.5532
1126.3	47.2167
1129.2	59.038
1132.09	62.7989
1134.98	28.2482
1137.88	39.5482
1140.77	33.2379
1143.66	29.8485
1146.55	36.521
1149.45	53.1083
1152.34	20.1814
1155.23	32.3926
1158.12	27.4868
1161.02	0.488525
1163.91	11.7374
1166.8	13.9965
1169.69	40.9879
1172.59	7.27405
1175.48	48.4435
1178.37	4.58191
1181.27	16.3801
1184.16	5.29285
1187.05	18.4976
1189.94	36.7195
1192.84	29.9928
1195.73	49.1249
1198.62	21.0853
1201.52	14.2904
1204.41	67.0196
1207.3	52.2172
1210.19	62.0944
1213.09	39.2584
1215.98	32.3903
1218.87	42.5324
1221.76	56.4965
1224.66	42.2352
1227.55	44.6318
1230.44	44.4603
1233.33	12.8578
1236.23	65.2233
1239.12	63.5493
1242.01	68.2595
1244.9	75.3933
1247.8	77.0209
1250.69	55.2621
1253.58	57.1719
1256.48	65.7754
1259.37	56.9824
1262.26	83.3837
1265.15	54.9813
1268.05	29.6411
1270.94	54.0601
1273.83	47.0629
1276.72	12.3029
1279.62	10.8696
1282.51	17.7279
1285.4	30.7177
