Measurement: Raman, 780 nm, unoriented, Raman Data Processed
Mineral: Hematite
Rruff sample: R060190
Ideal chemistry: Fe_2_O_3_
Locality: Florence mine, Egremont, Cumbria, England
Source: Lloyd Twaites
Description: Red tinged, steel-gray fragment of a botryoidal mass
Measured chemistry: Fe_2.00_O_3_
Raman shift (cm-1)	intensity
150.223	0
153.115	0.083764
156.008	1.41679
158.901	0.452164
161.794	0.507961
164.686	1.29822
167.579	1.96406
170.472	1.71934
173.364	1.14223
176.257	0.880235
179.15	0.059337
182.042	0.163357
184.935	0.573477
187.828	0.325775
190.721	0.688293
193.613	1.46527
196.506	1.52205
199.399	4.94092
202.291	7.26347
205.184	8.03258
208.077	12.5647
210.97	15.5889
213.862	16.468
216.755	16.3044
219.648	16.5256
222.54	16.9742
225.433	16.2376
228.326	12.3158
231.218	6.59318
234.111	6.24616
237.004	5.65197
239.897	7.5092
242.789	8.37428
245.682	7.9596
248.575	5.57734
251.467	2.98326
254.36	3.6599
257.253	5.66865
260.145	8.11815
263.038	11.4634
265.931	16.9264
268.824	20.5997
271.716	27.1412
274.609	33.4068
277.502	37.2139
280.394	43.1765
283.287	49.148
286.18	56.4926
289.072	64.7171
291.965	65.1401
294.858	51.4068
297.75	37.9905
300.643	27.1007
303.536	16.511
306.429	10.6935
309.321	4.43186
312.214	4.6072
315.107	0.628506
317.999	0.23726
320.892	0.376737
323.785	0.417599
326.678	0.353577
329.57	0.324991
332.463	0.223406
335.356	0.313722
338.248	0.259836
341.141	0.01898
344.034	0.842844
346.926	0.117178
349.819	1.3968
352.712	1.5742
355.604	2.30957
358.497	0.775882
361.39	4.00587
364.283	3.71373
367.175	5.25903
370.068	6.62523
372.961	7.96376
375.853	10.3583
378.746	11.3815
381.639	13.2679
384.531	16.1298
387.424	19.088
390.317	21.5129
393.21	26.1967
396.102	28.8845
398.995	33.282
401.888	39.556
404.78	46.1572
407.673	47.7811
410.566	43.5287
413.459	34.5037
416.351	22.745
419.244	13.5264
422.137	8.10947
425.029	6.06876
427.922	3.63707
430.815	3.05368
433.707	1.50715
436.6	1.40319
439.493	0.856466
442.385	0.11256
445.278	0.049242
448.171	0.14148
451.064	0.342808
453.956	0.101386
456.849	0.127046
459.742	0.068743
462.634	0.982673
465.527	0.890516
468.42	2.8877
471.312	2.17302
474.205	3.51435
477.098	2.67142
479.991	4.28315
482.883	5.37932
485.776	6.26666
488.669	6.37843
491.561	6.67355
494.454	6.94879
497.347	5.06665
500.24	5.45568
503.132	4.0717
506.025	2.0859
508.918	1.14939
511.81	1.06393
514.703	0.721282
517.596	0.198559
520.488	0.368872
523.381	0.074957
526.274	0.203926
529.167	0.230748
532.059	0.114245
534.952	0.029013
537.845	0.165312
540.737	0.113602
543.63	0.886741
546.523	0.063187
549.415	0.456018
552.308	0.493361
555.201	0.90051
558.093	1.22823
560.986	1.8178
563.879	0.729918
566.772	2.23922
569.664	2.80293
572.557	2.97959
575.45	3.60428
578.342	3.65115
581.235	5.8759
584.128	6.48452
587.02	7.01255
589.913	8.14667
592.806	9.03804
595.698	11.3329
598.591	13.0118
601.484	14.6909
604.377	17.2143
607.269	19.4537
610.162	18.6862
613.055	15.2305
615.947	12.004
618.84	10.1261
621.733	6.2503
624.625	5.04604
627.518	3.50598
630.411	2.77917
633.304	1.72958
636.196	1.48989
639.089	0.833547
641.982	1.62813
644.875	0.446049
647.767	0.562973
650.66	0.982213
653.553	0.441748
656.445	1.41014
659.338	0.649978
662.231	1.21593
665.123	0.618259
668.016	0.758266
670.909	0.197341
673.802	0.136761
676.694	0.794659
679.587	1.15549
682.48	0.491473
685.372	0.129532
688.265	0.279477
691.158	0.16825
694.05	0.941376
696.943	0.054078
699.836	0.10761
702.729	0.137876
705.621	0.750345
708.514	0.070848
711.407	0.085199
714.299	0.30824
717.192	0.026304
720.085	0.318924
722.977	0.250732
725.87	1.24905
728.763	0.009255
731.655	0.84991
734.548	0.779675
737.441	0.421737
740.334	1.61887
743.226	0.006947
746.119	0.076717
749.012	1.50797
751.904	0.314785
754.797	1.3157
757.69	0.752569
760.582	0.825707
763.475	0.698395
766.368	0.799419
769.261	0.551413
772.153	1.0324
775.046	1.9035
777.939	0.131707
780.831	0.068338
783.724	0.448729
786.617	1.04513
789.51	0.648097
792.402	1.60003
795.295	0.272442
798.188	1.25077
801.08	1.72518
803.973	1.28093
806.866	2.0119
809.758	0.020107
812.651	1.44845
815.544	0.880013
818.437	0.785935
821.329	0.171026
824.222	1.61233
827.115	1.97178
830.007	1.4535
832.9	0.887454
835.793	1.07948
838.685	0.751558
841.578	0.994682
844.471	1.46501
847.364	1.16223
850.256	1.00805
853.149	0.957622
856.042	1.76336
858.934	0.54509
861.827	1.65272
864.72	1.04521
867.612	1.17106
870.505	0.099554
873.398	0.760943
876.29	0.831259
879.183	1.30426
882.076	1.29862
884.969	1.31852
887.861	0.581068
890.754	1.31097
893.647	0.312896
896.539	0.704152
899.432	0.855099
902.325	0.023264
905.217	0.729654
908.11	0.051699
911.003	1.02814
913.896	0.416714
916.788	0.46654
919.681	0.086317
922.574	0.042091
925.466	0.043062
928.359	0.284798
931.252	0.032354
934.144	0.019727
937.037	0.247562
939.93	0.289586
942.822	0.11481
945.715	1.12226
948.608	0.230922
951.501	0.318684
954.393	0.493013
957.286	0.122538
960.179	1.11584
963.071	1.45911
965.964	0.068099
968.857	0.063352
971.75	0.354768
974.642	1.23846
977.535	0.161233
980.428	0.818796
983.32	0.915854
986.213	0.622806
989.106	0.15779
991.998	0.711781
994.891	0.347468
997.784	0.238297
1000.68	0.458375
1003.57	0.967814
1006.46	0.90579
1009.36	0.338258
1012.25	0.954557
1015.14	0.949212
1018.03	0.005254
1020.92	0.691765
1023.82	0.757893
1026.71	1.03574
1029.6	0.833228
1032.5	1.14724
1035.39	0.258954
1038.28	0.7353
1041.17	0.341343
1044.07	0.537382
1046.96	0.762051
1049.85	1.05902
1052.74	1.03166
1055.64	0.151692
1058.53	0.733908
1061.42	0.511951
1064.32	1.52406
1067.21	1.64732
1070.1	1.45487
1072.99	0.702924
1075.89	0.829945
1078.78	0.446687
1081.67	1.2101
1084.57	0.762196
1087.46	0.566806
1090.35	1.0102
1093.24	0.100623
1096.14	0.155545
1099.03	0.975347
1101.92	1.03977
1104.81	0.066218
1107.71	0.991214
1110.6	1.06478
1113.49	0.63978
1116.38	0.837162
1119.28	0.073616
1122.17	0.120762
1125.06	0.492535
1127.95	1.37931
1130.85	1.02736
1133.74	0.457589
1136.63	0.617151
1139.53	0.131415
1142.42	1.62882
1145.31	0.159493
1148.2	1.26483
1151.1	0.745104
1153.99	0.748805
1156.88	0.728056
1159.78	1.32525
1162.67	0.765726
1165.56	2.28975
1168.45	0.902824
1171.35	1.16408
1174.24	0.791564
1177.13	1.35152
1180.02	1.28737
1182.92	0.550036
1185.81	1.85678
1188.7	1.44162
1191.6	1.14741
1194.49	1.84512
1197.38	0.526232
1200.27	1.65872
1203.17	1.16149
1206.06	0.472873
1208.95	1.21244
1211.84	0.117408
1214.74	0.013166
1217.63	0.744697
1220.52	1.73332
1223.41	0.64888
1226.31	0.949864
1229.2	0.380147
1232.09	1.03808
1234.98	1.17181
1237.88	0.434911
1240.77	1.2435
1243.66	0.875191
1246.56	0.389401
1249.45	0.566084
1252.34	0.389317
1255.23	1.40985
1258.13	1.29633
1261.02	0.050257
1263.91	0.683272
1266.81	0.856237
1269.7	0.69395
1272.59	0.210891
1275.48	0.351084
1278.38	0.297812
1281.27	0.173739
1284.16	1.28425
