Measurement: Raman, 780 nm, unoriented, Raman Data Processed
Mineral: Hematite
Rruff sample: R110013
Ideal chemistry: Fe_2_O_3_
Locality: Itabira, Minas Gerais, Brazil
Source: University of Arizona Mineral Museum
Description: A group of black lustrous euhedral crystals
Measured chemistry: Fe_2_O_3_ ; (Pure phase as determined by WDS analysis)
Raman shift (cm-1)	intensity
144.12	0
147.013	5.37378
149.906	5.29851
152.798	21.0373
155.691	17.1077
158.584	8.43303
161.477	11.5544
164.369	18.6287
167.262	14.3512
170.155	7.61853
173.047	5.45149
175.94	3.21248
178.833	0.83786
181.726	0.437225
184.618	2.78124
187.511	4.67639
190.404	3.18436
193.296	4.42482
196.189	9.21919
199.082	0.937515
201.974	1.94093
204.867	16.8945
207.76	38.4829
210.652	68.0829
213.545	116.336
216.438	218.691
219.331	486.997
222.223	1565.26
225.116	5135.93
228.009	3181.77
230.901	657.197
233.794	277.114
236.687	209.277
239.579	290.634
242.472	764.929
245.365	1360.95
248.257	461.365
251.15	145.363
254.043	81.183
256.936	65.4342
259.828	69.0114
262.721	85.1046
265.614	115.547
268.506	160.834
271.399	242.01
274.292	361.502
277.185	522.645
280.077	781.337
282.97	1270.87
285.863	2501.04
288.755	6105.29
291.648	13008.8
294.541	9756.42
297.433	5902.07
300.326	4120.79
303.219	1983.65
306.111	1031.19
309.004	605.502
311.897	377.02
314.79	251.763
317.682	162.993
320.575	112.296
323.468	73.7204
326.36	47.5165
329.253	26.0618
332.146	12.1969
335.038	0.032394
337.931	3.52916
340.824	4.86983
343.717	8.13376
346.609	10.0381
349.502	6.97215
352.395	5.28619
355.287	1.9707
358.18	2.72472
361.073	9.24587
363.965	23.2015
366.858	35.614
369.751	55.1531
372.644	70.7631
375.536	94.541
378.429	121.415
381.322	159.41
384.214	205.817
387.107	259.472
390	334.929
392.892	447.401
395.785	633.204
398.678	944.894
401.57	1506.02
404.463	2608.69
407.356	4564.69
410.249	6458.12
413.141	5625.75
416.034	3305.87
418.927	1775.52
421.819	1029.32
424.712	617.839
427.605	401.749
430.498	269.212
433.39	186.507
436.283	125.879
439.176	84.2156
442.068	56.7684
444.961	33.4984
447.854	18.7908
450.746	11.2771
453.639	5.02255
456.532	3.26154
459.425	6.1702
462.317	3.70587
465.21	4.19467
468.103	20.9063
470.995	43.4883
473.888	74.7669
476.781	120.11
479.673	183.174
482.566	269.175
485.459	378.427
488.351	530.54
491.244	699.146
494.137	888.199
497.029	969.635
499.922	859.377
502.815	619.622
505.708	390.162
508.6	232.908
511.493	129.042
514.386	67.9213
517.278	34.8617
520.171	10.5863
523.064	0.968521
525.957	9.40419
528.849	8.59221
531.742	5.22456
534.635	7.3085
537.527	6.54292
540.42	2.3922
543.313	8.16269
546.205	17.5242
549.098	28.7367
551.991	43.3509
554.884	60.1612
557.776	70.0739
560.669	79.248
563.562	80.9594
566.454	86.9196
569.347	100.089
572.24	119.413
575.132	134.778
578.025	147.106
580.918	165.252
583.811	182.422
586.703	210.448
589.596	258.154
592.489	328.412
595.381	443.747
598.274	620.163
601.167	922.442
604.059	1413.77
606.952	2200.45
609.845	3081.98
612.737	3258.66
615.63	2459.94
618.523	1537.23
621.416	948.455
624.308	604.886
627.201	404.03
630.094	279.188
632.986	196.949
635.879	137.923
638.772	95.6996
641.664	63.6322
644.557	44.8261
647.45	31.5611
650.342	24.8402
653.235	17.4835
656.128	13.7977
659.021	14.896
661.913	11.4879
664.806	10.1035
667.699	9.31619
670.591	7.78969
673.484	9.418
676.377	7.19334
679.269	6.71658
682.162	5.15216
685.055	5.34253
687.948	3.69536
690.84	2.06796
693.733	0.699402
696.626	1.26314
699.518	1.13394
702.411	2.07887
705.304	2.79587
708.197	3.76852
711.089	3.04508
713.982	3.86832
716.875	4.38647
719.767	2.54271
722.66	0.049202
725.553	0.149292
728.445	3.32314
731.338	4.74852
734.231	4.30213
737.124	8.43722
740.016	11.937
742.909	15.6291
745.802	20.0484
748.694	21.7858
751.587	20.9999
754.48	27.0316
757.372	29.3211
760.265	26.6965
763.158	21.8294
766.051	21.995
768.943	22.2913
771.836	18.5304
774.729	15.3346
777.621	13.5714
780.514	12.4362
783.407	12.216
786.299	10.1229
789.192	12.956
792.085	19.6091
794.977	25.1282
797.87	25.3339
800.763	29.8774
803.655	37.6874
806.548	44.9617
809.441	50.2007
812.334	54.6712
815.226	55.9261
818.119	56.4607
821.012	50.8679
823.904	49.6678
826.797	37.4775
829.69	32.2709
832.582	29.0898
835.475	23.5499
838.368	16.3568
841.261	16.2735
844.153	10.4264
847.046	10.8796
849.939	4.16104
852.831	3.36705
855.724	3.91888
858.617	4.79869
861.51	1.46228
864.402	1.74606
867.295	1.18411
870.188	1.39781
873.08	0.654404
875.973	4.09818
878.866	2.61862
881.758	1.92851
884.651	4.58533
887.544	2.14488
890.437	4.41058
893.329	4.39154
896.222	0.556412
899.115	2.01828
902.007	2.91086
904.9	2.07375
907.793	5.77066
910.685	2.59192
913.578	4.13753
916.471	3.77674
919.364	4.50918
922.256	8.59619
925.149	3.85967
928.042	1.74651
930.934	3.57046
933.827	1.02637
936.72	3.94205
939.612	4.49413
942.505	4.55925
945.398	7.15865
948.29	7.6461
951.183	9.39448
954.076	12.0443
956.968	10.4714
959.861	9.3009
962.754	7.63452
965.647	4.04742
968.539	5.41135
971.432	3.54269
974.325	1.98541
977.217	0.383469
980.11	1.07671
983.003	0.226204
985.895	1.32231
988.788	0.977135
991.681	1.64017
994.574	0.042343
997.466	0.148155
1000.36	0.491806
1003.25	1.24539
1006.14	1.07674
1009.04	0.301659
1011.93	3.55869
1014.82	5.09644
1017.72	8.18967
1020.61	9.40826
1023.5	14.5367
1026.39	24.779
1029.29	28.7081
1032.18	37.814
1035.07	42.5927
1037.96	44.35
1040.86	49.9029
1043.75	51.9385
1046.64	55.2055
1049.54	53.2401
1052.43	51.6066
1055.32	49.8187
1058.21	51.5581
1061.11	47.9992
1064	49.2215
1066.89	43.8376
1069.78	42.5535
1072.68	41.1252
1075.57	38.5988
1078.46	36.6012
1081.35	37.7199
1084.25	34.6784
1087.14	35.8513
1090.03	38.0499
1092.92	38.4841
1095.82	36.168
1098.71	35.3884
1101.6	35.786
1104.5	35.1158
1107.39	37.1402
1110.28	33.15
1113.17	29.1247
1116.07	25.9604
1118.96	22.2616
1121.85	17.5652
1124.74	13.3355
1127.64	17.7803
1130.53	7.60463
1133.42	3.4422
1136.32	0.212585
1139.21	1.33412
1142.1	1.85419
1144.99	1.15668
1147.89	1.07381
1150.78	2.66177
1153.67	2.63649
1156.57	0.121368
1159.46	1.45698
1162.35	5.21622
1165.24	3.45363
1168.13	8.01909
1171.03	13.7626
1173.92	24.4395
1176.81	22.1825
1179.71	30.0993
1182.6	26.9913
1185.49	24.8283
1188.38	24.9799
1191.28	28.0007
1194.17	25.2771
1197.06	28.0305
1199.95	21.7308
1202.85	21.8292
1205.74	14.8568
1208.63	16.1274
1211.53	12.7514
1214.42	8.74313
1217.31	10.312
1220.2	3.11993
1223.1	0.422775
1225.99	1.53238
1228.88	0.197891
1231.78	3.07667
1234.67	3.79932
1237.56	6.64731
1240.45	9.05005
1243.35	9.03711
1246.24	16.3737
1249.13	15.9234
1252.02	19.1778
1254.92	23.6584
1257.81	21.1453
1260.7	23.3836
1263.59	13.9288
1266.49	15.2456
1269.38	11.4306
1272.27	11.7427
1275.16	7.15918
1278.06	4.45065
1280.95	4.34744
1283.84	1.55045
