Measurement: Raman, 785 nm, unoriented, Raman Data Processed
Mineral: Hematite
Rruff sample: R060190
Ideal chemistry: Fe_2_O_3_
Locality: Florence mine, Egremont, Cumbria, England
Source: Lloyd Twaites
Description: Red tinged, steel-gray fragment of a botryoidal mass
Measured chemistry: Fe_2.00_O_3_
Raman shift (cm-1)	intensity
182.866	0
185.759	0.391
188.652	16.055
191.544	10.174
194.437	1.563
197.33	5.934
200.222	22.601
203.115	9.847
206.008	25.38
208.9	38.703
211.793	70.182
214.686	155.403
217.579	340.093
220.471	653.818
223.364	1037.06
226.257	1237.66
229.149	493.778
232.042	176.038
234.935	127.673
237.827	166.576
240.72	238.673
243.613	329.533
246.505	325.898
249.398	139.131
252.291	65.779
255.184	45.631
258.076	47.504
260.969	60.92
263.862	82.882
266.754	129.302
269.647	170.592
272.54	229.242
275.432	343.497
278.325	504.488
281.218	855.838
284.111	1472.95
287.003	2401.98
289.896	3372.56
292.789	3757.45
295.681	2768.91
298.574	2248.36
301.467	1599.11
304.359	979.399
307.252	599.682
310.145	376.184
313.038	233.225
315.93	143.26
318.823	73.218
321.716	51.936
324.608	23.136
327.501	34.335
330.394	28.332
333.286	6.143
336.179	3.034
339.072	2.495
341.965	6.271
344.857	1.993
347.75	11.213
350.643	17.298
353.535	17.496
356.428	15.686
359.321	9.231
362.214	9.192
365.106	12.25
367.999	30.261
370.892	43.284
373.784	77.469
376.677	85.296
379.57	102.788
382.462	118.765
385.355	153.465
388.248	192.923
391.14	266.936
394.033	387.533
396.926	611.984
399.819	917.516
402.711	1371.28
405.604	1984.58
408.497	2422.4
411.389	2415.4
414.282	1851.9
417.175	1170.93
420.067	696.205
422.96	438.794
425.853	281.481
428.746	185.436
431.638	126.993
434.531	95.304
437.424	44.931
440.316	65.736
443.209	19.97
446.102	11.849
448.994	27.887
451.887	16.78
454.78	5.613
457.672	11.91
460.565	7.983
463.458	4.682
466.351	9.708
469.243	8.357
472.136	38.381
475.029	25.517
477.921	67.294
480.814	115.554
483.707	127.565
486.599	184.843
489.492	233.694
492.385	275.635
495.278	303.191
498.17	276.9
501.063	218.628
503.956	161.997
506.848	117.836
509.741	62.054
512.634	48.271
515.526	17.106
518.419	14.203
521.312	15.087
524.205	5.094
527.097	0.194
529.99	2.397
532.883	10.795
535.775	5.952
538.668	11.206
541.561	12.734
544.453	2.457
547.346	19.049
550.239	18.23
553.132	11.541
556.024	34.501
558.917	42.76
561.81	38.934
564.702	46.116
567.595	47.345
570.488	46.263
573.38	42.633
576.273	54.921
579.166	92.834
582.059	78.936
584.951	108.111
587.844	132.465
590.737	173.095
593.629	231.216
596.522	270.901
599.415	392.278
602.307	548.061
605.2	720.103
608.093	888.159
610.986	962.154
613.878	849.776
616.771	645.618
619.664	455.608
622.556	299.06
625.449	205.081
628.342	152.624
631.234	103.432
634.127	65.958
637.02	43.143
639.913	47.169
642.805	31.518
645.698	24.176
648.591	45.935
651.483	8.939
654.376	30.224
657.269	27.506
660.161	43.051
663.054	43.858
665.947	15.061
668.839	14.743
671.732	24.887
674.625	14.587
677.518	18.685
680.41	3.691
683.303	6.78
686.196	5.109
689.088	5.67
691.981	10.177
694.874	8.172
697.766	1.7
700.659	20.983
703.552	9.936
706.445	3.596
709.337	6.423
712.23	4.766
715.123	2.978
718.015	3.536
720.908	24.768
723.801	11.568
726.693	8.914
729.586	15.207
732.479	12.911
735.372	10.303
738.264	6.971
741.157	4.179
744.05	32.562
746.942	4.186
749.835	28.165
752.728	4.53
755.62	13.996
758.513	18.754
761.406	19.131
764.299	5.262
767.191	16.253
770.084	14.239
772.977	19.111
775.869	4.665
778.762	6.272
781.655	9.703
784.547	28.664
787.44	35.679
790.333	28.016
793.226	27.206
796.118	26.189
799.011	23.649
801.904	28.841
804.796	5.767
807.689	29.393
810.582	38.815
813.474	41.633
816.367	32.094
819.26	37.612
822.153	34.203
825.045	25.291
827.938	21.635
830.831	19.388
833.723	3.772
836.616	27.513
839.509	23.904
842.401	2.785
845.294	16.996
848.187	0.926
851.08	15.222
853.972	12.606
856.865	27.273
859.758	6.515
862.65	15.668
865.543	8.053
868.436	8.403
871.328	19.597
874.221	21.96
877.114	0.896
880.007	20.451
882.899	18.501
885.792	6.656
888.685	14.581
891.577	11.976
894.47	18.844
897.363	13.318
900.255	8.977
903.148	22.289
906.041	24.811
908.934	35.212
911.826	7.152
914.719	19.033
917.612	30.563
920.504	19.226
923.397	14.493
926.29	4.125
929.182	3.453
932.075	7.554
934.968	23.702
937.861	12.177
940.753	8.958
943.646	22.17
946.539	15.874
949.431	15.042
952.324	21.919
955.217	2.429
958.109	19.409
961.002	8.81
963.895	16.677
966.788	11.883
969.68	4.671
972.573	7.86
975.466	21.22
978.358	5.653
981.251	2.019
984.144	13.283
987.036	6.975
989.929	4.052
992.822	3.782
995.715	6.272
998.607	5.818
1001.5	0.149
1004.39	9.915
1007.28	7.231
1010.18	6.678
1013.07	2.551
1015.96	5.286
1018.86	0.119
1021.75	5.16
1024.64	33.326
1027.53	6.975
1030.43	20.874
1033.32	40.875
1036.21	16.35
1039.11	26.659
1042	40.822
1044.89	11.891
1047.78	20.11
1050.68	30.012
1053.57	22.228
1056.46	17.467
1059.35	4.312
1062.25	11.299
1065.14	11.028
1068.03	21.723
1070.92	16.367
1073.82	25.788
1076.71	14.083
1079.6	10.137
1082.49	24.719
1085.39	11.248
1088.28	14.099
1091.17	13.061
1094.07	22.996
1096.96	20.018
1099.85	23.786
1102.74	12.558
1105.64	9.764
1108.53	13.216
1111.42	17.83
1114.32	24.043
1117.21	6.02
1120.1	22.187
1122.99	2.125
1125.89	31.419
1128.78	2.921
1131.67	21.83
1134.56	16.88
1137.46	4.173
1140.35	1.581
1143.24	15.173
1146.13	3.716
1149.03	22.268
1151.92	2.966
1154.81	20.374
1157.71	0.596
1160.6	14.315
1163.49	6.79
1166.38	9.403
1169.28	7.224
1172.17	17.504
1175.06	19.405
1177.95	26.883
1180.85	4.218
1183.74	23.798
1186.63	22.571
1189.53	5.13
1192.42	5.067
1195.31	19.185
1198.2	0.274
1201.1	18.011
1203.99	16.153
1206.88	9.763
1209.77	11.983
1212.67	3.451
1215.56	15.823
1218.45	9.557
1221.35	23.868
1224.24	31.806
1227.13	6.377
1230.02	22.682
1232.92	0.634
1235.81	14.834
1238.7	11.054
1241.59	4.606
1244.49	12.232
1247.38	11.162
1250.27	27.68
1253.16	22.506
1256.06	1.423
1258.95	18.846
1261.84	8.266
1264.74	11.86
1267.63	0.805
