Measurement: Raman, 532 nm, unoriented, Raman Data Processed
Mineral: Hematite
Rruff sample: R050300
Ideal chemistry: Fe_2_O_3_
Locality: Argentina
Source: Eugene Schlepp
Description: Pseudomorph after magnetite
Measured chemistry: Fe_2.00_O_3_
Raman shift (cm-1)	intensity
126.102	0
129.476	0.874974
132.851	0.43193
136.226	0.899283
139.601	1.39157
142.976	0.182075
146.351	0.390548
149.725	0.446187
153.1	0.357428
156.475	0.590684
159.85	0.263676
163.225	0.401742
166.6	0.132922
169.974	0.330377
173.349	0.121405
176.724	0.182654
180.099	0.132158
183.474	0.16799
186.848	0.007854
190.223	0.332243
193.598	0.069156
196.973	0.142192
200.348	0.554756
203.722	1.02495
207.097	4.11957
210.472	7.30486
213.847	9.80561
217.222	12.125
220.596	17.2201
223.971	31.3945
227.346	34.8802
230.721	9.7827
234.096	4.84216
237.471	3.52912
240.845	4.30964
244.22	5.5908
247.595	4.56911
250.97	1.30791
254.345	1.1096
257.719	0.53228
261.094	0.980933
264.469	0.610376
267.844	1.82121
271.219	2.33575
274.594	5.41162
277.968	7.93004
281.343	11.0081
284.718	14.3902
288.093	21.1324
291.468	28.2697
294.842	23.0088
298.217	17.2855
301.592	12.3914
304.967	6.17671
308.342	3.72202
311.717	2.01309
315.091	1.43637
318.466	0.711981
321.841	0.41992
325.216	0.142812
328.591	0.146978
331.966	0.26473
335.34	0.140667
338.715	0.099442
342.09	0.003919
345.465	0.233295
348.84	0.307805
352.214	0.150746
355.589	0.229282
358.964	0.017964
362.339	0.398555
365.714	0.331357
369.089	0.429771
372.463	0.707146
375.838	0.483695
379.213	0.621795
382.588	1.408
385.963	1.21029
389.337	1.65455
392.712	2.43656
396.087	2.83756
399.462	4.42922
402.837	5.85985
406.212	7.29818
409.586	9.22341
412.961	8.16866
416.336	4.53523
419.711	2.64845
423.086	1.30814
426.46	0.848649
429.835	0.640623
433.21	0.681657
436.585	0.348496
439.96	0.475342
443.334	0.229347
446.709	0.180774
450.084	0.01439
453.459	0.002076
456.834	0.072134
460.209	0.011137
463.583	0.326933
466.958	0.240274
470.333	0.349723
473.708	0.312263
477.083	0.808572
480.457	0.976114
483.832	1.8054
487.207	2.6482
490.582	3.68812
493.957	4.76752
497.332	4.95132
500.706	5.39282
504.081	4.59077
507.456	2.78067
510.831	2.14721
514.206	1.44936
517.58	0.885624
520.955	0.84118
524.33	0.455971
527.705	0.44682
531.08	0.409247
534.455	0.253286
537.829	0.045435
541.204	0.057118
544.579	0.107656
547.954	0.000181
551.329	0.090164
554.703	0.020872
558.078	0.029254
561.453	0.084502
564.828	0.348377
568.203	0.145568
571.577	0.061266
574.952	0.023966
578.327	0.178819
581.702	0.461391
585.077	0.481337
588.452	0.518228
591.826	0.773921
595.201	1.15462
598.576	1.48778
601.951	2.54463
605.326	3.12872
608.7	3.63613
612.075	3.83292
615.45	3.22693
618.825	2.24372
622.2	1.26746
625.574	1.12001
628.949	1.36982
632.324	1.53198
635.699	1.31757
639.074	1.60911
642.449	2.71862
645.823	3.09188
649.198	3.92225
652.573	4.77942
655.948	5.65271
659.323	5.92277
662.697	5.47201
666.072	4.64001
669.447	4.03353
672.822	2.62192
676.197	2.28492
679.572	1.491
682.946	1.6984
686.321	1.20469
689.696	0.942441
693.071	0.587447
696.446	0.801526
699.821	0.509548
703.195	0.200836
706.57	0.146963
709.945	0.241903
713.32	0.290254
716.695	0.10498
720.069	0.102111
723.444	0.202996
726.819	0.234818
730.194	0.2074
733.569	0.39832
736.943	0.003508
740.318	0.118587
743.693	0.473512
747.068	0.224331
750.443	0.064478
753.818	0.16462
757.192	0.328079
760.567	0.410474
763.942	0.468429
767.317	0.493529
770.692	0.187769
774.067	0.393012
777.441	0.164457
780.816	0.642066
784.191	0.280678
787.566	0.738218
790.941	0.632917
794.315	0.891529
797.69	0.79343
801.065	1.36559
804.44	1.91741
807.815	1.46503
811.189	1.77779
814.564	1.98508
817.939	2.12601
821.314	1.9723
824.689	1.74303
828.063	1.38248
831.438	1.52324
834.813	1.01134
838.188	0.887478
841.563	0.728566
844.938	0.771833
848.312	0.404387
851.687	0.563054
855.062	0.257624
858.437	0.328102
861.812	0.504539
865.187	0.331223
868.561	0.080162
871.936	0.096593
875.311	0.042284
878.686	0.19881
882.061	0.058412
885.435	0.461472
888.81	0.137719
892.185	0.008662
895.56	0.237346
898.935	0.38196
902.309	0.171499
905.684	0.183258
909.059	0.120759
912.434	0.267556
915.809	0.158164
919.184	0.594887
922.558	0.319564
925.933	0.004314
929.308	0.257828
932.683	0.478081
936.058	0.327668
939.433	0.466536
942.807	0.29527
946.182	0.947874
949.557	0.636862
952.932	0.852691
956.307	0.953271
959.681	0.764424
963.056	0.789832
966.431	0.305501
969.806	0.449523
973.181	0.253577
976.556	0.094951
979.93	0.118486
983.305	0.241862
986.68	0.002563
990.055	0.107129
993.43	0.320255
996.804	0.008371
1000.18	0.043458
1003.55	0.042431
1006.93	0.071543
1010.3	0.529686
1013.68	0.250186
1017.05	0.647846
1020.43	0.935846
1023.8	1.37363
1027.18	1.37375
1030.55	2.41813
1033.93	2.32774
1037.3	3.30844
1040.68	3.22612
1044.05	3.01173
1047.43	3.0625
1050.8	2.91867
1054.18	3.09697
1057.55	3.42614
1060.93	2.52539
1064.3	2.85189
1067.68	2.24868
1071.05	2.42643
1074.42	2.25267
1077.8	2.40271
1081.17	2.33723
1084.55	1.89239
1087.92	1.78227
1091.3	2.45102
1094.67	2.04802
1098.05	2.3985
1101.42	2.07818
1104.8	2.25537
1108.17	2.40383
1111.55	1.99665
1114.92	2.29024
1118.3	1.64486
1121.67	1.6141
1125.05	1.39474
1128.42	0.785253
1131.8	0.735609
1135.17	0.024022
1138.55	0.245584
1141.92	0.190434
1145.3	0.139769
1148.67	0.315717
1152.05	0.258451
1155.42	0.641253
1158.8	0.06966
1162.17	0.255461
1165.55	1.01947
1168.92	0.969211
1172.3	1.26259
1175.67	1.23585
1179.04	2.1599
1182.42	1.58538
1185.79	1.78065
1189.17	1.85764
1192.54	2.57181
1195.92	2.82678
1199.29	2.39299
1202.67	2.45089
1206.04	2.61393
1209.42	2.50505
1212.79	1.7967
1216.17	1.60738
1219.54	1.64387
1222.92	1.25511
1226.29	1.41552
1229.67	0.87702
1233.04	0.663363
1236.42	0.822676
1239.79	0.730309
1243.17	0.05368
1246.54	0.138094
1249.92	0.26366
1253.29	0.106522
1256.66	1.28835
1260.04	1.95842
1263.41	2.16625
1266.79	1.57803
1270.16	2.17108
1273.54	1.96529
1276.91	1.76578
1280.29	0.599537
1283.66	0.405117
1287.04	0.624203
1290.41	0.527882
1293.79	0.3097
1297.16	0.297558
1300.54	0.162941
1303.91	0.041565
