Measurement: Raman, 785 nm, unoriented, Raman Data Processed
Mineral: Hematite
Rruff sample: R040024
Ideal chemistry: Fe_2_O_3_
Locality: near Covered Wells, Papago Indian Reservation, Arizona, USA
Source: University of Arizona Mineral Museum
Description: Reddish-black foliatated mass
Measured chemistry: (Fe_1.99_Al_0.01_)_Î£=2_O_3_
Raman shift (cm-1)	intensity
206.862	0
209.755	14.738
212.648	15.722
215.54	59.374
218.433	172.234
221.326	286.885
224.218	238.2
227.111	103.313
230.004	53.469
232.896	58.514
235.789	92.008
238.682	194.887
241.574	228.587
244.467	204.656
247.36	226.459
250.253	115.573
253.145	68.442
256.038	20.847
258.931	28.77
261.823	76.542
264.716	67.423
267.609	132.094
270.501	150.909
273.394	229.84
276.287	346.958
279.18	509.98
282.072	867.877
284.965	1231.65
287.858	1694.42
290.75	2150.79
293.643	2270.79
296.536	2009.03
299.429	1399.86
302.321	949.18
305.214	587.487
308.107	436.011
310.999	322.994
313.892	219.356
316.785	100.189
319.677	133.71
322.57	45.345
325.463	21.688
328.356	35.03
331.248	19.809
334.141	3.742
337.034	15.811
339.926	21.744
342.819	11.832
345.712	7.402
348.604	12.646
351.497	9.817
354.39	63.378
357.283	27.024
360.175	77.019
363.068	66.34
365.961	71.286
368.853	106.078
371.746	162.687
374.639	223.669
377.531	317.583
380.424	399.766
383.317	491.832
386.21	608.037
389.102	801.271
391.995	1115.02
394.888	1592.94
397.78	2214.26
400.673	2885.1
403.566	3476.13
406.459	3636.84
409.351	3263.03
412.244	2459.68
415.137	1684.49
418.029	1140.15
420.922	775.101
423.815	552.637
426.707	384.465
429.6	245.553
432.493	187.589
435.386	102.504
438.278	75.992
441.171	55.15
444.064	52.589
446.956	49.654
449.849	36.254
452.742	0.678
455.634	18.932
458.527	25.901
461.42	15.413
464.313	2.844
467.205	38.276
470.098	55.419
472.991	50.074
475.883	83.291
478.776	114.795
481.669	164.186
484.561	207.761
487.454	232.358
490.347	253.552
493.24	243.386
496.132	217.565
499.025	203.523
501.918	182.53
504.81	95.562
507.703	59.198
510.596	30.273
513.489	22.751
516.381	29.398
519.274	1.71
522.167	6.659
525.059	26.09
527.952	3.315
530.845	30.202
533.737	5.033
536.63	6.961
539.523	53.396
542.416	14.343
545.308	37.898
548.201	62.57
551.094	2.158
553.986	62.966
556.879	36.717
559.772	54.655
562.664	95.765
565.557	126.067
568.45	95.291
571.343	118.497
574.235	140.34
577.128	141.813
580.021	227.737
582.913	252.668
585.806	329.119
588.699	454.093
591.591	521.864
594.484	653.857
597.377	875.691
600.27	1076.3
603.162	1255.75
606.055	1266.49
608.948	1212.57
611.84	1009.68
614.733	778.931
617.626	586.932
620.518	413.784
623.411	316.724
626.304	198.8
629.197	170.844
632.089	143.02
634.982	57.205
637.875	48.415
640.768	44.944
643.66	79.773
646.553	27.522
649.446	15.836
652.338	28.666
655.231	62.503
658.124	74.351
661.016	50.065
663.909	30.497
666.802	33.941
669.695	25.126
672.587	28.266
675.48	30.634
678.373	43.751
681.265	22.995
684.158	22.742
687.051	1.74
689.943	7.495
692.836	8.424
695.729	8.092
698.622	22.325
701.514	12.191
704.407	12.027
707.3	1.277
710.192	8.873
713.085	28.355
715.978	31.826
718.87	14.989
721.763	23.4
724.656	38.357
727.549	40.763
730.441	19.363
733.334	55.245
736.227	16.116
739.119	23.164
742.012	25
744.905	42.972
747.797	34.438
750.69	80.832
753.583	67.592
756.476	48.174
759.368	50.849
762.261	33.837
765.154	40.16
768.046	10.343
770.939	30.227
773.832	14.763
776.724	47.625
779.617	41.228
782.51	73.642
785.403	18.593
788.295	63.873
791.188	52.282
794.081	58.252
796.973	80.243
799.866	54.287
802.759	35.037
805.651	66.966
808.544	56.91
811.437	76.606
814.33	62.391
817.222	49.63
820.115	67.573
823.008	100.111
825.9	14.292
828.793	50.801
831.686	60.902
834.578	52.153
837.471	76.456
840.364	44.385
843.257	53.264
846.149	34.665
849.042	27.378
851.935	53.72
854.827	28.817
857.72	8.358
860.613	56.849
863.505	27.716
866.398	29.023
869.291	12.539
872.184	28.583
875.076	25.283
877.969	36.566
880.862	29.519
883.755	33.45
886.647	35.984
889.54	3.317
892.433	35.231
895.325	10.57
898.218	11.306
901.111	8.933
904.003	12.44
906.896	38.69
909.789	6.492
912.682	21.598
915.574	53.672
918.467	1.312
921.36	21.036
924.252	2.298
927.145	34.937
930.038	2.963
932.93	4.05
935.823	3.219
938.716	22.648
941.609	15.619
944.501	50.6
947.394	10.551
950.287	11.434
953.179	2.367
956.072	15.179
958.965	2.629
961.857	21.316
964.75	25.157
967.643	36.857
970.536	40.996
973.428	17.817
976.321	39.801
979.214	24.248
982.106	32.754
984.999	2.12
987.892	27.079
990.784	22.704
993.677	5.354
996.57	3.555
999.463	10.356
1002.36	39.634
1005.25	4.66
1008.14	34.009
1011.03	45.281
1013.93	17.569
1016.82	41.51
1019.71	21.681
1022.6	4.488
1025.5	0.606
1028.39	2.244
1031.28	32.121
1034.17	23.609
1037.07	7.814
1039.96	31.683
1042.85	30.21
1045.75	45.243
1048.64	37.443
1051.53	66.336
1054.42	14.912
1057.32	76.617
1060.21	19.938
1063.1	48.232
1065.99	28.706
1068.89	33.804
1071.78	14.39
1074.67	52.032
1077.57	44.563
1080.46	20.499
1083.35	44.7
1086.24	40.968
1089.14	18.495
1092.03	33.001
1094.92	18.323
1097.81	42.337
1100.71	22.626
1103.6	32.261
1106.49	21.004
1109.38	24.787
1112.28	15.279
1115.17	22.113
1118.06	35.908
1120.96	33.427
1123.85	17.035
1126.74	25.921
1129.63	10.304
1132.53	28.679
1135.42	19.467
1138.31	27.107
1141.2	15.183
1144.1	27.37
1146.99	33.562
1149.88	37.568
1152.78	25.075
1155.67	24.141
1158.56	20.206
1161.45	64.142
1164.35	57.005
1167.24	21.739
1170.13	50.295
1173.03	55.709
1175.92	33.62
1178.81	10.996
1181.7	29.085
1184.6	40.595
1187.49	41.774
1190.38	14.352
1193.27	38.839
1196.17	27.853
1199.06	1.414
1201.95	62.581
1204.84	16.829
1207.74	50.614
1210.63	55.37
1213.52	33.693
1216.41	48.409
1219.31	43.776
1222.2	43.818
1225.09	15.673
1227.99	29.32
1230.88	30.504
1233.77	21.816
1236.66	6.943
1239.56	21.925
1242.45	24.317
1245.34	48.107
1248.23	28.488
1251.13	25.751
