Measurement: Raman, 532 nm, unoriented, Raman Data Processed
Mineral: Hematite
Rruff sample: R040024
Ideal chemistry: Fe_2_O_3_
Locality: near Covered Wells, Papago Indian Reservation, Arizona, USA
Source: University of Arizona Mineral Museum
Description: Reddish-black foliatated mass
Measured chemistry: (Fe_1.99_Al_0.01_)_Î£=2_O_3_
Raman shift (cm-1)	intensity
142.253	0
145.146	10.8042
148.038	1.87753
150.931	12.4322
153.824	14.8813
156.717	16.8793
159.609	14.6249
162.502	14.5879
165.395	13.8481
168.287	9.43924
171.18	5.71988
174.073	8.33347
176.965	3.67722
179.858	2.79623
182.751	0.240112
185.644	12.1903
188.536	0.040802
191.429	3.19421
194.322	8.87549
197.214	8.97287
200.107	24.8109
203	48.3042
205.893	58.6697
208.785	77.3484
211.678	142.841
214.571	273.784
217.463	536.212
220.356	845.868
223.249	1188.71
226.141	1384.48
229.034	622.705
231.927	324.158
234.82	334.972
237.712	518.199
240.605	740.373
243.498	1026.58
246.39	1167.5
249.283	500.552
252.176	204.568
255.068	94.8921
257.961	59.5364
260.854	24.4221
263.747	23.5093
266.639	26.9098
269.532	29.104
272.425	34.3217
275.317	72.1429
278.21	99.3502
281.103	150.538
283.995	211.565
286.888	301.772
289.781	428.071
292.673	545.257
295.566	567.654
298.459	535.444
301.352	350.826
304.244	193.725
307.137	101.572
310.03	47.1648
312.922	34.2769
315.815	28.4217
318.708	14.9768
321.601	5.56345
324.493	8.0737
327.386	7.75726
330.279	18.9386
333.171	9.40549
336.064	13.2878
338.957	9.5715
341.849	8.20294
344.742	3.58615
347.635	14.1265
350.527	7.84985
353.42	22.758
356.313	20.5176
359.206	16.662
362.098	28.9955
364.991	50.0398
367.884	50.4321
370.776	63.8957
373.669	76.9977
376.562	92.7511
379.454	102.52
382.347	137.328
385.24	179.356
388.132	250.793
391.025	304.837
393.918	443.865
396.811	664.032
399.703	977.256
402.596	1365.71
405.489	1840.59
408.381	2196.68
411.274	2267.95
414.167	1764.48
417.06	1081.89
419.952	630.695
422.845	416.942
425.738	285.815
428.63	198.154
431.523	139.029
434.416	102.871
437.308	87.9499
440.201	52.3543
443.094	56.3951
445.986	50.5861
448.879	13.253
451.772	27.4368
454.665	12.9182
457.557	3.44302
460.45	2.2225
463.343	0.911957
466.235	6.67258
469.128	3.33597
472.021	11.1338
474.913	8.84109
477.806	29.7705
480.699	49.4647
483.592	78.9116
486.484	90.5231
489.377	162.286
492.27	200.944
495.162	273.277
498.055	315.072
500.948	309.435
503.841	277.862
506.733	238.236
509.626	173.588
512.519	110.059
515.411	72.7135
518.304	68.6872
521.197	45.8174
524.089	15.4931
526.982	17.7776
529.875	10.2055
532.768	11.5133
535.66	19.0137
538.553	6.87561
541.446	6.4343
544.338	6.7915
547.231	13.5059
550.124	0.347839
553.016	9.38861
555.909	28.4404
558.802	9.1669
561.694	12.7362
564.587	20.9958
567.48	8.42419
570.373	27.6227
573.265	42.2599
576.158	32.2741
579.051	63.4081
581.943	76.901
584.836	83.4095
587.729	110.9
590.621	177.311
593.514	208.268
596.407	284.909
599.3	377.639
602.192	484.473
605.085	612.859
607.978	724.859
610.87	795.887
613.763	721.736
616.656	573.556
619.548	402.679
622.441	270.234
625.334	226.1
628.227	167.69
631.119	165.878
634.012	131.506
636.905	141.987
639.797	147.717
642.69	134.678
645.583	156.452
648.475	193.019
651.368	217.018
654.261	224.317
657.154	236.413
660.046	234.65
662.939	222.467
665.832	199.885
668.724	180.226
671.617	158.559
674.51	105.395
677.402	104.209
680.295	73.5843
683.188	76.4321
686.081	52.4617
688.973	61.487
691.866	57.1912
694.759	43.0565
697.651	34.7228
700.544	25.5411
703.437	17.8777
706.329	14.2579
709.222	3.81363
712.115	3.3988
715.008	0.712067
717.9	7.93954
720.793	2.22806
723.686	9.07846
726.578	2.4043
729.471	12.6616
732.364	0.104828
735.256	14.3695
738.149	4.38455
741.042	2.36423
743.934	10.4293
746.827	4.439
749.72	9.80673
752.613	12.0839
755.505	16.4006
758.398	27.8272
761.291	17.4816
764.183	0.224365
767.076	22.2493
769.969	7.54907
772.861	0.565857
775.754	26.0157
778.647	6.27972
781.54	29.4502
784.432	39.9102
787.325	17.3466
790.218	55.8407
793.11	58.9566
796.003	75.3628
798.896	94.7847
801.788	100.6
804.681	126.518
807.574	134.253
810.467	163.94
813.359	171.728
816.252	175.67
819.145	181.74
822.037	160.087
824.93	190.748
827.823	174.401
830.716	166.308
833.608	145.409
836.501	139.539
839.394	134.306
842.286	89.4531
845.179	90.5962
848.072	46.9255
850.964	54.1627
853.857	43.6058
856.75	49.671
859.643	22.7209
862.535	30.7474
865.428	14.2248
868.321	36.4453
871.213	15.8878
874.106	18.6249
876.999	14.4425
879.891	14.4683
882.784	13.3506
885.677	2.51123
888.569	32.6351
891.462	18.16
894.355	22.9393
897.247	31.1859
900.14	2.0404
903.033	9.57941
905.926	17.559
908.818	17.1721
911.711	4.4668
914.604	4.18842
917.496	7.14331
920.389	1.09064
923.282	2.57318
926.174	2.18536
929.067	15.0346
931.96	13.4245
934.853	4.25617
937.745	26.7824
940.638	26.8459
943.531	26.6508
946.423	34.5267
949.316	33.2927
952.209	19.4312
955.101	24.7042
957.994	10.9091
960.887	2.2912
963.78	17.7852
966.672	6.62384
969.565	5.34387
972.458	9.54688
975.35	9.3667
978.243	7.02008
981.136	9.40729
984.029	14.9767
986.921	13.4742
989.814	10.1012
992.707	7.06714
995.599	0.346008
998.492	9.87903
1001.38	22.0047
1004.28	8.3313
1007.17	5.79407
1010.06	4.86542
1012.96	27.1224
1015.85	26.151
1018.74	65.4857
1021.63	75.7614
1024.53	98.9287
1027.42	130.334
1030.31	141.908
1033.2	170.811
1036.1	201.221
1038.99	217.675
1041.88	218.385
1044.78	231.253
1047.67	209.069
1050.56	194.405
1053.45	201.376
1056.35	198.599
1059.24	168.297
1062.13	194.521
1065.02	202.759
1067.92	185.584
1070.81	175.852
1073.7	178.296
1076.6	157.7
1079.49	145.798
1082.38	152.908
1085.27	175.72
1088.17	167.251
1091.06	191.918
1093.95	183.745
1096.84	203.967
1099.74	196.999
1102.63	200.27
1105.52	189.117
1108.41	181.718
1111.31	161.419
1114.2	145.498
1117.09	148.129
1119.98	128.756
1122.88	104.129
1125.77	82.0528
1128.66	96.0175
1131.56	59.5788
1134.45	45.8375
1137.34	17.0101
1140.23	22.787
1143.13	26.1948
1146.02	0.398743
1148.91	17.0183
1151.81	9.53003
1154.7	5.0061
1157.59	38.9968
1160.48	30.7549
1163.38	19.7452
1166.27	4.75891
1169.16	8.54407
1172.05	19.369
1174.95	70.6663
1177.84	50.3535
1180.73	56.0825
1183.62	63.755
1186.52	50.3755
1189.41	39.3724
1192.3	106.707
1195.19	59.3538
1198.09	50.0768
1200.98	63.7466
1203.87	55.963
1206.77	25.3143
1209.66	37.3693
1212.55	62.7742
1215.44	49.3113
1218.34	22.5215
1221.23	36.6698
1224.12	49.0011
1227.02	38.3049
1229.91	32.2781
1232.8	40.0774
1235.69	34.4635
1238.59	31.938
1241.48	1.67322
1244.37	19.084
