Measurement: Raman, 532 nm, unoriented, Raman Data Processed
Mineral: Hematite
Rruff sample: R110013
Ideal chemistry: Fe_2_O_3_
Locality: Itabira, Minas Gerais, Brazil
Source: University of Arizona Mineral Museum
Description: A group of black lustrous euhedral crystals
Measured chemistry: Fe_2_O_3_ ; (Pure phase as determined by WDS analysis)
Raman shift (cm-1)	intensity
170.102	0
172.995	4.48083
175.888	2.83489
178.78	5.75101
181.673	9.92185
184.566	5.36284
187.459	2.83083
190.351	2.00592
193.244	0.601406
196.137	0.968487
199.029	5.03474
201.922	4.0116
204.815	3.38934
207.708	8.06618
210.6	22.7266
213.493	30.7149
216.386	54.8346
219.278	103.529
222.171	199.239
225.064	432.281
227.956	635.349
230.849	148.101
233.742	58.6455
236.635	45.0325
239.527	63.0429
242.42	130.38
245.313	261.503
248.205	223.263
251.098	53.5789
253.991	20.2623
256.884	10.4507
259.776	8.46185
262.669	13.2226
265.562	6.3088
268.454	12.7432
271.347	20.7202
274.24	37.9003
277.132	55.9161
280.025	103.349
282.918	159.096
285.81	269.963
288.703	496.626
291.596	872.921
294.489	1035.29
297.381	575.803
300.274	516.997
303.167	315.846
306.059	160.242
308.952	93.013
311.845	57.8512
314.738	37.3157
317.63	20.3051
320.523	16.4706
323.416	8.91138
326.308	7.12146
329.201	4.55729
332.094	5.16649
334.986	0.664196
337.879	1.28034
340.772	0.201851
343.665	0.169388
346.557	3.20928
349.45	1.03771
352.343	0.127323
355.235	3.27455
358.128	1.34434
361.021	1.22855
363.913	3.11
366.806	1.64573
369.699	3.58295
372.592	3.50474
375.484	5.07518
378.377	6.59326
381.27	9.38536
384.162	6.86685
387.055	8.69109
389.948	16.1318
392.841	21.6636
395.733	28.2593
398.626	40.6354
401.519	61.7605
404.411	107.251
407.304	162.52
410.197	238.33
413.089	257.18
415.982	174.711
418.875	89.9703
421.767	50.9903
424.66	27.574
427.553	19.4298
430.446	8.35647
433.338	8.95904
436.231	5.0649
439.124	1.28661
442.017	2.40303
444.909	0.258953
447.802	0.515617
450.695	0.952129
453.587	1.10325
456.48	2.89363
459.373	3.97921
462.265	2.4579
465.158	2.35218
468.051	5.36973
470.943	6.9276
473.836	9.17083
476.729	12.2315
479.622	13.9049
482.514	19.5681
485.407	27.7538
488.3	30.758
491.192	42.6534
494.085	49.7131
496.978	58.1272
499.87	56.9214
502.763	47.354
505.656	35.3025
508.549	23.0427
511.441	20.2749
514.334	13.7961
517.227	10.7594
520.119	5.73163
523.012	7.75134
525.905	2.19388
528.798	4.23493
531.69	1.01651
534.583	0.254417
537.476	3.08243
540.368	2.26983
543.261	1.83882
546.154	2.61031
549.047	0.340652
551.939	0.476002
554.832	0.168098
557.725	1.0175
560.617	0.788448
563.51	6.58353
566.403	2.96947
569.295	2.42656
572.188	2.8157
575.081	6.04513
577.973	2.17836
580.866	4.01858
583.759	8.63698
586.652	3.88543
589.544	6.83317
592.437	8.67828
595.33	13.0821
598.222	21.1827
601.115	28.8622
604.008	44.84
606.901	65.5531
609.793	101.194
612.686	112.738
615.579	92.0197
618.471	61.1652
621.364	36.2361
624.257	23.8108
627.149	14.7148
630.042	12.7447
632.935	8.99907
635.828	4.90412
638.72	4.74371
641.613	3.42796
644.506	5.27899
647.398	7.87738
650.291	10.552
653.184	11.5071
656.077	14.3103
658.969	15.5767
661.862	17.7933
664.755	15.5342
667.647	14.6353
670.54	11.739
673.433	12.0558
676.325	12.0875
679.218	8.6723
682.111	7.25509
685.004	6.74571
687.896	7.26293
690.789	1.68581
693.682	4.36773
696.574	6.38586
699.467	5.72301
702.36	4.76492
705.253	5.87435
708.145	4.763
711.038	3.73511
713.931	1.17046
716.823	2.4887
719.716	0.697021
722.609	0.37085
725.501	2.31833
728.394	3.68244
731.287	1.65524
734.179	0.787453
737.072	0.720833
739.965	1.9324
742.858	1.66635
745.75	2.61131
748.643	5.30606
751.536	1.97611
754.428	3.56349
757.321	5.0038
760.214	5.5668
763.107	5.58044
765.999	5.69065
768.892	2.06506
771.785	3.05189
774.677	0.495743
777.57	5.19571
780.463	6.32814
783.356	9.64841
786.248	5.23428
789.141	5.92962
792.034	7.3985
794.926	10.4681
797.819	11.3721
800.712	17.5514
803.604	21.8014
806.497	22.1826
809.39	26.3674
812.283	30.9837
815.175	31.2648
818.068	34.0426
820.961	32.7917
823.853	30.2457
826.746	29.2371
829.639	30.8635
832.531	24.375
835.424	20.3103
838.317	18.1585
841.21	15.6077
844.102	12.5709
846.995	12.8244
849.888	6.69785
852.78	8.27213
855.673	5.22811
858.566	5.29347
861.458	2.11058
864.351	2.29223
867.244	0.834572
870.136	1.27968
873.029	1.75867
875.922	2.42705
878.815	1.25862
881.707	1.97775
884.6	2.29716
887.493	1.89164
890.385	3.52853
893.278	0.271706
896.171	3.88754
899.064	0.747795
901.956	3.76601
904.849	5.43311
907.742	5.60868
910.634	5.55375
913.527	8.07914
916.42	4.63141
919.312	5.65622
922.205	3.46827
925.098	2.72259
927.991	4.4307
930.883	4.9193
933.776	9.35971
936.669	6.90486
939.562	11.0175
942.454	13.819
945.347	15.2108
948.24	19.9434
951.132	21.2028
954.025	19.8122
956.918	20.6134
959.81	18.9439
962.703	18.3346
965.596	15.1952
968.489	14.6461
971.381	11.6544
974.274	8.49065
977.167	7.50154
980.059	5.73424
982.952	3.29439
985.845	0.270096
988.737	4.64111
991.63	2.95259
994.523	2.11128
997.415	0.995514
1000.31	1.7847
1003.2	1.97745
1006.09	1.11842
1008.99	1.41582
1011.88	1.30061
1014.77	1.23206
1017.66	3.78145
1020.56	10.9408
1023.45	11.8971
1026.34	19.6669
1029.23	28.0256
1032.13	34.894
1035.02	44.0997
1037.91	52.2445
1040.81	57.9782
1043.7	61.8414
1046.59	56.3379
1049.48	60.7884
1052.38	54.7825
1055.27	53.0358
1058.16	56.6151
1061.06	52.3824
1063.95	52.6838
1066.84	49.0916
1069.73	47.9297
1072.63	40.0146
1075.52	42.7833
1078.41	31.7515
1081.3	31.4611
1084.2	30.1482
1087.09	30.9211
1089.98	29.3663
1092.88	31.8372
1095.77	32.1233
1098.66	36.331
1101.55	40.1695
1104.45	34.2047
1107.34	38.2927
1110.23	39.9704
1113.12	39.014
1116.02	37.3088
1118.91	33.2746
1121.8	31.7122
1124.69	22.5939
1127.59	18.1497
1130.48	13.7991
1133.37	12.4028
1136.27	4.69833
1139.16	2.88976
1142.05	0.905594
1144.94	1.17229
1147.84	1.02801
1150.73	2.61267
1153.62	1.65218
1156.51	4.36542
1159.41	4.22946
1162.3	8.15172
1165.19	12.9983
1168.09	13.7927
1170.98	17.1305
1173.87	20.2332
1176.76	27.2886
1179.66	25.6235
1182.55	33.2134
1185.44	35.8911
1188.33	39.0292
1191.23	41.3443
1194.12	41.9239
1197.01	45.3702
1199.9	40.8632
1202.8	40.5719
1205.69	36.8377
1208.58	33.5228
1211.48	31.7346
1214.37	25.2619
1217.26	27.192
1220.15	14.3851
1223.05	18.8167
1225.94	14.0241
1228.83	9.07848
1231.72	6.31125
1234.62	4.54904
1237.51	5.82208
1240.4	0.379822
1243.3	2.42746
1246.19	0.350861
1249.08	4.68332
1251.97	13.6161
1254.87	16.0064
1257.76	26.3506
1260.65	29.334
1263.54	35.7878
1266.44	40.0883
1269.33	39.5853
1272.22	36.7549
1275.12	27.9143
1278.01	19.7951
1280.9	12.434
1283.79	11.4988
1286.69	2.03906
1289.58	7.013
1292.47	13.1274
1295.36	6.72327
1298.26	4.81268
1301.15	0.152588
