Measurement: Raman, 532 nm, unoriented, Raman Data Processed
Mineral: Hemihedrite
Rruff sample: R050551
Ideal chemistry: Pb^2+^_10_Zn^2+^(Cr^6+^O_4_)_6_(SiO_4_)_2_F_2_
Locality: Belmont Mountains, Wickenberg, Maricopa County, Arizona, USA
Source: Dave Bunk Minerals
Description: Orange fragments and bladed crystals
Measured chemistry: Pb_10.06_(Zn_0.96_Mg_0.02_)_∑=0.98_(Cr_5.97_S_0.02_P_0.01_)_∑=6.00_Si_2.02_O_34_H_1.85_ ; H_2_O calculated to achieve 34 O atoms.
Raman shift (cm-1)	intensity
137.209	0
140.584	106.753
143.959	162.869
147.334	161.741
150.708	198.241
154.083	220.423
157.458	193.851
160.833	214.395
164.208	254.981
167.583	259.424
170.957	228.835
174.332	180.467
177.707	123.78
181.082	117.227
184.457	88.2324
187.832	76.3992
191.206	53.0142
194.581	58.8088
197.956	9.66089
201.331	28.8042
204.706	2.59741
208.08	7.08777
211.455	11.8268
214.83	7.2157
218.205	36.2225
221.58	52.578
224.954	18.4459
228.329	35.7765
231.704	44.2711
235.079	23.7351
238.454	32.2056
241.829	21.5172
245.203	16.3986
248.578	20.5349
251.953	12.0001
255.328	7.97314
258.703	2.20557
262.077	27.5314
265.452	29.5952
268.827	23.2755
272.202	34.6012
275.577	37.5851
278.952	16.8916
282.326	39.3257
285.701	38.9307
289.076	74.9382
292.451	131.861
295.826	205.2
299.2	298.254
302.575	373.898
305.95	473.059
309.325	562.282
312.7	710.907
316.075	882.813
319.449	1279.55
322.824	1962
326.199	2904.44
329.574	4158.78
332.949	5487.11
336.323	6753.72
339.698	7581.42
343.073	7472.27
346.448	6212.6
349.823	4844.17
353.197	4079.31
356.572	3669.03
359.947	3082.02
363.322	2495.64
366.697	2246.49
370.072	2170.82
373.446	2187.02
376.821	2346.41
380.196	2815.88
383.571	2882.13
386.946	2896.3
390.32	2960.64
393.695	2307.99
397.07	1495.54
400.445	1011.57
403.82	792.558
407.195	609.773
410.569	394.138
413.944	270.475
417.319	163.19
420.694	90.7212
424.069	22.96
427.443	2.44922
430.818	28.9186
434.193	12.4165
437.568	32.3842
440.943	38.1148
444.317	17.0873
447.692	4.06885
451.067	2.64612
454.442	1.84583
457.817	1.39062
461.192	16.194
464.566	24.197
467.941	15.1251
471.316	28.9576
474.691	47.0114
478.066	65.6947
481.44	80.4724
484.815	153.384
488.19	183.551
491.565	204.209
494.94	231.879
498.315	158.163
501.689	79.3621
505.064	45.4336
508.439	5.0708
511.814	8.71045
515.189	6.72009
518.563	27.7502
521.938	30.0951
525.313	31.459
528.688	63.0372
532.063	84.9346
535.438	67.4663
538.812	52.8217
542.187	5.74048
545.562	6.85791
548.937	16.2828
552.312	11.1634
555.687	1.39417
559.061	6.1687
562.436	8.37463
565.811	0.420654
569.186	5.80261
572.561	12.7257
575.935	21.9404
579.31	25.2728
582.685	29.3785
586.06	39.7473
589.435	80.5389
592.809	74.2083
596.184	102.836
599.559	107.047
602.934	128.812
606.309	135.956
609.683	153.814
613.058	167.822
616.433	198.404
619.808	207.366
623.183	239.482
626.558	272.586
629.932	292.314
633.307	289.622
636.682	342.985
640.057	366.79
643.432	391.789
646.807	433.1
650.181	450.695
653.556	489.551
656.931	514.239
660.306	560.529
663.681	583.639
667.055	619.176
670.43	635.871
673.805	695.126
677.18	712.723
680.555	734.163
683.929	766.185
687.304	753.487
690.679	744.947
694.054	709.772
697.429	663.919
700.803	614.136
704.178	531.827
707.553	456.43
710.928	366.978
714.303	297.591
717.678	235.352
721.052	127.305
724.427	48.915
727.802	3.15308
731.177	79.7725
734.552	93.0461
737.927	124.58
741.301	151.849
744.676	166.463
748.051	165.928
751.426	143.321
754.801	43.8408
758.175	190.995
761.55	543.23
764.925	1210.18
768.3	2209.41
771.675	3684.53
775.049	5399.35
778.424	6987.56
781.799	7794.12
785.174	6951.71
788.549	4974.93
791.923	3270.53
795.298	2279.81
798.673	2045.95
802.048	2691.98
805.423	4406.93
808.798	7609.34
812.172	12062.5
815.547	17683.3
818.922	22344.3
822.297	22972.4
825.672	19671
829.047	17186.3
832.421	17928.9
835.796	21478.9
839.171	26656.5
842.546	30827.5
845.921	29977.9
849.295	25345.9
852.67	22810.7
856.045	24496
859.42	27815.2
862.795	29448.2
866.169	27493.3
869.544	22062.7
872.919	14775.9
876.294	9142.86
879.669	6017.82
883.044	4362.99
886.418	3107.41
889.793	1934.4
893.168	773.948
896.543	36.0156
899.918	176.864
903.293	60.9688
906.667	169.586
910.042	336.828
913.417	357.673
916.792	263.967
920.167	137.084
923.541	37.77
926.916	159.113
930.291	216.705
933.666	195.872
937.041	106.516
940.415	34.7947
943.79	60.6121
947.165	152.093
950.54	240.875
953.915	317.987
957.29	391.49
960.664	460.234
964.039	549.171
967.414	587.692
970.789	652.126
974.164	745.574
977.538	800.771
980.913	858.183
984.288	875.612
987.663	823.888
991.038	765.004
994.413	683.488
997.787	625.271
1001.16	579.269
1004.54	557.718
1007.91	526.588
1011.29	501.919
1014.66	494
1018.04	485.995
1021.41	460.854
1024.79	451.082
1028.16	427.176
1031.54	412.064
1034.91	413.038
1038.29	358.275
1041.66	333.503
1045.04	299.211
1048.41	268.006
1051.78	240.683
1055.16	209.017
1058.53	212.388
1061.91	176.625
1065.28	168.13
1068.66	142.149
1072.03	122.235
1075.41	86.475
1078.78	81.7306
1082.16	67.1909
1085.53	49.5873
1088.91	45.8567
1092.28	13.4153
1095.66	38.8137
1099.03	5.67346
1102.41	15.7167
1105.78	11.8916
1109.16	17.1984
1112.53	16.5049
1115.91	2.11731
1119.28	9.71484
1122.66	7.5658
1126.03	6.35059
1129.4	10.122
1132.78	0.362793
1136.15	3.6615
1139.53	6.49634
1142.9	10.8937
1146.28	6.97607
1149.65	19.561
1153.03	1.04981
1156.4	5.31836
1159.78	5.12756
1163.15	14.9511
1166.53	18.8418
1169.9	11.259
1173.28	27.0902
1176.65	8.08398
1180.03	6.36755
1183.4	2.46924
1186.78	10.6588
1190.15	12.0958
1193.53	10.5038
1196.9	4.6554
1200.28	3.50879
1203.65	28.5919
1207.03	24.0765
1210.4	37.4081
1213.78	62.4349
1217.15	70.2142
1220.53	72.5574
1223.9	90.1262
1227.28	114.769
1230.65	84.0102
1234.02	96.0592
1237.4	98.761
1240.77	85.5643
1244.15	70.7104
1247.52	90.904
1250.9	71.7083
1254.27	27.9846
1257.65	42.6904
1261.02	49.452
1264.4	28.7501
1267.77	25.0608
1271.15	25.5719
1274.52	12.51
1277.9	23.1201
1281.27	8.46851
1284.65	26.8927
1288.02	19.3352
1291.4	24.0813
1294.77	18.5343
1298.15	4.4679
1301.52	0.202759
