Measurement: Raman, 785 nm, unoriented, Raman Data Processed
Mineral: Hemimorphite
Rruff sample: R070536
Ideal chemistry: Zn_4_Si_2_O_7_(OH)_2_H_2_O
Locality: Potosi mine, Santa Eulalia District, Chihuahua, Mexico
Source: James Shigley
Description: Colorless striated thin tabular crystals in fan-shaped aggregates
Measured chemistry: Zn_4.00_Si_2.00_O_7_(OH)_2_Â·H_2_O; total H_2_O estimated by difference, (OH) by charge balance
Raman shift (cm-1)	intensity
131.524	0
134.417	542.229
137.31	200.192
140.202	72.2422
143.095	382.527
145.988	1522.04
148.88	3088.83
151.773	4725.46
154.666	6228.82
157.559	7518.34
160.451	9102.19
163.344	10955
166.237	13231.6
169.129	14370.7
172.022	11900.6
174.915	7440.22
177.807	4168.06
180.7	2271.51
183.593	1271.26
186.486	738.821
189.378	563.531
192.271	577.214
195.164	558.937
198.056	408.782
200.949	305.597
203.842	527.527
206.734	858.758
209.627	1379.29
212.52	1908.52
215.412	1957.77
218.305	1543.33
221.198	1169.56
224.091	784.693
226.983	491.222
229.876	293.497
232.769	185.134
235.661	33.71
238.554	60.2168
241.447	22.3872
244.339	19.9316
247.232	8.45557
250.125	67.8379
253.018	0.825195
255.91	13.603
258.803	59.3955
261.696	106.519
264.588	152.719
267.481	237.796
270.374	336.636
273.267	311.875
276.159	368.492
279.052	255.935
281.945	196.16
284.837	98.2876
287.73	77.0669
290.623	64.978
293.515	29.272
296.408	49.9219
299.301	61.771
302.193	53.3799
305.086	37.1148
307.979	35.2275
310.872	108.978
313.764	397.066
316.657	803.653
319.55	1360.67
322.442	2077.93
325.335	3502.29
328.228	5269.61
331.12	5497.24
334.013	3666.16
336.906	2133.5
339.799	1409.2
342.691	989.481
345.584	769.998
348.477	623.521
351.369	546.589
354.262	496.712
357.155	488.122
360.048	433.123
362.94	477.58
365.833	516.811
368.726	627.123
371.618	769.114
374.511	859.836
377.404	1053.91
380.296	1339.09
383.189	1509.77
386.082	1788
388.974	2035.77
391.867	2297.08
394.76	2534.44
397.653	2693.99
400.545	2704.11
403.438	2570.83
406.331	2312.02
409.224	1907.09
412.116	1534.88
415.009	1171.22
417.902	856.249
420.794	589.442
423.687	386.409
426.58	277.094
429.472	225.901
432.365	163.093
435.258	133.399
438.151	221.605
441.043	310.282
443.936	368.71
446.829	607.578
449.721	732.157
452.614	789.83
455.507	561.551
458.399	325.278
461.292	106.444
464.185	25.1133
467.077	42.7612
469.97	34.9907
472.863	29.4673
475.756	29.7678
478.648	4.68433
481.541	35.606
484.434	29.394
487.326	3.69019
490.219	28.1653
493.112	7.75171
496.005	13.0032
498.897	56.1533
501.79	69.7312
504.683	8.59937
507.575	80.3252
510.468	101.41
513.361	9.32983
516.253	91.04
519.146	78.3008
522.039	117.736
524.932	118.604
527.824	161.881
530.717	146.204
533.61	181.462
536.502	197.983
539.395	240.445
542.288	377.803
545.18	545.248
548.073	786.957
550.966	1147.69
553.859	1411.1
556.751	1184.61
559.644	733.837
562.537	478.739
565.429	338.965
568.322	244.863
571.215	231.684
574.107	172.388
577	162.859
579.893	124.034
582.785	100.187
585.678	37.2954
588.571	70.5024
591.464	19.3503
594.356	53.0588
597.249	39.3381
600.142	14.9905
603.034	30.9783
605.927	4.72095
608.82	14.5159
611.712	14.3794
614.605	8.32056
617.498	7.58374
620.391	7.12695
623.283	0.522949
626.176	24.0496
629.069	34.7827
631.961	36.4971
634.854	62.0635
637.747	33.071
640.639	33.4085
643.532	52.729
646.425	50.8347
649.318	38.0469
652.21	98.5208
655.103	190.782
657.996	254.139
660.888	380.698
663.781	608.334
666.674	913.356
669.567	1297.46
672.459	1591.35
675.352	1605.17
678.245	1309.52
681.137	868.583
684.03	540.078
686.923	347.94
689.815	238.763
692.708	136.418
695.601	134.604
698.494	87.0159
701.386	71.7971
704.279	58.5395
707.172	16.9331
710.064	60.1895
712.957	16.0125
715.85	16.3682
718.742	15.0388
721.635	28.7449
724.528	3.50854
727.421	56.7434
730.313	49.8118
733.206	4.43311
736.099	2.46851
738.991	23.2356
741.884	23.3279
744.777	2.35644
747.669	20.7568
750.562	34.773
753.455	0.249512
756.348	39.5161
759.24	45.1987
762.133	44.874
765.026	57.6323
767.918	25.5142
770.811	92.6714
773.704	87.1111
776.596	53.2039
779.489	90.6931
782.382	90.6499
785.275	83.2324
788.167	66.405
791.06	84.1926
793.953	89.7363
796.845	19.9468
799.738	19.7109
802.631	26.1597
805.524	28.0361
808.416	28.2192
811.309	34.4448
814.202	14.8289
817.094	7.17114
819.987	20.1724
822.88	4.34936
825.772	4.48218
828.665	5.45019
831.558	11.1709
834.451	3.97485
837.343	19.6282
840.236	16.1145
843.129	15.0601
846.021	19.7707
848.914	10.6585
851.807	45.4641
854.699	12.2324
857.592	54.1711
860.485	16.8416
863.378	70.8921
866.27	78.8115
869.163	92.2866
872.056	69.0054
874.948	81.3176
877.841	62.4062
880.734	101.041
883.626	118.038
886.519	131.732
889.412	190.718
892.304	176.421
895.197	238.865
898.09	264.582
900.983	388.409
903.875	476.802
906.768	604.511
909.661	817.253
912.553	1220.04
915.446	1895.54
918.339	2894.37
921.231	4515.76
924.124	6542.83
927.017	9025.51
929.91	11281
932.802	10635.4
935.695	6937.15
938.588	3814.7
941.48	2199.72
944.373	1333.45
947.266	912.45
950.159	592.178
953.051	379.666
955.944	302.138
958.837	188.804
961.729	134.174
964.622	68.0007
967.515	57.6631
970.408	48.0222
973.3	70.676
976.193	20.9851
979.086	13.6704
981.978	37.908
984.871	24.0456
987.764	3.47437
990.656	3.4624
993.549	30.2512
996.442	4.17944
999.335	17.1128
1002.23	15.1821
1005.12	43.8328
1008.01	5.78564
1010.9	30.2581
1013.8	0.56665
1016.69	5.1626
1019.58	9.56958
1022.48	12.8723
1025.37	6.79272
1028.26	15.4253
1031.15	18.0518
1034.05	15.6367
1036.94	38.9246
1039.83	7.67334
1042.72	54.1609
1045.62	24.8735
1048.51	5.00513
1051.4	10.5102
1054.3	23.5471
1057.19	48.3011
1060.08	23.8811
1062.97	32.5232
1065.87	6.89929
1068.76	17.5314
1071.65	0.612183
1074.55	20.21
1077.44	40.352
1080.33	15.2717
1083.22	2.02222
1086.12	16.7787
1089.01	12.3001
1091.9	23.0918
1094.79	9.52722
1097.69	48.1504
1100.58	36.9279
1103.47	29.7455
1106.36	6.33106
1109.26	3.72144
1112.15	39.0511
1115.04	23.752
1117.93	17.4401
1120.83	31.6235
1123.72	32.9665
1126.61	26.5591
1129.51	29.5336
1132.4	22.3461
1135.29	24.5378
1138.18	21.7019
1141.08	57.6848
1143.97	23.7609
1146.86	24.5949
1149.76	19.0205
1152.65	13.5404
1155.54	32.2197
1158.43	106.497
1161.33	34.2756
1164.22	38.3433
1167.11	29.4479
1170	23.5017
1172.9	31.0039
1175.79	18.559
1178.68	24.5692
1181.58	63.2369
1184.47	15.1255
1187.36	79.4191
1190.25	45.0066
1193.14	76.3981
1196.04	89.605
1198.93	65.8856
1201.82	59.2194
1204.72	78.8552
1207.61	80.5808
1210.5	52.5157
1213.39	66.1819
1216.29	55.9053
1219.18	16.7499
1222.07	40.5808
1224.96	31.6904
1227.86	50.4811
1230.75	22.7963
1233.64	17.1915
1236.54	39.6041
1239.43	23.3157
1242.32	3.67322
1245.21	4.9668
1248.11	54.434
1251	23.6135
1253.89	19.1332
1256.79	29.6504
1259.68	25.1995
1262.57	20.0848
