Measurement: Raman, 780 nm, unoriented, Raman Data Processed
Mineral: Hemihedrite
Rruff sample: R140134
Ideal chemistry: Pb^2+^_10_Zn^2+^(Cr^6+^O_4_)_6_(SiO_4_)_2_F_2_
Locality: Rat Tail Claim, Wickenburg Area, Belmont Mts, Maricopa County, Arizona, USA
Source: Ron Gibbs
Description: Orange axe-head shaped crystals
Measured chemistry: Pb_10.05_(Zn_0.91_Mg_0.02_)_∑=0.93_(Cr_5.98_S_0.01_P_0.01_)_∑=6.00_Si_1.97_O_34_H_2.16_ ; H_2_O calculated to achieve 34 O atoms.
Raman shift (cm-1)	intensity
104.577	0
107.952	87.1704
111.327	17.8655
114.701	0.189514
118.076	46.4497
121.451	54.2086
124.826	21.4857
128.201	0.033234
131.576	2.40964
134.95	10.8125
138.325	38.6912
141.7	63.2139
145.075	57.9318
148.45	28.0624
151.825	15.4728
155.199	19.5478
158.574	24.7702
161.949	31.4683
165.324	63.9389
168.698	90.1402
172.073	96.3031
175.448	92.9691
178.823	80.8236
182.198	66.4369
185.573	51.5739
188.947	37.7388
192.322	28.1554
195.697	24.9594
199.072	22.7823
202.447	21.8663
205.821	23.1039
209.196	28.3132
212.571	35.7523
215.946	45.6298
219.321	53.9885
222.696	56.7185
226.07	53.4192
229.445	46.6332
232.82	41.8613
236.195	36.4042
239.57	27.3473
242.945	21.6001
246.319	16.0514
249.694	14.3862
253.069	9.88265
256.444	6.69835
259.818	1.65677
263.193	4.02835
266.568	7.9021
269.943	8.75661
273.318	10.8403
276.693	8.99438
280.067	4.45662
283.442	2.74809
286.817	12.98
290.192	25.6562
293.567	44.5288
296.942	67.0722
300.316	98.6084
303.691	140.905
307.066	196.384
310.441	256.644
313.816	312.227
317.19	403.826
320.565	548.33
323.94	782.091
327.315	1118.25
330.69	1528.89
334.065	1996.21
337.439	2305.64
340.814	2499.63
344.189	2297.36
347.564	1721.06
350.938	1374.73
354.313	1268.27
357.688	1079.38
361.063	805.825
364.438	702.529
367.813	636.531
371.187	648.57
374.562	546.642
377.937	502.837
381.312	601.857
384.687	558.392
388.062	633.523
391.436	612.04
394.811	407.221
398.186	223.862
401.561	153.399
404.935	135.301
408.31	102.158
411.685	55.2566
415.06	24.3834
418.435	9.91493
421.81	0.641006
425.184	4.63557
428.559	7.35207
431.934	7.72952
435.309	7.1915
438.684	5.45077
442.058	4.24593
445.433	1.13896
448.808	0.984467
452.183	4.57605
455.558	6.6396
458.933	9.98965
462.307	12.0008
465.682	14.7087
469.057	17.5974
472.432	19.5054
475.807	22.9651
479.182	27.1714
482.556	30.5833
485.931	33.8549
489.306	36.4803
492.681	36.794
496.055	32.2044
499.43	22.8497
502.805	14.7675
506.18	10.8332
509.555	8.41639
512.93	7.5656
516.304	7.75326
519.679	7.60146
523.054	8.76275
526.429	11.4918
529.804	13.8025
533.178	18.9622
536.553	18.5042
539.928	11.8865
543.303	6.11379
546.678	3.16562
550.053	0.792362
553.427	0.815647
556.802	0.299896
560.177	0.214634
563.552	0.479195
566.927	0.866051
570.302	0.087755
573.676	0.059572
577.051	0.02828
580.426	0.462315
583.801	0.732651
587.176	0.712669
590.55	1.29081
593.925	1.95532
597.3	3.1816
600.675	3.53858
604.05	4.74667
607.424	5.34655
610.799	6.5585
614.174	6.98694
617.549	7.84755
620.924	9.58531
624.298	9.91807
627.673	11.4441
631.048	12.3296
634.423	14.1743
637.798	15.7374
641.173	23.6903
644.547	19.0091
647.922	20.2794
651.297	22.737
654.672	24.0686
658.047	26.4604
661.421	29.1387
664.796	30.8693
668.171	32.8432
671.546	34.3677
674.921	36.1688
678.295	38.5983
681.67	40.6428
685.045	42.7966
688.42	45.4301
691.795	54.2296
695.17	50.6972
698.544	49.4578
701.919	51.114
705.294	43.798
708.669	38.8913
712.044	34.6998
715.418	29.0837
718.793	24.3582
722.168	18.7806
725.543	13.7291
728.918	8.98024
732.293	4.3304
735.667	0.019371
739.042	4.18248
742.417	6.25312
745.792	10.4302
749.167	13.0617
752.541	14.8145
755.916	12.7782
759.291	6.52391
762.666	10.2322
766.041	44.6704
769.415	102.692
772.79	191.219
776.165	304.134
779.54	428.014
782.915	502.143
786.29	449.032
789.664	307.428
793.039	197.676
796.414	150.368
799.789	150.704
803.164	199.212
806.538	319.243
809.913	504.63
813.288	767.134
816.663	1109.71
820.038	1383.5
823.413	1250.66
826.787	898.819
830.162	726.005
833.537	768.506
836.912	966.587
840.287	1325.27
843.661	1720.79
847.036	1731.24
850.411	1283.66
853.786	1049.74
857.161	1206
860.535	1538.89
863.91	1690.36
867.285	1595.31
870.66	1329.5
874.035	864.93
877.409	491.401
880.784	303.757
884.159	241.772
887.534	222.657
890.909	167.109
894.284	71.7783
897.658	7.61151
901.033	9.97644
904.408	5.90007
907.783	36.9564
911.158	66.2679
914.533	78.7028
917.907	60.8505
921.282	53.5591
924.657	40.3234
928.032	6.90486
931.407	13.2616
934.781	17.7103
938.156	15.91
941.531	10.8908
944.906	4.72781
948.281	1.59418
951.655	7.39134
955.03	14.0356
958.405	19.8627
961.78	25.7095
965.155	30.8287
968.529	35.1194
971.904	40.6986
975.279	44.8997
978.654	49.1217
982.029	53.3879
985.404	56.4025
988.778	58.8068
992.153	55.4865
995.528	49.1692
998.903	44.0413
1002.28	38.7463
1005.65	34.8696
1009.03	32.0002
1012.4	30.0163
1015.78	28.7549
1019.15	27.4688
1022.53	26.4189
1025.9	24.8634
1029.28	23.4447
1032.65	22.5418
1036.03	21.7516
1039.4	19.7068
1042.78	18.149
1046.15	15.9606
1049.53	13.7165
1052.9	13.4866
1056.28	11.095
1059.65	10.053
1063.02	9.03764
1066.4	7.94761
1069.77	6.81504
1073.15	5.93082
1076.52	4.77053
1079.9	4.38024
1083.27	3.19583
1086.65	2.33338
1090.02	2.27337
1093.4	1.26882
1096.77	0.982609
1100.15	0.365671
1103.52	0.085665
1106.9	0.210033
1110.27	0.471516
1113.65	0.512096
1117.02	0.214985
1120.4	0.015779
1123.77	0.075634
1127.15	0.363834
1130.52	0.750387
1133.9	0.313654
1137.27	0.490135
1140.64	0.382389
1144.02	0.148775
1147.39	0.057905
1150.77	0.193169
1154.14	0.344206
1157.52	0.216038
1160.89	0.088646
1164.27	0.173603
1167.64	0.372953
1171.02	0.743448
1174.39	0.470041
1177.77	0.625063
1181.14	0.994335
1184.52	1.24421
1187.89	1.10397
1191.27	1.06807
1194.64	1.50528
1198.02	0.969629
1201.39	0.919292
1204.77	1.0498
1208.14	0.989828
1211.52	1.21913
1214.89	0.994429
1218.27	1.16439
1221.64	0.581717
1225.02	0.700489
1228.39	0.543447
1231.77	0.340504
1235.14	0.481157
1238.52	0.24732
1241.89	0.136208
1245.26	0.01597
1248.64	0.335276
1252.01	1.38464
1255.39	0.782478
1258.76	1.24388
1262.14	1.42527
1265.51	0.70286
1268.89	0.936293
1272.26	0.797228
1275.64	0.308187
1279.01	0.516884
1282.39	0.402719
