Measurement: Raman, 532 nm, unoriented, Raman Data Processed
Mineral: Hemimorphite
Rruff sample: R070536
Ideal chemistry: Zn_4_Si_2_O_7_(OH)_2_H_2_O
Locality: Potosi mine, Santa Eulalia District, Chihuahua, Mexico
Source: James Shigley
Description: Colorless striated thin tabular crystals in fan-shaped aggregates
Measured chemistry: Zn_4.00_Si_2.00_O_7_(OH)_2_Â·H_2_O; total H_2_O estimated by difference, (OH) by charge balance
Raman shift (cm-1)	intensity
136.174	0
139.549	73.6592
142.924	523.278
146.298	736.545
149.673	905.112
153.048	1453.71
156.423	2404.31
159.798	3373.49
163.173	4514.06
166.547	5393.78
169.922	5277.57
173.297	3254.57
176.672	1467.84
180.047	531.65
183.421	137.794
186.796	68.9526
190.171	14.1387
193.546	7.99121
196.921	13.1738
200.296	12.5737
203.67	151.752
207.045	358.254
210.42	692.369
213.795	817.107
217.17	705.675
220.544	486.927
223.919	331.024
227.294	239.976
230.669	137.73
234.044	84.0107
237.418	31.8413
240.793	5.12402
244.168	0.457031
247.543	52.1416
250.918	119.681
254.293	124.008
257.667	198.107
261.042	156.599
264.417	381.313
267.792	450.539
271.167	590.338
274.541	633.026
277.916	510.746
281.291	356.743
284.666	256.168
288.041	81.0967
291.416	54.5977
294.79	7.68213
298.165	0.134277
301.54	31.228
304.915	7.72607
308.29	2.83008
311.664	46.0942
315.039	208.772
318.414	443.071
321.789	966.974
325.164	1738.17
328.539	2694.61
331.913	2362.37
335.288	1280.86
338.663	642.473
342.038	447.902
345.413	275.179
348.788	199.648
352.162	185.017
355.537	233.853
358.912	137.436
362.287	134.126
365.662	107.573
369.036	115.927
372.411	194.543
375.786	317.633
379.161	422.05
382.536	528.582
385.911	670.54
389.285	836.783
392.66	942.391
396.035	1078.93
399.41	1118.49
402.785	1069.24
406.159	934.035
409.534	785.705
412.909	606.491
416.284	356.154
419.659	228.919
423.034	101.102
426.408	155.808
429.783	120.953
433.158	228.603
436.533	437.031
439.908	694.453
443.282	1179.18
446.657	1879.48
450.032	2644.42
453.407	2534.05
456.782	1673.15
460.156	844.454
463.531	453.073
466.906	241.78
470.281	123.912
473.656	62.3608
477.031	4.44189
480.405	75.8208
483.78	23.5234
487.155	11.2139
490.53	22.3872
493.905	33.6435
497.279	5.76856
500.654	41.064
504.029	21.2202
507.404	15.5298
510.779	40.6025
514.154	16.8081
517.528	51.7402
520.903	24.6162
524.278	34.749
527.653	89.5303
531.028	91.2437
534.403	81.1387
537.777	101.884
541.152	143.703
544.527	263.518
547.902	399.685
551.277	569.205
554.651	676.579
558.026	481.577
561.401	319.557
564.776	240.315
568.151	205.64
571.525	220.568
574.9	170.817
578.275	172.513
581.65	80.8843
585.025	58.5386
588.4	74.9995
591.774	60.3398
595.149	81.3057
598.524	46.5713
601.899	94.5879
605.274	72.064
608.649	31.3208
612.023	42.7368
615.398	76.4273
618.773	29.4858
622.148	24.3042
625.523	21.2544
628.897	79.4888
632.272	30.2578
635.647	27.3794
639.022	40.8472
642.397	46.7207
645.771	61.7266
649.146	141.97
652.521	119.282
655.896	107.85
659.271	325.332
662.646	420.562
666.02	680.24
669.395	1005.53
672.77	1214.27
676.145	1167.84
679.52	816.072
682.894	502.44
686.269	276.278
689.644	207.595
693.019	187.195
696.394	138.558
699.769	82.6509
703.143	81.54
706.518	100.666
709.893	61.9165
713.268	42.5591
716.643	68.7817
720.018	64.6519
723.392	23.7398
726.767	111.538
730.142	37.4619
733.517	47.9155
736.892	25.8023
740.266	32.6943
743.641	11.6221
747.016	78.7153
750.391	23.3125
753.766	54.3657
757.14	87.9111
760.515	112.405
763.89	79.4033
767.265	70.8369
770.64	73.2734
774.015	108.196
777.389	34.5581
780.764	72.3379
784.139	109.396
787.514	156.73
790.889	62.417
794.264	55.7285
797.638	25.8413
801.013	31.3926
804.388	6.625
807.763	39.2353
811.138	11.4434
814.512	26.2085
817.887	7.39648
821.262	20.2632
824.637	32.4067
828.012	30.2598
831.386	18.1924
834.761	6.54394
838.136	1.89062
841.511	18.4038
844.886	77.8452
848.261	50.3101
851.635	8.43115
855.01	36.8545
858.385	41.3218
861.76	67.2476
865.135	59.0298
868.51	101.653
871.884	67.6357
875.259	69.3062
878.634	197.356
882.009	134.367
885.384	149.964
888.758	154.439
892.133	226.4
895.508	248.843
898.883	344.776
902.258	374.356
905.633	668.038
909.007	889.732
912.382	1484.09
915.757	2381.92
919.132	4110.22
922.507	6554.59
925.881	9022.24
929.256	10459
932.631	9322.12
936.006	5447.61
939.381	2619.79
942.755	1528.69
946.13	903.579
949.505	520.156
952.88	307.319
956.255	263.657
959.63	194.865
963.004	139.945
966.379	99.0747
969.754	30.98
973.129	5.26562
976.504	48.544
979.879	12.3569
983.253	27.2842
986.628	25.6064
990.003	48.0996
993.378	65.3535
996.753	16.8477
1000.13	23.1211
1003.5	78.0093
1006.88	39.5894
1010.25	64.1538
1013.63	20.1138
1017	13.7627
1020.38	27.8433
1023.75	1.7959
1027.13	107.765
1030.5	64.7554
1033.88	82.1987
1037.25	0.01416
1040.62	30.8247
1044	51.3076
1047.38	65.5654
1050.75	104.392
1054.12	91.894
1057.5	43.2544
1060.87	118.277
1064.25	103.891
1067.62	152.67
1071	110.786
1074.37	134.421
1077.75	38.0356
1081.12	33.5
1084.5	61.2231
1087.87	51.5034
1091.25	7.27197
1094.62	48.7085
1098	92.6138
1101.37	75.0562
1104.75	8.51025
1108.12	49.9683
1111.5	61.4531
1114.87	107.066
1118.25	95.7856
1121.62	17.5747
1125	38.5693
1128.37	62.4844
1131.74	128.319
1135.12	76.0147
1138.49	113.609
1141.87	51.2739
1145.24	82.6553
1148.62	15.8892
1151.99	113.238
1155.37	76.9766
1158.74	88.708
1162.12	33.9258
1165.49	19.6855
1168.87	51.2871
1172.24	101.787
1175.62	63.0674
1178.99	124.353
1182.37	166.914
1185.74	110.472
1189.12	33.6748
1192.49	116.823
1195.87	83.5996
1199.24	108.773
1202.62	147.603
1205.99	146.448
1209.37	71.2617
1212.74	81.418
1216.12	90.6289
1219.49	188.601
1222.87	217.169
1226.24	122.595
1229.62	24.3564
1232.99	46.002
1236.37	64.5068
1239.74	62.0166
1243.11	21.8477
1246.49	7.18652
1249.86	59.5107
1253.24	18.833
1256.61	20.4619
1259.99	33.6172
1263.36	48.8506
1266.74	135.136
1270.11	38.6934
1273.49	74.4268
1276.86	62.2461
1280.24	29.9355
1283.61	98.2178
1286.99	89.8008
1290.36	3.1084
1293.74	16.8486
