Measurement: Raman, 780 nm, unoriented, Raman Data Processed
Mineral: Hemihedrite
Rruff sample: R050551
Ideal chemistry: Pb^2+^_10_Zn^2+^(Cr^6+^O_4_)_6_(SiO_4_)_2_F_2_
Locality: Belmont Mountains, Wickenberg, Maricopa County, Arizona, USA
Source: Dave Bunk Minerals
Description: Orange fragments and bladed crystals
Measured chemistry: Pb_10.06_(Zn_0.96_Mg_0.02_)_∑=0.98_(Cr_5.97_S_0.02_P_0.01_)_∑=6.00_Si_2.02_O_34_H_1.85_ ; H_2_O calculated to achieve 34 O atoms.
Raman shift (cm-1)	intensity
113.108	0
116.483	82.6211
119.858	311.081
123.232	587.28
126.607	290.747
129.982	23.3203
133.357	2.31152
136.732	180.475
140.107	366.348
143.481	449.815
146.856	343.541
150.231	241.126
153.606	193.876
156.981	221.57
160.355	212.563
163.73	232.142
167.105	238.723
170.48	236.027
173.855	332.764
177.23	358.581
180.604	306.768
183.979	175.505
187.354	146.811
190.729	39.019
194.104	1.29565
197.478	20.3831
200.853	29.541
204.228	62.3586
207.603	102.358
210.978	175.188
214.352	265.764
217.727	360.688
221.102	414.785
224.477	438.566
227.852	386.188
231.226	387.357
234.601	375.09
237.976	370.295
241.351	327.956
244.726	320.441
248.101	297.193
251.475	241.706
254.85	182.27
258.225	105.133
261.6	25.1755
264.975	43.6519
268.349	119.443
271.724	148.625
275.099	162.576
278.474	78.9827
281.849	2.76074
285.224	141.902
288.598	392.149
291.973	741.131
295.348	1143.84
298.723	1620.37
302.098	2102.06
305.473	2722.27
308.847	3424.57
312.222	4192.85
315.597	5054.83
318.972	6454.57
322.347	8573.62
325.721	11318.9
329.096	14136.4
332.471	16809.3
335.846	18760.4
339.221	19130.2
342.596	18282.8
345.97	15791.7
349.345	13765.6
352.72	13435.5
356.095	13201.6
359.469	11145.8
362.844	8646.23
366.219	7097.83
369.594	6172.24
372.969	5822.97
376.344	4965.58
379.718	5051.54
383.093	5663.75
386.468	6212.18
389.843	7043.17
393.218	6558.7
396.592	4768.03
399.967	3201.19
403.342	2521.66
406.717	2044.23
410.092	1341.13
413.467	681.971
416.841	297.768
420.216	125.234
423.591	29.2944
426.966	74.5316
430.341	119.069
433.716	109.877
437.09	100.366
440.465	66.1728
443.84	33.8822
447.215	3.90601
450.59	11.6342
453.964	65.3593
457.339	81.5398
460.714	132.523
464.089	158.703
467.464	193.886
470.839	228.917
474.213	274.357
477.588	331.173
480.963	391.716
484.338	461.133
487.713	491.05
491.087	459.585
494.462	430.205
497.837	327.898
501.212	222.435
504.587	154.581
507.962	111.517
511.336	95.004
514.711	86.6703
518.086	123.629
521.461	123.261
524.836	115.922
528.21	157.212
531.585	183.948
534.96	176.715
538.335	143.905
541.71	81.4063
545.085	40.811
548.459	15.3478
551.834	2.40088
555.209	13.3484
558.584	6.03955
561.959	10.108
565.333	9.11029
568.708	9.29736
572.083	13.3236
575.458	2.40155
578.833	6.92407
582.207	1.78748
585.582	23.6918
588.957	39.8761
592.332	29.9165
595.707	54.392
599.082	51.4114
602.456	65.8146
605.831	82.1559
609.206	110.356
612.581	92.0577
615.956	129.967
619.33	125.815
622.705	157.881
626.08	168.738
629.455	176.253
632.83	207.349
636.205	241.098
639.579	249.448
642.954	277.131
646.329	312.95
649.704	335.602
653.079	355.76
656.453	389.188
659.828	444.352
663.203	445.792
666.578	471.215
669.953	508.013
673.327	524.9
676.702	574.783
680.077	615.243
683.452	630.729
686.827	652.438
690.202	657.572
693.576	657.58
696.951	647.924
700.326	609.1
703.701	555.031
707.076	478.006
710.45	419.277
713.825	349.25
717.2	268.012
720.575	202.146
723.95	144.415
727.324	60.3636
730.699	20.0687
734.074	46.1685
737.449	86.5718
740.824	105.325
744.199	128.334
747.573	191.379
750.948	156.151
754.323	118.485
757.698	34.615
761.073	287.363
764.447	858.75
767.822	1764.9
771.197	2958.68
774.572	4208.01
777.947	5424.77
781.322	6110.23
784.696	5983.42
788.071	4761.76
791.446	3322.8
794.821	2427.86
798.196	2210.23
801.571	2793.04
804.945	4454.32
808.32	7264.64
811.695	10627.5
815.07	14204.6
818.445	17112.7
821.819	16949.8
825.194	13708.5
828.569	11664.8
831.944	12987.9
835.319	16546
838.693	20784.2
842.068	24903.2
845.443	25869.8
848.818	21146.3
852.193	14780.1
855.568	12716
858.942	13722.6
862.317	15036.2
865.692	14740.9
869.067	12603.4
872.442	9030.86
875.817	5304.48
879.191	2676.05
882.566	1380.75
885.941	884.736
889.316	521.709
892.691	195.965
896.065	70.3144
899.44	39.8179
902.815	414.141
906.19	864.266
909.565	1193.59
912.939	1232.93
916.314	920.019
919.689	552.292
923.064	344.608
926.439	125.689
929.813	110.564
933.188	225.62
936.563	213.605
939.938	167.02
943.313	86.3088
946.688	17.1335
950.062	78.0007
953.437	157.891
956.812	230.815
960.187	311.04
963.562	369.059
966.937	461.722
970.311	536.617
973.686	597.572
977.061	658.521
980.436	713.957
983.811	781.566
987.185	803.164
990.56	794.877
993.935	739.013
997.31	645.683
1000.68	591.5
1004.06	530.89
1007.43	461.127
1010.81	456.537
1014.18	413.421
1017.56	395.577
1020.93	394.332
1024.31	366.517
1027.68	332.288
1031.06	318.49
1034.43	303.779
1037.81	279.441
1041.18	264.288
1044.56	223.759
1047.93	224.836
1051.31	196.853
1054.68	177.823
1058.06	149.152
1061.43	149.341
1064.81	101.776
1068.18	106.462
1071.56	96.9908
1074.93	84.2906
1078.31	81.5397
1081.68	43.823
1085.06	46.2933
1088.43	41.8815
1091.81	48.0247
1095.18	18.8264
1098.55	27.9594
1101.93	9.87274
1105.3	13.5255
1108.68	19.6945
1112.05	14.8489
1115.43	20.9791
1118.8	7.15595
1122.18	4.63318
1125.55	21.9936
1128.93	20.3874
1132.3	6.29333
1135.68	1.14185
1139.05	2.75653
1142.43	0.773071
1145.8	35.1984
1149.18	9.25647
1152.55	15.0864
1155.93	11.3765
1159.3	24.8427
1162.68	2.43274
1166.05	4.35089
1169.42	1.75763
1172.8	28.7357
1176.17	21.8948
1179.55	22.8762
1182.92	2.97119
1186.3	15.3702
1189.67	23.0087
1193.05	10.4471
1196.42	7.3363
1199.8	4.8739
1203.17	20.5236
1206.55	17.9013
1209.92	35.8096
1213.3	4.18372
1216.67	16.0394
1220.05	21.3199
1223.42	20.7834
1226.8	21.7849
1230.17	25.5762
1233.55	1.69464
1236.92	34.2212
1240.3	32.2126
1243.67	24.6602
1247.05	24.6246
1250.42	16.1198
1253.8	20.1309
1257.17	1.14801
1260.55	23.4912
1263.92	5.58478
1267.3	34.9699
1270.67	25.3466
1274.05	41.3242
1277.42	27.4128
1280.79	21.2855
1284.17	2.10925
