Measurement: Raman, 514 nm, unoriented, Raman Data Processed
Mineral: Hemimorphite
Rruff sample: R040117
Ideal chemistry: Zn_4_Si_2_O_7_(OH)_2_H_2_O
Locality: Durango, Mexico
Source: University of Arizona Mineral Museum
Description: Colorless thin tabular crystals in a sheaflike aggregate
Measured chemistry: Zn_4.05_Si_1.97_O_7_((OH)_0.99_F_0.01_)_2_Â·H_2_O
Raman shift (cm-1)	intensity
112.864	0
117.034	1329.36
121.203	7086.09
125.369	19341.7
129.534	28550.1
133.696	23578.7
137.857	13630
142.016	6506.76
146.172	3248.88
150.327	2701.78
154.48	2538.44
158.63	2689.26
162.779	3703.12
166.926	3560.38
171.07	1924.52
175.213	403.431
179.354	297.916
183.493	454.674
187.63	290.514
191.765	104.258
195.898	201.345
200.029	501.346
204.158	1098.73
208.285	1694.43
212.41	1509.23
216.533	1178.7
220.654	893.764
224.773	665.575
228.891	575.472
233.006	532.402
237.119	442.635
241.231	412.645
245.34	350.959
249.448	306.483
253.553	431.425
257.657	667.432
261.758	1061.39
265.858	1733.25
269.956	2229.28
274.052	2237.88
278.146	1623.05
282.237	921.524
286.327	450.922
290.416	93.8523
294.502	15.7373
298.586	62.5537
302.668	103.406
306.749	95.9114
310.827	44.1191
314.903	133.565
318.978	716.373
323.051	2435.92
327.121	4469.52
331.19	3699.44
335.257	2093.72
339.322	1216.91
343.385	816.558
347.446	560.404
351.505	422.118
355.563	359.935
359.618	333.618
363.672	436.768
367.723	527.311
371.773	684.833
375.821	860.75
379.866	1089.88
383.91	1302.34
387.952	1654.85
391.992	1908.14
396.031	2158.56
400.067	2239.06
404.101	2185.08
408.134	1992.05
412.165	1706.75
416.193	1511.87
420.22	1354.47
424.245	1310.09
428.268	1568.87
432.289	1985.9
436.309	2888.52
440.326	5414.92
444.342	9274.02
448.355	15516
452.367	15793
456.377	10081
460.385	5634.03
464.391	3265.64
468.395	2032.24
472.398	1348.88
476.398	915.838
480.397	679.111
484.394	507.191
488.389	388.236
492.382	303.117
496.373	235.257
500.362	214.759
504.349	173.996
508.335	108.018
512.319	46.1323
516.3	25.0132
520.28	6.12683
524.259	6.69409
528.235	30.6278
532.209	51.4398
536.182	37.8589
540.152	5.61585
544.121	76.2781
548.088	395.295
552.053	962.971
556.017	923.063
559.978	621.043
563.938	447.138
567.895	360.645
571.851	277.903
575.805	226.811
579.758	193.248
583.708	139.671
587.657	68.3855
591.603	90.7056
595.548	19.6296
599.491	26.157
603.432	4.71521
607.372	9.95984
611.309	46.4699
615.245	48.1714
619.179	43.8364
623.111	28.2848
627.041	42.6312
630.97	1.88
634.896	22.2693
638.821	44.6422
642.744	71.8254
646.665	110.757
650.584	185.714
654.502	331.734
658.418	579.413
662.331	1083.43
666.244	2061.59
670.154	3652.43
674.062	4295.72
677.969	3079.62
681.874	1714.64
685.777	948.101
689.678	470.749
693.577	275.777
697.475	170.819
701.371	60.0714
705.265	15.6962
709.157	10.3838
713.047	27.6409
716.936	2.85803
720.823	30.8297
724.708	23.7167
728.591	17.8087
732.472	42.6501
736.352	14.1688
740.23	28.4279
744.106	61.3125
747.98	76.8411
751.853	72.9003
755.723	94.9517
759.592	127.469
763.459	105.96
767.325	124.213
771.188	188.645
775.05	175.459
778.91	163.019
782.768	175.036
786.625	169.663
790.479	177.85
794.332	96.3738
798.183	75.1857
802.033	95.5095
805.88	55.1984
809.726	9.93225
813.57	4.67114
817.413	16.5942
821.253	1.87927
825.092	23.3063
828.929	35.6398
832.764	37.4686
836.598	73.3612
840.429	89.3275
844.259	111.592
848.088	155.557
851.914	212.791
855.739	278.153
859.562	336.82
863.383	405.598
867.203	486.89
871.02	483.591
874.836	585.608
878.65	688.185
882.463	829.777
886.274	931.998
890.083	1215.15
893.89	1414.2
897.695	1762.09
901.499	2328.07
905.301	3000.15
909.102	4264.33
912.9	6293.62
916.697	10671
920.492	19754.6
924.285	33871.9
928.077	44906.3
931.867	42648.2
935.655	24638.3
939.442	12181.7
943.226	6688.28
947.009	4029.41
950.791	2640.16
954.57	1837.78
958.348	1319.72
962.124	1035.78
965.899	748.712
969.671	584.902
973.442	452.903
977.211	403.368
980.979	375.95
984.745	325.647
988.509	266.481
992.271	288.432
996.032	245.546
999.791	263.769
1003.55	205.088
1007.3	197.541
1011.06	172.132
1014.81	188.861
1018.56	117.766
1022.31	134.845
1026.06	120.058
1029.8	50.4343
1033.55	58.9828
1037.29	26.6654
1041.03	58.462
1044.77	49.1663
1048.5	49.3403
1052.24	38.3926
1055.97	37.5153
1059.7	43.706
1063.43	22.9628
1067.16	63.2825
1070.89	4.6626
1074.61	15.9061
1078.34	10.4574
1082.06	18.8751
1085.78	1.46667
1089.5	19.9746
1093.21	9.47522
1096.93	24.1023
1100.64	22.0699
1104.35	14.6228
1108.06	24.8331
1111.77	31.5741
1115.48	38.3545
1119.18	46.1216
1122.89	328.925
1126.59	242.756
1130.29	105.644
1133.99	120.51
1137.68	128.948
1141.38	147.626
1145.07	101.419
1148.76	125.804
1152.45	106.892
1156.14	108.516
1159.83	97.2061
1163.51	85.5165
1167.19	213.951
1170.88	178.161
1174.56	196.547
1178.23	279.498
1181.91	323.442
1185.59	388.621
1189.26	346.93
1192.93	356.743
1196.6	320.248
1200.27	354.643
1203.94	382.946
1207.6	304.19
1211.27	289.372
1214.93	291.481
1218.59	308.535
1222.25	242.585
1225.9	233.263
1229.56	225.074
1233.21	142.629
1236.86	42.3366
1240.51	84.7092
1244.16	37.0273
1247.81	49.7158
1251.45	59.1721
1255.1	38.4977
1258.74	8.7229
1262.38	9.83337
1266.02	43.8461
1269.66	24.4143
1273.29	2.29504
1276.93	18.6702
1280.56	38.8467
1284.19	10.0297
1287.82	13.0615
1291.45	36.6426
1295.07	30.1706
1298.7	13.4226
1302.32	7.82397
1305.94	18.0253
1309.56	33.9768
1313.18	16.7801
1316.8	59.4468
1320.41	37.0134
1324.02	13.3543
1327.63	81.8474
1331.24	57.9467
1334.85	76.9325
1338.46	79.8055
1342.06	103.687
1345.67	102.525
1349.27	190.078
1352.87	207.037
1356.47	224.924
1360.07	296.986
1363.66	310.32
1367.25	316.358
1370.85	309.315
1374.44	305.178
1378.03	281.012
1381.61	217.404
1385.2	183.608
1388.78	171.542
1392.37	144.549
1395.95	158.621
1399.53	151.729
1403.1	148.194
1406.68	80.1254
1410.26	97.6172
1413.83	122.735
1417.4	86.2468
1420.97	95.9398
1424.54	49.4357
1428.1	71.6899
1431.67	60.8643
1435.23	56.7615
1438.8	71.0464
1442.36	100.183
1445.91	33.0946
1449.47	50.7607
1453.03	98.1916
1456.58	65.3826
1460.13	64.2576
1463.68	52.7622
1467.23	78.9463
1470.78	41.9147
1474.33	50.7537
1477.87	54.7803
1481.42	46.725
1484.96	53.2239
1488.5	54.2651
1492.04	18.5564
1495.57	37.8705
1499.11	24.0787
1502.64	42.6887
1506.17	50.668
1509.71	46.0207
1513.23	61.1169
1516.76	0.012939
1520.29	14.3098
1523.81	72.823
1527.34	0
