Measurement: Raman, 532 nm, unoriented, Raman Data Processed
Mineral: Hemimorphite
Rruff sample: R040117
Ideal chemistry: Zn_4_Si_2_O_7_(OH)_2_H_2_O
Locality: Durango, Mexico
Source: University of Arizona Mineral Museum
Description: Colorless thin tabular crystals in a sheaflike aggregate
Measured chemistry: Zn_4.05_Si_1.97_O_7_((OH)_0.99_F_0.01_)_2_Â·H_2_O
Raman shift (cm-1)	intensity
118.806	0
122.181	61.8723
125.556	763.536
128.931	2104.31
132.306	3624.5
135.68	3825.88
139.055	2614.09
142.43	1618.44
145.805	1227.61
149.18	1162.23
152.554	1363.64
155.929	1730.24
159.304	2134.31
162.679	2754.91
166.054	3547.14
169.429	3880.53
172.803	2723.27
176.178	1303.07
179.553	447.7
182.928	94.3263
186.303	36.2852
189.678	86.4196
193.052	274.433
196.427	198.35
199.802	92.5194
203.177	102.873
206.552	186.921
209.926	405.062
213.301	521.144
216.676	464.13
220.051	324.512
223.426	165.726
226.8	82.5255
230.175	3.12781
233.55	23.2633
236.925	10.1775
240.3	37.2761
243.675	26.4398
247.049	22.7127
250.424	2.41284
253.799	30.3093
257.174	60.2428
260.549	109.25
263.923	193.412
267.298	282.577
270.673	404.291
274.048	442.559
277.423	378.368
280.798	303.576
284.173	211.12
287.547	140.523
290.922	87.2215
294.297	51.2571
297.672	7.66333
301.046	11.2384
304.421	18.7987
307.796	23.7557
311.171	4.57935
314.546	104.716
317.921	272.387
321.295	592.898
324.67	1178.8
328.045	2067.65
331.42	2087.13
334.795	1156.14
338.17	624.877
341.544	381.822
344.919	259.81
348.294	219.747
351.669	174.012
355.044	135.742
358.418	114.661
361.793	93.3801
365.168	102.551
368.543	135.073
371.918	186.236
375.293	263.205
378.667	323.895
382.042	416.407
385.417	540.234
388.792	667.655
392.167	788.383
395.541	900.557
398.916	936.398
402.291	965.735
405.666	857.048
409.041	695.498
412.416	526.959
415.79	352.009
419.165	235.066
422.54	122.161
425.915	63.8708
429.29	71.1646
432.664	104.817
436.039	221.366
439.414	465.158
442.789	828.86
446.164	1365.46
449.538	2004.67
452.913	2127.77
456.288	1447.9
459.663	763.403
463.038	381.698
466.413	224.604
469.787	103.222
473.162	48.6812
476.537	20.3969
479.912	4.55542
483.287	0.528137
486.661	9.14499
490.036	18.2408
493.411	6.43338
496.786	7.117
500.161	8.21393
503.536	1.08826
506.911	4.76678
510.285	6.57513
513.66	17.5202
517.035	27.1473
520.41	18.315
523.784	33.4526
527.159	35.3214
530.534	36.1307
533.909	56.1457
537.284	71.6463
540.659	130.378
544.033	195.968
547.408	336.818
550.783	490.774
554.158	626.697
557.533	509.05
560.908	388.969
564.282	323.525
567.657	278.626
571.032	223.202
574.407	176.305
577.782	135.061
581.156	124.454
584.531	78.5926
587.906	58.8824
591.281	46.3953
594.656	26.5033
598.031	18.3721
601.405	17.6407
604.78	3.68826
608.155	6.19409
611.53	10.4455
614.905	1.41119
618.279	10.5402
621.654	13.5234
625.029	17.1634
628.404	0.960785
631.779	12.6674
635.154	13.3665
638.528	16.3607
641.903	14.6626
645.278	36.6104
648.653	40.6197
652.028	60.7894
655.403	135.893
658.777	209.381
662.152	362.104
665.527	548.412
668.902	860.155
672.277	1142.13
675.651	1136.05
679.026	750.489
682.401	461.786
685.776	278.612
689.151	165.195
692.525	99.2113
695.9	68.9509
699.275	60.565
702.65	41.2474
706.025	21.6875
709.399	29.4627
712.774	9.15295
716.149	30.0329
719.524	0.604004
722.899	8.97803
726.274	1.48404
729.648	1.32864
733.023	1.01737
736.398	8.24997
739.773	1.28546
743.148	1.36704
746.523	15.4259
749.897	29.0994
753.272	33.9131
756.647	46.1081
760.022	30.7923
763.397	53.4114
766.771	57.5916
770.146	50.7501
773.521	49.3493
776.896	61.7801
780.271	60.6025
783.646	64.392
787.02	57.0353
790.395	52.6346
793.77	43.0955
797.145	41.2351
800.52	18.6434
803.894	20.7404
807.269	19.9515
810.644	14.7832
814.019	17.4993
817.394	0.53186
820.769	0.576111
824.143	7.13178
827.518	5.27594
830.893	3.90646
834.268	4.12497
837.643	1.21167
841.018	4.56299
844.392	10.0323
847.767	2.10077
851.142	9.5325
854.517	28.6899
857.891	36.7859
861.266	23.9193
864.641	21.3298
868.016	38.6206
871.391	50.1331
874.766	50.2972
878.14	61.2294
881.515	102.622
884.89	88.2934
888.265	153.094
891.64	222.415
895.015	265.152
898.389	342.153
901.764	435.825
905.139	588.45
908.514	905.191
911.889	1460.35
915.264	2458.93
918.638	4158.22
922.013	6491.17
925.388	8932.26
928.763	10750.2
932.138	9982.91
935.512	5693.04
938.887	2823.22
942.262	1581.13
945.637	912.894
949.012	603.514
952.386	370.119
955.761	241.115
959.136	154.218
962.511	86.416
965.886	55.0638
969.261	15.494
972.635	26.9877
976.01	16.7185
979.385	15.2156
982.76	3.871
986.135	17.7878
989.51	10.7966
992.884	29.0106
996.259	23.6475
999.634	3.61456
1003.01	8.1412
1006.38	0.464325
1009.76	3.5813
1013.13	10.6686
1016.51	2.74066
1019.88	4.24301
1023.26	9.97009
1026.63	8.77722
1030.01	0.911682
1033.38	1.74164
1036.76	13.1021
1040.13	13.4664
1043.51	10.9442
1046.88	12.3555
1050.26	23.262
1053.63	6.93732
1057.01	7.40552
1060.38	31.5613
1063.76	17.6162
1067.13	23.8282
1070.51	40.5929
1073.88	25.7417
1077.26	9.00217
1080.63	16.7528
1084	11.4536
1087.38	21.4703
1090.75	7.5379
1094.13	5.31628
1097.5	14.0199
1100.88	23.0211
1104.25	1.17856
1107.63	20.3727
1111	11.8828
1114.38	39.7084
1117.75	23.114
1121.13	25.9683
1124.5	21.3362
1127.88	21.5806
1131.25	22.5546
1134.63	34.6678
1138	28.1424
1141.38	30.509
1144.75	16.6896
1148.13	3.26709
1151.5	14.0652
1154.88	3.98321
1158.25	15.3486
1161.62	23.8041
1165	16.7843
1168.38	9.60062
1171.75	9.02534
1175.12	38.1068
1178.5	34.0102
1181.87	47.8519
1185.25	60.1631
1188.62	52.5834
1192	56.0688
1195.37	59.2765
1198.75	52.056
1202.12	62.477
1205.5	57.1937
1208.87	46.5062
1212.25	49.3756
1215.62	35.7108
1219	59.608
1222.37	36.4843
1225.75	42.7142
1229.12	20.4368
1232.5	21.6028
1235.87	16.0661
1239.25	7.44638
1242.62	8.046
1246	0.87468
1249.37	1.29907
1252.74	7.57887
1256.12	11.1573
1259.49	5.30214
1262.87	0.294754
1266.24	24.3934
1269.62	10.8132
1272.99	17.5078
1276.37	15.6756
1279.74	10.2383
1283.12	8.44844
1286.49	13.723
1289.87	12.3372
1293.24	5.87991
1296.62	10.242
1299.99	8.42566
1303.37	8.3791
