Measurement: Raman, 780 nm, unoriented, Raman Data Processed
Mineral: Hemihedrite
Rruff sample: R140133
Ideal chemistry: Pb^2+^_10_Zn^2+^(Cr^6+^O_4_)_6_(SiO_4_)_2_F_2_
Locality: Florence mine, Ripsey Hill Area, Ripsey District, Tortilla Mts, Pinal County, Arizona, USA
Source: Ron Gibbs
Description: Brown euhedral crystals
Measured chemistry: Pb_10.21_(Zn_0.88_Mg_0.07_)_∑=0.95_(Cr_5.84_S_0.09_P_0.07_)_∑=6.00_(Si_1.90_As_0.14_)_∑=2.04_O_34_H_1.47_ ; H_2_O calculated to achieve 34 O atoms.
Raman shift (cm-1)	intensity
100.72	0
104.095	115.765
107.47	94.9802
110.845	20.8119
114.219	4.80469
117.594	6.40939
120.969	12.533
124.344	9.86887
127.719	1.94177
131.094	1.8754
134.468	0.315109
137.843	10.4745
141.218	18.3021
144.593	17.2942
147.968	13.6449
151.342	12.7905
154.717	16.1587
158.092	22.8616
161.467	45.0404
164.842	64.8031
168.216	78.8598
171.591	85.9919
174.966	84.0789
178.341	75.9213
181.716	64.9716
185.09	52.4005
188.465	39.3768
191.84	30.264
195.215	24.9669
198.59	22.7158
201.965	20.3419
205.339	19.1705
208.714	19.7468
212.089	19.251
215.464	21.1834
218.839	22.1913
222.214	22.2849
225.588	20.2909
228.963	17.8032
232.338	14.6887
235.713	13.0967
239.088	10.6348
242.462	7.89681
245.837	5.21846
249.212	4.44797
252.587	2.4958
255.962	0.757698
259.336	2.19602
262.711	4.11214
266.086	5.16735
269.461	6.0917
272.836	6.19211
276.211	4.20619
279.585	1.11529
282.96	4.38917
286.335	11.7718
289.71	21.3
293.085	34.5477
296.459	50.5814
299.834	70.8818
303.209	98.8129
306.584	132.342
309.959	166.881
313.334	195.842
316.708	231.87
320.083	290.724
323.458	388.972
326.833	539.581
330.207	710.8
333.582	869.504
336.957	932.844
340.332	921.058
343.707	835.156
347.082	691.46
350.456	617.668
353.831	613.518
357.206	567.406
360.581	464.908
363.956	422.261
367.33	393.738
370.705	375.387
374.08	305.226
377.455	242.469
380.83	255.935
384.205	257.613
387.579	301.84
390.954	352.86
394.329	312.075
397.704	217.564
401.079	167.069
404.453	151.092
407.828	118.111
411.203	66.2568
414.578	32.5739
417.953	14.1546
421.327	4.70976
424.702	1.24519
428.077	4.20278
431.452	4.15678
434.827	4.59725
438.202	3.98443
441.576	3.73806
444.951	2.01992
448.326	0.527576
451.701	1.1562
455.076	2.42439
458.45	4.44523
461.825	6.24944
465.2	8.21568
468.575	9.43953
471.95	11.1275
475.325	13.0072
478.699	15.2504
482.074	16.9516
485.449	19.0378
488.824	19.8342
492.199	19.1035
495.573	17.2468
498.948	13.4612
502.323	10.9511
505.698	7.48266
509.073	6.88594
512.447	5.52609
515.822	5.63082
519.197	5.90165
522.572	6.58292
525.947	8.08362
529.322	10.0896
532.696	11.7608
536.071	12.4545
539.446	9.10641
542.821	5.3092
546.196	2.76521
549.57	1.94525
552.945	1.31601
556.32	0.542931
559.695	0.335612
563.07	0.076137
566.444	0.375816
569.819	0.37389
573.194	1.16593
576.569	0.410505
579.944	0.067124
583.319	0.147528
586.693	0.191566
590.068	0.908166
593.443	1.05708
596.818	1.60134
600.193	2.1238
603.567	2.61925
606.942	3.19194
610.317	3.66579
613.692	4.13858
617.067	4.95488
620.442	5.97362
623.816	6.49823
627.191	7.40909
630.566	8.07218
633.941	10.0222
637.316	10.5826
640.69	11.7634
644.065	12.9883
647.44	14.2047
650.815	15.719
654.19	16.9538
657.564	18.3542
660.939	19.6075
664.314	20.9226
667.689	22.2076
671.064	23.8109
674.439	25.2401
677.813	26.7424
681.188	28.6256
684.563	30.0768
687.938	31.7437
691.313	32.8918
694.688	33.8677
698.062	33.492
701.437	31.4265
704.812	29.0421
708.187	25.9975
711.562	22.5675
714.936	19.4313
718.311	15.9809
721.686	12.4153
725.061	9.12873
728.436	4.76255
731.81	2.41289
735.185	1.44554
738.56	3.56629
741.935	5.36707
745.31	6.97569
748.684	8.64691
752.059	8.61352
755.434	6.81024
758.809	1.53609
762.184	12.1426
765.559	33.6583
768.933	67.8193
772.308	118.104
775.683	186.909
779.058	264.74
782.433	341.338
785.808	362.489
789.182	320.399
792.557	275.811
795.932	262.011
799.307	270.609
802.682	318.748
806.056	415.477
809.431	556.087
812.806	747.277
816.181	994.408
819.556	1218.24
822.93	1255.35
826.305	1117.42
829.68	1008.68
833.055	992.221
836.43	1085.72
839.804	1243.74
843.179	1379.12
846.554	1289.89
849.929	948.088
853.304	679.877
856.679	596.395
860.053	615.444
863.428	613.441
866.803	535.336
870.178	418.153
873.553	271.693
876.927	150.394
880.302	71.7139
883.677	36.8866
887.052	24.1903
890.427	18.5893
893.802	7.52675
897.176	4.56888
900.551	3.50583
903.926	8.43646
907.301	26.8361
910.676	41.8431
914.05	46.9513
917.425	39.9416
920.8	32.7478
924.175	22.3219
927.55	5.70198
930.924	6.49206
934.299	9.79396
937.674	10.0146
941.049	6.89975
944.424	3.73757
947.799	0.111942
951.173	4.6332
954.548	8.76964
957.923	13.2582
961.298	17.442
964.673	20.3387
968.047	24.3751
971.422	27.0632
974.797	30.5118
978.172	33.4671
981.547	36.5178
984.922	38.886
988.296	40.6056
991.671	39.3807
995.046	36.7757
998.421	32.8864
1001.8	29.4037
1005.17	26.3747
1008.54	24.1323
1011.92	22.5139
1015.29	21.4093
1018.67	20.3954
1022.04	19.2911
1025.42	18.2827
1028.79	17.2154
1032.17	16.3722
1035.54	14.6766
1038.92	14.019
1042.29	12.8448
1045.67	11.6905
1049.04	10.3952
1052.42	9.45192
1055.79	8.34381
1059.17	7.34507
1062.54	6.43506
1065.92	5.67706
1069.29	4.90901
1072.67	4.40595
1076.04	3.79135
1079.42	3.42629
1082.79	2.73377
1086.17	2.13489
1089.54	1.90565
1092.92	1.63212
1096.29	1.36047
1099.66	0.687943
1103.04	0.529073
1106.41	0.382051
1109.79	0.010335
1113.16	0.227627
1116.54	0.229049
1119.91	0.266984
1123.29	0.21906
1126.66	0.262476
1130.04	0.149803
1133.41	0.310024
1136.79	0.071289
1140.16	0.058658
1143.54	0.326705
1146.91	0.041144
1150.29	0.136288
1153.66	0.170931
1157.04	0.049617
1160.41	0.082444
1163.79	0.064553
1167.16	0.365318
1170.54	0.23421
1173.91	0.227157
1177.29	0.179041
1180.66	0.367267
1184.04	3.65383
1187.41	0.123828
1190.79	0.320564
1194.16	0.332082
1197.54	0.205258
1200.91	0.147177
1204.28	0.258904
1207.66	0.138522
1211.03	0.291512
1214.41	0.380684
1217.78	0.37557
1221.16	0.492185
1224.53	0.576323
1227.91	0.419786
1231.28	0.189725
1234.66	0.534973
1238.03	0.359486
1241.41	0.158566
1244.78	0.202558
1248.16	0.241246
1251.53	0.092409
1254.91	0.192534
1258.28	0.345484
1261.66	0.383735
1265.03	0.24737
1268.41	0.450801
1271.78	0.057799
1275.16	0.366484
1278.53	0.272939
1281.9	0.185684
