Measurement: Raman, 532 nm, unoriented, Raman Data Processed
Mineral: Hemihedrite
Rruff sample: R140134
Ideal chemistry: Pb^2+^_10_Zn^2+^(Cr^6+^O_4_)_6_(SiO_4_)_2_F_2_
Locality: Rat Tail Claim, Wickenburg Area, Belmont Mts, Maricopa County, Arizona, USA
Source: Ron Gibbs
Description: Orange axe-head shaped crystals
Measured chemistry: Pb_10.05_(Zn_0.91_Mg_0.02_)_∑=0.93_(Cr_5.98_S_0.01_P_0.01_)_∑=6.00_Si_1.97_O_34_H_2.16_ ; H_2_O calculated to achieve 34 O atoms.
Raman shift (cm-1)	intensity
90.2653	0
93.6401	2.09341
97.0149	5.95154
100.39	16.1544
103.765	25.794
107.139	36.8241
110.514	37.7306
113.889	36.4825
117.264	33.4738
120.639	29.1868
124.013	26.8464
127.388	23.2223
130.763	21.3391
134.138	18.1225
137.513	15.9185
140.888	12.9811
144.262	9.12376
147.637	7.01303
151.012	3.98242
154.387	2.39424
157.762	2.72839
161.137	0.857666
164.511	2.17296
167.886	1.77678
171.261	1.16405
174.636	0.529739
178.011	0.791901
181.385	0.370895
184.76	1.22969
188.135	0.243713
191.51	0.910004
194.885	0.367386
198.26	0.814629
201.634	1.5921
205.009	0.310715
208.384	0.057274
211.759	0.251747
215.133	0.197739
218.508	1.09892
221.883	1.31745
225.258	0.004089
228.633	0.172913
232.008	0.782608
235.382	0.559967
238.757	0.192368
242.132	0.032837
245.507	0.243225
248.882	0.154465
252.256	0.642914
255.631	0.119408
259.006	0.853088
262.381	0.348083
265.756	0.233017
269.131	0.981461
272.505	0.423553
275.88	0.983688
279.255	0.996452
282.63	1.86045
286.005	3.49179
289.38	3.92007
292.754	4.76325
296.129	6.96692
299.504	7.87651
302.879	9.70013
306.254	11.0639
309.628	14.7651
313.003	19.8318
316.378	27.7038
319.753	40.5278
323.128	58.0366
326.502	78.105
329.877	102.471
333.252	125.469
336.627	144.111
340.002	149.247
343.377	139.158
346.751	118.481
350.126	97.6915
353.501	81.8753
356.876	70.8761
360.251	65.2885
363.625	60.2723
367	55.6013
370.375	55.3873
373.75	55.2976
377.125	51.114
380.5	50.5041
383.874	43.6733
387.249	40.6019
390.624	33.0249
393.999	21.4072
397.374	13.5893
400.748	10.3103
404.123	9.32176
407.498	6.01785
410.873	5.33423
414.248	3.23572
417.623	2.65661
420.997	1.41518
424.372	0.463318
427.747	0.403008
431.122	0.527893
434.497	1.26127
437.872	0.471519
441.246	1.02875
444.621	0.51886
447.996	0.445343
451.371	0.314011
454.745	0.379395
458.12	0.060989
461.495	0.459373
464.87	1.12472
468.245	1.69773
471.62	1.68677
474.994	1.56016
478.369	2.64987
481.744	3.44462
485.119	3.6217
488.494	3.95459
491.868	4.62517
495.243	3.66036
498.618	2.79798
501.993	1.59238
505.368	0.342545
508.743	0.177032
512.117	0.391418
515.492	0.009338
518.867	0.399399
522.242	0.780785
525.617	0.246727
528.991	0.219963
532.366	1.40078
535.741	0.269722
539.116	0.511284
542.491	0.184166
545.866	0.027031
549.24	0.20697
552.615	0.771049
555.99	0.310616
559.365	0.934769
562.74	1.22549
566.115	2.1455
569.489	0.864738
572.864	1.79158
576.239	2.33887
579.614	3.4156
582.989	3.42357
586.363	4.49498
589.738	4.91044
593.113	5.66838
596.488	5.31758
599.863	6.26884
603.237	6.30421
606.612	7.04613
609.987	8.41931
613.362	8.9947
616.737	9.44845
620.112	9.95063
623.486	11.2148
626.861	12.187
630.236	14.1412
633.611	13.645
636.986	15.8996
640.361	17.1804
643.735	18.1937
647.11	18.5103
650.485	20.2757
653.86	22.1413
657.235	21.4369
660.609	22.6073
663.984	23.1806
667.359	24.8535
670.734	24.9766
674.109	25.8971
677.484	25.6178
680.858	25.4548
684.233	26.0759
687.608	25.5847
690.983	23.2288
694.357	21.459
697.732	18.8151
701.107	17.0753
704.482	15.2493
707.857	12.5438
711.232	9.74384
714.606	6.83768
717.981	5.16142
721.356	1.51117
724.731	0.236496
728.106	2.10731
731.481	4.91556
734.855	4.35603
738.23	6.18906
741.605	6.72412
744.98	5.2883
748.355	4.14853
751.729	1.06363
755.104	1.64932
758.479	9.63711
761.854	19.2611
765.229	37.4741
768.604	58.5302
771.978	85.1387
775.353	109.254
778.728	126.676
782.103	130.107
785.478	122.158
788.852	107.85
792.227	102.66
795.602	112.139
798.977	135.52
802.352	184.417
805.726	260.526
809.101	366.293
812.476	496.503
815.851	637.547
819.226	760.303
822.601	823.312
825.975	833.189
829.35	846.013
832.725	878.502
836.1	930.941
839.475	969.656
842.85	959.523
846.224	918.623
849.599	888.365
852.974	887.843
856.349	911.473
859.724	905.468
863.098	831.902
866.473	688.977
869.848	523.504
873.223	374.002
876.598	256.228
879.972	175.155
883.347	117.205
886.722	72.146
890.097	53.6576
893.472	25.8948
896.847	9.75848
900.221	5.17001
903.596	5.01746
906.971	5.31616
910.346	6.00565
913.721	4.65006
917.096	0.240234
920.47	5.97174
923.845	8.51767
927.22	8.94839
930.595	7.83131
933.97	4.78142
937.344	0.188599
940.719	0.702042
944.094	4.25409
947.469	7.8658
950.844	11.8586
954.218	14.4595
957.593	16.6972
960.968	19.5756
964.343	23.1659
967.718	25.2149
971.092	27.7879
974.467	30.3613
977.842	32.3744
981.217	31.6416
984.592	31.3765
987.967	28.8952
991.341	27.3982
994.716	24.3837
998.091	22.7251
1001.47	22.8488
1004.84	22.2576
1008.22	20.2931
1011.59	20.8254
1014.97	19.9765
1018.34	19.1332
1021.72	17.8185
1025.09	17.3271
1028.46	16.6545
1031.84	14.9744
1035.21	14.576
1038.59	13.1622
1041.96	11.3841
1045.34	11.3633
1048.71	10.7849
1052.09	10.3051
1055.46	7.91473
1058.84	7.63886
1062.21	6.72052
1065.59	6.27533
1068.96	4.89735
1072.34	4.42549
1075.71	3.79199
1079.09	2.89827
1082.46	1.68022
1085.84	3.11861
1089.21	1.32135
1092.59	1.56038
1095.96	1.16216
1099.34	1.57129
1102.71	0.691635
1106.09	0.661926
1109.46	1.76303
1112.84	0.13913
1116.21	0.540024
1119.58	0.954132
1122.96	0.480606
1126.33	0.109344
1129.71	0.135864
1133.08	0.469543
1136.46	0.551666
1139.83	0.965408
1143.21	0.2061
1146.58	0.16362
1149.96	0.347397
1153.33	0.648911
1156.71	0.229279
1160.08	0.522339
1163.46	0.405136
1166.83	0.679581
1170.21	0.028107
1173.58	0.146515
1176.96	0.017487
1180.33	0.792709
1183.71	0.7435
1187.08	0.540237
1190.46	1.83096
1193.83	1.03323
1197.2	1.94638
1200.58	0.805542
1203.95	1.21507
1207.33	1.99034
1210.7	2.50552
1214.08	2.70499
1217.45	2.24773
1220.83	1.37044
1224.2	2.04099
1227.58	2.91908
1230.95	2.52713
1234.33	2.15605
1237.7	2.42853
1241.08	1.64641
1244.45	1.71245
1247.83	3.01839
1251.2	1.82291
1254.58	1.01878
1257.95	2.91342
1261.33	2.02585
1264.7	1.01053
1268.08	0.590591
1271.45	0.698685
1274.83	0.648346
1278.2	0.415634
1281.58	0.972641
1284.95	0.009979
1288.33	0.177551
1291.7	0.478455
1295.08	0.247223
1298.45	0.661728
1301.83	0
