Measurement: Raman, 532 nm, unoriented, Raman Data Processed
Mineral: Hemihedrite
Rruff sample: R140133
Ideal chemistry: Pb^2+^_10_Zn^2+^(Cr^6+^O_4_)_6_(SiO_4_)_2_F_2_
Locality: Florence mine, Ripsey Hill Area, Ripsey District, Tortilla Mts, Pinal County, Arizona, USA
Source: Ron Gibbs
Description: Brown euhedral crystals
Measured chemistry: Pb_10.21_(Zn_0.88_Mg_0.07_)_∑=0.95_(Cr_5.84_S_0.09_P_0.07_)_∑=6.00_(Si_1.90_As_0.14_)_∑=2.04_O_34_H_1.47_ ; H_2_O calculated to achieve 34 O atoms.
Raman shift (cm-1)	intensity
90.2653	0
93.6401	20.2606
97.0149	40.9209
100.39	62.9604
103.765	68.2907
107.139	75.882
110.514	67.8494
113.889	66.8577
117.264	58.5856
120.639	40.4382
124.013	37.4495
127.388	26.1957
130.763	19.3539
134.138	10.9268
137.513	9.38003
140.888	4.60016
144.262	1.64505
147.637	0.909821
151.012	2.51846
154.387	0.163849
157.762	1.94467
161.137	0.756012
164.511	0.680237
167.886	0.666962
171.261	2.97485
174.636	1.01981
178.011	1.1022
181.385	1.96378
184.76	0.486298
188.135	0.163849
191.51	0.809998
194.885	1.05255
198.26	1.06158
201.634	3.18603
205.009	2.0611
208.384	3.47345
211.759	2.70657
215.133	6.86215
218.508	6.71539
221.883	6.78607
225.258	5.33002
228.633	7.33243
232.008	6.0965
235.382	5.85138
238.757	5.88068
242.132	5.21213
245.507	5.09714
248.882	0.812622
252.256	0.295868
255.631	1.01709
259.006	1.39923
262.381	0.436279
265.756	2.65527
269.131	1.82129
272.505	1.32416
275.88	2.08536
279.255	0.111816
282.63	0.817657
286.005	4.85913
289.38	6.4407
292.754	11.1912
296.129	13.5999
299.504	16.8044
302.879	21.0427
306.254	26.3883
309.628	36.0993
313.003	49.0452
316.378	66.8653
319.753	90.7928
323.128	123.549
326.502	163.49
329.877	199.457
333.252	221.251
336.627	225.064
340.002	215.174
343.377	197.044
346.751	175.016
350.126	160.92
353.501	153.425
356.876	151.534
360.251	153.551
363.625	162.011
367	166.084
370.375	154.811
373.75	132.732
377.125	113.162
380.5	104.472
383.874	103.523
387.249	101.244
390.624	95.6595
393.999	81.2366
397.374	67.9316
400.748	55.2263
404.123	45.9636
407.498	36.419
410.873	22.233
414.248	16.035
417.623	13.1775
420.997	8.70575
424.372	6.11798
427.747	4.32593
431.122	0.187531
434.497	1.54571
437.872	1.31363
441.246	0.75708
444.621	1.40552
447.996	1.00848
451.371	1.72485
454.745	0.717438
458.12	1.19205
461.495	0.994537
464.87	0.148956
468.245	0.139862
471.62	0.104401
474.994	2.12582
478.369	1.44821
481.744	2.9328
485.119	4.92993
488.494	9.19223
491.868	9.05914
495.243	8.85516
498.618	7.0592
501.993	4.80344
505.368	3.76901
508.743	3.37335
512.117	2.24438
515.492	2.48224
518.867	3.27307
522.242	2.41855
525.617	2.26212
528.991	2.3678
532.366	1.91534
535.741	0.857574
539.116	0.880066
542.491	0.371216
545.866	1.51566
549.24	1.966
552.615	0.191284
555.99	2.13379
559.365	2.36951
562.74	4.05463
566.115	3.84299
569.489	4.98965
572.864	6.07108
576.239	6.68048
579.614	7.89969
582.989	8.74237
586.363	10.0078
589.738	11.1866
593.113	13.8611
596.488	14.8954
599.863	14.9274
603.237	17.4044
606.612	19.721
609.987	20.3495
613.362	22.8461
616.737	24.111
620.112	25.698
623.486	27.1242
626.861	29.2769
630.236	32.8847
633.611	33.5854
636.986	35.0433
640.361	37.8519
643.735	40.3068
647.11	43.86
650.485	45.0184
653.86	46.2715
657.235	49.4202
660.609	51.4128
663.984	53.1902
667.359	54.7362
670.734	61.2485
674.109	54.4659
677.484	53.0205
680.858	49.9893
684.233	45.4592
687.608	42.9038
690.983	35.2597
694.357	31.0287
697.732	25.0616
701.107	19.1503
704.482	14.3527
707.857	11.1113
711.232	5.23792
714.606	0.052948
717.981	4.27512
721.356	7.1951
724.731	8.51032
728.106	11.7173
731.481	12.162
734.855	12.3099
738.23	9.94806
741.605	6.90253
744.98	1.05926
748.355	10.0029
751.729	25.9465
755.104	42.1815
758.479	63.3875
761.854	92.0461
765.229	130.081
768.604	173.423
771.978	220.553
775.353	259.059
778.728	291.089
782.103	313.189
785.478	321.059
788.852	325.545
792.227	332.657
795.602	353.178
798.977	396.754
802.352	470.976
805.726	580.882
809.101	722.125
812.476	887.852
815.851	1087.62
819.226	1291.99
822.601	1471.87
825.975	1610.13
829.35	1717.17
832.725	1788.28
836.1	1799
839.475	1744.69
842.85	1627
846.224	1471.7
849.599	1305.93
852.974	1164.23
856.349	1045.73
859.724	934.549
863.098	799.304
866.473	647.057
869.848	497.759
873.223	372.228
876.598	265.29
879.972	183.415
883.347	120.753
886.722	77.0038
890.097	42.4818
893.472	23.2445
896.847	9.96289
900.221	4.36639
903.596	1.27106
906.971	2.10315
910.346	6.81421
913.721	4.50647
917.096	9.3429
920.47	11.5358
923.845	11.444
927.22	8.32574
930.595	5.25012
933.97	1.96625
937.344	3.21817
940.719	9.0484
944.094	14.0348
947.469	20.3775
950.844	28.4231
954.218	34.1223
957.593	38.7854
960.968	43.0718
964.343	51.4638
967.718	57.3475
971.092	60.0243
974.467	63.0781
977.842	64.364
981.217	64.3881
984.592	62.7437
987.967	59.4705
991.341	57.6873
994.716	53.1137
998.091	51.2935
1001.47	48.0421
1004.84	48.3484
1008.22	45.42
1011.59	44.633
1014.97	41.2941
1018.34	39.7064
1021.72	35.6913
1025.09	35.3112
1028.46	32.4722
1031.84	29.608
1035.21	29.6659
1038.59	25.751
1041.96	24.757
1045.34	22.9726
1048.71	20.2112
1052.09	18.3739
1055.46	25.5259
1058.84	14.0694
1062.21	12.9553
1065.59	13.0396
1068.96	11.1989
1072.34	18.2575
1075.71	6.82071
1079.09	6.45038
1082.46	5.83106
1085.84	4.62003
1089.21	3.66122
1092.59	3.1843
1095.96	2.49268
1099.34	2.21228
1102.71	1.26724
1106.09	1.67166
1109.46	0.156677
1112.84	0.865662
1116.21	0.989471
1119.58	0.433899
1122.96	0.550415
1126.33	1.39609
1129.71	0.590637
1133.08	1.23456
1136.46	0.182617
1139.83	0.02121
1143.21	0.754181
1146.58	0.551575
1149.96	0.214386
1153.33	1.53632
1156.71	0.576569
1160.08	0.792816
1163.46	0.050964
1166.83	0.556305
1170.21	0.843292
1173.58	1.02631
1176.96	0.864136
1180.33	4.12738
1183.71	2.06244
1187.08	2.17996
1190.46	2.76425
1193.83	1.79083
1197.2	3.91412
1200.58	2.59045
1203.95	4.69537
1207.33	4.97742
1210.7	3.60266
1214.08	5.87488
1217.45	4.8447
1220.83	6.72287
1224.2	5.73505
1227.58	5.76971
1230.95	5.03915
1234.33	5.19708
1237.7	5.53217
1241.08	3.90292
1244.45	4.05576
1247.83	4.90808
1251.2	6.15509
1254.58	4.09982
1257.95	5.0932
1261.33	2.23804
1264.7	1.9252
1268.08	1.3591
1271.45	1.18204
1274.83	2.2854
1278.2	3.73904
1281.58	1.36719
1284.95	0.676056
1288.33	1.52389
1291.7	0.287659
1295.08	0.129517
1298.45	1.53195
1301.83	0
