Measurement: Raman, 785 nm, unoriented, Raman Data Processed
Mineral: Hemimorphite
Rruff sample: R040117
Ideal chemistry: Zn_4_Si_2_O_7_(OH)_2_H_2_O
Locality: Durango, Mexico
Source: University of Arizona Mineral Museum
Description: Colorless thin tabular crystals in a sheaflike aggregate
Measured chemistry: Zn_4.05_Si_1.97_O_7_((OH)_0.99_F_0.01_)_2_Â·H_2_O
Raman shift (cm-1)	intensity
124.876	0
127.769	79.7301
130.662	381.659
133.554	655.313
136.447	432.228
139.34	190.699
142.232	117.089
145.125	200.3
148.018	377.193
150.911	603.678
153.803	722.209
156.696	888.781
159.589	1083.35
162.481	1517.66
165.374	2041.02
168.267	2517.48
171.16	2401.13
174.052	1628.34
176.945	886.051
179.838	434.092
182.73	162.23
185.623	23.321
188.516	7.78217
191.408	19.3955
194.301	35.0867
197.194	18.3917
200.087	17.8885
202.979	30.1761
205.872	96.2149
208.765	177.353
211.657	310.414
214.55	387.156
217.443	335.248
220.335	225.707
223.228	155.115
226.121	82.283
229.013	40.4822
231.906	0.642517
234.799	19.4088
237.692	11.3353
240.584	13.7484
243.477	21.0118
246.37	16.9142
249.262	11.0798
252.155	13.9901
255.048	19.3178
257.941	38.6462
260.833	64.3657
263.726	89.8132
266.619	116.153
269.511	153.242
272.404	171.944
275.297	169.163
278.19	150.763
281.082	141.299
283.975	93.6225
286.868	59.8505
289.76	39.2812
292.653	10.7991
295.546	8.09
298.438	10.4347
301.331	18.0006
304.224	10.0191
307.116	13.4133
310.009	0.354065
312.902	31.0342
315.795	116.094
318.687	224.745
321.58	397.486
324.473	678.797
327.365	1158.43
330.258	1436.43
333.151	1105.72
336.043	650.466
338.936	386.876
341.829	256.529
344.721	205.284
347.614	154.993
350.507	131.307
353.4	100.311
356.292	102
359.185	79.6602
362.078	77.2324
364.97	90.4017
367.863	107.326
370.756	122.807
373.649	189.617
376.541	219.532
379.434	266.485
382.327	315.559
385.219	373.229
388.112	453.225
391.005	506.183
393.897	591.138
396.79	644.36
399.683	644.974
402.575	665.583
405.468	585.293
408.361	520.814
411.254	412.459
414.146	301.856
417.039	222.014
419.932	137.502
422.824	96.5122
425.717	62.6319
428.61	50.3826
431.502	55.0126
434.395	62.9687
437.288	122.585
440.181	174.336
443.073	299.803
445.966	438.843
448.859	627.073
451.751	774.089
454.644	661.065
457.537	434.318
460.43	224.238
463.322	132.004
466.215	64.6868
469.108	35.6996
472	17.5944
474.893	5.36507
477.786	5.43103
480.678	16.4766
483.571	18.7273
486.464	1.64639
489.356	11.0375
492.249	2.03909
495.142	4.36493
498.035	7.59665
500.927	1.62988
503.82	5.07378
506.713	14.452
509.605	11.1377
512.498	17.3116
515.391	20.3823
518.284	23.6647
521.176	15.1543
524.069	24.0405
526.962	25.5955
529.854	24.8407
532.747	37.0204
535.64	56.0236
538.533	71.1966
541.425	95.8505
544.318	133.716
547.211	217.476
550.103	298.01
552.996	388.539
555.889	382.077
558.781	251.556
561.674	167.657
564.567	118.073
567.459	108.841
570.352	80.6612
573.245	59.7717
576.138	50.4572
579.03	45.2947
581.923	44.8311
584.816	26.1326
587.708	25.1391
590.601	23.7846
593.494	8.54264
596.386	15.5626
599.279	9.19885
602.172	13.4634
605.064	3.52515
607.957	13.0671
610.85	3.35857
613.743	3.02338
616.635	0.020966
619.528	2.3601
622.421	3.60963
625.313	8.76907
628.206	7.0657
631.099	7.37506
633.991	11.0987
636.884	5.24534
639.777	3.97494
642.67	16.4206
645.562	21.3045
648.455	21.7422
651.348	30.8905
654.24	66.3605
657.133	88.842
660.026	118.18
662.918	202.315
665.811	305.453
668.704	453.063
671.597	606.689
674.489	679.985
677.382	552.477
680.275	383.765
683.167	248.014
686.06	157.891
688.953	96.6483
691.846	82.1691
694.738	59.7195
697.631	37.6825
700.524	37.6544
703.416	21.3524
706.309	18.7956
709.202	2.06566
712.094	13.7668
714.987	5.47541
717.88	5.2136
720.773	10.3109
723.665	3.36562
726.558	14.5503
729.451	14.3435
732.343	13.0287
735.236	6.32069
738.129	2.06208
741.021	8.81858
743.914	3.38351
746.807	0.415367
749.699	7.76239
752.592	19.4217
755.485	1.07773
758.378	19.5362
761.27	25.2619
764.163	20.9702
767.056	9.72827
769.948	24.8173
772.841	23.5565
775.734	29.074
778.626	21.6072
781.519	29.393
784.412	22.7503
787.305	16.6964
790.197	22.6643
793.09	25.3423
795.983	23.9969
798.875	15.8467
801.768	16.1629
804.661	6.45787
807.553	7.90969
810.446	2.73571
813.339	5.15322
816.232	10.6336
819.124	4.76299
822.017	16.2714
824.91	3.67651
827.802	3.86431
830.695	4.41961
833.588	0.471474
836.481	1.6656
839.373	4.76559
842.266	7.80402
845.159	5.82913
848.051	2.42065
850.944	6.5377
853.837	6.96458
856.729	5.42002
859.622	20.2959
862.515	17.9236
865.408	3.68608
868.3	14.9907
871.193	26.4628
874.086	15.6629
876.978	15.4392
879.871	22.9079
882.764	37.5222
885.656	45.7978
888.549	54.8563
891.442	84.8926
894.335	90.5109
897.227	118.069
900.12	139.722
903.013	177.33
905.905	250.05
908.798	339.61
911.691	478.091
914.583	747.466
917.476	1149.07
920.369	1764.48
923.261	2664.7
926.154	3659.1
929.047	4703.39
931.94	4762.69
934.832	3378.89
937.725	1861.99
940.618	1064.94
943.51	658.476
946.403	423.509
949.296	289.154
952.188	188.958
955.081	126.482
957.974	86.0396
960.867	66.7433
963.759	30.52
966.652	32.3293
969.545	19.8218
972.437	19.7766
975.33	10.6083
978.223	9.53481
981.115	15.2972
984.008	8.85918
986.901	1.46809
989.794	4.49896
992.686	7.23553
995.579	3.58217
998.472	0.46701
1001.36	0.734009
1004.26	6.57663
1007.15	5.33971
1010.04	1.69555
1012.93	2.75923
1015.83	3.21812
1018.72	0.159676
1021.61	4.61791
1024.51	6.00313
1027.4	4.7638
1030.29	16.5521
1033.18	4.48529
1036.08	0.501541
1038.97	10.0493
1041.86	8.62922
1044.76	12.0936
1047.65	21.8134
1050.54	13.186
1053.43	13.2219
1056.33	10.0114
1059.22	17.0896
1062.11	4.43905
1065	14.5447
1067.9	16.1882
1070.79	20.8546
1073.68	13.8118
1076.58	4.9511
1079.47	3.53626
1082.36	1.31546
1085.25	13.351
1088.14	7.71241
1091.04	15.2687
1093.93	13.6736
1096.82	3.34132
1099.72	3.88448
1102.61	0.157959
1105.5	5.42634
1108.39	0.082664
1111.29	3.9954
1114.18	2.72395
1117.07	2.45328
1119.96	0.39856
1122.86	6.74883
1125.75	15.5539
1128.64	21.4826
1131.54	19.7124
1134.43	17.8684
1137.32	23.705
1140.21	11.9111
1143.11	15.2988
1146	4.37468
1148.89	13.359
1151.79	10.1962
1154.68	13.7461
1157.57	0.2108
1160.46	9.1808
1163.36	4.8922
1166.25	11.3738
1169.14	2.75202
1172.03	3.21242
1174.93	16.0188
1177.82	19.9035
1180.71	17.311
1183.6	16.4696
1186.5	10.7703
1189.39	8.4287
1192.28	8.57713
1195.17	24.045
1198.07	22.7972
1200.96	18.7499
1203.85	10.719
1206.75	16.9739
1209.64	9.9036
1212.53	7.14225
1215.42	5.87869
1218.32	14.0767
1221.21	12.0449
1224.1	6.44696
1226.99	9.30492
1229.89	16.9538
1232.78	10.3806
1235.67	1.12543
