Measurement: Raman, 532 nm, unoriented, Raman Data Processed
Mineral: Hemusite
Rruff sample: R061011
Ideal chemistry: Cu_6_SnMoS_8_
Locality: Kawazu mine, Shizuoka, Japan
Source: Michael Scott
Description: Metallic tarnished purple coatings and blebs in quartz
Raman shift (cm-1)	intensity
129.718	0
133.093	118.624
136.468	446.692
139.843	684.491
143.217	382.435
146.592	218.86
149.967	34.5798
153.342	34.217
156.717	41.419
160.091	30.186
163.466	92.3787
166.841	48.9944
170.216	36.9817
173.591	33.6372
176.965	57.4744
180.34	94.8709
183.715	131.289
187.09	102.034
190.465	145.41
193.84	87.2847
197.214	103.597
200.589	64.9959
203.964	72.1804
207.339	80.3367
210.714	52.5024
214.089	1.19531
217.463	12.1116
220.838	5.5813
224.213	0.630859
227.588	33.1902
230.963	33.4956
234.337	11.6619
237.712	60.9741
241.087	142.034
244.462	276.969
247.837	426.331
251.212	589.26
254.586	778.718
257.961	956.212
261.336	1156.23
264.711	1206.73
268.086	1041.74
271.46	794.971
274.835	602.019
278.21	446.088
281.585	378.742
284.96	287.09
288.334	212.823
291.709	170.839
295.084	82.1577
298.459	10.8687
301.834	65.5347
305.209	18.0061
308.583	27.4734
311.958	4.94995
315.333	62.4211
318.708	9.54004
322.083	76.3823
325.457	34.4424
328.832	51.3721
332.207	48.1338
335.582	13.7385
338.957	32.1924
342.332	15.9307
345.706	11.2703
349.081	46.0017
352.456	37.9875
355.831	71.7537
359.206	80.8816
362.58	173.554
365.955	234.216
369.33	375.872
372.705	601.104
376.08	899.318
379.454	1131.88
382.829	1279.84
386.204	1033.58
389.579	472.773
392.954	195.249
396.329	86.8938
399.703	113.253
403.078	17.1011
406.453	2.62207
409.828	19.0342
413.203	37.0513
416.577	37.9917
419.952	21.427
423.327	16.803
426.702	3.49487
430.077	117.648
433.452	204.892
436.826	314.637
440.201	530.498
443.576	878.672
446.951	1365.24
450.326	2221.43
453.7	3446.78
457.075	5415.91
460.45	8711.25
463.825	12971.3
467.2	17954.7
470.575	22589.7
473.949	21919.8
477.324	12558
480.699	5918.1
484.074	3139.17
487.449	1856.19
490.823	1190.66
494.198	816.259
497.573	591.33
500.948	423.258
504.323	382.322
507.697	269.527
511.072	236.932
514.447	194.273
517.822	99.8574
521.197	141.535
524.572	95.4009
527.946	128.074
531.321	103.803
534.696	24.2192
538.071	17.3276
541.446	53.7803
544.82	116.329
548.195	28.1382
551.57	38.6865
554.945	6.86792
558.32	0.129883
561.694	27.5808
565.069	28.7017
568.444	13.0457
571.819	15.1006
575.194	32.0278
578.568	20.1502
581.943	16.3567
585.318	52.4187
588.693	16.918
592.068	16.5225
595.443	27.8318
598.817	6.50122
602.192	45.9866
605.567	2.3064
608.942	27.5169
612.317	1.7915
615.692	6.20923
619.066	25.281
622.441	43.1873
625.816	92.6694
629.191	10.2046
632.566	73.314
635.94	46.5532
639.315	57.2329
642.69	79.9888
646.065	35.9243
649.44	82.0269
652.814	40.9714
656.189	67.4368
659.564	55.9287
662.939	67.1338
666.314	0.832764
669.688	0.260254
673.063	36.7788
676.438	19.5252
679.813	1.22217
683.188	49.1282
686.563	44.6977
689.937	66.2844
693.312	76.2424
696.687	89.9902
700.062	61.1016
703.437	13.499
706.812	21.0076
710.186	7.26123
713.561	37.5908
716.936	81.0808
720.311	81.6853
723.686	108.265
727.06	91.1262
730.435	127.056
733.81	119.111
737.185	77.8481
740.56	115.727
743.934	120.935
747.309	98.8979
750.684	97.8276
754.059	99.7664
757.434	107.787
760.809	70.8
764.183	36.033
767.558	29.0281
770.933	25.6514
774.308	17.1985
777.683	2.51758
781.057	6.39502
784.432	19.041
787.807	74.3318
791.182	43.885
794.557	65.135
797.932	92.7852
801.306	40.4307
804.681	27.6558
808.056	33.3447
811.431	85.0742
814.806	92.8433
818.18	91.9438
821.555	57.7539
824.93	116.77
828.305	36.4517
831.68	72.1284
835.054	26.2021
838.429	60.6074
841.804	24.1108
845.179	5.7876
848.554	55.7866
851.929	4.07861
855.303	2.99853
858.678	39.5117
862.053	44.831
865.428	15.8232
868.803	12.3755
872.178	15.855
875.552	33.7349
878.927	54.3701
882.302	55.8838
885.677	80.7519
889.052	122.712
892.426	142.727
895.801	160.27
899.176	173.082
902.551	202.931
905.926	283.103
909.3	354.336
912.675	386.627
916.05	515.561
919.425	558.892
922.8	596.111
926.174	620.076
929.549	517.062
932.924	375.132
936.299	311.117
939.674	267.748
943.049	189.06
946.423	128.458
949.798	109.236
953.173	83.6397
956.548	37.6333
959.923	25.939
963.298	20.582
966.672	17.2217
970.047	64.6719
973.422	4.53223
976.797	24.9839
980.172	54.3501
983.546	58.3574
986.921	18.7891
990.296	34.8496
993.671	23.4263
997.046	63.1221
1000.42	66.9731
1003.79	23.1299
1007.17	14.9097
1010.54	5.79492
1013.92	4.15381
1017.29	22.9121
1020.67	49.9321
1024.04	59.8315
1027.42	107.769
1030.79	75.6836
1034.17	66.2871
1037.54	61.5986
1040.92	71.479
1044.29	56.0962
1047.67	56.4995
1051.04	124.683
1054.42	54.4331
1057.79	68.686
1061.17	11.5981
1064.54	67.3784
1067.92	35.75
1071.29	42.5278
1074.67	11.2354
1078.04	15.5352
1081.42	76.6533
1084.79	76.2773
1088.17	62.2105
1091.54	124.905
1094.91	47.2134
1098.29	97.915
1101.66	55.4043
1105.04	77.8408
1108.41	125.56
1111.79	53.8105
1115.16	54.2588
1118.54	67.6943
1121.91	1.56787
1125.29	72.7827
1128.66	70.1894
1132.04	43.0322
1135.41	105.32
1138.79	57.7105
1142.16	24.7031
1145.54	39.126
1148.91	24.751
1152.29	59.9482
1155.66	87.2622
1159.04	52.1226
1162.41	33.1138
1165.79	11.7861
1169.16	7.6084
1172.54	46.1807
1175.91	0.766113
1179.29	64.4438
1182.66	105.582
1186.04	35.5542
1189.41	64.667
1192.79	87.4356
1196.16	29.9341
1199.54	7.73779
1202.91	28.144
1206.28	42.3931
1209.66	32.98
1213.03	33.0366
1216.41	43.186
1219.78	52.5493
1223.16	42.5605
1226.53	58.0391
1229.91	43.4873
1233.28	44.564
1236.66	35.8652
1240.03	39.6128
1243.41	10.8716
1246.78	104.285
1250.16	5.70215
1253.53	30.6216
1256.91	58.4829
1260.28	22.0884
1263.66	10.9126
1267.03	64.1216
1270.41	88.0117
1273.78	65.4937
1277.15	92.4258
1280.53	28.0464
1283.9	9.10059
1287.28	36.3101
