Measurement: Raman, 532 nm, unoriented, Raman Data Processed
Mineral: Hendersonite
Rruff sample: R070467
Ideal chemistry: Ca_1+x_(V^5+^,V^4+^)_6_O_16_6H_2_O
Locality: Mineral Joe No. 1 mine, Paradox Valley, Uravan District, Montrose County, Colorado, USA
Source: Michael Scott
Description: Black to dark green massive associated with rounded pebbles of quartz
Raman shift (cm-1)	intensity
137.87	0
141.245	694.955
144.619	2017.73
147.994	3432.95
151.369	4155.84
154.744	4749.71
158.119	5257.01
161.494	5192.4
164.868	4535.93
168.243	3506.62
171.618	2509.77
174.993	1713.16
178.368	1110.87
181.743	704.441
185.117	312.543
188.492	152.08
191.867	50.4419
195.242	78.1289
198.617	44.6538
201.991	88.8745
205.366	22.4028
208.741	54.9556
212.116	9.20508
215.491	14.1338
218.865	124.938
222.24	201.446
225.615	331.651
228.99	496.411
232.365	647.285
235.74	864.182
239.114	1095.39
242.489	1388.16
245.864	1724.39
249.239	2194.14
252.614	2657.89
255.988	3189.83
259.363	3616.18
262.738	3955.27
266.113	3903.42
269.488	3505.95
272.863	2836.79
276.237	2330.39
279.612	1743.75
282.987	1363.11
286.362	1078.83
289.737	871.629
293.111	831.312
296.486	732.839
299.861	682.032
303.236	645.626
306.611	596.685
309.986	578.155
313.36	509.531
316.735	451.107
320.11	389.922
323.485	337.892
326.86	269.478
330.235	160.521
333.609	111.941
336.984	94.0552
340.359	53.706
343.734	33.1445
347.109	40.8652
350.483	60.6592
353.858	23.105
357.233	29.0918
360.608	17.9131
363.983	4.73877
367.358	30.8652
370.732	18.3276
374.107	23.352
377.482	21.9644
380.857	63.7183
384.232	135.767
387.606	246.079
390.981	351.786
394.356	452.321
397.731	363.93
401.106	440.377
404.481	381.892
407.855	402.647
411.23	397.761
414.605	450.472
417.98	403.35
421.355	396.423
424.729	385.534
428.104	334.686
431.479	288.636
434.854	81.3267
438.229	4.38623
441.603	44.2183
444.978	1.29492
448.353	67.688
451.728	63.3569
455.103	13.3042
458.478	143.663
461.852	289.236
465.227	398.406
468.602	639.686
471.977	792.715
475.352	1020.17
478.726	1147.82
482.101	1434.53
485.476	1770.61
488.851	2073.6
492.226	2549.83
495.601	3044.23
498.976	3657.38
502.35	4335.39
505.725	4936.1
509.1	5431.53
512.475	5750.97
515.85	5800.26
519.224	5753.01
522.599	5362.89
525.974	4815.53
529.349	4302.45
532.724	3662.09
536.098	3161.98
539.473	2613
542.848	2155.3
546.223	1824.35
549.598	1480.38
552.972	1251.96
556.347	946.572
559.722	746.091
563.097	585.527
566.472	519.204
569.847	369.825
573.221	243.57
576.596	190.018
579.971	139.807
583.346	35.5166
586.721	17.0527
590.096	27.4028
593.47	43.4907
596.845	45.3418
600.22	14.6484
603.595	51.0083
606.97	17.7578
610.345	9.48389
613.719	23.7246
617.094	20.9585
620.469	46.7417
623.844	35.0381
627.219	66.6475
630.593	112.478
633.968	84.0947
637.343	124.543
640.718	194.31
644.093	194.497
647.467	200.936
650.842	288.092
654.217	300.878
657.592	356.981
660.967	426.366
664.342	460.1
667.716	545.48
671.091	653.702
674.466	758.511
677.841	950.497
681.216	1138.87
684.591	1327.8
687.965	1611.43
691.34	1787.66
694.715	1970.69
698.09	2070.73
701.465	1893.18
704.839	1803.82
708.214	1538.16
711.589	1291.56
714.964	1086.22
718.339	743.268
721.713	610.761
725.088	468.493
728.463	316.74
731.838	214.6
735.213	167.481
738.587	173.903
741.962	100.058
745.337	61.8071
748.712	88.6528
752.087	120.223
755.462	153.768
758.837	79.4268
762.211	141.676
765.586	110.363
768.961	112.796
772.336	133.906
775.711	120.181
779.085	54.3877
782.46	93.043
785.835	8.73975
789.21	79.7241
792.585	15.3442
795.96	25.0361
799.334	14.8794
802.709	29.9414
806.084	2.61572
809.459	55.0806
812.834	0.460449
816.208	3.07324
819.583	27.9956
822.958	70.8828
826.333	23.0293
829.708	72.4009
833.082	53.1758
836.457	76.0068
839.832	130.429
843.207	154.326
846.582	141.022
849.957	168.863
853.331	183.115
856.706	182.341
860.081	207.774
863.456	199.258
866.831	187.545
870.205	122.21
873.58	73.0371
876.955	49.1333
880.33	86.9834
883.705	38.8179
887.08	36.2012
890.454	4.74414
893.829	21.1851
897.204	8.54346
900.579	15.0044
903.954	11.0488
907.328	61.6465
910.703	77.7451
914.078	10.103
917.453	76.3071
920.828	39.561
924.203	32.5967
927.577	66.9014
930.952	84.9512
934.327	70.2949
937.702	85.582
941.077	128.588
944.452	55.8608
947.826	96.6592
951.201	122.356
954.576	72.543
957.951	113.987
961.326	111.539
964.7	115.374
968.075	186.54
971.45	242.07
974.825	228.854
978.2	298.271
981.574	305.526
984.949	329.62
988.324	321.529
991.699	310.58
995.074	309.168
998.448	286.702
1001.82	361.541
1005.2	321.798
1008.57	395.662
1011.95	517.979
1015.32	650.673
1018.7	747.08
1022.07	851.264
1025.45	750.188
1028.82	585.896
1032.2	383.56
1035.57	275.497
1038.95	185.543
1042.32	69.9768
1045.7	19.9695
1049.07	9.00195
1052.45	2.83618
1055.82	8.98779
1059.19	0.110352
1062.57	28.9617
1065.94	0.362549
1069.32	23.1189
1072.69	30.2905
1076.07	35.1672
1079.44	46.2432
1082.82	13.1047
1086.19	12.9526
1089.57	34.8894
1092.94	36.8164
1096.32	44.1982
1099.69	50.9351
1103.07	40.4526
1106.44	53.2319
1109.82	2.71289
1113.19	13.5513
1116.57	38.1389
1119.94	73.814
1123.32	26.5261
1126.69	62.2009
1130.07	77.2144
1133.44	13.4614
1136.82	40.6685
1140.19	47.5432
1143.57	49.5576
1146.94	30.3359
1150.32	54.1277
1153.69	86.6086
1157.07	27.5046
1160.44	21.9849
1163.82	36.4944
1167.19	44.0093
1170.56	77.9612
1173.94	23.9731
1177.31	52.3374
1180.69	79.5195
1184.06	53.125
1187.44	53.6606
1190.81	35.3772
1194.19	10.083
1197.56	25.0232
1200.94	34.3157
1204.31	22.9033
1207.69	47.7158
1211.06	87.8499
1214.44	62.417
1217.81	11.7468
1221.19	46.5815
1224.56	63.4829
1227.94	24.6262
1231.31	12.7517
1234.69	45.5125
1238.06	13.8269
1241.44	42.438
1244.81	15.9473
1248.18	104.232
1251.56	41.2534
1254.93	23.8543
1258.31	53.0991
1261.68	25.4219
1265.06	67.6916
1268.43	16.4656
1271.81	7.34814
1275.18	38.0813
1278.56	9.27954
1281.93	32.9714
1285.31	3.45142
1288.68	42.8232
1292.06	8.17554
1295.43	37.3945
