Measurement: Raman, 780 nm, unoriented, Raman Data Processed
Mineral: Henmilite
Rruff sample: R060257
Ideal chemistry: Ca_2_Cu[B(OH)_4_]_2_(OH)_4_
Locality: Fuka mine, Okayama Prefecture, Honshu Island, Japan
Source: Michael Scott
Description: Deep blue prismatic pinacoidal crystals with a melted looking exterior
Measured chemistry: Ca_1.94_Cu_1.06_[B(OH)_4_]_2_(OH)_4_ ; B, H not measured but assumed by stoichiometry
Raman shift (cm-1)	intensity
98.4127	0
101.787	52.6089
105.162	0.919922
108.537	39.4751
111.912	23.3115
115.287	85.3901
118.662	179.26
122.036	481.866
125.411	971.769
128.786	658.295
132.161	572.598
135.536	385.859
138.911	610.963
142.285	868.815
145.66	1581.03
149.035	1619.47
152.41	489.282
155.785	258.05
159.159	344.696
162.534	462.788
165.909	273.154
169.284	342.741
172.659	361.47
176.034	95.1519
179.408	121.103
182.783	37.4907
186.158	27.1289
189.533	1.35254
192.908	141.735
196.282	352.012
199.657	91.1953
203.032	1.2168
206.407	61.6108
209.782	39.4878
213.156	82.269
216.531	183.643
219.906	285.936
223.281	585.773
226.656	476.744
230.031	131.691
233.405	60.0098
236.78	69.2554
240.155	135.004
243.53	161.549
246.905	250.238
250.28	377.065
253.654	560.162
257.029	567.717
260.404	405.843
263.779	398.454
267.154	343.134
270.528	344.351
273.903	279.216
277.278	202.727
280.653	186.998
284.028	170.567
287.402	219.857
290.777	229.217
294.152	106.605
297.527	6.06396
300.902	18.5098
304.277	27.9258
307.651	2.90283
311.026	24.5674
314.401	3.06592
317.776	81.1728
321.151	95.4062
324.526	144.51
327.9	282.002
331.275	483.879
334.65	583.606
338.025	602.177
341.399	614.256
344.774	820.995
348.149	1198.86
351.524	1622.63
354.899	2206.58
358.274	3223.4
361.648	4920.79
365.023	5344.76
368.398	3260.76
371.773	1600.68
375.148	833.611
378.522	472.25
381.897	313.025
385.272	172.528
388.647	127.759
392.022	86.3193
395.397	88.3232
398.771	146.276
402.146	151.232
405.521	222.269
408.896	281.149
412.271	343.144
415.646	388.625
419.02	247.993
422.395	153.69
425.77	46.4922
429.145	15.5553
432.52	19.8555
435.894	34.4365
439.269	0.535156
442.644	56.5254
446.019	154.992
449.394	336.639
452.769	532.845
456.143	812.741
459.518	1257.42
462.893	1941.29
466.268	2800.06
469.643	3107.06
473.017	2345.32
476.392	1592.99
479.767	1111.72
483.142	699.44
486.517	410.37
489.892	249.097
493.266	146.247
496.641	120.168
500.016	11.8945
503.391	4.08789
506.766	12.8584
510.14	16.9238
513.515	0.749023
516.89	55.5088
520.265	36.4307
523.64	99.4033
527.014	133.277
530.389	240.516
533.764	266.697
537.139	273.099
540.514	336.458
543.889	416.093
547.263	409.906
550.638	327.13
554.013	262.588
557.388	189.288
560.763	187.894
564.138	119.919
567.512	92.0957
570.887	85.0019
574.262	50.3115
577.637	3.93945
581.011	29.0381
584.386	47.8496
587.761	95.1514
591.136	0.188477
594.511	37.958
597.886	17.9932
601.26	34.6397
604.635	42.9082
608.01	66.6719
611.385	40.3428
614.76	41.8672
618.135	36.6846
621.509	45.1065
624.884	33.4805
628.259	33.0459
631.634	37.5703
635.009	61.0615
638.383	6.3457
641.758	21.0889
645.133	2.89648
648.508	13.4277
651.883	6.47754
655.258	14.25
658.632	2.24414
662.007	11.3213
665.382	17.3389
668.757	15.7393
672.132	7.24023
675.506	22.0137
678.881	42.1846
682.256	33.9297
685.631	97.4394
689.006	120.067
692.38	139.09
695.755	124.776
699.13	126.824
702.505	117.866
705.88	108.121
709.255	122.241
712.629	145.905
716.004	142.373
719.379	227.537
722.754	262.95
726.129	273.879
729.504	362.878
732.878	473.703
736.253	539.094
739.628	755.556
743.003	994.044
746.378	1239.39
749.752	1611.41
753.127	1992.45
756.502	2258.73
759.877	1928.65
763.252	1209.22
766.626	705.385
770.001	378.262
773.376	240.256
776.751	157.68
780.126	95.4746
783.5	52.7871
786.875	1.44922
790.25	20.4082
793.625	35.541
797	18.9209
800.375	17.1387
803.75	11.1016
807.124	33.4297
810.499	52.0352
813.874	53.1562
817.249	82.4062
820.624	82.2969
823.998	75.6348
827.373	54.748
830.748	65.7236
834.123	59.1592
837.498	88.0635
840.872	34.2305
844.247	79.0019
847.622	62.9512
850.997	36.919
854.372	69.7236
857.746	55.6523
861.121	37.7012
864.496	98.5381
867.871	50.7637
871.246	28.709
874.621	4.84863
877.995	39.6748
881.37	11.2041
884.745	51.9258
888.12	57.0371
891.495	20.917
894.87	22.1172
898.244	23.4766
901.619	88.5938
904.994	57.3105
908.369	84.4932
911.744	73.416
915.118	71.0835
918.493	128.8
921.868	112.932
925.243	84.2964
928.618	80.564
931.992	137.335
935.367	97.6177
938.742	86.2324
942.117	131.706
945.492	103.552
948.867	129.339
952.241	167.922
955.616	171.741
958.991	106.314
962.366	98.0679
965.741	79.0376
969.115	152.213
972.49	64.8701
975.865	34.8901
979.24	49.7861
982.615	109.398
985.99	60.4941
989.364	59.8501
992.739	3.11084
996.114	28.7803
999.489	21.9209
1002.86	16.7612
1006.24	10.331
1009.61	27.4558
1012.99	21.8579
1016.36	11.9658
1019.74	25.457
1023.11	30.2168
1026.49	39.5967
1029.86	60.5034
1033.24	22.9678
1036.61	36.7202
1039.99	48.3892
1043.36	49.7056
1046.74	17.5107
1050.11	35.624
1053.49	67.0059
1056.86	96.0288
1060.24	113.43
1063.61	60.1167
1066.98	51.5498
1070.36	55.8047
1073.73	73.8086
1077.11	38.873
1080.48	29.4883
1083.86	62.5239
1087.23	85.2559
1090.61	64.0723
1093.98	95.0996
1097.36	56.416
1100.73	72.4053
1104.11	46.958
1107.48	22.5151
1110.86	23.3008
1114.23	25.8579
1117.61	19.8745
1120.98	11.3565
1124.36	2.21826
1127.73	41.4507
1131.11	7.45996
1134.48	14.2617
1137.86	40.8423
1141.23	74.8555
1144.61	38.0171
1147.98	35.0542
1151.36	9.02881
1154.73	26.3877
1158.11	35.957
1161.48	64.9209
1164.86	63.355
1168.23	79.166
1171.6	78.4487
1174.98	97.1812
1178.35	49.0713
1181.73	47.6187
1185.1	53.3677
1188.48	61.7012
1191.85	71.5752
1195.23	69.4414
1198.6	120.392
1201.98	85.7114
1205.35	151.098
1208.73	55.2373
1212.1	60.2363
1215.48	56.1284
1218.85	33.5288
1222.23	15.5859
1225.6	54.5391
1228.98	62.5317
1232.35	8.62402
1235.73	7.78076
1239.1	7.43799
1242.48	19.4087
1245.85	12.6758
1249.22	7.02344
1252.6	18.0674
1255.97	15.1812
1259.35	32.873
1262.72	60.0698
1266.1	106.882
1269.47	90.2124
1272.85	80.9477
1276.22	42.729
1279.6	18.8355
1282.97	36.1694
