Measurement: Raman, 532 nm, unoriented, Raman Data Processed
Mineral: Henmilite
Rruff sample: R060257
Ideal chemistry: Ca_2_Cu[B(OH)_4_]_2_(OH)_4_
Locality: Fuka mine, Okayama Prefecture, Honshu Island, Japan
Source: Michael Scott
Description: Deep blue prismatic pinacoidal crystals with a melted looking exterior
Measured chemistry: Ca_1.94_Cu_1.06_[B(OH)_4_]_2_(OH)_4_ ; B, H not measured but assumed by stoichiometry
Raman shift (cm-1)	intensity
126.727	0
130.101	13.7575
133.476	18.6944
136.851	17.6228
140.226	40.9283
143.601	104.421
146.975	151.637
150.35	96.1993
153.725	66.7089
157.1	91.7516
160.475	144.436
163.85	104.236
167.224	70.9008
170.599	92.0989
173.974	28.1577
177.349	7.10849
180.724	4.88871
184.098	1.16373
187.473	16.1284
190.848	37.9062
194.223	93.3519
197.598	90.7688
200.972	7.35681
204.347	2.44473
207.722	5.97633
211.097	19.0628
214.472	37.1129
217.846	67.2567
221.221	117.209
224.596	138.513
227.971	58.7858
231.346	16.2215
234.721	0.410835
238.095	21.3041
241.47	25.2108
244.845	26.9859
248.22	52.682
251.595	77.7035
254.97	94.5606
258.344	80.6071
261.719	61.0215
265.094	58.9862
268.469	43.2055
271.844	29.8444
275.218	14.3459
278.593	10.2551
281.968	3.2267
285.343	4.80394
288.718	14.2435
292.092	5.65788
295.467	5.03751
298.842	10.2984
302.217	5.83036
305.592	1.97952
308.967	0.129162
312.341	3.78141
315.716	10.7421
319.091	18.755
322.466	18.4754
325.841	25.2411
329.216	32.6242
332.59	33.7884
335.965	43.4495
339.34	46.4429
342.715	68.2897
346.09	104.809
349.464	148.465
352.839	187.11
356.214	225.956
359.589	301.06
362.964	352.975
366.339	278.873
369.713	143.577
373.088	75.5054
376.463	37.7661
379.838	33.1993
383.213	18.3026
386.587	19.3568
389.962	18.8377
393.337	28.3687
396.712	33.7049
400.087	40.3163
403.462	55.2347
406.836	66.7751
410.211	83.1456
413.586	90.2077
416.961	68.6589
420.336	43.982
423.71	18.1297
427.085	8.58055
430.46	1.37576
433.835	0.589455
437.21	1.11836
440.584	5.39175
443.959	0.375744
447.334	8.86923
450.709	21.8713
454.084	42.2167
457.459	75.6447
460.833	116.662
464.208	161.068
467.583	208.908
470.958	177.849
474.333	149.881
477.707	109.208
481.082	80.1966
484.457	49.0229
487.832	27.6554
491.207	11.5162
494.582	10.3973
497.956	1.074
501.331	6.07764
504.706	3.52095
508.081	2.70114
511.456	3.51232
514.83	6.75403
518.205	9.02333
521.58	15.9805
524.955	34.3099
528.33	44.5269
531.705	52.3129
535.079	71.6812
538.454	77.475
541.829	95.6747
545.204	97.1534
548.579	83.5004
551.953	60.0369
555.328	39.4586
558.703	39.8974
562.078	35.5794
565.453	28.6273
568.827	15.3086
572.202	9.53479
575.577	16.9006
578.952	11.1071
582.327	6.49669
585.702	8.88655
589.076	5.8764
592.451	9.25723
595.826	6.75232
599.201	8.29335
602.576	7.42812
605.95	8.81919
609.325	6.78265
612.7	6.65435
616.075	1.83277
619.45	1.37398
622.824	1.59579
626.199	2.29687
629.574	2.3923
632.949	3.77379
636.324	2.37618
639.699	8.42802
643.073	2.6741
646.448	5.70316
649.823	4.36312
653.198	3.209
656.573	0.293758
659.947	0.705292
663.322	5.99613
666.697	5.04224
670.072	13.0646
673.447	10.5459
676.822	20.0325
680.196	25.5694
683.571	32.6405
686.946	43.6535
690.321	47.0393
693.696	50.7531
697.071	60.8186
700.445	57.3419
703.82	42.3668
707.195	50.8609
710.57	51.0074
713.945	52.3797
717.319	72.0232
720.694	84.3655
724.069	108.612
727.444	130.286
730.819	158.226
734.193	199.211
737.568	240.351
740.943	310.615
744.318	400.659
747.693	506.034
751.068	628.857
754.442	692.805
757.817	673.365
761.192	476.883
764.567	283.857
767.942	160.609
771.317	97.9627
774.691	65.8274
778.066	45.295
781.441	29.5158
784.816	25.5258
788.191	5.92838
791.565	2.70352
794.94	6.54699
798.315	0.803074
801.69	2.28647
805.065	2.68852
808.439	3.0839
811.814	3.93993
815.189	7.15698
818.564	9.25741
821.939	15.5428
825.313	9.51034
828.688	9.16578
832.063	9.15653
835.438	3.92795
838.813	6.21038
842.188	8.04938
845.562	3.25642
848.937	8.00054
852.312	8.75166
855.687	7.53121
859.062	1.67872
862.437	4.83824
865.811	5.79776
869.186	0.105507
872.561	1.05549
875.936	1.54291
879.311	2.17493
882.685	1.05507
886.06	2.82882
889.435	2.60022
892.81	1.19395
896.185	5.31445
899.559	5.63337
902.934	9.98921
906.309	15.4143
909.684	11.8732
913.059	13.0088
916.434	24.3527
919.808	14.4478
923.183	15.7667
926.558	11.2659
929.933	16.1488
933.308	16.9459
936.683	21.5568
940.057	20.5709
943.432	30.6517
946.807	31.6014
950.182	33.2763
953.557	33.1021
956.931	32.543
960.306	25.3365
963.681	25.4546
967.056	22.5134
970.431	21.9391
973.806	28.8457
977.18	22.1842
980.555	17.8456
983.93	26.2098
987.305	17.9821
990.68	11.0508
994.054	12.0304
997.429	5.83011
1000.8	9.73469
1004.18	3.83114
1007.55	4.88979
1010.93	0.716721
1014.3	1.89361
1017.68	3.07912
1021.05	1.70219
1024.43	3.1422
1027.8	0.339994
1031.18	3.3872
1034.55	4.54775
1037.93	0.037575
1041.3	12.4056
1044.68	4.38995
1048.05	3.3245
1051.43	3.41548
1054.8	1.11412
1058.18	9.66804
1061.55	6.55261
1064.93	7.33233
1068.3	9.54567
1071.67	8.33416
1075.05	6.33054
1078.42	6.13386
1081.8	8.37556
1085.17	10.7419
1088.55	9.11205
1091.92	5.88218
1095.3	8.53537
1098.67	6.03789
1102.05	5.49989
1105.42	5.18031
1108.8	7.1285
1112.17	2.89113
1115.55	9.88626
1118.92	8.04545
1122.3	3.18357
1125.67	4.87963
1129.05	6.83707
1132.42	1.7432
1135.8	6.35507
1139.17	2.40852
1142.55	2.8228
1145.92	4.61995
1149.3	0.719683
1152.67	4.91896
1156.05	9.13004
1159.42	6.04678
1162.8	0.105011
1166.17	5.14771
1169.55	2.5017
1172.92	8.26778
1176.29	3.39201
1179.67	0.992188
1183.04	8.21505
1186.42	11.0628
1189.79	6.97385
1193.17	12.9892
1196.54	9.18352
1199.92	19.9634
1203.29	21.6023
1206.67	21.3876
1210.04	19.2623
1213.42	21.4372
1216.79	15.3602
1220.17	11.4229
1223.54	6.25639
1226.92	7.52556
1230.29	1.03895
1233.67	0.461422
1237.04	4.37251
1240.42	7.69517
1243.79	14.6803
1247.17	4.86654
1250.54	10.2246
1253.91	14.3286
1257.29	13.5483
1260.66	27.4364
1264.04	31.3081
1267.41	34.5275
1270.79	28.3993
1274.16	31.7846
1277.54	20.8845
1280.91	19.7386
1284.29	7.05212
1287.66	10.9044
1291.04	2.56168
1294.41	0.028324
1297.79	0.393229
1301.16	2.62523
