Measurement: Raman, 532 nm, unoriented, Raman Data Processed
Mineral: Hennomartinite
Rruff sample: R130039
Ideal chemistry: SrMn^3+^_2_Si_2_O_7_(OH)_2_H_2_O
Locality: Wessels mine, Kuruman, Kalahari Manganese fields, Cape Province, South Africa
Source: William W. Pinch
Description: Brown spherical aggregates, associated with purple sugilite, brownish quartz and white hydroxyapophyllite-(K).
Raman shift (cm-1)	intensity
222.365	0
225.258	27.2979
228.151	56.8563
231.043	47.7582
233.936	22.4543
236.829	4.34676
239.721	0.83847
242.614	1.23682
245.507	0.436005
248.4	7.23885
251.292	22.0453
254.185	42.5865
257.078	68.0077
259.97	85.7651
262.863	94.5375
265.756	93.0906
268.649	78.3356
271.541	59.1105
274.434	39.3172
277.327	21.5062
280.219	7.95184
283.112	0.63829
286.005	3.36516
288.897	1.23514
291.79	2.30067
294.683	9.13715
297.575	17.6576
300.468	25.013
303.361	31.827
306.254	36.1214
309.146	40.6284
312.039	46.9716
314.932	54.8219
317.824	62.7541
320.717	71.1267
323.61	79.1468
326.502	79.5513
329.395	70.3365
332.288	52.3148
335.181	31.9044
338.073	14.8517
340.966	5.81693
343.859	1.74559
346.751	2.63437
349.644	2.05928
352.537	10.3822
355.43	22.1949
358.322	40.437
361.215	61.2802
364.108	89.2274
367	121.495
369.893	155.996
372.786	194.272
375.678	236.078
378.571	278.65
381.464	308.952
384.356	316.958
387.249	305.422
390.142	278.416
393.035	240.336
395.927	203.226
398.82	166.942
401.713	133.775
404.605	107.547
407.498	81.2987
410.391	63.033
413.284	48.1978
416.176	40.095
419.069	34.1954
421.962	30.9124
424.854	27.9074
427.747	26.2116
430.64	25.9679
433.532	24.4586
436.425	20.2815
439.318	19.1502
442.211	13.2234
445.103	8.40949
447.996	3.78593
450.889	1.38513
453.781	4.07103
456.674	5.18861
459.567	4.97151
462.459	2.2691
465.352	2.50678
468.245	6.1732
471.137	6.91476
474.03	0.917358
476.923	0.595825
479.816	1.48132
482.708	2.86302
485.601	9.94249
488.494	19.6251
491.386	34.6161
494.279	53.2244
497.172	79.821
500.065	110.786
502.957	145.689
505.85	183.026
508.743	213.029
511.635	224.142
514.528	207.854
517.421	175.816
520.313	146.192
523.206	127.565
526.099	118.315
528.991	121.401
531.884	131.008
534.777	156.955
537.67	191.126
540.562	236.259
543.455	296.38
546.348	368.818
549.24	450.475
552.133	529.453
555.026	600.328
557.918	646.935
560.811	665.224
563.704	634.112
566.597	564.799
569.489	479.299
572.382	387.899
575.275	305.04
578.167	236.142
581.06	181.688
583.953	138.859
586.846	107.251
589.738	80.0507
592.631	60.9693
595.524	45.0871
598.416	32.0082
601.309	22.827
604.202	14.0909
607.094	8.6532
609.987	5.5036
612.88	1.56561
615.773	1.64737
618.665	3.34798
621.558	3.22965
624.451	3.69234
627.343	3.888
630.236	0.914215
633.129	1.59042
636.021	5.26637
638.914	13.6098
641.807	21.7333
644.699	35.9871
647.592	58.4017
650.485	88.4999
653.378	125.218
656.27	169.103
659.163	212.744
662.056	234.255
664.948	216.825
667.841	162.171
670.734	107.882
673.626	71.5327
676.519	48.8205
679.412	34.4641
682.305	24.8016
685.197	17.2323
688.09	10.435
690.983	8.58821
693.875	5.32321
696.768	4.12453
699.661	3.02263
702.553	1.91653
705.446	3.43359
708.339	2.01471
711.232	2.14818
714.124	1.44563
717.017	0.453613
719.91	0.65596
722.802	2.17293
725.695	1.10162
728.588	0.268562
731.481	0.86853
734.373	0.462608
737.266	0.224846
740.159	0.003334
743.051	0.338181
745.944	0.151863
748.837	1.54878
751.729	0.633568
754.622	1.56033
757.515	2.1133
760.408	2.62582
763.3	2.13734
766.193	1.85349
769.086	2.95974
771.978	2.81753
774.871	3.12766
777.764	2.69325
780.656	2.48876
783.549	2.77605
786.442	1.93162
789.335	1.86813
792.227	1.66066
795.12	1.96098
798.013	1.09049
800.905	0.910095
803.798	0.062225
806.691	0.575333
809.583	0.615891
812.476	0.833649
815.369	0.758057
818.261	0.439163
821.154	0.525162
824.047	0.026382
826.94	0.718155
829.832	0.059891
832.725	0.929459
835.618	0.130463
838.51	0.135452
841.403	0.034286
844.296	0.257523
847.188	0.813583
850.081	1.10355
852.974	0.416168
855.867	0.792023
858.759	1.63026
861.652	1.54794
864.545	2.41167
867.437	3.50176
870.33	6.07291
873.223	8.58185
876.115	9.31282
879.008	10.834
881.901	10.3683
884.794	11.7012
887.686	14.3061
890.579	17.4317
893.472	23.726
896.364	34.1287
899.257	45.6007
902.15	60.2901
905.043	77.1374
907.935	95.5238
910.828	111.393
913.721	128.763
916.613	147.839
919.506	178.008
922.399	212.866
925.291	252.096
928.184	284.007
931.077	301.687
933.97	291.358
936.862	247.603
939.755	190.893
942.648	140.457
945.54	102.817
948.433	76.5924
951.326	54.5602
954.218	33.7667
957.111	22.0922
960.004	14.1583
962.896	9.17629
965.789	5.93751
968.682	3.25421
971.575	1.56972
974.467	1.12083
977.36	0.46505
980.253	1.9441
983.145	0.404411
986.038	0.454033
988.931	0.925117
991.823	0.714211
994.716	0.086838
997.609	1.23165
1000.5	1.10106
1003.39	1.03609
1006.29	1.32923
1009.18	1.60422
1012.07	0.500557
1014.97	0.520447
1017.86	0.111473
1020.75	0.458038
1023.64	0.602654
1026.54	0.129219
1029.43	2.23824
1032.32	0.429962
1035.21	0.935638
1038.11	1.79825
1041	1.83467
1043.89	2.81823
1046.79	3.31977
1049.68	4.37661
1052.57	3.6492
1055.46	4.20525
1058.36	4.77391
1061.25	6.77129
1064.14	8.83508
1067.03	10.2628
1069.93	11.9176
1072.82	11.844
1075.71	11.5585
1078.6	10.7556
1081.5	8.16745
1084.39	7.08395
1087.28	4.95231
1090.17	3.50967
1093.07	2.57258
1095.96	1.53853
1098.85	1.67083
1101.75	1.33327
1104.64	0.79631
1107.53	0.155655
1110.42	1.10725
1113.32	2.28546
1116.21	1.70892
1119.1	1.57591
1121.99	1.66997
1124.89	1.29492
1127.78	1.35186
1130.67	0.624504
1133.57	2.01733
1136.46	2.34081
1139.35	1.93751
1142.24	3.21188
1145.14	2.11013
1148.03	1.46052
1150.92	0.808586
1153.82	2.00229
1156.71	1.44099
1159.6	1.48116
1162.49	1.70595
1165.38	1.40453
1168.28	0.713669
1171.17	1.35072
1174.06	0.89679
1176.96	0.315948
1179.85	1.42968
1182.74	0.444763
1185.63	0.306137
1188.53	0.644196
1191.42	0.723457
1194.31	1.27953
1197.2	0.816177
1200.1	1.10349
1202.99	0.245811
1205.88	0.42688
1208.78	0.135139
1211.67	0.698669
1214.56	0.253792
1217.45	0.048027
1220.35	0.943565
1223.24	1.23613
1226.13	0.567513
1229.03	0.530022
1231.92	0.10331
1234.81	0.887589
1237.7	0.744865
1240.6	1.17963
1243.49	0.714134
1246.38	1.34826
1249.27	1.60138
1252.17	0.945457
1255.06	1.93723
1257.95	1.44934
1260.85	0.533714
1263.74	0.946732
1266.63	1.24216
1269.52	1.53365
1272.42	0.438614
1275.31	1.65819
1278.2	1.31922
1281.09	1.37312
1283.99	1.06224
1286.88	1.11569
1289.77	0.504379
1292.66	0.979401
1295.56	1.09254
1298.45	0.192627
1301.34	0.093658
