Measurement: Raman, 780 nm, unoriented, Raman Data Processed
Mineral: Hennomartinite
Rruff sample: R130039
Ideal chemistry: SrMn^3+^_2_Si_2_O_7_(OH)_2_H_2_O
Locality: Wessels mine, Kuruman, Kalahari Manganese fields, Cape Province, South Africa
Source: William W. Pinch
Description: Brown spherical aggregates, associated with purple sugilite, brownish quartz and white hydroxyapophyllite-(K).
Raman shift (cm-1)	intensity
106.023	1.96349
109.398	2.05631
112.773	1.02543
116.148	1.66574
119.523	0.673859
122.897	2.62997
126.272	0.699219
129.647	0.921402
133.022	2.28336
136.397	2.30052
139.772	5.55196
143.146	6.57179
146.521	9.51341
149.896	10.5173
153.271	13.6939
156.646	14.0284
160.02	14.4014
163.395	18.7914
166.77	22.4545
170.145	25.2263
173.52	24.9759
176.894	23.2167
180.269	20.4077
183.644	19.261
187.019	17.4028
190.394	12.9056
193.769	6.59431
197.143	1.44615
200.518	0.011932
203.893	0.047417
207.268	1.70463
210.643	6.60726
214.018	11.3937
217.392	17.6318
220.767	27.0381
224.142	42.9017
227.517	61.6155
230.892	59.5726
234.266	29.5861
237.641	13.1801
241.016	7.13338
244.391	5.43657
247.766	6.36747
251.14	10.0272
254.515	16.5615
257.89	24.2034
261.265	30.6197
264.64	30.7648
268.014	24.6806
271.389	16.3206
274.764	10.1274
278.139	3.22754
281.514	0.170128
284.889	1.94464
288.263	2.00029
291.638	0.022133
295.013	2.67055
298.388	6.67211
301.763	9.06779
305.137	11.6008
308.512	12.7611
311.887	14.7697
315.262	17.0469
318.637	19.7627
322.012	22.8666
325.386	24.3894
328.761	22.5394
332.136	16.0123
335.511	9.04932
338.886	4.53563
342.26	1.40539
345.635	0.5881
349.01	0.055664
352.385	2.6776
355.76	7.14305
359.135	14.4587
362.509	22.2271
365.884	32.4654
369.259	44.8141
372.634	57.5888
376.009	71.7722
379.383	85.5244
382.758	93.9508
386.133	95.4044
389.508	88.409
392.883	76.6859
396.257	61.1476
399.632	46.8742
403.007	34.6838
406.382	25.9371
409.757	19.5569
413.132	13.5101
416.506	9.62701
419.881	7.60532
423.256	6.13331
426.631	5.83642
430.006	6.25538
433.38	6.44332
436.755	6.01823
440.13	5.14628
443.505	3.42981
446.88	2.27864
450.255	1.28314
453.629	0.016548
457.004	1.41614
460.379	1.61749
463.754	0.241459
467.129	0.840294
470.503	2.19191
473.878	0.991348
477.253	1.11255
480.628	0.089546
484.003	2.24098
487.377	3.28417
490.752	7.63824
494.127	12.713
497.502	19.8672
500.877	29.4383
504.252	40.2876
507.626	50.5253
511.001	58.4015
514.376	55.3618
517.751	46.3571
521.126	36.1062
524.5	29.2607
527.875	27.4798
531.25	27.499
534.625	31.4384
538	38.556
541.375	48.6329
544.749	60.914
548.124	76.5356
551.499	94.0737
554.874	111.77
558.249	121.764
561.623	125.576
564.998	118.741
568.373	104.035
571.748	85.0336
575.123	65.2961
578.497	47.3853
581.872	34.5774
585.247	24.7471
588.622	17.5872
591.997	12.0288
595.371	8.92724
598.746	5.54394
602.121	3.99308
605.496	1.99434
608.871	1.32007
612.246	0.029465
615.62	0.74287
618.995	1.08479
622.37	0.276035
625.745	1.26286
629.12	0.210266
632.494	0.23526
635.869	1.58197
639.244	2.725
642.619	6.25734
645.994	9.70024
649.369	16.755
652.743	24.2707
656.118	34.9029
659.493	48.2444
662.868	55.4422
666.243	48.7824
669.617	32.3628
672.992	19.2889
676.367	13.3418
679.742	9.86919
683.117	7.09334
686.491	4.90261
689.866	3.68959
693.241	3.17755
696.616	1.34147
699.991	0.640776
703.366	1.14588
706.74	0.668814
710.115	0.714861
713.49	0.547924
716.865	0.400593
720.24	0.4422
723.614	0.603024
726.989	0.016464
730.364	0.216711
733.739	0.56595
737.114	0.239048
740.489	0.198639
743.863	0.235268
747.238	0.226513
750.613	0.259346
753.988	1.03503
757.363	0.801805
760.737	0.409182
764.112	0.589071
767.487	0.968971
770.862	0.795328
774.237	0.798817
777.611	0.46594
780.986	1.09028
784.361	1.34977
787.736	0.065538
791.111	0.758427
794.486	0.465393
797.86	0.182541
801.235	0.204277
804.61	0.353621
807.985	0.699673
811.36	0.522093
814.734	0.278723
818.109	0.411781
821.484	0.141415
824.859	0.043121
828.234	0.127428
831.609	0.178644
834.983	0.007496
838.358	0.179953
841.733	0.47471
845.108	0.134434
848.483	0.344973
851.857	0.00486
855.232	0.093716
858.607	0.131641
861.982	1.06554
865.357	0.87929
868.731	1.73289
872.106	2.66898
875.481	3.35694
878.856	3.71334
882.231	3.71422
885.606	3.33604
888.98	3.26476
892.355	4.381
895.73	5.05816
899.105	7.12923
902.48	10.7008
905.854	14.4164
909.229	17.4597
912.604	21.2411
915.979	26.5065
919.354	32.6617
922.729	40.6057
926.103	48.6299
929.478	53.5739
932.853	52.3957
936.228	44.3237
939.603	32.586
942.977	22.1191
946.352	13.3715
949.727	9.21671
953.102	5.90796
956.477	3.51773
959.851	2.69939
963.226	1.16386
966.601	1.01174
969.976	0.064859
973.351	0.428524
976.726	0.151798
980.1	0.094233
983.475	0.11421
986.85	0.092381
990.225	0.566946
993.6	0.753122
996.974	0.155436
1000.35	0.069267
1003.72	0.115423
1007.1	0.454565
1010.47	0.106802
1013.85	0.214329
1017.22	0.19035
1020.6	0.48576
1023.97	0.158991
1027.35	0.123693
1030.72	0.10763
1034.1	0.678242
1037.47	0.540237
1040.85	0.396595
1044.22	0.598133
1047.6	0.896215
1050.97	1.31104
1054.35	1.51418
1057.72	1.45463
1061.1	2.27887
1064.47	2.33513
1067.85	3.75034
1071.22	4.01701
1074.6	3.91967
1077.97	3.84201
1081.35	2.62715
1084.72	2.58433
1088.09	1.51918
1091.47	0.809519
1094.84	0.658806
1098.22	0.867733
1101.59	0.610556
1104.97	0.06373
1108.34	0.812634
1111.72	0.297276
1115.09	0.002213
1118.47	0.376101
1121.84	0.665163
1125.22	0.426414
1128.59	0.831299
1131.97	0.142538
1135.34	0.759146
1138.72	0.628202
1142.09	0.428301
1145.47	0.245161
1148.84	0.419575
1152.22	0.506208
1155.59	0.550268
1158.97	0.578779
1162.34	0.376675
1165.71	0.305792
1169.09	0.782063
1172.46	0.580854
1175.84	0.231798
1179.21	0.56209
1182.59	0.242479
1185.96	0.391308
1189.34	0.417606
1192.71	0.337618
1196.09	0.922764
1199.46	0.870247
1202.84	0.26985
1206.21	0.548019
1209.59	0.581238
1212.96	0.188869
1216.34	0.433441
1219.71	0.467899
1223.09	0.291222
1226.46	1.65874
1229.84	0.526604
1233.21	0.428671
1236.59	0.219715
1239.96	0.286137
1243.34	0.522499
1246.71	0.31897
1250.09	0.441965
1253.46	0.507021
1256.84	0.311033
1260.21	0.281111
1263.59	0.557514
1266.96	0.513035
1270.33	0.35457
1273.71	1.08831
1277.08	0.128342
1280.46	0.364599
1283.83	0.064556
