Measurement: Raman, 780 nm, unoriented, Raman Data Processed
Mineral: Henritermierite
Rruff sample: R060253
Ideal chemistry: Ca_3_Mn^3+^_2_(SiO_4_)_2_(OH)_4_
Locality: N'Chwaning mine, Kuruman, Kakahari mining area, Cape Province, South Africa
Source: William W. Pinch
Description: Reddish-brown granular coating on darker andradite
Measured chemistry: Ca_3.00_(Mn^3+^_1.97_Al_0.03_)_Î£=2_(Si_1.00_O_4_)_2_(OH)_4_
Raman shift (cm-1)	intensity
142.285	0
145.178	4.69168
148.071	15.3139
150.963	24.3349
153.856	6.9633
156.749	0.097683
159.642	4.37149
162.534	12.2736
165.427	20.3452
168.32	24.0905
171.212	26.195
174.105	12.8297
176.998	3.33717
179.89	0.359783
182.783	0.419197
185.676	0.034552
188.569	0.733276
191.461	0.471296
194.354	0.414564
197.247	1.7863
200.139	0.856474
203.032	0.768377
205.925	0.737804
208.817	2.86505
211.71	3.68733
214.603	6.901
217.495	10.5937
220.388	12.3087
223.281	17.7359
226.174	26.4591
229.066	35.0819
231.959	42.789
234.852	52.8011
237.744	60.8145
240.637	66.4213
243.53	73.5784
246.423	73.4808
249.315	71.2986
252.208	62.8615
255.101	52.4161
257.993	44.0893
260.886	39.0586
263.779	34.1308
266.671	28.7697
269.564	23.0592
272.457	18.3132
275.349	17.2268
278.242	15.9476
281.135	14.329
284.028	9.49897
286.92	5.00771
289.813	2.18757
292.706	0.87619
295.598	0.26759
298.491	0.425869
301.384	0.945526
304.277	0.992588
307.169	3.15381
310.062	3.2695
312.955	4.4162
315.847	7.53015
318.74	9.83828
321.633	12.2539
324.526	15.8486
327.418	18.2395
330.311	20.5002
333.204	20.3965
336.096	20.1318
338.989	17.0272
341.882	12.6322
344.774	9.21524
347.667	5.81596
350.56	3.2194
353.452	1.89478
356.345	3.14512
359.238	3.62366
362.131	4.83996
365.023	5.93236
367.916	8.75845
370.809	9.73714
373.701	10.3063
376.594	9.17231
379.487	8.14828
382.38	6.5268
385.272	4.68881
388.165	4.49158
391.058	1.00409
393.95	0.709921
396.843	0.671555
399.736	1.50366
402.628	0.9552
405.521	0.334011
408.414	0.156029
411.307	1.49992
414.199	3.31977
417.092	4.94193
419.985	7.63387
422.877	7.0706
425.77	10.0037
428.663	10.5016
431.555	11.1412
434.448	9.69931
437.341	11.0173
440.233	9.32348
443.126	7.995
446.019	5.74233
448.912	5.15235
451.804	4.80759
454.697	5.09645
457.59	4.82775
460.482	6.06568
463.375	5.58759
466.268	5.44953
469.161	7.7588
472.053	9.28603
474.946	13.506
477.839	19.914
480.731	29.8031
483.624	47.58
486.517	69.3344
489.409	88.9548
492.302	107.163
495.195	124.306
498.087	134.106
500.98	125.867
503.873	101.138
506.766	66.8558
509.658	40.4911
512.551	23.4961
515.444	14.4302
518.336	6.88399
521.229	1.92031
524.122	1.17536
527.014	0.521856
529.907	0.457195
532.8	0.006996
535.693	0.844284
538.585	3.01848
541.478	4.09526
544.371	6.39165
547.263	9.72272
550.156	17.2409
553.049	28.2584
555.942	42.0562
558.834	53.8647
561.727	64.1205
564.62	73.0987
567.512	75.4332
570.405	65.1248
573.298	42.5916
576.19	25.5044
579.083	15.1034
581.976	8.88359
584.869	5.38705
587.761	2.63637
590.654	1.24547
593.547	0.629452
596.439	0.416546
599.332	0.340075
602.225	0.456385
605.117	0.055216
608.01	0.060333
610.903	0.370583
613.795	0.917512
616.688	0.198919
619.581	0.582969
622.474	0.032761
625.366	0.847589
628.259	0.939224
631.152	1.40167
634.044	0.662565
636.937	0.702932
639.83	1.6997
642.722	1.1682
645.615	1.43246
648.508	2.49906
651.401	1.0312
654.293	1.45781
657.186	1.07099
660.079	1.79773
662.971	1.03971
665.864	1.08405
668.757	0.797869
671.649	0.430449
674.542	0.324826
677.435	0.031076
680.328	0.561476
683.22	1.07313
686.113	0.549886
689.006	0.80965
691.898	1.12332
694.791	1.27012
697.684	2.10206
700.577	0.61998
703.469	0.762643
706.362	1.57708
709.255	1.11523
712.147	0.636846
715.04	0.698277
717.933	1.26913
720.825	1.16176
723.718	0.848461
726.611	0.376782
729.504	0.67595
732.396	0.872997
735.289	0.128061
738.182	0.427593
741.074	0.720716
743.967	0.098531
746.86	0.753717
749.752	0.394262
752.645	0.875903
755.538	0.860538
758.431	0.502468
761.323	0.628832
764.216	0.758062
767.109	0.56951
770.001	0.624397
772.894	0.518371
775.787	0.725042
778.679	0.137594
781.572	0.343143
784.465	1.12371
787.357	0.434341
790.25	0.292511
793.143	0.006527
796.036	0.478848
798.928	0.236715
801.821	0.123728
804.714	1.05683
807.606	0.210484
810.499	0.863499
813.392	1.72381
816.284	1.00144
819.177	1.98046
822.07	2.77374
824.963	2.25596
827.855	3.46898
830.748	4.97084
833.641	4.22194
836.533	4.03882
839.426	3.01885
842.319	2.5095
845.212	2.28844
848.104	2.5406
850.997	4.42564
853.89	5.72984
856.782	7.59454
859.675	12.0026
862.568	16.4082
865.46	22.3626
868.353	29.6525
871.246	36.2284
874.139	40.1319
877.031	41.5471
879.924	38.5359
882.817	31.7042
885.709	22.644
888.602	15.2256
891.495	9.58801
894.387	6.91211
897.28	3.94754
900.173	2.50739
903.066	2.70378
905.958	3.51809
908.851	4.20863
911.744	6.44319
914.636	8.95901
917.529	11.3249
920.422	12.1266
923.314	12.4338
926.207	9.66676
929.1	6.90806
931.992	4.17893
934.885	2.9622
937.778	1.53584
940.671	1.30676
943.563	0.35072
946.456	0.838678
949.349	0.162943
952.241	0.427227
955.134	0.137221
958.027	0.120814
960.919	0.311444
963.812	0.419945
966.705	0.381041
969.598	0.489549
972.49	0.322389
975.383	0.75861
978.276	2.06547
981.168	1.9343
984.061	2.50361
986.954	2.91239
989.846	2.43216
992.739	2.86191
995.632	2.71318
998.525	1.66884
1001.42	1.0566
1004.31	2.15794
1007.2	0.876608
1010.1	1.58488
1012.99	1.32424
1015.88	0.454631
1018.77	0.688424
1021.67	0.83317
1024.56	0.68391
1027.45	0.654448
1030.34	0.215045
1033.24	0.357972
1036.13	0.731455
1039.02	1.04324
1041.91	0.385331
1044.81	0.646882
1047.7	0.798433
1050.59	0.592457
1053.49	0.510081
1056.38	0.041166
1059.27	0.037619
1062.16	0.771842
1065.06	1.28315
1067.95	0.18143
1070.84	0.719537
1073.73	1.08895
1076.63	1.79724
1079.52	1.1071
1082.41	0.840896
1085.31	1.26422
1088.2	0.846621
1091.09	0.64442
1093.98	0.664481
1096.88	0.877359
1099.77	0.713583
1102.66	1.77943
1105.55	0.415164
1108.45	0.383629
1111.34	0.372672
1114.23	0.301588
1117.12	0.591452
1120.02	0.015281
1122.91	1.22926
1125.8	0.070751
1128.7	0.079865
1131.59	0.15688
1134.48	0.721894
1137.37	1.10213
1140.27	1.30613
1143.16	0.209431
1146.05	0.547096
1148.94	0.903787
1151.84	0.830381
1154.73	0.21942
1157.62	1.01591
1160.52	0.37569
1163.41	0.653052
1166.3	1.63264
1169.19	0.826273
1172.09	1.48708
1174.98	0.598238
1177.87	1.05535
1180.77	1.8756
1183.66	0.918948
1186.55	0.758352
1189.44	1.35984
1192.34	1.43213
1195.23	0.888629
1198.12	0.513703
1201.01	0.947115
1203.91	1.59946
1206.8	0.513619
1209.69	1.17126
1212.58	0.665668
1215.48	0.453432
1218.37	0.591955
1221.26	0.341148
1224.15	1.31153
1227.05	0.749588
1229.94	1.75838
1232.83	0.154185
1235.73	0.631643
1238.62	0.684206
1241.51	0.851886
1244.4	1.25039
1247.3	0.976737
1250.19	1.17133
1253.08	0.950606
1255.97	1.04226
1258.87	1.29632
1261.76	0.293782
1264.65	0.050505
1267.55	1.48506
1270.44	0.114121
1273.33	0.925344
1276.22	0.47382
1279.12	1.25525
1282.01	0.293722
1284.9	0.038757
