Measurement: Raman, 532 nm, unoriented, Raman Data Processed
Mineral: Henritermierite
Rruff sample: R060253
Ideal chemistry: Ca_3_Mn^3+^_2_(SiO_4_)_2_(OH)_4_
Locality: N'Chwaning mine, Kuruman, Kakahari mining area, Cape Province, South Africa
Source: William W. Pinch
Description: Reddish-brown granular coating on darker andradite
Measured chemistry: Ca_3.00_(Mn^3+^_1.97_Al_0.03_)_Î£=2_(Si_1.00_O_4_)_2_(OH)_4_
Raman shift (cm-1)	intensity
142.636	0
146.011	23.3772
149.386	94.6149
152.761	112.792
156.136	18.6447
159.51	11.9872
162.885	16.5865
166.26	16.8158
169.635	34.9767
173.01	31.9007
176.385	5.53558
179.759	1.76075
183.134	0.603989
186.509	4.13866
189.884	8.8334
193.259	11.7142
196.633	8.47374
200.008	3.95788
203.383	3.0284
206.758	1.03823
210.133	2.62825
213.507	0.579048
216.882	1.12633
220.257	3.4248
223.632	9.88757
227.007	22.9898
230.382	33.3878
233.756	48.0434
237.131	57.2251
240.506	80.3486
243.881	113.287
247.256	152.102
250.631	174.536
254.005	163.067
257.38	159.297
260.755	171.754
264.13	169.275
267.505	121.138
270.879	72.752
274.254	52.6718
277.629	50.3403
281.004	51.66
284.379	40.9432
287.753	18.7196
291.128	5.5967
294.503	2.41931
297.878	0.243958
301.253	3.24661
304.628	11.3889
308.002	14.44
311.377	21.8575
314.752	33.5631
318.127	39.3813
321.502	26.8453
324.877	20.8525
328.251	20.7205
331.626	29.5316
335.001	42.6383
338.376	50.5277
341.75	52.6191
345.125	45.5224
348.5	28.7354
351.875	8.82468
355.25	0.015625
358.625	0.024132
361.999	3.20413
365.374	11.9088
368.749	22.9654
372.124	40.1116
375.499	54.1019
378.873	53.955
382.248	44.1924
385.623	46.2278
388.998	43.7597
392.373	28.3991
395.748	7.40288
399.122	3.42847
402.497	3.47386
405.872	0.227936
409.247	12.6718
412.622	30.5938
415.997	56.2655
419.371	83.3911
422.746	98.903
426.121	111.964
429.496	111.61
432.871	89.1715
436.245	63.6477
439.62	42.2382
442.995	23.8607
446.37	8.29614
449.745	0.34137
453.12	0.316788
456.494	5.29744
459.869	17.1772
463.244	29.6341
466.619	40.8711
469.994	50.4895
473.368	61.6654
476.743	79.6887
480.118	119.354
483.493	197.221
486.868	345.574
490.243	564.885
493.617	863.835
496.992	1254.52
500.367	1576.28
503.742	1429.27
507.116	874.627
510.491	460.685
513.866	235.283
517.241	116.604
520.616	55.9495
523.991	23.6252
527.365	7.12666
530.74	2.64165
534.115	3.40041
537.49	2.6125
540.865	6.14026
544.24	22.0094
547.614	50.6638
550.989	107.758
554.364	220.951
557.739	411.011
561.114	675.651
564.489	1030.48
567.863	1352.13
571.238	1259.89
574.613	745.627
577.988	386.507
581.362	216.26
584.737	122.707
588.112	72.9507
591.487	43.1337
594.862	26.2914
598.237	14.1998
601.611	7.53081
604.986	3.85521
608.361	1.64041
611.736	1.97832
615.111	2.2316
618.486	3.13495
621.86	4.20853
625.235	5.62924
628.61	7.12511
631.985	6.17139
635.36	3.19899
638.734	1.71137
642.109	2.31996
645.484	0.731812
648.859	0.168213
652.234	1.48453
655.609	0.131851
658.983	0.185501
662.358	4.67287
665.733	0.159019
669.108	1.04424
672.482	0.199562
675.857	1.08756
679.232	1.90822
682.607	2.91185
685.982	3.45329
689.357	5.50306
692.731	5.72143
696.106	3.77242
699.481	5.11619
702.856	3.3015
706.231	2.87151
709.606	3.05524
712.98	2.79749
716.355	2.75639
719.73	2.23199
723.105	2.731
726.48	2.50265
729.854	1.78497
733.229	3.10748
736.604	1.9287
739.979	2.14195
743.354	2.04225
746.729	2.01721
750.103	3.5298
753.478	3.00778
756.853	3.16036
760.228	3.34627
763.603	4.54991
766.977	3.83392
770.352	4.80679
773.727	3.97151
777.102	1.73125
780.477	0.359085
783.851	0.732773
787.226	0.401459
790.601	1.57692
793.976	0.283234
797.351	0.139038
800.726	0.653839
804.1	0.078186
807.475	2.13875
810.85	3.57843
814.225	6.78511
817.6	10.3477
820.975	13.4176
824.349	20.2872
827.724	28.8601
831.099	31.5243
834.474	33.1353
837.849	27.7563
841.223	19.6737
844.598	11.2643
847.973	8.85547
851.348	9.41679
854.723	16.7876
858.097	30.6179
861.472	50.5757
864.847	89.2565
868.222	142.43
871.597	212.421
874.972	286.414
878.346	345.873
881.721	351.017
885.096	271.534
888.471	172.625
891.846	101.8
895.221	62.4917
898.595	38.8618
901.97	25.3845
905.345	19.5095
908.72	15.1165
912.095	15.4503
915.469	20.2007
918.844	28.0651
922.219	33.1348
925.594	33.1284
928.969	27.2764
932.343	18.9996
935.718	12.3665
939.093	8.44305
942.468	5.52
945.843	4.65601
949.217	0.929749
952.592	0.008377
955.967	0.288116
959.342	1.49635
962.717	1.65901
966.092	2.26378
969.466	0.285446
972.841	3.60855
976.216	9.10877
979.591	18.2361
982.966	25.4991
986.341	35.3939
989.715	40.1031
993.09	40.6902
996.465	33.0378
999.84	23.1857
1003.22	18.0411
1006.59	10.8365
1009.96	7.75897
1013.34	8.00217
1016.71	3.77892
1020.09	4.09213
1023.46	3.63518
1026.84	2.32849
1030.21	3.56511
1033.59	0.163055
1036.96	0.300705
1040.34	2.59308
1043.71	0.618057
1047.09	2.03981
1050.46	0.469376
1053.84	0.206436
1057.21	0.126633
1060.59	1.11345
1063.96	0.718048
1067.34	1.87534
1070.71	1.33606
1074.09	1.02562
1077.46	1.58708
1080.84	1.83787
1084.21	2.41046
1087.59	2.18935
1090.96	1.10374
1094.34	0.089249
1097.71	1.20226
1101.08	3.29591
1104.46	2.39365
1107.83	2.2572
1111.21	1.83292
1114.58	1.59718
1117.96	1.35098
1121.33	0.582703
1124.71	1.9935
1128.08	1.72714
1131.46	0.802917
1134.83	3.30637
1138.21	2.89952
1141.58	3.94475
1144.96	2.49928
1148.33	3.33659
1151.71	2.70206
1155.08	2.31676
1158.46	1.62199
1161.83	1.38399
1165.21	0.788788
1168.58	1.34383
1171.95	1.16179
1175.33	1.27148
1178.7	4.0634
1182.08	1.73492
1185.45	3.22247
1188.83	2.86971
1192.2	3.80188
1195.58	1.83977
1198.95	2.64003
1202.33	2.51898
1205.7	1.49609
1209.08	0.225586
1212.45	0.382462
1215.83	0.618668
1219.2	1.98421
1222.58	0.359894
1225.95	0.762833
1229.33	0.670074
1232.7	5.03934
1236.08	0.569061
1239.45	0.539658
1242.83	1.50719
1246.2	0.566299
1249.58	0.500244
1252.95	1.21277
1256.33	0.742096
1259.7	3.24278
1263.08	3.01714
1266.45	3.00693
1269.83	2.10837
1273.2	3.10426
1276.58	0.815903
1279.95	1.06702
1283.32	4.33855
1286.7	1.69691
1290.07	1.78044
1293.45	1.16142
1296.82	1.57932
1300.2	0.100464
