Measurement: Raman, 532 nm, unoriented, Raman Data Processed
Mineral: Hentschelite
Rruff sample: R061015
Ideal chemistry: CuFe^3+^_2_(PO_4_)_2_(OH)_2_
Locality: Spring Creek Copper mine, South Australia, Australia
Source: Michael Scott
Description: Dark green platy crystals in radial aggregates associated with quartz and malachite
Measured chemistry: (Cu_0.91_Fe^2+^_0.08_Mn_0.01_)_Î£=1_Fe^3+^_2.00_(P_1.00_O_4_)_2_(OH)_2_; OH estimated by charge balance; Fe^2+^ by charge balance and stoichiometry
Raman shift (cm-1)	intensity
163.466	0
166.359	34.4853
169.252	277.626
172.144	708.268
175.037	1247.55
177.93	1658.76
180.822	1364.8
183.715	902.68
186.608	690.3
189.5	399.605
192.393	111.086
195.286	26.3547
198.179	23.4582
201.071	92.2263
203.964	237.233
206.857	319.063
209.749	340.666
212.642	503.171
215.535	708.727
218.428	861.613
221.32	800.468
224.213	523.81
227.106	276.53
229.998	23.9451
232.891	83.5435
235.784	69.0293
238.676	27.1826
241.569	178.63
244.462	357.147
247.355	726.997
250.247	1185.94
253.14	1668.72
256.033	2040.41
258.925	2315.71
261.818	2423.07
264.711	2298.87
267.603	1925.39
270.496	1419.77
273.389	1052.48
276.281	792.484
279.174	584.036
282.067	581.583
284.96	518.095
287.852	600.079
290.745	753.856
293.638	854.4
296.53	1025.28
299.423	1319.63
302.316	1724.53
305.209	2155.53
308.101	2600.98
310.994	2841.01
313.887	2710.7
316.779	2296.16
319.672	1782.65
322.565	1368.8
325.457	1041.74
328.35	742.649
331.243	578.371
334.135	406.94
337.028	333.308
339.921	321.055
342.814	259.448
345.706	267.417
348.599	267.126
351.492	206.94
354.384	155.936
357.277	10.5723
360.17	12.9524
363.062	23.7067
365.955	60.7023
368.848	8.96729
371.741	134.997
374.633	232.24
377.526	363.62
380.419	482.372
383.311	433.537
386.204	311.287
389.097	245.158
391.989	258.123
394.882	245.801
397.775	206.575
400.668	186.598
403.56	153.564
406.453	118.644
409.346	110.604
412.238	44.0126
415.131	77.1449
418.024	16.468
420.916	7.43567
423.809	33.7731
426.702	25.6344
429.594	8.8042
432.487	41.6588
435.38	104.861
438.273	150.339
441.165	274.45
444.058	359.934
446.951	545.792
449.843	698.951
452.736	931.113
455.629	1047.69
458.522	1213.69
461.414	1252.68
464.307	1285.81
467.2	1308.41
470.092	1330.55
472.985	1411.45
475.878	1554.95
478.77	1668.81
481.663	1718.68
484.556	1737.92
487.449	1596.45
490.341	1347.59
493.234	1091.32
496.127	886.259
499.019	714.369
501.912	560.077
504.805	440.417
507.697	397.373
510.59	312.486
513.483	269.597
516.375	272.857
519.268	260.152
522.161	233.889
525.054	198.741
527.946	178.092
530.839	141.589
533.732	108.583
536.624	68.8603
539.517	23.0132
542.41	20.2913
545.303	6.06592
548.195	17.6949
551.088	34.183
553.981	37.657
556.873	29.3431
559.766	12.4395
562.659	51.6047
565.551	141.021
568.444	173.155
571.337	261.118
574.23	266.808
577.122	215.659
580.015	159.934
582.908	164.748
585.8	232.163
588.693	268.935
591.586	404.683
594.478	605.461
597.371	846.862
600.264	1174.8
603.156	1598.98
606.049	2072.55
608.942	2466.13
611.835	2566.55
614.727	2075.6
617.62	1582.87
620.513	1092.21
623.405	805.944
626.298	599.518
629.191	483.205
632.083	366.237
634.976	280.914
637.869	218.04
640.761	140.929
643.654	126.693
646.547	84.9796
649.44	72.0831
652.332	27.6706
655.225	42.6846
658.118	13.7457
661.01	13.1386
663.903	11.2933
666.796	1.22607
669.688	19.2643
672.581	20.5609
675.474	2.70264
678.367	1.26831
681.259	35.2982
684.152	42.3315
687.045	42.3148
689.937	42.8816
692.83	47.5337
695.723	49.3543
698.615	35.0382
701.508	22.0542
704.401	23.4104
707.294	8.44849
710.186	3.23962
713.079	21.572
715.972	6.81592
718.864	5.03894
721.757	26.3564
724.65	5.04114
727.543	0.911743
730.435	8.20081
733.328	0.375244
736.221	9.7887
739.113	7.80335
742.006	12.0116
744.899	11.4811
747.791	58.575
750.684	43.6731
753.577	22.8742
756.47	11.8043
759.362	3.69885
762.255	34.1562
765.148	42.1813
768.04	42.6251
770.933	38.8007
773.826	16.5217
776.718	16.1217
779.611	36.5668
782.504	12.7487
785.396	14.3492
788.289	15.1331
791.182	42.9567
794.075	19.3995
796.967	46.0759
799.86	30.0561
802.753	47.4203
805.645	41.1107
808.538	79.6993
811.431	56.7173
814.323	104.816
817.216	86.835
820.109	113.983
823.001	135.52
825.894	145.832
828.787	135.82
831.68	134.856
834.572	150.438
837.465	128.652
840.358	135.722
843.25	164.377
846.143	148.157
849.036	179.685
851.928	135.879
854.821	145.766
857.714	147.822
860.607	139.682
863.499	134.179
866.392	140.733
869.285	99.6638
872.177	96.0782
875.07	93.9252
877.963	103.213
880.856	99.0161
883.748	94.6438
886.641	82.9692
889.534	94.0911
892.426	71.0248
895.319	44.4301
898.212	45.775
901.104	54.6295
903.997	50.5901
906.89	15.6118
909.783	17.7401
912.675	19.6752
915.568	16.9748
918.461	27.0015
921.353	7.29102
924.246	1.83435
927.139	6.81189
930.031	20.8707
932.924	25.4507
935.817	35.2943
938.71	18.856
941.602	21.5844
944.495	4.3335
947.388	52.4199
950.28	106.872
953.173	142.149
956.066	232.715
958.958	325.062
961.851	431.217
964.744	571.482
967.636	711.243
970.529	873.394
973.422	1091.16
976.315	1308.88
979.207	1787.12
982.1	2334.28
984.993	3182.76
987.885	4049.02
990.778	4833.68
993.671	5098.81
996.563	4937.9
999.456	4822.77
1002.35	4837.85
1005.24	4593.28
1008.13	3895.28
1011.03	3066.3
1013.92	2441.74
1016.81	1860.06
1019.71	1309.71
1022.6	886.892
1025.49	620.974
1028.38	609.582
1031.28	610.987
1034.17	731.582
1037.06	747.372
1039.95	615.186
1042.85	331.971
1045.74	188.011
1048.63	176.267
1051.53	179.732
1054.42	246.234
1057.31	297.301
1060.2	283.803
1063.1	309.207
1065.99	393.153
1068.88	355.422
1071.77	297.906
1074.67	181.539
1077.56	119.764
1080.45	99.9705
1083.34	150.09
1086.24	113.539
1089.13	98.8342
1092.02	73.1897
1094.91	16.5037
1097.81	8.99878
1100.7	39.3254
1103.59	3.51269
1106.49	17.6346
1109.38	29.1832
1112.27	7.62341
1115.16	16.7039
1118.06	4.6394
1120.95	14.1289
1123.84	41.4956
1126.73	97.1057
1129.63	138.609
1132.52	160.663
1135.41	193.504
1138.31	241.502
1141.2	298.946
1144.09	305.273
1146.98	296.752
1149.88	294.753
1152.77	266.961
1155.66	235.873
1158.56	191.213
1161.45	164.491
1164.34	128.862
1167.23	119.283
1170.12	80.563
1173.02	33.2249
1175.91	61.2642
1178.8	19.7369
1181.7	53.3121
1184.59	26.5072
1187.48	19.113
1190.37	24.04
1193.27	12.8114
1196.16	23.3936
1199.05	5.21387
1201.94	6.50195
1204.84	39.7688
1207.73	8.4812
1210.62	22.5664
1213.52	17.7279
1216.41	68.1594
1219.3	35.1256
1222.19	57.4353
1225.09	47.4793
1227.98	52.9233
1230.87	52.0442
1233.77	82.3394
1236.66	74.195
1239.55	85.1603
1242.44	78.6931
1245.34	35.7578
1248.23	57.3651
1251.12	28.6392
1254.01	60.0596
1256.91	60.2722
1259.8	32.0702
1262.69	35.8148
1265.58	6.81763
1268.48	1.00439
1271.37	39.8861
1274.26	15.7977
1277.15	24.3478
1280.05	20.0349
