Measurement: Raman, 532 nm, unoriented, Raman Data Processed
Mineral: Herbertsmithite
Rruff sample: R070099
Ideal chemistry: Cu_3_Zn(OH)_6_Cl_2_
Locality: San Francisco mine, Sierra Gorda, Antofagasta, Chile
Source: Michael Scott
Description: Blue-green crystals scattered on matrix, showing a range of habits from hexagonal plates to pseudo-octahedra
Raman shift (cm-1)	intensity
149.7	0
153.075	103.71
156.45	5.92578
159.825	9.77441
163.199	94.3081
166.574	108.692
169.949	183.28
173.324	231.633
176.699	306.241
180.073	286.755
183.448	302.558
186.823	269.075
190.198	339.207
193.573	329.051
196.947	337.238
200.322	371.49
203.697	461.611
207.072	463.919
210.447	610.045
213.821	669.381
217.196	713.377
220.571	838.372
223.946	924.24
227.321	1075.12
230.696	1164.55
234.07	1178.86
237.445	957.741
240.82	600.137
244.195	365.355
247.57	227.187
250.945	121.465
254.319	89.6233
257.694	64.8501
261.069	66.096
264.444	45.604
267.819	19.8533
271.193	12.9849
274.568	30.3674
277.943	33.509
281.318	55.1387
284.693	30.9541
288.067	27.6228
291.442	55.9314
294.817	14.106
298.192	32.1433
301.567	2.72583
304.942	57.7463
308.316	42.8357
311.691	75.6497
315.066	169.761
318.441	128.73
321.816	241.679
325.19	306.511
328.565	355.371
331.94	552.428
335.315	727.914
338.69	1159.57
342.065	1651.5
345.439	2597.81
348.814	4187.33
352.189	6339.96
355.564	9095.31
358.938	11937.6
362.313	12900
365.688	10120.5
369.063	5812.56
372.438	3142.24
375.813	1882.6
379.187	1264.94
382.562	1197.98
385.937	1463.01
389.312	1940.46
392.687	2658.61
396.062	3406.91
399.436	3734.47
402.811	3290.21
406.186	2362.37
409.561	1605.98
412.936	1014.09
416.31	623.262
419.685	399.539
423.06	181.794
426.435	83.8269
429.81	59.3579
433.184	11.1623
436.559	47.033
439.934	71.8679
443.309	8.71069
446.684	26.8137
450.058	94.7625
453.433	270.654
456.808	435.963
460.183	739.423
463.558	1082.33
466.933	1309.8
470.307	1523.22
473.682	1841.55
477.057	2137.77
480.432	2609.52
483.807	3546.65
487.182	4941.51
490.556	6867.65
493.931	9097.59
497.306	11069.8
500.681	11548.4
504.055	9792.19
507.43	6899.84
510.805	4484.83
514.18	2895.01
517.555	1968.75
520.93	1269.72
524.304	815.682
527.679	558.89
531.054	375.612
534.429	227.855
537.804	155.894
541.178	80.0249
544.553	2.15185
547.928	10.6914
551.303	14.6863
554.678	20.1199
558.053	12.7661
561.427	19.7932
564.802	23.9409
568.177	36.6938
571.552	6.81348
574.927	80.5227
578.302	81.7231
581.676	119.234
585.051	91.704
588.426	113.135
591.801	131.107
595.176	103.326
598.55	80.515
601.925	82.0128
605.3	90.6262
608.675	106.216
612.05	53.7163
615.424	85.0159
618.799	36.1633
622.174	19.5375
625.549	9.54419
628.924	2.57361
632.298	10.6083
635.673	18.6066
639.048	1.88806
642.423	8.32471
645.798	21.5343
649.173	40.9763
652.547	46.6798
655.922	127.912
659.297	226.017
662.672	281.246
666.047	425.911
669.421	599.774
672.796	862.242
676.171	1202.8
679.546	1705.66
682.921	2259.98
686.295	2968.11
689.67	3578.7
693.045	4005.64
696.42	4326.84
699.795	4258.82
703.17	3873.91
706.544	3247.84
709.919	2428.07
713.294	1785.63
716.669	1281.68
720.044	899.333
723.418	685.92
726.793	560.392
730.168	434.843
733.543	392.581
736.918	312.136
740.293	293.747
743.667	239.374
747.042	196.848
750.417	159.04
753.792	117.488
757.167	104.151
760.541	95.9388
763.916	57.5134
767.291	29.495
770.666	31.1732
774.041	8.23987
777.415	12.3811
780.79	15.5862
784.165	0.760864
787.54	12.4457
790.915	37.0875
794.29	16.6589
797.664	33.4083
801.039	20.6661
804.414	39.9186
807.789	65.467
811.164	66.3767
814.538	54.9392
817.913	63.995
821.288	52.8851
824.663	44.1103
828.038	16.2583
831.413	13.589
834.787	8.68298
838.162	7.47168
841.537	0.312378
844.912	31.4477
848.287	8.78906
851.661	41.6244
855.036	56.343
858.411	10.2109
861.786	43.3611
865.161	78.5845
868.535	191.837
871.91	189.814
875.285	239.773
878.66	219.144
882.035	239.749
885.409	274.806
888.784	309.092
892.159	364.997
895.534	411.247
898.909	517.102
902.284	689.921
905.658	845.963
909.033	1182.08
912.408	1568.21
915.783	2234.08
919.158	3012
922.533	4175.17
925.907	5710.04
929.282	7537.15
932.657	9821.74
936.032	12465.1
939.407	14740.5
942.781	15059.9
946.156	11858.9
949.531	7592.39
952.906	4668.98
956.281	2975.63
959.655	1991.18
963.03	1428.85
966.405	1119.13
969.78	865.963
973.155	651.976
976.529	547.064
979.904	403.789
983.279	238.538
986.654	162.823
990.029	173.515
993.404	103.939
996.778	62.7185
1000.15	13.2942
1003.53	39.7029
1006.9	42.9165
1010.28	24.1322
1013.65	23.4713
1017.03	23.4531
1020.4	31.2696
1023.78	18.5367
1027.15	1.60706
1030.53	36.2524
1033.9	30.6807
1037.28	11.9979
1040.65	12.426
1044.03	4.82581
1047.4	45.0582
1050.78	54.2112
1054.15	67.0559
1057.53	64.0374
1060.9	81.9386
1064.28	142.224
1067.65	133.446
1071.02	135.192
1074.4	126.336
1077.77	134.208
1081.15	183.358
1084.52	154.59
1087.9	120.478
1091.27	116.658
1094.65	122.701
1098.02	103.626
1101.4	106.621
1104.77	86.1159
1108.15	59.4176
1111.52	68.6704
1114.9	44.7853
1118.27	64.8394
1121.65	42.8123
1125.02	62.9785
1128.4	24.2844
1131.77	46.6593
1135.15	45.5841
1138.52	8.68994
1141.89	3.56842
1145.27	12.3016
1148.64	32.4335
1152.02	0.304138
1155.39	44.2826
1158.77	39.6848
1162.14	26.6885
1165.52	40.7749
1168.89	33.2125
1172.27	39.2952
1175.64	11.5513
1179.02	28.0032
1182.39	30.0537
1185.77	20.5882
1189.14	54.6671
1192.52	2.10455
1195.89	64.7108
1199.27	116.699
1202.64	47.2131
1206.02	22.1311
1209.39	61.0439
1212.77	44.5609
1216.14	31.6476
1219.52	17.6255
1222.89	53.7703
1226.27	22.6285
1229.64	29.7013
1233.02	18.4115
1236.39	39.4159
1239.77	29.5372
1243.14	3.38019
1246.52	3.74188
1249.89	21.3294
1253.26	1.65729
1256.64	0.98175
1260.01	16.6506
1263.39	15.4651
1266.76	24.302
1270.14	10.371
1273.51	22.0742
1276.89	15.5679
1280.26	20.3056
1283.64	30.448
1287.01	12.9543
1290.39	33.0295
1293.76	37.1821
1297.14	33.3273
1300.51	8.37329
1303.89	27.2435
1307.26	41.2956
1310.64	8.66534
