Measurement: Raman, 532 nm, unoriented, Raman Data Processed
Mineral: Herbertsmithite
Rruff sample: R060387
Ideal chemistry: Cu_3_Zn(OH)_6_Cl_2_
Locality: San Francisco mine, Sierra Gorda, Antofagasta, Chile
Source: Michael Scott
Description: Greenish-blue thin hexagonal plates associated with hemimorphite, anglesite, and quartz
Measured chemistry: (Cu_2.98_Zn_0.02_)_Î£=3_Zn_1.00_(OH)_6_Cl_2.00_
Raman shift (cm-1)	intensity
171.549	0
174.441	2.52841
177.334	3.89597
180.227	0.421829
183.119	1.15665
186.012	3.82665
188.905	3.875
191.798	2.98622
194.69	2.71779
197.583	2.62064
200.476	1.61952
203.369	5.21536
206.261	5.85484
209.154	9.40543
212.047	12.8659
214.939	17.604
217.832	19.8229
220.725	27.0159
223.617	29.871
226.51	36.2433
229.403	41.7053
232.296	37.9619
235.188	36.1097
238.081	31.1647
240.974	19.1477
243.866	12.1736
246.759	8.64385
249.652	1.68082
252.544	0.767853
255.437	0.079926
258.33	0.010925
261.223	2.72424
264.115	0.568954
267.008	0.273331
269.901	0.212143
272.793	1.27743
275.686	1.0679
278.579	0.630264
281.471	0.469368
284.364	0.182899
287.257	0.999313
290.15	1.05789
293.042	0.913422
295.935	0.935043
298.828	2.85146
301.72	3.33979
304.613	5.53062
307.506	4.6346
310.399	5.14441
313.291	8.27334
316.184	9.96384
319.077	12.6635
321.969	13.7059
324.862	14.8682
327.755	21.2578
330.647	24.662
333.54	31.7375
336.433	40.7611
339.325	61.0707
342.218	86.1351
345.111	124.865
348.004	183.689
350.896	243.209
353.789	315.373
356.682	405.656
359.574	510.53
362.467	574.746
365.36	506.091
368.253	330.361
371.145	181.708
374.038	105.193
376.931	69.2048
379.823	56.569
382.716	55.5264
385.609	64.2591
388.502	83.4732
391.394	102.591
394.287	133.817
397.18	157.903
400.072	166.412
402.965	145.166
405.858	104.936
408.75	67.5292
411.643	42.4428
414.536	28.184
417.428	18.6052
420.321	10.8582
423.214	5.22478
426.107	2.68997
428.999	1.90223
431.892	1.93914
434.785	1.98218
437.677	0.412506
440.57	2.31314
443.463	1.80719
446.356	0.197914
449.248	4.99535
452.141	6.41646
455.034	12.3521
457.926	18.9351
460.819	29.3582
463.712	41.5881
466.604	59.0695
469.497	77.1412
472.39	101.72
475.283	122.703
478.175	127.992
481.068	139.826
483.961	175.52
486.853	224.981
489.746	290.462
492.639	368.872
495.531	449.59
498.424	519.043
501.317	525.677
504.21	443.871
507.102	319.783
509.995	213.65
512.888	141.927
515.78	96.0694
518.673	66.0331
521.566	44.3843
524.458	32.0611
527.351	23.1713
530.244	19.5852
533.137	12.0642
536.029	8.86275
538.922	3.24326
541.815	3.65208
544.707	2.17489
547.6	0.392593
550.493	0.414963
553.386	0.267174
556.278	0.126568
559.171	0.715462
562.064	0.460629
564.956	0.467636
567.849	0.140095
570.742	0.43174
573.635	0.936184
576.527	0.365383
579.42	1.36271
582.313	2.25402
585.205	2.23051
588.098	3.96446
590.991	3.75986
593.883	3.29487
596.776	2.61322
599.669	2.94558
602.562	4.23888
605.454	3.00065
608.347	2.29721
611.24	2.5291
614.132	2.34528
617.025	2.23684
619.918	0.044109
622.81	0.832771
625.703	2.097
628.596	0.024925
631.489	0.053078
634.381	2.5674
637.274	2.66182
640.167	0.16153
643.059	0.564949
645.952	0.409218
648.845	0.932697
651.737	0.974659
654.63	4.13337
657.523	6.01941
660.416	7.53307
663.308	11.3952
666.201	15.162
669.094	19.4498
671.986	25.0254
674.879	33.32
677.772	42.9964
680.664	56.4933
683.557	73.2855
686.45	92.5932
689.343	116.36
692.235	139.365
695.128	162.622
698.021	175.301
700.913	179.415
703.806	172.571
706.699	145.754
709.592	111.3
712.484	80.7327
715.377	57.22
718.27	39.0938
721.162	30.5509
724.055	23.2365
726.948	18.3889
729.841	16.6547
732.733	13.5538
735.626	11.5099
738.519	11.237
741.411	8.82808
744.304	8.31797
747.197	6.85272
750.089	5.93073
752.982	4.38911
755.875	3.96046
758.768	4.19039
761.66	3.76679
764.553	3.76966
767.446	0.867867
770.338	2.42297
773.231	0.831245
776.124	0.02467
779.016	0.608387
781.909	0.581482
784.802	0.246429
787.694	0.063915
790.587	0.244247
793.48	1.80158
796.373	0.178223
799.265	0.26899
802.158	1.32052
805.051	1.08903
807.943	0.715508
810.836	1.72933
813.729	1.11719
816.621	1.62502
819.514	0.798786
822.407	0.427799
825.3	0.628052
828.192	0.066151
831.085	0.054745
833.978	0.346424
836.87	0.340836
839.763	0.494362
842.656	1.09598
845.549	0.962379
848.441	1.16588
851.334	0.161774
854.227	1.098
857.119	2.86735
860.012	5.5091
862.905	9.59971
865.798	13.5767
868.69	18.3182
871.583	21.218
874.476	24.0605
877.368	23.606
880.261	21.8078
883.154	18.9126
886.046	16.3967
888.939	13.6951
891.832	13.1438
894.725	13.3319
897.617	12.8848
900.51	13.3259
903.403	14.5559
906.295	18.667
909.188	22.8045
912.081	29.8639
914.973	41.6688
917.866	53.6096
920.759	72.8761
923.652	97.7907
926.544	132.374
929.437	178.027
932.33	238.248
935.222	304.601
938.115	378.325
941.008	440.315
943.9	434.979
946.793	325.03
949.686	203.398
952.579	126.578
955.471	77.7089
958.364	51.9434
961.257	36.8606
964.149	26.254
967.042	20.3601
969.935	15.3225
972.827	10.9584
975.72	10.768
978.613	8.40961
981.506	5.6152
984.398	3.36959
987.291	3.98615
990.184	2.61769
993.077	1.49461
995.969	1.08863
998.862	0.613468
1001.75	0.80761
1004.65	0.063614
1007.54	1.05406
1010.43	1.88917
1013.33	0.031086
1016.22	0.176628
1019.11	1.62254
1022	0.555733
1024.9	1.09147
1027.79	0.153259
1030.68	0.343204
1033.57	0.935368
1036.47	1.56042
1039.36	0.569344
1042.25	2.90319
1045.14	1.31728
1048.04	2.80382
1050.93	2.94363
1053.82	4.05488
1056.72	3.18172
1059.61	2.58485
1062.5	4.18557
1065.39	5.58877
1068.29	3.72897
1071.18	3.84427
1074.07	5.6065
1076.96	4.51102
1079.86	4.42872
1082.75	5.28468
1085.64	3.79621
1088.54	4.69112
1091.43	4.03172
1094.32	2.75801
1097.21	2.15515
1100.11	2.53384
1103	2.23145
1105.89	0.85491
1108.79	1.78022
1111.68	1.43012
1114.57	1.37379
1117.46	0.090492
1120.36	0.337711
1123.25	1.11447
1126.14	2.13353
1129.03	0.557138
1131.93	0.651066
1134.82	0.949907
1137.71	0.507841
1140.6	3.21407
1143.5	1.39348
1146.39	0.558178
1149.28	1.25145
1152.17	0.975115
1155.07	0.278399
1157.96	0.235922
1160.85	1.7768
1163.75	0.814009
1166.64	1.0646
1169.53	1.31585
1172.42	0.118681
1175.32	1.62317
1178.21	1.42448
1181.1	1.80161
1183.99	1.97759
1186.89	2.87134
1189.78	1.43618
1192.67	1.52791
1195.57	2.00411
1198.46	2.91433
1201.35	1.93307
1204.24	2.86354
1207.14	1.06031
1210.03	1.74528
1212.92	1.01558
1215.82	0.481264
1218.71	0.891117
1221.6	0.499838
1224.49	0.848639
1227.38	2.08386
1230.28	0.493647
1233.17	1.27587
1236.06	1.25919
1238.96	1.28785
1241.85	1.43456
1244.74	0.141169
1247.63	1.77712
1250.53	0.573765
1253.42	1.32753
1256.31	1.9161
1259.2	0.878036
1262.1	0.825171
1264.99	0.631931
1267.88	0.80352
1270.78	1.51618
1273.67	1.36871
1276.56	0.239601
1279.45	1.51034
1282.35	1.87075
1285.24	2.16401
1288.13	1.74952
1291.03	3.13774
1293.92	2.2654
1296.81	0.650343
1299.7	0.835928
1302.6	0
