Measurement: Raman, 532 nm, unoriented, Raman Data Processed
Mineral: Herderite
Rruff sample: R100064
Ideal chemistry: CaBePO_4_F
Locality: Medina, Minas Gerais, Brazil
Source: Luiz Menezes
Description: Pale gray crystal
Raman shift (cm-1)	intensity
90.4922	0
93.867	5.23735
97.2418	7.52238
100.617	10.1882
103.992	11.7564
107.366	18.2617
110.741	25.1905
114.116	32.0995
117.491	20.6537
120.865	14.3463
124.24	7.37848
127.615	1.63474
130.99	2.66771
134.365	2.90722
137.74	4.01878
141.114	26.896
144.489	37.9094
147.864	41.8616
151.239	82.4331
154.614	126.307
157.988	152.392
161.363	201.403
164.738	305.031
168.113	406.478
171.488	265.535
174.863	191.36
178.237	195.754
181.612	212.355
184.987	189.724
188.362	217.685
191.737	313.211
195.112	365.873
198.486	222.548
201.861	118.352
205.236	80.3863
208.611	64.3268
211.986	54.4317
215.36	57.2847
218.735	81.6872
222.11	111.021
225.485	75.8374
228.86	40.7617
232.234	26.935
235.609	24.1607
238.984	28.9461
242.359	16.7495
245.734	2.86528
249.109	3.50218
252.483	5.1154
255.858	3.33672
259.233	4.62765
262.608	16.7693
265.983	39.1786
269.358	78.3107
272.732	106.425
276.107	95.3664
279.482	69.4517
282.857	53.3734
286.232	41.5663
289.606	42.6389
292.981	55.4001
296.356	72.7948
299.731	98.2825
303.106	99.8579
306.481	77.0149
309.855	58.5883
313.23	54.3715
316.605	58.848
319.98	74.4225
323.355	105.485
326.729	135.4
330.104	181.371
333.479	235.984
336.854	217.713
340.229	138.194
343.603	92.0036
346.978	66.7089
350.353	49.7445
353.728	35.2973
357.103	21.8882
360.478	10.5624
363.852	2.7054
367.227	0.202454
370.602	2.30069
373.977	1.76324
377.352	0.47789
380.726	1.51616
384.101	0.349915
387.476	0.339539
390.851	1.7661
394.226	0.541412
397.601	3.82991
400.975	3.50142
404.35	6.40829
407.725	9.2879
411.1	14.3238
414.475	19.8128
417.849	32.326
421.224	53.5613
424.599	88.7313
427.974	107.013
431.349	71.4952
434.724	57.2467
438.098	65.1437
441.473	90.5948
444.848	144.383
448.223	223.522
451.598	206.987
454.972	111.599
458.347	51.2122
461.722	26.641
465.097	15.0644
468.472	8.18558
471.846	2.28088
475.221	3.23233
478.596	5.2786
481.971	3.50897
485.346	3.33608
488.721	5.25818
492.095	1.64458
495.47	3.11725
498.845	18.132
502.22	53.3637
505.595	123.476
508.969	207.762
512.344	367.091
515.719	735.073
519.094	1376.83
522.469	1031.51
525.844	281.561
529.218	166.511
532.593	224.861
535.968	312.512
539.343	167.284
542.718	79.505
546.092	63.6585
549.467	72.1196
552.842	98.3884
556.217	103.925
559.592	90.4214
562.967	87.002
566.341	123.064
569.716	213.575
573.091	399.286
576.466	704.546
579.841	1102.3
583.216	1601.68
586.59	2304.58
589.965	2394.97
593.34	1646.35
596.715	1215.1
600.09	842.14
603.464	472.53
606.839	321.552
610.214	242.555
613.589	180.956
616.964	124.322
620.338	100.622
623.713	73.9077
627.088	50.635
630.463	32.4162
633.838	20.1686
637.212	8.94305
640.587	0.906891
643.962	7.199
647.337	7.4606
650.712	6.46771
654.087	4.99402
657.461	4.44974
660.836	0.511047
664.211	5.4252
667.586	14.8487
670.961	27.175
674.335	42.6835
677.71	59.7812
681.085	67.9389
684.46	65.1144
687.835	61.7114
691.21	59.3864
694.584	60.3297
697.959	57.8985
701.334	56.7562
704.709	51.2074
708.084	44.175
711.458	38.1948
714.833	28.2394
718.208	16.9452
721.583	12.3903
724.958	11.8301
728.332	9.40594
731.707	9.64645
735.082	14.6374
738.457	18.4727
741.832	14.8665
745.207	14.8799
748.581	15.6276
751.956	26.3063
755.331	46.3258
758.706	75.9651
762.081	93.4604
765.456	89.5953
768.83	69.7553
772.205	49.1497
775.58	32.7724
778.955	24.5624
782.33	18.9709
785.704	20.3635
789.079	13.9572
792.454	11.3376
795.829	10.0107
799.204	5.03168
802.578	6.7262
805.953	4.34256
809.328	4.38452
812.703	1.04294
816.078	0.983154
819.453	0.083862
822.827	0.410156
826.202	0.303253
829.577	0.428223
832.952	0.921753
836.327	1.77017
839.702	1.51446
843.076	1.29865
846.451	2.38153
849.826	1.76804
853.201	2.22763
856.576	0.466156
859.95	5.38586
863.325	8.80618
866.7	9.03873
870.075	17.4895
873.45	20.2025
876.824	23.4269
880.199	30.2498
883.574	41.9974
886.949	65.0088
890.324	107.901
893.698	155.196
897.073	204.592
900.448	230.343
903.823	228.79
907.198	210.7
910.573	187.401
913.947	177.319
917.322	176.625
920.697	150.871
924.072	97.5314
927.447	56.6887
930.822	26.9814
934.196	9.53778
937.571	1.12723
940.946	3.57291
944.321	8.06079
947.696	3.64984
951.07	1.63254
954.445	18.4004
957.82	34.9022
961.195	63.1316
964.57	113.561
967.944	206.569
971.319	381.973
974.694	687.658
978.069	1085.49
981.444	1371.63
984.819	1333.23
988.193	1117.97
991.568	961.891
994.943	952.539
998.318	1125.59
1001.69	1512.54
1005.07	2228.48
1008.44	3025.65
1011.82	2487.65
1015.19	1302.65
1018.57	722.52
1021.94	489.678
1025.32	374.326
1028.69	295.028
1032.07	220.297
1035.44	161.622
1038.82	105.379
1042.19	59.4675
1045.57	33.1761
1048.94	14.6532
1052.32	9.26971
1055.69	8.30945
1059.07	1.69202
1062.44	2.39377
1065.81	2.27646
1069.19	9.02548
1072.56	3.08994
1075.94	5.85586
1079.31	22.8498
1082.69	52.2629
1086.06	110.322
1089.44	106.198
1092.81	61.6307
1096.19	41.9347
1099.56	36.9856
1102.94	38.3236
1106.31	38.9078
1109.69	40.968
1113.06	50.7938
1116.44	74.3433
1119.81	134.361
1123.19	232.873
1126.56	432.865
1129.94	844.665
1133.31	713.801
1136.68	331.969
1140.06	324.543
1143.43	526.965
1146.81	456.695
1150.18	170.431
1153.56	72.4931
1156.93	38.8368
1160.31	23.1446
1163.68	16.8437
1167.06	9.30041
1170.43	8.14267
1173.81	6.58319
1177.18	6.07266
1180.56	2.23285
1183.93	3.06
1187.31	3.11072
1190.68	3.19528
1194.06	1.63934
1197.43	2.13483
1200.81	1.2677
1204.18	3.35376
1207.56	2.00922
1210.93	3.19769
1214.31	4.68939
1217.68	0.606293
1221.06	2.88342
1224.43	0.121765
1227.81	4.26447
1231.18	5.73895
1234.56	8.93085
1237.93	10.154
1241.31	8.20117
1244.68	4.05371
1248.05	7.18524
1251.43	7.33643
1254.8	4.27496
1258.18	5.19373
1261.55	2.76294
1264.93	3.38013
1268.3	2.10638
1271.68	5.43536
1275.05	1.75116
1278.43	1.54681
1281.8	1.20044
1285.18	1.95819
1288.55	3.62347
1291.93	4.54132
1295.3	1.59674
1298.68	6.49719
1302.05	1.81903
