Measurement: Raman, 780 nm, unoriented, Raman Data Processed
Mineral: Herderite
Rruff sample: R100064
Ideal chemistry: CaBePO_4_F
Locality: Medina, Minas Gerais, Brazil
Source: Luiz Menezes
Description: Pale gray crystal
Raman shift (cm-1)	intensity
92.4974	0
95.8722	449.019
99.2471	226.82
102.622	43.3433
105.997	15.1055
109.371	16.1426
112.746	63.0371
116.121	81.3071
119.496	64.021
122.871	9.48779
126.246	7.5376
129.62	14.9546
132.995	20.1221
136.37	5.54688
139.745	5.37842
143.12	10.6089
146.494	28.4688
149.869	44.1675
153.244	76.4331
156.619	152.823
159.994	319.068
163.369	572.648
166.743	725.684
170.118	330.834
173.493	184.06
176.868	179.067
180.243	181.917
183.618	161.994
186.992	197.12
190.367	332.384
193.742	416.002
197.117	234.029
200.492	109.449
203.866	57.6055
207.241	33.7656
210.616	13.4043
213.991	11.7315
217.366	20.2192
220.74	47.294
224.115	38.0317
227.49	15.3638
230.865	7.54688
234.24	13.6787
237.615	19.9912
240.989	6.38232
244.364	5.4751
247.739	1.96728
251.114	9.2334
254.489	3.59326
257.863	8.66065
261.238	25.6997
264.613	44.2178
267.988	65.2153
271.363	66.2759
274.738	43.2793
278.112	36.2476
281.487	13.1489
284.862	9.26514
288.237	14.939
291.612	31.7017
294.986	35.1567
298.361	59.543
301.736	60.8472
305.111	54.6206
308.486	55.9248
311.861	56.5518
315.235	61.6338
318.61	80.6172
321.985	111.117
325.36	171.968
328.735	225.462
332.109	319.781
335.484	319.147
338.859	225.58
342.234	162.557
345.609	121.083
348.984	111.038
352.358	79.8589
355.733	68.6504
359.108	44.2891
362.483	35.2324
365.858	17.9629
369.233	22.6977
372.607	17.0645
375.982	6.80859
379.357	6.90576
382.732	3.85156
386.106	13.5312
389.481	1.45215
392.856	3.21826
396.231	1.34863
399.606	1.92139
402.981	18.8027
406.355	41.4971
409.73	53.3198
413.105	61.0625
416.48	95.6177
419.855	164.651
423.229	301.24
426.604	383.339
429.979	212.389
433.354	131.273
436.729	116.318
440.104	143.745
443.478	249.852
446.853	365.941
450.228	237.964
453.603	108.239
456.978	46.2744
460.353	39.7754
463.727	11.2422
467.102	3.36035
470.477	11.1694
473.852	0.308594
477.227	5.21094
480.601	2.40967
483.976	2.96191
487.351	4.00391
490.726	7.28027
494.101	1.53174
497.476	4.02686
500.85	5.11523
504.225	33.7676
507.6	48.1235
510.975	89.2827
514.35	178.827
517.724	385.151
521.099	293.921
524.474	98.3144
527.849	93.6738
531.224	198.188
534.598	327.459
537.973	176.94
541.348	78.9258
544.723	51.0288
548.098	48.6313
551.472	71.8687
554.847	101.376
558.222	86.9551
561.597	80.084
564.972	99.2856
568.347	154.064
571.721	255.793
575.096	442.956
578.471	657.137
581.846	764.582
585.221	990.96
588.596	1011.68
591.97	747.714
595.345	635.97
598.72	436.942
602.095	234.083
605.47	152.941
608.845	113.978
612.219	89.4038
615.594	65.624
618.969	67.9492
622.344	41.8477
625.719	36.4722
629.093	22.4321
632.468	20.853
635.843	30.7451
639.218	21.2178
642.593	15.4565
645.967	2.55078
649.342	3.60815
652.717	7.01318
656.092	12.1274
659.467	1.05884
662.842	1.52783
666.216	6.38452
669.591	18.9695
672.966	22.2627
676.341	38.1401
679.716	40.0134
683.091	39.9966
686.465	37.2732
689.84	46.8074
693.215	55.1103
696.59	52.8411
699.965	46.657
703.339	48.1977
706.714	52.5894
710.089	43.1313
713.464	25.0588
716.839	19.8496
720.213	15.4878
723.588	10.9854
726.963	3.12793
730.338	8.80298
733.713	19.6794
737.087	12.8345
740.462	14.686
743.837	30.3394
747.212	29.9602
750.587	56.8755
753.962	94.7756
757.336	150.196
760.711	157.787
764.086	170.439
767.461	121.772
770.836	80.428
774.211	50.5742
777.585	40.5273
780.96	31.4468
784.335	23.7026
787.71	15.1138
791.085	23.3259
794.459	23.0576
797.834	7.60181
801.209	1.64307
804.584	2.73608
807.959	1.65405
811.333	1.2522
814.708	6.77148
818.083	8.59766
821.458	13.7549
824.833	13.3699
828.208	4.92163
831.582	10.4456
834.957	3.6394
838.332	5.18823
841.707	11.8889
845.082	7.2085
848.457	6.79956
851.831	13.4387
855.206	5.03516
858.581	14.4421
861.956	11.5422
865.331	7.00952
868.705	5.7644
872.08	12.8291
875.455	17.7683
878.83	7.64478
882.205	19.1333
885.58	32.137
888.954	25.0391
892.329	24.7537
895.704	38.2769
899.079	43.675
902.454	50.26
905.828	41.0935
909.203	38.571
912.578	28.0129
915.953	36.4175
919.328	34.2632
922.702	15.4023
926.077	0.440674
929.452	2.09424
932.827	3.34741
936.202	3.53027
939.577	1.66455
942.951	4.1853
946.326	3.54443
949.701	8.13403
953.076	17.9077
956.451	37.0979
959.825	60.9817
963.2	100.788
966.575	184.167
969.95	322.016
973.325	543.296
976.699	845.569
980.074	1064.42
983.449	1078.43
986.824	935.35
990.199	861.279
993.574	911.877
996.948	1077.99
1000.32	1382.51
1003.7	1962.38
1007.07	2656.98
1010.45	2209.53
1013.82	1155.6
1017.2	675.83
1020.57	485.29
1023.95	405.487
1027.32	336.004
1030.7	276.898
1034.07	211.697
1037.45	167.368
1040.82	89.6558
1044.2	59.2244
1047.57	30.8694
1050.94	14.7222
1054.32	10.2156
1057.69	7.27637
1061.07	5.45801
1064.44	6.82812
1067.82	15.8108
1071.19	5.71143
1074.57	0.248047
1077.94	8.74951
1081.32	34.6548
1084.69	99.9678
1088.07	100.207
1091.44	42.2393
1094.82	25.2664
1098.19	8.10571
1101.57	1.50561
1104.94	11.1973
1108.32	21.6912
1111.69	15.0127
1115.07	28.2661
1118.44	69.971
1121.82	109.749
1125.19	207.192
1128.57	405.621
1131.94	370.054
1135.32	222.014
1138.69	250.677
1142.07	398.603
1145.44	380.231
1148.82	175.333
1152.19	102.729
1155.57	82.7844
1158.94	82.4565
1162.31	95.4206
1165.69	96.2661
1169.06	113.455
1172.44	109.547
1175.81	122.097
1179.19	115.738
1182.56	112.233
1185.94	99.4839
1189.31	94.8284
1192.69	92.2849
1196.06	80.0095
1199.44	72.1882
1202.81	63.9651
1206.19	56.4578
1209.56	42.4109
1212.94	38.8706
1216.31	25.7234
1219.69	5.51856
1223.06	1.55395
1226.44	2.20898
1229.81	7.96729
1233.19	10.5896
1236.56	0.175049
1239.93	4.22485
1243.31	3.29126
1246.68	24.7993
1250.06	36.6191
1253.43	49.8813
1256.81	69.1516
1260.18	79.156
1263.56	84.9165
1266.93	94.8003
1270.31	123.279
1273.68	130.268
1277.06	114.287
1280.43	73.5452
1283.81	21.304
