Measurement: Raman, 532 nm, unoriented, Raman Data Processed
Mineral: Hetaerolite
Rruff sample: R061062
Ideal chemistry: ZnMn^3+^_2_O_4_
Locality: Mohawk mine, San Bernardino County, California, USA
Source: Bob Jenkins
Description: Dark gray semi-metallic aggregate of pseudo-octahedra
Measured chemistry: Zn_1.00_Mn^3+^_2.00_O_4_ ; lighter rim: Zn_1.00_(Mn^3+^_1.84_Fe^3+^_0.15_)_Î£=2_O_4_
Raman shift (cm-1)	intensity
147.599	0
150.492	5.95752
153.385	38.5673
156.277	5.07294
159.17	14.1351
162.063	70.4969
164.955	58.7047
167.848	67.9804
170.741	56.478
173.633	33.7122
176.526	46.9333
179.419	17.2203
182.311	19.9486
185.204	52.0193
188.097	8.28644
190.99	44.9245
193.882	23.9132
196.775	33.8869
199.668	32.5721
202.56	61.7234
205.453	39.6745
208.346	47.2782
211.238	59.3831
214.131	49.5607
217.024	73.9048
219.917	21.9822
222.809	14.0096
225.702	32.3914
228.595	19.9857
231.487	5.04031
234.38	24.4458
237.273	7.26276
240.165	3.15717
243.058	1.32971
245.951	22.241
248.844	9.63254
251.736	2.29407
254.629	24.044
257.522	10.2472
260.414	32.5926
263.307	9.08951
266.2	7.53113
269.092	10.3785
271.985	10.0831
274.878	16.7906
277.771	14.9091
280.663	36.4765
283.556	77.3448
286.449	59.5068
289.341	134.271
292.234	199.508
295.127	290.65
298.019	371.747
300.912	475.362
303.805	547.076
306.697	738
309.59	1070.39
312.483	1446.31
315.376	1816.08
318.268	2182.49
321.161	2369.34
324.054	2112.89
326.946	1686.98
329.839	1170.37
332.732	842.832
335.625	616.547
338.517	513.671
341.41	406.465
344.303	329.357
347.195	274.188
350.088	262.405
352.981	264.32
355.873	247.776
358.766	288.493
361.659	334.079
364.551	372.186
367.444	430.546
370.337	508.491
373.23	613.467
376.122	686.622
379.015	776.942
381.908	740.571
384.8	552.452
387.693	390.982
390.586	251.076
393.478	170.223
396.371	88.9174
399.264	65.4168
402.157	30.9656
405.049	26.6529
407.942	25.0231
410.835	6.9137
413.727	8.96869
416.62	2.28909
419.513	9.34219
422.406	8.73862
425.298	11.1346
428.191	5.0491
431.084	15.8215
433.976	0.381042
436.869	9.10556
439.762	8.15976
442.654	14.3265
445.547	36.9165
448.44	28.8597
451.332	34.4948
454.225	24.9945
457.118	24.8505
460.01	32.5983
462.903	68.1826
465.796	63.6964
468.689	89.285
471.581	98.8123
474.474	126.506
477.367	126.043
480.259	120.55
483.152	129.709
486.045	113.019
488.938	104.376
491.83	85.5274
494.723	65.0593
497.616	56.0057
500.508	34.7378
503.401	34.5155
506.294	38.759
509.186	16.4414
512.079	28.733
514.972	22.8012
517.865	20.9646
520.757	11.3526
523.65	4.47897
526.543	1.65015
529.435	0.139526
532.328	3.01724
535.221	7.80667
538.113	17.6173
541.006	6.81778
543.899	11.0879
546.792	10.9012
549.684	4.19586
552.577	5.72882
555.47	6.02136
558.362	33.6817
561.255	47.2524
564.148	47.5963
567.04	59.1453
569.933	39.5679
572.826	56.4529
575.718	76.1125
578.611	101.772
581.504	107.144
584.396	84.4188
587.289	97.2037
590.182	91.2498
593.075	59.9071
595.967	42.7134
598.86	66.3778
601.753	39.3807
604.645	20.3624
607.538	15.2629
610.431	20.7459
613.323	7.19086
616.216	58.3702
619.109	76.0676
622.002	96.0223
624.894	101.576
627.787	156.873
630.68	140.31
633.572	130.098
636.465	103.896
639.358	103.136
642.25	123.032
645.143	147.039
648.036	172.25
650.929	190.916
653.821	236.849
656.714	276.204
659.607	334.084
662.5	416.337
665.392	560.009
668.285	702.079
671.178	896.381
674.07	1075.06
676.963	1239.62
679.856	1247.99
682.748	1067.99
685.641	778.146
688.534	622.661
691.426	440.111
694.319	312.947
697.212	235.022
700.105	209.295
702.997	163.885
705.89	93.8201
708.783	81.7516
711.675	71.855
714.568	56.799
717.461	38.291
720.353	7.88687
723.246	0.276001
726.139	4.85541
729.032	15.1346
731.924	0.724487
734.817	5.05811
737.71	22.2839
740.602	29.2388
743.495	7.63394
746.388	41.8363
749.28	9.75351
752.173	18.3408
755.066	26.0123
757.958	4.24167
760.851	15.1263
763.744	36.9712
766.637	44.4626
769.529	45.9076
772.422	15.0006
775.315	52.4326
778.207	47.5543
781.1	16.5952
783.993	41.5823
786.885	43.8196
789.778	25.5258
792.671	26.1575
795.564	22.0783
798.456	17.131
801.349	26.2552
804.242	12.3231
807.134	23.9045
810.027	7.18671
812.92	7.26791
815.812	16.0438
818.705	26.046
821.598	30.869
824.49	31.5505
827.383	22.4924
830.276	25.2645
833.169	31.9755
836.061	30.7494
838.954	15.5092
841.847	14.0172
844.739	32.5516
847.632	25.2986
850.525	23.5992
853.418	28.7312
856.31	10.1587
859.203	27.419
862.096	27.6172
864.988	6.42661
867.881	0.950806
870.774	0.404419
873.666	1.21683
876.559	4.36508
879.452	8.29553
882.345	3.05283
885.237	15.259
888.13	20.2526
891.023	19.8325
893.915	17.5353
896.808	18.3778
899.701	30.1685
902.593	10.8045
905.486	32.973
908.379	28.081
911.271	4.02612
914.164	8.82047
917.057	13.7549
919.95	32.1759
922.842	34.3523
925.735	33.2805
928.628	20.61
931.52	22.2518
934.413	11.8119
937.306	20.8385
940.198	21.7887
943.091	23.5604
945.984	12.7327
948.877	31.2794
951.769	17.2947
954.662	23.0268
957.555	31.2532
960.447	34.6915
963.34	33.6956
966.233	25.1568
969.125	19.7187
972.018	50.509
974.911	0.544464
977.804	15.582
980.696	22.5472
983.589	44.4793
986.482	40.464
989.374	59.0605
992.267	25.3127
995.16	32.4781
998.053	35.4367
1000.95	14.2003
1003.84	32.3912
1006.73	36.2637
1009.62	38.0582
1012.52	1.43344
1015.41	4.85065
1018.3	16.1049
1021.19	33.6127
1024.09	36.0769
1026.98	18.0818
1029.87	16.9691
1032.77	36.2319
1035.66	6.46286
1038.55	25.2052
1041.44	18.157
1044.34	17.5546
1047.23	37.691
1050.12	42.7809
1053.01	29.5755
1055.91	40.1324
1058.8	22.7089
1061.69	17.5213
1064.59	15.8797
1067.48	32.185
1070.37	9.67691
1073.26	24.118
1076.15	14.6623
1079.05	6.04657
1081.94	11.0908
1084.83	16.387
1087.73	14.4586
1090.62	6.08756
1093.51	20.6308
1096.4	22.2194
1099.3	16.7857
1102.19	9.53012
1105.08	5.39038
1107.97	12.3412
1110.87	12.0774
1113.76	3.53455
1116.65	2.86472
1119.55	3.15411
1122.44	2.48822
1125.33	7.27701
1128.22	5.4816
1131.12	15.7952
1134.01	25.9549
1136.9	23.0284
1139.8	17.5645
1142.69	16.9875
1145.58	27.9603
1148.47	42.5999
1151.37	27.9798
1154.26	49.1981
1157.15	54.0158
1160.04	58.5029
1162.94	48.4098
1165.83	46.7941
1168.72	20.6957
1171.61	42.3793
1174.51	36.6093
1177.4	30.8563
1180.29	59.8997
1183.18	31.0447
1186.08	40.3035
1188.97	13.7242
1191.86	44.1342
1194.76	15.1663
1197.65	17.4096
1200.54	40.4204
1203.43	31.3862
1206.33	25.3837
1209.22	34.9692
1212.11	39.1855
1215.01	31.0264
1217.9	9.27734
1220.79	20.741
1223.68	33.9
1226.58	19.7615
1229.47	19.5968
1232.36	8.49374
1235.25	42.4672
1238.15	9.72992
1241.04	30.2461
1243.93	33.304
1246.83	28.3667
1249.72	40.9396
1252.61	36.2087
1255.5	27.3776
1258.39	25.529
1261.29	2.76169
1264.18	6.3782
