Measurement: Raman, 785 nm, unoriented, Raman Data Processed
Mineral: Hetaerolite
Rruff sample: R061062
Ideal chemistry: ZnMn^3+^_2_O_4_
Locality: Mohawk mine, San Bernardino County, California, USA
Source: Bob Jenkins
Description: Dark gray semi-metallic aggregate of pseudo-octahedra
Measured chemistry: Zn_1.00_Mn^3+^_2.00_O_4_ ; lighter rim: Zn_1.00_(Mn^3+^_1.84_Fe^3+^_0.15_)_Î£=2_O_4_
Raman shift (cm-1)	intensity
124.522	0
127.414	63.4398
130.307	287.445
133.2	354.307
136.092	287.517
138.985	185.68
141.878	202.525
144.77	396.574
147.663	445.132
150.556	425.315
153.448	295.353
156.341	230.25
159.234	185.33
162.127	172.758
165.019	156.34
167.912	132.768
170.805	119.654
173.697	72.6332
176.59	82.7551
179.483	45.2722
182.375	7.0918
185.268	9.04373
188.161	12.8528
191.054	31.8377
193.946	3.10864
196.839	10.902
199.732	23.7782
202.624	14.8086
205.517	32.5454
208.41	2.72717
211.303	35.9194
214.195	37.5974
217.088	25.5301
219.981	57.0461
222.873	22.1406
225.766	0.915833
228.659	18.1949
231.551	37.6187
234.444	12.5508
237.337	20.067
240.23	9.65656
243.122	20.0173
246.015	12.9824
248.908	11.5867
251.8	8.68472
254.693	2.63449
257.586	3.21252
260.478	10.1816
263.371	0.113068
266.264	4.68408
269.156	6.43921
272.049	1.24884
274.942	6.35879
277.835	13.157
280.727	2.35199
283.62	5.20633
286.513	4.43115
289.405	62.2534
292.298	119.575
295.191	192.865
298.084	225.131
300.976	254.919
303.869	255.532
306.762	294.971
309.654	346.127
312.547	453.382
315.44	663.415
318.332	867.208
321.225	1026.72
324.118	949.559
327.01	732.917
329.903	500.415
332.796	334.957
335.689	272.869
338.581	213.08
341.474	155.566
344.367	159.907
347.259	117.387
350.152	135.109
353.045	170.428
355.938	176.403
358.83	233.256
361.723	271.759
364.616	333.616
367.508	357.062
370.401	451.49
373.294	543.288
376.186	690.991
379.079	850.767
381.972	864.89
384.865	684.252
387.757	416.675
390.65	271.914
393.543	172.076
396.435	103.59
399.328	70.8085
402.221	43.727
405.113	33.1516
408.006	31.7088
410.899	26.2076
413.791	6.02884
416.684	5.14999
419.577	10.3198
422.47	1.3909
425.362	18.1829
428.255	7.08295
431.148	1.04672
434.04	19.571
436.933	2.31769
439.826	9.30612
442.719	0.479889
445.611	3.2926
448.504	17.7329
451.397	18.1626
454.289	2.76944
457.182	18.3622
460.075	37.0865
462.967	28.6143
465.86	57.9223
468.753	62.9445
471.645	69.8211
474.538	106.725
477.431	101.676
480.324	114.28
483.216	101.491
486.109	86.0271
489.002	69.2769
491.894	65.5113
494.787	45.767
497.68	48.5115
500.572	34.6453
503.465	27.3563
506.358	11.7284
509.25	41.6787
512.143	30.5192
515.036	11.2007
517.929	4.98691
520.821	9.14084
523.714	9.91309
526.607	11.2407
529.5	14.122
532.392	9.23953
535.285	14.1761
538.178	3.12253
541.07	12.0504
543.963	14.2153
546.856	7.80692
549.748	12.5615
552.641	2.31421
555.534	36.329
558.427	25.1166
561.319	34.9445
564.212	52.1386
567.105	38.7303
569.997	63.8255
572.89	77.306
575.783	91.2849
578.675	85.8032
581.568	83.8994
584.461	87.5213
587.354	78.6139
590.246	79.4351
593.139	94.3751
596.032	93.4355
598.924	58.0272
601.817	48.9769
604.71	23.7577
607.602	21.7602
610.495	24.3184
613.388	31.4241
616.28	19.7305
619.173	27.881
622.066	47.1539
624.959	54.6187
627.851	60.4865
630.744	74.9848
633.637	89.6291
636.529	75.6238
639.422	120.369
642.315	107.231
645.207	98.3618
648.1	138.684
650.993	127.843
653.886	162.847
656.778	156.041
659.671	212.907
662.564	227.507
665.456	294.647
668.349	394.255
671.242	523.406
674.135	760.294
677.027	942.624
679.92	1030.98
682.813	882.596
685.705	674.252
688.598	456.445
691.491	336.838
694.383	247.279
697.276	185.04
700.169	142.7
703.062	60.6101
705.954	62.8406
708.847	49.3284
711.74	57.0875
714.632	25.7097
717.525	9.41159
720.418	5.90848
723.31	4.18487
726.203	14.8564
729.096	12.5206
731.989	6.91635
734.881	9.88864
737.774	9.78628
740.667	19.8335
743.559	16.7814
746.452	4.02466
749.345	21.2277
752.237	12.923
755.13	25.27
758.023	52.7693
760.915	25.5069
763.808	23.5846
766.701	6.43399
769.594	15.7092
772.486	25.1456
775.379	29.8994
778.272	63.0703
781.164	40.6273
784.057	61.1049
786.95	34.6283
789.842	41.3885
792.735	52.4492
795.628	30.3367
798.521	32.8909
801.413	12.3035
804.306	13.5123
807.199	24.771
810.091	20.6775
812.984	10.3808
815.877	33.7261
818.769	30.0941
821.662	36.8864
824.555	13.386
827.447	5.76035
830.34	13.3423
833.233	22.9224
836.126	15.654
839.018	27.5279
841.911	14.5799
844.804	23.5071
847.696	39.65
850.589	18.2559
853.482	9.72629
856.375	10.1646
859.267	7.96692
862.16	25.3801
865.053	27.033
867.945	14.7755
870.838	10.5375
873.731	16.4498
876.623	6.50409
879.516	1.19093
882.409	19.2318
885.302	2.8436
888.194	15.5927
891.087	27.5277
893.98	19.9756
896.872	30.0649
899.765	14.2002
902.658	12.6722
905.55	31.6044
908.443	38.4546
911.336	15.6714
914.229	6.82065
917.121	9.41473
920.014	22.7083
922.907	22.9259
925.799	15.5279
928.692	14.2948
931.585	19.6706
934.477	13.2509
937.37	38.9154
940.263	5.11121
943.155	18.4655
946.048	0.721054
948.941	17.7608
951.834	9.22838
954.726	25.9777
957.619	12.0138
960.512	27.7724
963.404	18.2547
966.297	20.3405
969.19	32.7138
972.082	38.0614
974.975	13.1884
977.868	6.60089
980.761	28.4673
983.653	16.2611
986.546	40.753
989.439	20.2687
992.331	12.4834
995.224	23.4075
998.117	2.10893
1001.01	28.5067
1003.9	43.4781
1006.79	36.5201
1009.69	13.5788
1012.58	15.8073
1015.47	32.9575
1018.37	10.5541
1021.26	24.848
1024.15	1.32407
1027.04	16.0562
1029.94	35.0299
1032.83	39.9144
1035.72	9.27937
1038.62	26.8082
1041.51	0.325424
1044.4	22.7247
1047.29	25.1311
1050.18	15.0306
1053.08	38.6371
1055.97	23.1009
1058.86	23.1943
1061.76	30.0928
1064.65	16.0927
1067.54	22.9107
1070.43	15.4226
1073.33	22.3904
1076.22	20.2548
1079.11	26.2901
1082.01	12.5527
1084.9	16.7495
1087.79	14.3482
1090.68	3.48224
1093.58	4.89789
1096.47	21.6639
1099.36	20.9315
1102.25	2.38034
1105.15	14.607
1108.04	18.9163
1110.93	1.14887
1113.83	35.58
1116.72	26.8095
1119.61	6.81207
1122.5	32.3764
1125.4	22.7622
1128.29	11.1204
1131.18	27.671
1134.07	24.4965
1136.97	28.1189
1139.86	1.31624
1142.75	22.2376
1145.64	3.26743
1148.54	32.592
1151.43	17.0039
1154.32	21.854
1157.21	35.5796
1160.11	16.2149
1163	12.6749
1165.89	15.0895
1168.79	28.6343
1171.68	29.9297
1174.57	23.0611
1177.46	36.7347
1180.36	30.4703
1183.25	34.5099
1186.14	37.8405
1189.04	35.8259
1191.93	17.6032
1194.82	31.7437
1197.71	38.5632
1200.61	25.2131
1203.5	2.91022
1206.39	10.507
1209.28	29.0221
1212.18	27.5333
1215.07	8.93481
1217.96	32.2847
1220.86	37.5209
1223.75	32.8683
1226.64	20.3166
1229.53	35.508
1232.43	3.18658
1235.32	23.9824
1238.21	1.24338
1241.1	24.4056
1244	33.5942
1246.89	36.5322
1249.78	23.0738
1252.67	23.4987
1255.57	23.7457
1258.46	6.84071
1261.35	23.0724
1264.24	44.368
1267.14	0.675232
1270.03	0
