Measurement: Raman, 532 nm, unoriented, Raman Data Processed
Mineral: Heterosite
Rruff sample: R070148
Ideal chemistry: Fe^3+^PO_4_
Locality: Pleasant Valley mine, near Fourmile, Black Hills, Custer County, South Dakota, USA
Source: James Shigley
Description: Black massive with obvious cleavage
Measured chemistry: (Fe^3+^_0.76_Mn^3+^_0.10_Mn^4+^_0.07_Mg_0.06_Ca_0.01_)_Î£=1_P_1.00_O_4_; Mn^3+^ and Mn^4+^ splitted by charge balance
Raman shift (cm-1)	intensity
204.661	0
207.554	11.3184
210.446	12.7329
213.339	61.1313
216.232	186.101
219.124	337.813
222.017	550.178
224.91	816.862
227.802	1160.53
230.695	1516.88
233.588	1896.63
236.481	2284.68
239.373	2573.78
242.266	2830.7
245.159	2693.05
248.051	2317.9
250.944	1877.2
253.837	1344.09
256.729	950.208
259.622	572.737
262.515	324.496
265.408	229.713
268.3	264.335
271.193	321.673
274.086	476.092
276.978	772.549
279.871	948.547
282.764	1198.55
285.656	1350.01
288.549	1504.93
291.442	1517.84
294.335	1466.47
297.227	1479.63
300.12	1354.17
303.013	1472.84
305.905	1454.9
308.798	1550.77
311.691	1643.24
314.584	1650.58
317.476	1716.12
320.369	1768.27
323.262	1778.54
326.154	1712.97
329.047	1628.64
331.94	1480.92
334.832	1420.66
337.725	1239.38
340.618	1012.11
343.51	890.851
346.403	674.183
349.296	639.579
352.189	454.535
355.081	333.223
357.974	169.44
360.867	78.7261
363.759	29.8882
366.652	32.4785
369.545	31.8892
372.438	38.3101
375.33	84.8481
378.223	46.8706
381.116	25.7905
384.008	23.2622
386.901	8.86816
389.794	157.991
392.686	231.933
395.579	352.857
398.472	419.846
401.365	396.492
404.257	408.447
407.15	529.25
410.043	553.03
412.935	563.789
415.828	565.375
418.721	600.792
421.613	655.273
424.506	546.043
427.399	492.272
430.291	465.43
433.184	289.228
436.077	196.934
438.97	122.766
441.862	39.2827
444.755	45.0967
447.648	12.9292
450.54	25.772
453.433	122.123
456.326	150.082
459.219	354.507
462.111	478.648
465.004	721.93
467.897	1083.09
470.789	1543.32
473.682	1864.46
476.575	2290.71
479.467	2676.94
482.36	2821.25
485.253	2802.7
488.146	2537.52
491.038	2307.13
493.931	1876.87
496.824	1524.64
499.716	1257.12
502.609	954.764
505.502	845.223
508.394	693.74
511.287	541.267
514.18	461.922
517.072	390.813
519.965	252.175
522.858	220.874
525.751	160.125
528.643	205.713
531.536	102.83
534.429	34.7891
537.321	33.3184
540.214	5.1582
543.107	98.1357
546	21.7666
548.892	3.82715
551.785	40.5684
554.678	103.425
557.57	282.666
560.463	412.367
563.356	518.069
566.248	728.416
569.141	974.785
572.034	1040.17
574.927	1318.76
577.819	1463.93
580.712	1495.89
583.605	1552.61
586.497	1443.77
589.39	1330.74
592.283	1211.62
595.175	1106.03
598.068	933.207
600.961	734.067
603.854	569.842
606.746	247.843
609.639	156.841
612.532	41.751
615.424	64.2559
618.317	62.6416
621.21	42.4863
624.102	41.1533
626.995	195.644
629.888	405.54
632.78	728.904
635.673	1114.97
638.566	1559.79
641.459	2127.35
644.351	2604.87
647.244	2866.32
650.137	2919.62
653.029	2770.27
655.922	2621
658.815	2351.43
661.707	2195.3
664.6	2111.18
667.493	2037.99
670.386	1875.51
673.278	1766.41
676.171	1693.12
679.064	1656.64
681.956	1484.3
684.849	1392.2
687.742	1036.05
690.635	893.527
693.527	684.634
696.42	447.573
699.313	307.363
702.205	203.981
705.098	175.013
707.991	75.9668
710.883	62.6055
713.776	87.3144
716.669	39.4805
719.562	59.3428
722.454	30.9141
725.347	2.59473
728.24	81.8457
731.132	105.361
734.025	16.459
736.918	27.7305
739.81	49.7734
742.703	15.3809
745.596	63.1094
748.489	22.6396
751.381	27.1992
754.274	58.1025
757.167	92.1748
760.059	123.622
762.952	101.105
765.845	160.673
768.737	140.864
771.63	56.2344
774.523	123.418
777.415	160.353
780.308	190.907
783.201	91.1045
786.094	107.001
788.986	189.745
791.879	158.116
794.772	151.361
797.664	210.373
800.557	167.194
803.45	242.164
806.342	200.213
809.235	190.297
812.128	116.198
815.021	140.127
817.913	144.347
820.806	132.436
823.699	92.499
826.591	83.0606
829.484	34.9023
832.377	17.6758
835.269	95.5518
838.162	28.2168
841.055	37.9072
843.948	14.2705
846.84	56.3389
849.733	43.6406
852.626	20.041
855.519	48.2353
858.411	20.5625
861.304	22.1562
864.197	140.106
867.089	165.427
869.982	139.101
872.875	254.147
875.767	293.725
878.66	368.249
881.553	487.174
884.446	575.019
887.338	640.716
890.231	757.82
893.124	673.648
896.016	808.974
898.909	849.699
901.802	921.209
904.694	993.753
907.587	962.221
910.48	1053.8
913.372	1123.27
916.265	1067.45
919.158	1231.76
922.051	1271.49
924.943	1480.22
927.836	1526.36
930.729	1757.73
933.621	2024.63
936.514	2312.51
939.407	2642.31
942.299	3011.09
945.192	3325.35
948.085	3373.76
950.978	3393.59
953.87	3198.55
956.763	2867.38
959.656	2425.68
962.548	2011.25
965.441	1605.84
968.334	1400.16
971.226	1230.03
974.119	1037.72
977.012	922.736
979.905	780.134
982.797	577.876
985.69	238.161
988.583	68.8535
991.475	48.2373
994.368	64.7832
997.261	166.897
1000.15	67.7451
1003.05	27.3682
1005.94	158.416
1008.83	358.583
1011.72	703.731
1014.62	957.131
1017.51	1425.15
1020.4	1974.17
1023.29	2488.72
1026.19	3277.11
1029.08	3918.33
1031.97	4617.66
1034.87	5141.54
1037.76	5707.06
1040.65	6105.04
1043.54	6527.17
1046.44	6867.95
1049.33	6980.1
1052.22	7249.54
1055.12	6947.72
1058.01	6410.85
1060.9	5590.74
1063.79	4517.77
1066.69	3560.62
1069.58	2776.39
1072.47	2155.65
1075.36	1724.19
1078.26	1280.17
1081.15	828.023
1084.04	649.546
1086.93	351.347
1089.83	279.472
1092.72	218.807
1095.61	225.121
1098.51	153.468
1101.4	214.755
1104.29	353.438
1107.18	402.059
1110.08	483.269
1112.97	545.071
1115.86	643.58
1118.75	545.318
1121.65	471.826
1124.54	422.188
1127.43	320.092
1130.33	211.957
1133.22	152.043
1136.11	15.6318
1139	22.6523
1141.9	7.29688
1144.79	40.6484
1147.68	81.3877
1150.57	45.5576
1153.47	19.1689
1156.36	17.8408
1159.25	71.2578
1162.14	18.9385
1165.04	64.3115
1167.93	125.712
1170.82	196.422
1173.72	166.461
1176.61	155.944
1179.5	70.8408
1182.39	168.99
1185.29	173.112
1188.18	118.522
1191.07	129.248
1193.96	150.68
1196.86	79.2109
1199.75	77.0664
1202.64	57.1279
1205.54	109.484
1208.43	55.2275
1211.32	140.609
1214.21	156.954
1217.11	217.384
1220	308.396
1222.89	270.623
1225.78	345.263
1228.68	416.53
1231.57	367.354
1234.46	266.646
1237.36	275.053
1240.25	225.484
1243.14	132.142
1246.03	67.9482
1248.93	77.5449
1251.82	0.496094
