Measurement: Raman, 532 nm, unoriented, Raman Data Processed
Mineral: Heterosite
Rruff sample: R050165
Ideal chemistry: Fe^3+^PO_4_
Locality: White Elephant mine, Custer County, South Dakota, USA
Source: Marcus Origlieri
Description: Purple massive
Measured chemistry: (Fe^3+^_0.68_Mn^3+^_0.32_)P_1.00_O_4_
Raman shift (cm-1)	intensity
140.029	0
142.922	1.20132
145.815	5.61687
148.707	12.6245
151.6	19.9476
154.493	26.7938
157.386	33.0114
160.278	41.0183
163.171	53.3967
166.064	67.3941
168.956	74.301
171.849	59.334
174.742	31.8362
177.634	15.5462
180.527	7.35622
183.42	4.49466
186.312	2.41607
189.205	2.34824
192.098	2.25331
194.991	1.52316
197.883	0.484459
200.776	2.00465
203.669	1.43334
206.561	0.15007
209.454	1.7679
212.347	5.24352
215.239	9.42718
218.132	14.7047
221.025	21.2547
223.918	27.1391
226.81	33.6846
229.703	38.2833
232.596	41.0195
235.488	38.9601
238.381	33.0416
241.274	24.9192
244.167	18.027
247.059	12.9955
249.952	9.83491
252.845	6.7703
255.737	4.99834
258.63	3.63401
261.523	1.57271
264.415	0.93684
267.308	0.84399
270.201	0.967243
273.093	2.6471
275.986	4.79388
278.879	7.22955
281.772	9.56316
284.664	14.0593
287.557	18.2761
290.45	23.2142
293.342	27.4026
296.235	28.9935
299.128	27.166
302.02	23.0337
304.913	19.3383
307.806	16.6937
310.699	15.788
313.591	14.8315
316.484	15.0686
319.377	15.8226
322.269	16.1185
325.162	16.5048
328.055	16.3793
330.947	14.4159
333.84	12.0875
336.733	10.1928
339.625	7.50206
342.518	5.33467
345.411	3.88411
348.304	2.40393
351.196	1.54451
354.089	0.65522
356.982	0.305
359.874	0.696175
362.767	0.639523
365.66	0.994888
368.553	0.533081
371.445	4.2e-05
374.338	0.236576
377.231	0.810013
380.123	1.20019
383.016	1.46739
385.909	1.67439
388.801	2.62891
391.694	2.99554
394.587	3.93733
397.479	4.76035
400.372	5.24399
403.265	6.57082
406.158	7.06695
409.05	7.66784
411.943	8.07644
414.836	8.27715
417.728	8.11454
420.621	8.2658
423.514	8.29846
426.406	7.96743
429.299	8.13832
432.192	8.22363
435.085	7.56636
437.977	6.90439
440.87	6.40132
443.763	5.87028
446.655	5.2023
449.548	5.02726
452.441	4.3803
455.334	4.39296
458.226	4.66189
461.119	5.21626
464.012	5.40055
466.904	6.91251
469.797	7.73356
472.69	9.29215
475.582	10.2422
478.475	11.4639
481.368	11.7926
484.26	11.828
487.153	10.7473
490.046	9.03637
492.939	7.5144
495.831	5.56039
498.724	4.07174
501.617	2.7555
504.509	1.97522
507.402	1.48799
510.295	0.64238
513.188	0.622005
516.08	0.303967
518.973	0.189743
521.866	0.040634
524.758	0.359673
527.651	0.025002
530.544	0.171665
533.436	0.375088
536.329	0.282349
539.222	0.237545
542.115	0.260017
545.007	0.885387
547.9	1.68759
550.793	2.67974
553.685	3.69281
556.578	5.08297
559.471	6.27254
562.363	8.63993
565.256	11.1837
568.149	12.5584
571.042	14.1737
573.934	14.8828
576.827	15.9787
579.72	16.2253
582.612	16.1555
585.505	15.5191
588.398	15.4066
591.29	14.3955
594.183	12.6033
597.076	9.59729
599.968	6.43362
602.861	4.37017
605.754	2.33424
608.646	1.0339
611.539	0.286781
614.432	0.452885
617.325	0.14669
620.217	0.285858
623.11	0.365932
626.003	1.10392
628.895	2.0778
631.788	3.25194
634.681	4.16507
637.573	5.31611
640.466	6.37244
643.359	7.67525
646.252	8.14228
649.144	7.88743
652.037	7.31155
654.93	6.54459
657.822	6.12503
660.715	5.54835
663.608	5.47682
666.5	5.29237
669.393	5.63524
672.286	6.49163
675.179	6.91297
678.071	7.4865
680.964	7.7692
683.857	7.6442
686.75	6.66861
689.642	5.97948
692.535	4.87515
695.428	3.30077
698.32	2.50734
701.213	1.93162
704.106	1.20096
706.998	0.493578
709.891	0.440788
712.784	0.12232
715.677	0.207928
718.569	0.118425
721.462	0.143129
724.355	0.077738
727.247	0.109739
730.14	0.01022
733.033	0.115295
735.925	0.119688
738.818	0.020952
741.711	0.182617
744.604	0.158228
747.496	0.440212
750.389	0.330053
753.282	0.412045
756.174	0.48617
759.067	0.489964
761.96	0.661455
764.852	0.588001
767.745	0.725874
770.638	0.895554
773.53	0.876837
776.423	0.879932
779.316	1.15235
782.209	0.876907
785.101	1.05187
787.994	1.13648
790.887	1.10381
793.779	1.42833
796.672	1.64645
799.565	1.61
802.457	1.67025
805.35	1.81221
808.243	1.93502
811.135	2.00721
814.028	1.83258
816.921	2.05484
819.814	1.90492
822.706	1.69194
825.599	1.36204
828.492	1.3283
831.384	1.28805
834.277	1.04564
837.17	1.01043
840.062	0.840841
842.955	1.02008
845.848	0.629381
848.741	0.286634
851.633	0.281216
854.526	0.23641
857.419	0.084471
860.311	0.129694
863.204	0.18408
866.097	0.156414
868.99	0.270212
871.882	0.544626
874.775	1.36182
877.668	1.80168
880.56	2.39137
883.453	3.40285
886.346	4.4727
889.238	5.5018
892.131	6.83601
895.024	7.99203
897.917	9.03396
900.809	9.44984
903.702	9.55444
906.595	8.51604
909.487	7.46497
912.38	6.02671
915.273	3.9614
918.165	2.52714
921.058	1.35884
923.951	0.2402
926.843	0.415966
929.736	0.477856
932.629	0.404961
935.522	0.209248
938.414	1.00152
941.307	2.43542
944.2	4.44379
947.092	7.10427
949.985	8.69924
952.878	9.69043
955.77	9.14255
958.663	6.58712
961.556	4.7057
964.449	2.38281
967.341	1.25206
970.234	0.637054
973.127	0.334797
976.019	0.409576
978.912	1.22595
981.805	2.85961
984.697	5.00248
987.59	7.8456
990.483	11.7155
993.375	16.0848
996.268	20.4078
999.161	24.7704
1002.05	27.3778
1004.95	27.2725
1007.84	24.1963
1010.73	19.37
1013.62	13.1666
1016.52	7.99941
1019.41	4.11539
1022.3	1.32456
1025.19	0.098591
1028.09	0.297867
1030.98	0.956348
1033.87	3.09722
1036.77	5.0108
1039.66	9.30468
1042.55	13.2593
1045.44	18.504
1048.34	23.4079
1051.23	28.1592
1054.12	30.6757
1057.02	31.9875
1059.91	31.653
1062.8	29.8986
1065.69	26.6942
1068.59	21.7551
1071.48	15.2741
1074.37	9.65072
1077.26	5.37035
1080.16	2.65662
1083.05	1.20097
1085.94	0.372902
1088.84	0.673321
1091.73	1.52532
1094.62	3.87126
1097.51	6.75241
1100.4	10.2759
1103.3	14.4701
1106.19	18.0232
1109.08	18.9994
1111.98	16.9449
1114.87	11.8685
1117.76	7.19681
1120.65	3.2518
1123.55	1.60704
1126.44	1.03649
1129.33	0.147068
1132.22	0.242035
1135.12	0.25042
1138.01	0.478119
1140.9	0.310501
1143.8	0.320755
1146.69	0.103584
1149.58	0.196196
1152.47	0.220621
1155.37	0.636677
1158.26	1.21024
1161.15	1.04472
1164.05	1.20407
1166.94	1.28465
1169.83	1.4394
1172.72	1.63199
1175.62	1.60702
1178.51	1.6052
1181.4	1.72607
1184.29	1.5303
1187.19	1.52146
1190.08	1.64023
1192.97	1.97527
1195.87	1.48652
1198.76	1.32851
1201.65	0.838108
1204.54	1.24434
1207.43	0.917397
1210.33	0.953535
1213.22	0.883963
1216.11	0.625364
1219.01	0.726721
1221.9	0.84197
1224.79	1.01489
1227.68	0.730249
1230.58	0.669401
1233.47	0.605259
1236.36	0.573864
1239.26	0.151031
1242.15	0.242189
1245.04	0.333206
1247.93	0.48875
1250.83	0.290911
1253.72	0.368467
1256.61	0.54953
1259.5	0.378061
1262.4	0.159576
1265.29	0.243654
1268.18	0.235432
1271.08	0.359953
1273.97	0.060307
1276.86	0.236166
1279.75	0.018991
1282.65	0.154272
1285.54	0.011133
