Measurement: Raman, 785 nm, unoriented, Raman Data Processed
Mineral: Heterosite
Rruff sample: R070148
Ideal chemistry: Fe^3+^PO_4_
Locality: Pleasant Valley mine, near Fourmile, Black Hills, Custer County, South Dakota, USA
Source: James Shigley
Description: Black massive with obvious cleavage
Measured chemistry: (Fe^3+^_0.76_Mn^3+^_0.10_Mn^4+^_0.07_Mg_0.06_Ca_0.01_)_Î£=1_P_1.00_O_4_; Mn^3+^ and Mn^4+^ splitted by charge balance
Raman shift (cm-1)	intensity
195.073	0
197.966	11.3037
200.859	26.2588
203.751	4.11963
206.644	26.0835
209.537	88.791
212.429	190.837
215.322	345.945
218.215	498.331
221.108	809.58
224	1012.91
226.893	1372.65
229.786	1816.64
232.678	2289.5
235.571	2773.52
238.464	3240.32
241.357	3633.47
244.249	3825.67
247.142	3627.57
250.035	3134
252.927	2412.07
255.82	1705.2
258.713	1090.8
261.605	663.522
264.498	356.452
267.391	231.095
270.284	189.947
273.176	328.236
276.069	470.672
278.962	704.432
281.854	956.494
284.747	1277.21
287.64	1574.93
290.532	1651.91
293.425	1662.11
296.318	1614.83
299.211	1534.87
302.103	1503.55
304.996	1455.17
307.889	1393.68
310.781	1402.93
313.674	1364.38
316.567	1391.58
319.459	1329.58
322.352	1328.37
325.245	1220.98
328.137	1226.14
331.03	1178.05
333.923	1072.83
336.816	929.374
339.708	782.634
342.601	723.839
345.494	602.099
348.386	493.828
351.279	327.877
354.172	258.597
357.065	177.209
359.957	155.669
362.85	46.2261
365.743	8.81201
368.635	25.4482
371.528	83.9473
374.421	58.8418
377.313	56.6616
380.206	22.3452
383.099	33.5142
385.991	24.5098
388.884	112.988
391.777	238.514
394.67	287.685
397.562	333.047
400.455	369.414
403.348	486.274
406.24	435.174
409.133	462.515
412.026	498.343
414.918	531.082
417.811	580.047
420.704	518.326
423.597	492.992
426.489	495.602
429.382	432.883
432.275	324.545
435.167	215.687
438.06	166.452
440.953	74.8804
443.846	84.3501
446.738	74.7158
449.631	3.81738
452.524	14.9419
455.416	10.6211
458.309	21.6748
461.202	48.5283
464.094	151.45
466.987	221.506
469.88	385.098
472.772	621.195
475.665	818.004
478.558	1003.41
481.451	1188.33
484.343	1356.31
487.236	1312.26
490.129	1287.81
493.021	1100.37
495.914	955.654
498.807	770.908
501.7	642.038
504.592	589.318
507.485	501.465
510.378	460.888
513.27	402.473
516.163	303.865
519.056	288.006
521.948	204.707
524.841	165.881
527.734	162.216
530.626	141.952
533.519	82.7754
536.412	70.6362
539.305	46.6182
542.197	49.0864
545.09	44.6611
547.983	27.3355
550.875	31.4575
553.768	54.2144
556.661	74.1919
559.553	217.172
562.446	230.452
565.339	363.144
568.232	427.169
571.124	514.762
574.017	573.259
576.91	605.446
579.802	732.529
582.695	717.521
585.588	733.33
588.481	733.464
591.373	653.871
594.266	555.533
597.159	513.672
600.051	465.835
602.944	375.631
605.837	290.24
608.729	142.913
611.622	175.6
614.515	113.688
617.408	8.43896
620.3	14.3076
623.193	9.33252
626.086	30.3867
628.978	29.9311
631.871	87.0259
634.764	212.174
637.656	296.62
640.549	513.015
643.442	737.371
646.335	960.935
649.227	1134.83
652.12	1187.15
655.013	1174.35
657.905	1207.56
660.798	1125.76
663.691	1152.16
666.583	1098.56
669.476	1102.64
672.369	1076.77
675.261	1035.6
678.154	993.119
681.047	916.177
683.94	789.175
686.832	714.524
689.725	603.828
692.618	445.443
695.51	373.805
698.403	276.179
701.296	180.492
704.188	136.254
707.081	82.2956
709.974	59.5601
712.867	51.3574
715.759	2.23657
718.652	19.1345
721.545	2.7959
724.437	10.0127
727.33	7.85962
730.223	49.9316
733.115	23.5166
736.008	52.2112
738.901	60.6675
741.794	19.0796
744.686	6.20752
747.579	42.5571
750.472	46.9905
753.364	28.3332
756.257	68.178
759.15	52.0842
762.043	34.8415
764.935	45.8267
767.828	41.0537
770.721	57.2095
773.613	106.016
776.506	111.868
779.399	47.4661
782.291	81.6816
785.184	39.3472
788.077	65.0515
790.97	92.6069
793.862	85.3625
796.755	71.3689
799.648	85.7314
802.54	82.9805
805.433	129.12
808.326	61.4853
811.218	62.9097
814.111	71.8467
817.004	71.4817
819.896	78.5815
822.789	39.7039
825.682	85.2249
828.575	3.58472
831.467	4.75561
834.36	44.3169
837.253	60.8794
840.145	3.84326
843.038	7.47412
845.931	4.11206
848.823	10.698
851.716	7.08276
854.609	38.5156
857.502	23.229
860.394	19.0771
863.287	16.8718
866.18	33.6707
869.072	56.9177
871.965	91.6782
874.858	141.739
877.75	156.007
880.643	192.453
883.536	296.184
886.429	290.404
889.321	338.731
892.214	355.907
895.107	401.834
898	362.978
900.892	389.109
903.785	429.873
906.678	367.658
909.57	408.974
912.463	393.621
915.356	381.097
918.248	458.459
921.141	447.335
924.034	457.308
926.927	533.422
929.819	625.454
932.712	691.27
935.605	826.285
938.497	959.141
941.39	1149.51
944.283	1379.93
947.175	1572.93
950.068	1797.43
952.961	1871.98
955.854	1760.37
958.746	1711.21
961.639	1469.75
964.532	1278.35
967.424	1087.88
970.317	980.729
973.21	975.681
976.102	882.825
978.995	828.179
981.888	716.09
984.78	584.35
987.673	379.919
990.566	225.986
993.459	153.725
996.351	28.5205
999.244	66.834
1002.14	58.7607
1005.03	62.1416
1007.92	15.3438
1010.82	73.3833
1013.71	162.412
1016.6	226.841
1019.49	398.629
1022.39	514.946
1025.28	712.571
1028.17	971.127
1031.06	1090.98
1033.96	1279.28
1036.85	1503.44
1039.74	1579.54
1042.63	1684.08
1045.53	1775.53
1048.42	1873.68
1051.31	2005.77
1054.2	2132.63
1057.1	2079.92
1059.99	1987.02
1062.88	1692.35
1065.78	1330.57
1068.67	1064.58
1071.56	777.665
1074.45	561.876
1077.35	460.531
1080.24	277.272
1083.13	255.024
1086.03	160.462
1088.92	80.0933
1091.81	55.1006
1094.7	58.081
1097.6	17.709
1100.49	80.4531
1103.38	118.775
1106.27	83.0449
1109.17	166.176
1112.06	240.279
1114.95	216.07
1117.85	218.06
1120.74	265.278
1123.63	244.493
1126.52	178.171
1129.42	138.942
1132.31	91.4492
1135.2	83.5576
1138.09	3.88477
1140.99	8.23267
1143.88	8.19702
1146.77	13.0076
1149.66	42.5632
1152.56	16.8398
1155.45	4.8291
1158.34	59.8816
1161.23	11.4165
1164.13	39.7136
1167.02	33.8186
1169.91	7.63843
1172.81	47.3845
1175.7	86.2434
1178.59	50.7842
1181.48	65.1318
1184.38	83.113
1187.27	64.2712
1190.16	36.9526
1193.06	23.4907
1195.95	32.7673
1198.84	54.8603
1201.73	41.406
1204.63	4.11646
1207.52	66.0774
1210.41	8.33472
1213.3	0.032471
