Measurement: Raman, 785 nm, unoriented, Raman Data Processed
Mineral: Heulandite-Ca
Rruff sample: R061012
Ideal chemistry: NaCa_4_(Si_27_Al_9_)O_72_24H_2_O
Locality: Patterson, New Jersey, USA
Source: Michael Scott
Description: Aggregate of white or colorless tabular coffin-shaped crystals
Measured chemistry: (Ca_2.94_Na_1.55_K_0.51_)_Σ=5_(Si_28.06_Al_7.94_)_36_O_72_·19.5H_2_O
Raman shift (cm-1)	intensity
144.67	0
147.562	385.487
150.455	702.759
153.348	601.636
156.24	340.746
159.133	354.804
162.026	508.76
164.919	635.62
167.811	745.15
170.704	567.95
173.597	312.893
176.489	109.147
179.382	118.767
182.275	183.152
185.167	188.275
188.06	190.555
190.953	155.052
193.846	171.74
196.738	172.889
199.631	103.24
202.524	38.1384
205.416	6.95044
208.309	9.84644
211.202	37.813
214.095	60.228
216.987	52.5867
219.88	11.4348
222.773	16.1936
225.665	75.8147
228.558	145.372
231.451	274.612
234.343	320.496
237.236	440.846
240.129	542.223
243.022	676.745
245.914	724.573
248.807	800.043
251.7	930.062
254.592	939.054
257.485	937.549
260.378	911.132
263.27	819.711
266.163	724.311
269.056	585.619
271.949	516.103
274.841	352.595
277.734	291.541
280.627	226.595
283.519	189.994
286.412	94.136
289.305	75.2432
292.197	59.0122
295.09	92.3806
297.983	76.3665
300.875	39.4014
303.768	15.5981
306.661	12.1333
309.554	39.1645
312.446	29.6509
315.339	7.88232
318.232	14.2668
321.124	25.9077
324.017	92.9495
326.91	124.853
329.803	178.944
332.695	178.578
335.588	202.871
338.481	233.933
341.373	294.895
344.266	386.813
347.159	467.275
350.051	608.297
352.944	796.899
355.837	989.059
358.729	1212.73
361.622	1332.32
364.515	1613.25
367.408	1842.87
370.3	2133.53
373.193	2382.66
376.086	2701.24
378.978	3060.14
381.871	3311.84
384.764	3718.01
387.656	4234.73
390.549	4885.16
393.442	5632.15
396.335	6378.03
399.227	6909.55
402.12	7073.82
405.013	6932.41
407.905	6423.41
410.798	5715.92
413.691	4854.21
416.584	4034.84
419.476	3182.93
422.369	2385.46
425.262	1678.42
428.154	1041
431.047	630.767
433.94	289.422
436.832	133.489
439.725	9.62964
442.618	52.2151
445.51	75.041
448.403	31.8137
451.296	69.3081
454.189	323.656
457.081	667.192
459.974	1131.25
462.867	1645.87
465.759	2201.48
468.652	2756.53
471.545	3346.88
474.438	4135.02
477.33	5002.48
480.223	5482.47
483.116	5266.58
486.008	4384.09
488.901	3314.23
491.794	2323.18
494.686	1616.47
497.579	1028.98
500.472	623.98
503.365	364.653
506.257	206.177
509.15	135.403
512.043	63.8044
514.935	33.4087
517.828	35.2124
520.721	19.5203
523.613	20.0852
526.506	0.384766
529.399	25.6603
532.292	43.0614
535.184	33.9711
538.077	26.7401
540.97	48.5321
543.862	64.084
546.755	69.5884
549.648	68.8141
552.54	117.263
555.433	110.453
558.326	124.624
561.218	167.539
564.111	166.679
567.004	186.262
569.897	216.041
572.789	324.557
575.682	289.163
578.575	387.767
581.467	354.579
584.36	414.795
587.253	485.579
590.145	504.062
593.038	572.089
595.931	655.658
598.823	791.644
601.716	916.608
604.609	1055.1
607.502	1129.7
610.394	1130.37
613.287	1052.71
616.18	936.646
619.072	786.003
621.965	645.384
624.858	494.897
627.75	399.446
630.643	333.55
633.536	270.207
636.429	223.677
639.321	163.93
642.214	131.658
645.107	83.6691
648	99.4628
650.892	54.3922
653.785	50.9869
656.678	53.918
659.57	18.9402
662.463	10.0286
665.356	2.60779
668.248	5.0802
671.141	6.34351
674.034	7.54834
676.927	11.5051
679.819	16.6274
682.712	16.918
685.605	7.45373
688.497	20.004
691.39	23.8752
694.283	29.6945
697.175	18.6761
700.068	8.99524
702.961	3.78247
705.854	22.1219
708.746	13.3118
711.639	30.0325
714.532	45.5084
717.424	37.1833
720.317	49.1466
723.21	35.8319
726.102	26.6977
728.995	21.9097
731.888	33.6644
734.78	21.4606
737.673	19.4237
740.566	26.6301
743.459	52.4403
746.351	31.8357
749.244	52.1051
752.137	67.687
755.029	69.6859
757.922	109.094
760.815	149.22
763.707	170.81
766.6	178.857
769.493	251.717
772.386	297.517
775.278	338.96
778.171	338.828
781.064	360.562
783.956	324.583
786.849	317.675
789.742	265.33
792.635	160.225
795.527	192.439
798.42	117.211
801.313	78.6849
804.205	83.7203
807.098	121.924
809.991	96.4806
812.883	98.7596
815.776	66.0629
818.669	81.4745
821.562	40.7418
824.454	39.3193
827.347	27.6389
830.24	16.4853
833.132	11.2367
836.025	15.2616
838.918	17.4396
841.81	23.6566
844.703	15.7908
847.596	1.73926
850.489	0.374573
853.381	24.5281
856.274	2.61383
859.167	27.3909
862.059	11.7892
864.952	12.6979
867.845	36.6232
870.737	34.5045
873.63	17.893
876.523	22.1966
879.415	73.3644
882.308	45.4755
885.201	44.5646
888.094	54.6911
890.986	54.8276
893.879	40.5674
896.772	74.078
899.664	51.1111
902.557	60.1016
905.45	33.8027
908.342	72.7435
911.235	23.1097
914.128	51.19
917.02	64.3106
919.913	8.96832
922.806	1.24676
925.699	3.82605
928.591	17.1038
931.484	28.8922
934.377	19.764
937.269	4.76367
940.162	37.7251
943.055	30.276
945.947	7.35156
948.84	10.9325
951.733	22.2808
954.626	35.4985
957.518	15.0976
960.411	13.7512
963.304	29.4523
966.196	30.4185
969.089	53.0862
971.982	40.6924
974.875	43.7745
977.767	51.2023
980.66	58.989
983.553	56.0533
986.445	37.0027
989.338	27.2993
992.231	5.1695
995.123	23.5422
998.016	54.2968
1000.91	58.4543
1003.8	64.4698
1006.69	49.2357
1009.59	36.9697
1012.48	62.2395
1015.37	36.2244
1018.26	51.2988
1021.16	6.92322
1024.05	3.5144
1026.94	17.9846
1029.84	55.6086
1032.73	10.4365
1035.62	53.0986
1038.51	47.6058
1041.41	38.131
1044.3	31.9812
1047.19	18.2903
1050.09	26.4662
1052.98	12.1598
1055.87	19.4597
1058.76	25.2589
1061.66	37.0162
1064.55	3.74316
1067.44	28.2071
1070.33	74.6444
1073.23	56.7888
1076.12	119.719
1079.01	168.579
1081.9	181.06
1084.8	218.341
1087.69	248.897
1090.58	231.366
1093.47	266.559
1096.37	311.707
1099.26	303.314
1102.15	313.238
1105.05	330.805
1107.94	360.028
1110.83	363.717
1113.72	377.426
1116.62	403.962
1119.51	390.7
1122.4	377.317
1125.3	408.312
1128.19	360.907
1131.08	362.771
1133.97	349.695
1136.87	360.421
1139.76	310.4
1142.65	306.547
1145.54	270.157
1148.44	291.136
1151.33	268.693
1154.22	253.888
1157.12	223.28
1160.01	228.708
1162.9	189.751
1165.79	162.384
1168.68	158.876
1171.58	143.562
1174.47	104.961
1177.36	91.5134
1180.26	128.452
1183.15	61.4407
1186.04	63.6579
1188.93	33.1603
1191.83	4.21918
1194.72	28.8243
1197.61	32.1299
1200.51	27.5676
1203.4	10.5345
1206.29	32.9529
1209.18	15.9661
1212.08	20.5074
1214.97	1.98144
1217.86	4.3382
1220.75	31.1443
1223.65	39.5701
1226.54	61.5138
1229.43	48.955
1232.33	68.3544
1235.22	37.353
1238.11	25.4965
1241	59.6202
1243.9	48.6387
1246.79	63.7459
1249.68	57.3438
1252.57	22.4133
1255.47	21.6655
1258.36	29.8372
1261.25	4.93079
1264.14	11.4283
1267.04	0
