Measurement: Raman, 532 nm, unoriented, Raman Data Processed
Mineral: Heulandite-Ca
Rruff sample: R060465
Ideal chemistry: NaCa_4_(Si_27_Al_9_)O_72_24H_2_O
Locality: Garrawilla, near Gunnadah, New South Wales, Australia
Source: Michael Scott
Description: Orange fan of platy crystals
Measured chemistry: (Ca_0.66_Na_0.24_K_0.10_)_5_(Si_0.77_Al_0.23_)_36_O_72_Â·24H_2_O
Raman shift (cm-1)	intensity
179.745	0
182.637	8.9419
185.53	2.73575
188.423	8.67264
191.315	1.9252
194.208	11.0844
197.101	4.90643
199.994	5.50085
202.886	2.90048
205.779	7.91251
208.672	4.53027
211.565	10.8575
214.457	8.21185
217.35	10.3933
220.243	8.5759
223.135	13.5047
226.028	29.2306
228.921	24.2307
231.813	33.4179
234.706	26.3146
237.599	30.5812
240.492	42.1427
243.384	54.5749
246.277	56.9381
249.17	58.1995
252.062	51.613
254.955	44.8435
257.848	49.108
260.74	40.8631
263.633	34.6267
266.526	23.7191
269.418	32.0704
272.311	28.1977
275.204	15.6553
278.097	17.912
280.989	15.159
283.882	6.22318
286.775	3.27972
289.667	3.13037
292.56	8.38138
295.453	0.745789
298.346	4.25394
301.238	2.14023
304.131	3.23425
307.024	1.16049
309.916	3.22369
312.809	1.19504
315.702	1.22153
318.594	3.884
321.487	3.48819
324.38	4.68735
327.273	6.85349
330.165	5.10095
333.058	4.59119
335.951	1.93338
338.843	9.66882
341.736	13.6001
344.629	13.4672
347.522	13.6442
350.414	20.3026
353.307	34.8141
356.2	37.0297
359.092	46.3309
361.985	49.1056
364.878	60.3489
367.77	72.8039
370.663	88.1706
373.556	93.3323
376.449	114.064
379.341	140.544
382.234	152.842
385.127	181.194
388.019	215.889
390.912	248.462
393.805	281.279
396.697	318.481
399.59	349.102
402.483	375.624
405.376	363.958
408.268	329.065
411.161	288.253
414.054	243.755
416.946	202.666
419.839	164.707
422.732	123.999
425.625	88.4629
428.517	61.5172
431.41	41.5728
434.303	22.473
437.195	12.5409
440.088	3.33862
442.981	5.19153
445.873	1.36179
448.766	1.43878
451.659	1.32278
454.551	8.60532
457.444	17.5096
460.337	34.7676
463.23	52.8889
466.122	66.8037
469.015	83.5487
471.908	90.78
474.8	104.37
477.693	131.825
480.586	162.218
483.479	199.653
486.371	183.625
489.264	166.717
492.157	118.323
495.049	81.7259
497.942	51.6993
500.835	32.1346
503.728	17.5764
506.62	12.2903
509.513	2.44885
512.406	2.23041
515.298	1.90335
518.191	1.13904
521.084	2.33633
523.976	3.17819
526.869	0.715973
529.762	3.61667
532.654	2.68021
535.547	0.152527
538.44	4.30475
541.333	3.49158
544.225	3.73923
547.118	2.66498
550.011	4.76511
552.903	7.24033
555.796	12.5573
558.689	7.79706
561.582	6.8483
564.474	6.16556
567.367	10.1528
570.26	0.072693
573.152	12.1393
576.045	7.46231
578.938	9.77768
581.83	17.7272
584.723	10.2921
587.616	7.17734
590.509	21.3073
593.401	24.2611
596.294	29.4724
599.187	31.6343
602.079	41.5353
604.972	50.5194
607.865	52.0549
610.758	57.13
613.65	58.1552
616.543	51.8941
619.436	47.1048
622.328	36.4303
625.221	32.1595
628.114	19.3032
631.006	15.7401
633.899	13.9062
636.792	18.4071
639.684	11.7987
642.577	7.97751
645.47	2.349
648.363	0.227692
651.255	3.94919
654.148	4.47153
657.041	1.23715
659.933	3.51352
662.826	2.13782
665.719	3.78467
668.612	5.83237
671.504	0.383087
674.397	0.009369
677.29	5.39529
680.182	1.85916
683.075	10.9207
685.968	8.59293
688.861	6.75626
691.753	9.09955
694.646	6.46524
697.539	9.08328
700.431	2.03494
703.324	1.45056
706.217	2.8598
709.109	3.89356
712.002	3.37717
714.895	7.34201
717.788	0.360413
720.68	1.84192
723.573	4.70456
726.466	2.659
729.358	5.06271
732.251	5.01099
735.144	4.48968
738.036	3.37585
740.929	3.12366
743.822	1.42371
746.715	0.752625
749.607	3.28451
752.5	6.8573
755.393	9.04157
758.285	8.95737
761.178	12.2981
764.071	15.611
766.963	16.8711
769.856	19.2539
772.749	20.8489
775.642	18.6801
778.534	26.6875
781.427	24.6565
784.32	21.899
787.212	24.6319
790.105	22.6408
792.998	15.2197
795.89	29.8475
798.783	17.0295
801.676	18.1281
804.569	19.0344
807.461	21.1791
810.354	23.0489
813.247	28.4484
816.139	33.3961
819.032	34.9083
821.925	41.5733
824.818	32.9286
827.71	26.8293
830.603	16.1725
833.496	12.1044
836.388	6.99878
839.281	6.70218
842.174	8.15805
845.067	8.66418
847.959	2.909
850.852	0.278931
853.745	7.97025
856.637	0.24649
859.53	4.00812
862.423	5.71195
865.315	5.14072
868.208	3.74246
871.101	5.58774
873.994	2.94891
876.886	6.78128
879.779	7.36231
882.672	7.26657
885.564	3.64224
888.457	6.11642
891.35	5.6629
894.242	5.21256
897.135	0.255371
900.028	4.62592
902.92	2.74161
905.813	0.700562
908.706	9.7626
911.599	3.09662
914.491	4.63193
917.384	4.46426
920.277	4.86197
923.169	3.70996
926.062	7.70193
928.955	12.2707
931.847	8.40729
934.74	7.97406
937.633	5.71378
940.526	4.85742
943.418	3.80749
946.311	3.6239
949.204	3.22971
952.096	2.29489
954.989	5.65118
957.882	2.97308
960.775	1.5607
963.667	1.08282
966.56	0.289978
969.453	3.61883
972.345	11.0373
975.238	1.43457
978.131	7.85391
981.024	4.40091
983.916	2.98514
986.809	7.24439
989.702	5.74936
992.594	6.47638
995.487	1.51355
998.38	3.05682
1001.27	5.98614
1004.16	0.123627
1007.06	2.81458
1009.95	8.14771
1012.84	2.28683
1015.74	4.54617
1018.63	1.84717
1021.52	4.43771
1024.41	0.229492
1027.31	7.34265
1030.2	7.10709
1033.09	10.8795
1035.98	7.18637
1038.88	12.282
1041.77	3.16534
1044.66	3.854
1047.56	8.17593
1050.45	11.5276
1053.34	6.30121
1056.23	0.985657
1059.13	5.8092
1062.02	1.25842
1064.91	2.95654
1067.81	1.18155
1070.7	5.05185
1073.59	7.18204
1076.48	4.44705
1079.38	5.33307
1082.27	9.5358
1085.16	12.0126
1088.05	4.98853
1090.95	11.878
1093.84	13.106
1096.73	13.3764
1099.62	10.6029
1102.52	10.3239
1105.41	8.86191
1108.3	10.3751
1111.19	14.306
1114.09	15.2354
1116.98	16.6534
1119.87	10.8221
1122.77	11.0934
1125.66	10.6794
1128.55	4.60651
1131.44	13.7605
1134.34	7.69153
1137.23	8.35446
1140.12	2.21722
1143.02	11.636
1145.91	13.6366
1148.8	10.3914
1151.69	13.6183
1154.59	10.6299
1157.48	8.90955
1160.37	10.6125
1163.26	16.7896
1166.16	10.072
1169.05	13.8779
1171.94	16.1796
1174.84	5.93805
1177.73	3.99499
1180.62	12.1961
1183.51	3.16852
1186.4	7.81576
1189.3	9.04514
1192.19	1.35346
1195.08	4.68259
1197.98	9.5556
1200.87	9.9679
1203.76	4.14825
1206.65	4.31894
1209.55	3.56549
1212.44	2.92404
1215.33	0.197327
1218.22	2.43314
1221.12	5.71378
1224.01	2.21014
1226.9	5.07871
1229.8	4.67218
1232.69	2.83661
1235.58	2.44489
1238.47	0.944183
1241.37	2.91943
1244.26	0.836517
1247.15	3.11247
1250.05	2.38983
1252.94	2.35803
1255.83	0.561859
1258.72	7.11472
1261.62	1.73328
1264.51	0.590515
1267.4	4.59372
1270.29	10.664
1273.19	11.2036
1276.08	7.93167
1278.97	5.33917
1281.87	2.43433
1284.76	11.7906
1287.65	6.51328
1290.54	9.35028
1293.43	3.38605
1296.33	7.03784
1299.22	8.08887
1302.11	0.063812
