Measurement: Raman, 532 nm, unoriented, Raman Data Processed
Mineral: Heulandite-Na
Rruff sample: R070281
Ideal chemistry: Na_4_Ca_2_Al_8_Si_28_O_72_24H_2_O
Locality: Warm Spring Creek, Challis, Custer County, Idaho, USA
Source: Michael Scott
Description: Orange tabular crystals lining a vug
Raman shift (cm-1)	intensity
175.696	0
178.589	32.6572
181.482	30.1943
184.374	5.56152
187.267	58.4853
190.16	32.1714
193.052	79.9981
195.945	69.1162
198.838	112.086
201.731	43.3232
204.623	58.0562
207.516	44.6235
210.409	82.7602
213.301	3.09912
216.194	52.1631
219.087	70.5962
221.979	58.9663
224.872	132.521
227.765	124.838
230.657	86.355
233.55	81.4907
236.443	128.265
239.336	247.46
242.228	319.441
245.121	403.264
248.014	460.172
250.906	436.163
253.799	395.64
256.692	406.728
259.584	367.223
262.477	292.039
265.37	250.055
268.263	236.178
271.155	212.585
274.048	203.611
276.941	150.796
279.833	83.4517
282.726	129.188
285.619	88.9062
288.512	108.339
291.404	111.025
294.297	59.147
297.19	44.0283
300.082	33.6406
302.975	3.86231
305.868	3.75732
308.76	0.265137
311.653	36.373
314.546	36.0776
317.438	60.2935
320.331	6.62695
323.224	36.5107
326.117	57.043
329.009	70.8999
331.902	68.9883
334.795	163.309
337.687	84.4541
340.58	145.377
343.473	168.57
346.365	213.645
349.258	222.053
352.151	322.22
355.044	495.771
357.936	550.266
360.829	670.959
363.722	832.148
366.614	984.969
369.507	1159.91
372.4	1323.31
375.293	1468.88
378.185	1744.53
381.078	2091.8
383.971	2441.81
386.863	2862.38
389.756	3443.62
392.649	3985.4
395.541	4546.74
398.434	5061.07
401.327	5366.2
404.219	5357.64
407.112	4991.1
410.005	4383.7
412.898	3749.76
415.79	3063.46
418.683	2440.84
421.576	1898.86
424.469	1450.26
427.361	1039.04
430.254	690.081
433.147	440.938
436.039	256.37
438.932	54.1377
441.825	40.3784
444.717	36.4531
447.61	8.34082
450.503	58.9678
453.396	198.442
456.288	394.574
459.181	692.485
462.074	1037.28
464.966	1260.32
467.859	1535.73
470.752	1747.9
473.644	2082.45
476.537	2427.68
479.43	2853.21
482.322	3105.3
485.215	3012.39
488.108	2596.1
491.001	1967.79
493.893	1370.97
496.786	885.247
499.679	567.203
502.571	286.415
505.464	168.032
508.357	38.8413
511.25	93.4282
514.142	12.9546
517.035	63.877
519.928	27.583
522.82	17.8013
525.713	26.9883
528.606	10.8247
531.498	13.125
534.391	5.08887
537.284	4.61377
540.177	16.7222
543.069	22.3023
545.962	6.69873
548.855	48.8579
551.747	31.5146
554.64	58.0835
557.533	85.8838
560.425	100.688
563.318	62.6177
566.211	98.394
569.104	199.63
571.996	130.658
574.889	148.673
577.782	139.239
580.674	200.548
583.567	174.921
586.46	274.604
589.352	303.179
592.245	360.586
595.138	433.997
598.031	533.156
600.923	683.725
603.816	786.453
606.709	876.435
609.601	900.473
612.494	930.982
615.387	893.701
618.279	758.057
621.172	671.693
624.065	527.643
626.958	390.487
629.85	346.561
632.743	290.332
635.636	246.898
638.528	146.452
641.421	146.561
644.314	119.481
647.207	119.807
650.099	96.728
652.992	85.2295
655.885	107.873
658.777	36.5815
661.67	92.9356
664.563	84.2651
667.455	50.0874
670.348	31.3413
673.241	55.0405
676.134	18.73
679.026	3.65918
681.919	32.23
684.812	42.7241
687.704	41.7671
690.597	26.7231
693.49	1.83008
696.382	38.1362
699.275	53.9351
702.168	76.9873
705.061	44.5596
707.953	9.38721
710.846	8.83252
713.739	38.894
716.631	2.48096
719.524	11.6977
722.417	6.21387
725.309	34.0161
728.202	31.0796
731.095	24.2749
733.987	52.9131
736.88	14.1299
739.773	29.3061
742.666	12.8154
745.558	41.478
748.451	12.7715
751.344	71.2305
754.236	73.6367
757.129	80.2978
760.022	159.288
762.915	147.57
765.807	172.51
768.7	206.786
771.593	260.611
774.485	285.481
777.378	317.666
780.271	273.416
783.163	264.383
786.056	305.434
788.949	315.01
791.842	167.915
794.734	187.65
797.627	137.388
800.52	204.856
803.412	136.796
806.305	212.753
809.198	242.754
812.091	269.178
814.983	309.203
817.876	334.084
820.769	293.965
823.661	262.566
826.554	183.466
829.447	189.729
832.339	96.6592
835.232	50.0557
838.125	37.6773
841.018	27.7051
843.91	24.3818
846.803	30.2861
849.696	0.802734
852.588	28.6587
855.481	60.0669
858.374	30.4077
861.266	34.8438
864.159	19.0005
867.052	35.3467
869.944	45.0532
872.837	53.3628
875.73	24.5015
878.623	43.1909
881.515	16.3882
884.408	14.1392
887.301	56.6645
890.193	67.7085
893.086	22.0239
895.979	9.16357
898.871	37.439
901.764	12.9639
904.657	64.8247
907.55	45.3101
910.442	52.7085
913.335	31.71
916.228	41.2759
919.12	7.02881
922.013	72.6182
924.906	51.6284
927.798	48.5117
930.691	92.2173
933.584	26.5503
936.477	67.2158
939.369	7.96191
942.262	51.3227
945.155	28.2378
948.047	21.6724
950.94	8.28613
953.833	59.5244
956.726	64.5635
959.618	34.4409
962.511	48.5059
965.404	82.1992
968.296	76.4814
971.189	25.3369
974.082	63.1855
976.974	74.6519
979.867	29.9439
982.76	118.532
985.653	45.1182
988.545	30.917
991.438	80.1001
994.331	33.0181
997.223	103.641
1000.12	72.77
1003.01	102.779
1005.9	65.4702
1008.79	147.35
1011.69	127.974
1014.58	117.372
1017.47	159.887
1020.37	103.561
1023.26	172.815
1026.15	128.66
1029.04	125.549
1031.94	122.389
1034.83	134.999
1037.72	138.538
1040.61	144.065
1043.51	145.562
1046.4	67.0396
1049.29	88.4126
1052.18	19.2578
1055.08	22.3789
1057.97	15.9702
1060.86	50.8589
1063.76	29.3711
1066.65	3.979
1069.54	15.4663
1072.43	58.5791
1075.33	22.1655
1078.22	38.0923
1081.11	24.1811
1084	70.2412
1086.9	120.061
1089.79	124.319
1092.68	67.4302
1095.58	113.153
1098.47	166.56
1101.36	185.603
1104.25	263.359
1107.15	213.288
1110.04	174.559
1112.93	263.992
1115.82	264.402
1118.72	242.906
1121.61	308.705
1124.5	252.887
1127.39	257.574
1130.29	296.504
1133.18	276.593
1136.07	298.775
1138.97	285.795
1141.86	266.703
1144.75	299.851
1147.64	240.476
1150.54	309.127
1153.43	271.141
1156.32	261.54
1159.21	257.438
1162.11	277.976
1165	222.611
1167.89	307.798
1170.79	268.59
1173.68	179.228
1176.57	162.833
1179.46	208.334
1182.36	182.484
1185.25	175.52
1188.14	145.496
1191.03	52.1128
1193.93	132.985
1196.82	6.16309
1199.71	68.6528
1202.61	43.1123
1205.5	3.78027
1208.39	18.271
1211.28	43.0454
1214.18	9.29492
1217.07	6.06494
1219.96	1.4082
1222.85	0.304199
1225.75	18.3525
1228.64	69.8936
1231.53	23.9331
1234.42	32.8897
1237.32	41.8799
1240.21	74.4136
1243.1	81.2324
1246	38.4458
1248.89	141.989
1251.78	56.6982
1254.67	48.5181
1257.57	87.1699
1260.46	117.816
1263.35	76.4394
1266.24	94.7227
1269.14	109.162
1272.03	103.561
1274.92	40.6221
1277.82	74.0088
1280.71	3.43164
1283.6	62.0645
1286.49	57.0283
1289.39	46.71
1292.28	44.3818
1295.17	66.3799
1298.06	30.1055
1300.96	0
