Measurement: Raman, 780 nm, unoriented, Raman Data Processed
Mineral: Heulandite-Ca
Rruff sample: R060465
Ideal chemistry: NaCa_4_(Si_27_Al_9_)O_72_24H_2_O
Locality: Garrawilla, near Gunnadah, New South Wales, Australia
Source: Michael Scott
Description: Orange fan of platy crystals
Measured chemistry: (Ca_0.66_Na_0.24_K_0.10_)_5_(Si_0.77_Al_0.23_)_36_O_72_Â·24H_2_O
Raman shift (cm-1)	intensity
180.761	0
183.654	0.354004
186.547	5.64175
189.439	1.2471
192.332	4.22238
195.225	2.9433
198.117	0.893997
201.01	3.78938
203.903	1.56015
206.796	6.03433
209.688	1.03961
212.581	4.68449
215.474	2.26556
218.366	1.94194
221.259	0.840988
224.152	3.94168
227.044	8.27266
229.937	7.79359
232.83	19.2682
235.722	23.4907
238.615	25.3484
241.508	29.8911
244.401	36.6101
247.293	39.8011
250.186	39.0674
253.079	35.9847
255.971	32.3604
258.864	29.6398
261.757	25.042
264.649	22.1087
267.542	15.703
270.435	15.0511
273.328	12.3335
276.22	8.78754
279.113	4.14816
282.006	9.24031
284.898	5.13571
287.791	5.47405
290.684	3.7392
293.576	4.84325
296.469	4.22777
299.362	2.79276
302.255	4.47212
305.147	1.42631
308.04	4.94879
310.933	1.95955
313.825	1.21661
316.718	1.71112
319.611	1.35864
322.503	7.04047
325.396	1.96349
328.289	2.14842
331.182	2.61722
334.074	5.06215
336.967	0.454498
339.86	3.67654
342.752	8.17039
345.645	7.22699
348.538	8.0016
351.43	8.68994
354.323	18.2457
357.216	19.8558
360.108	23.0753
363.001	31.8465
365.894	36.8455
368.787	49.4819
371.679	59.7018
374.572	68.0031
377.465	82.5649
380.357	97.5189
383.25	113.87
386.143	135.254
389.036	150.916
391.928	178.804
394.821	203.464
397.714	228.679
400.606	239.912
403.499	243.981
406.392	228.926
409.284	199.395
412.177	172.069
415.07	143.585
417.962	113.16
420.855	91.6291
423.748	71.3692
426.641	49.9172
429.533	31.112
432.426	18.2901
435.319	9.38621
438.211	1.68123
441.104	1.19218
443.997	3.28059
446.889	0.690536
449.782	1.31676
452.675	3.04527
455.567	12.0882
458.46	21.9738
461.353	34.3797
464.246	45.9749
467.138	53.8315
470.031	66.6381
472.924	78.9772
475.816	95.6346
478.709	122.302
481.602	150.817
484.495	158.734
487.387	145.624
490.28	110.683
493.173	71.9649
496.065	49.3761
498.958	32.1083
501.851	15.5245
504.743	7.94432
507.636	6.88464
510.529	2.48827
513.422	0.939514
516.314	2.14471
519.207	0.112167
522.1	0.070061
524.992	0.435547
527.885	2.54473
530.778	1.58313
533.67	2.49558
536.563	0.856033
539.456	5.25961
542.348	4.31553
545.241	7.01811
548.134	4.59016
551.027	12.023
553.919	15.5074
556.812	16.4082
559.705	17.4941
562.597	14.3104
565.49	12.6139
568.383	1.54438
571.275	8.29203
574.168	4.32052
577.061	5.41547
579.954	11.2226
582.846	4.56421
585.739	2.64665
588.632	12.045
591.524	15.3836
594.417	19.3081
597.31	20.8971
600.202	27.6376
603.095	36.7595
605.988	35.4558
608.881	44.6829
611.773	44.3429
614.666	41.896
617.559	35.7572
620.451	27.0905
623.344	27.1125
626.237	18.2463
629.129	14.4655
632.022	12.7399
634.915	11.2748
637.808	7.17327
640.7	6.77999
643.593	3.3714
646.486	0.827377
649.378	5.71555
652.271	4.62074
655.164	2.38511
658.056	1.27349
660.949	3.75174
663.842	2.53771
666.735	4.06544
669.627	0.570854
672.52	4.03385
675.413	3.03122
678.305	3.67553
681.198	1.15599
684.091	3.53677
686.983	3.86307
689.876	2.19888
692.769	4.15213
695.662	7.20534
698.554	1.18182
701.447	4.36094
704.34	4.02457
707.232	1.19375
710.125	6.43282
713.018	3.00771
715.91	3.16125
718.803	6.42452
721.696	0.625298
724.588	3.38253
727.481	3.73827
730.374	3.55502
733.266	3.71664
736.159	3.95448
739.052	2.05286
741.945	0.264847
744.837	1.64064
747.73	3.03795
750.623	4.92216
753.515	3.81474
756.408	6.37196
759.301	7.54266
762.193	9.13016
765.086	10.4659
767.979	13.14
770.872	11.911
773.764	14.2134
776.657	17.8051
779.55	19.4439
782.442	24.1321
785.335	21.4496
788.228	19.3142
791.12	24.1097
794.013	19.2582
796.906	16.6536
799.799	19.6085
802.691	16.0662
805.584	15.0643
808.477	17.5407
811.369	18.0774
814.262	18.517
817.155	26.2121
820.048	27.051
822.94	23.0258
825.833	15.9062
828.726	13.1503
831.618	10.8026
834.511	6.72022
837.404	5.102
840.296	0.3088
843.189	3.57969
846.082	2.1508
848.975	1.03744
851.867	1.1397
854.76	2.60803
857.653	5.06477
860.545	2.49161
863.438	5.25252
866.331	1.93252
869.223	2.88593
872.116	4.95324
875.009	4.3138
877.901	3.02621
880.794	0.670738
883.687	4.90767
886.58	1.98785
889.472	1.29662
892.365	0.075348
895.258	2.35067
898.15	0.773373
901.043	2.92467
903.936	1.99199
906.828	2.38959
909.721	1.47537
912.614	2.46941
915.506	2.74485
918.399	3.00151
921.292	6.33287
924.185	4.00337
927.077	2.08363
929.97	3.39396
932.863	4.46511
935.755	1.66056
938.648	4.90763
941.541	4.12542
944.433	1.18177
947.326	1.8345
950.219	1.70573
953.112	0.449646
956.004	1.58679
958.897	1.77665
961.79	3.58519
964.682	1.31073
967.575	3.14214
970.468	3.85557
973.361	3.32672
976.253	5.08528
979.146	6.17604
982.039	0.057095
984.931	5.73479
987.824	5.25352
990.717	0.796375
993.609	2.3857
996.502	1.09666
999.395	3.41319
1002.29	4.2436
1005.18	2.28806
1008.07	4.03719
1010.97	1.43254
1013.86	0.250931
1016.75	3.43273
1019.64	6.43544
1022.54	6.23184
1025.43	4.37708
1028.32	6.60865
1031.21	1.00154
1034.11	0.185577
1037	5.3201
1039.89	9.97831
1042.79	4.95345
1045.68	2.55376
1048.57	3.40214
1051.46	0.276596
1054.36	2.74695
1057.25	3.55265
1060.14	1.7412
1063.03	1.93994
1065.93	2.78679
1068.82	0.459198
1071.71	0.018295
1074.61	4.58591
1077.5	2.05336
1080.39	2.5889
1083.28	0.462494
1086.18	7.88412
1089.07	6.14693
1091.96	3.14937
1094.85	8.11186
1097.75	5.63242
1100.64	5.42364
1103.53	5.76716
1106.42	6.08705
1109.32	8.15816
1112.21	2.53612
1115.1	5.07509
1117.99	8.12243
1120.89	3.55867
1123.78	7.02245
1126.67	2.32184
1129.57	8.47837
1132.46	8.14741
1135.35	5.59564
1138.24	10.1944
1141.14	9.08971
1144.03	8.48496
1146.92	7.18632
1149.82	11.0229
1152.71	9.53195
1155.6	10.1446
1158.49	8.58562
1161.39	10.4895
1164.28	9.47371
1167.17	9.24342
1170.06	6.86082
1172.96	5.72683
1175.85	6.39488
1178.74	8.87072
1181.63	2.54769
1184.53	0.341949
1187.42	3.52318
1190.31	5.51085
1193.21	1.46827
1196.1	2.29978
1198.99	1.19402
1201.88	0.222775
1204.78	0.118011
1207.67	0.098701
1210.56	2.71835
1213.45	0.878948
1216.35	0.106361
1219.24	0.860569
1222.13	4.67736
1225.03	3.76149
1227.92	2.19338
1230.81	1.59944
1233.7	2.48094
1236.6	2.88409
1239.49	0.45121
1242.38	4.37517
1245.27	2.43444
1248.17	2.59308
1251.06	3.18759
1253.95	5.54394
1256.85	5.88837
1259.74	5.77027
1262.63	4.5895
1265.52	2.6766
1268.42	4.50016
1271.31	3.0339
1274.2	2.71131
1277.09	5.41143
1279.99	3.17727
1282.88	5.53149
