Measurement: Raman, 780 nm, unoriented, Raman Data Processed
Mineral: Heulandite-Ca
Rruff sample: R050097
Ideal chemistry: NaCa_4_(Si_27_Al_9_)O_72_24H_2_O
Locality: Rat's Nest Claim, Custer County, Idaho, USA
Source: John Cornish
Description: Pale pink coffin-shaped tabular single crystals
Measured chemistry: (Ca_0.66_Na_0.30_K_0.04_)_5_(Si_0.77_Al_0.23_)_36_O_72_Â·24H_2_O
Raman shift (cm-1)	intensity
192.323	0
195.216	10.1602
198.108	77.8291
201.001	42.7681
203.894	60.5586
206.786	36.2476
209.679	59.9534
212.572	67.8245
215.465	24.5561
218.357	58.2412
221.25	29.187
224.143	40.7788
227.035	7.32886
229.928	43.6487
232.821	120.873
235.714	162.281
238.606	199.273
241.499	305.549
244.392	374.798
247.284	434.553
250.177	487.79
253.07	492.937
255.962	534.743
258.855	540.215
261.748	485.879
264.64	433.44
267.533	377.674
270.426	363.178
273.319	314.959
276.211	311.87
279.104	307.425
281.997	327.193
284.889	272.371
287.782	219.35
290.675	113.2
293.567	77.9631
296.46	47.5698
299.353	53.5195
302.246	28.8691
305.138	38.2847
308.031	23.5679
310.924	19.553
313.816	17.7402
316.709	18.7358
319.602	25.7439
322.495	31.9797
325.387	62.8049
328.28	25.3347
331.173	69.6121
334.065	45.0127
336.958	43.4966
339.851	65.2656
342.743	60.7285
345.636	17.9177
348.529	72.8191
351.421	84.0657
354.314	68.8062
357.207	161.356
360.1	198.323
362.992	215.113
365.885	363.153
368.778	462.657
371.67	504.644
374.563	622.344
377.456	718.609
380.349	948.85
383.241	1065.76
386.134	1328.13
389.027	1563.64
391.919	1915.2
394.812	2274.53
397.705	2636.77
400.597	3017.61
403.49	3164.73
406.383	3164.01
409.276	2992.02
412.168	2625.8
415.061	2205.75
417.954	1741.54
420.846	1375.09
423.739	1037.98
426.632	781.909
429.524	515.429
432.417	338.821
435.31	199.267
438.202	92.5041
441.095	18.5322
443.988	1.88428
446.881	5.94678
449.773	1.44482
452.666	46.1587
455.559	141.917
458.451	297.659
461.344	509.385
464.237	703.287
467.13	904.242
470.022	1209.91
472.915	1443.37
475.808	1794.75
478.7	2115.54
481.593	2462.22
484.486	2496.74
487.378	2228.03
490.271	1711.38
493.164	1200.91
496.057	833.538
498.949	508.695
501.842	330.011
504.735	151.614
507.627	134.572
510.52	93.3042
513.413	2.65601
516.305	29.769
519.198	4.83496
522.091	13.7593
524.984	4.15967
527.876	3.74512
530.769	4.85791
533.662	11.1274
536.554	10.4854
539.447	2.84448
542.34	30.0911
545.232	44.8838
548.125	12.1316
551.018	29.0647
553.91	52.0444
556.803	85.9578
559.696	70.6331
562.589	49.4485
565.481	65.3887
568.374	97.2681
571.267	107.934
574.159	102.016
577.052	91.9718
579.945	92.8304
582.837	130.306
585.73	200.375
588.623	175.822
591.516	230.418
594.408	275.326
597.301	329.732
600.194	379.756
603.086	473.968
605.979	601.191
608.872	627.127
611.764	607.186
614.657	563.871
617.55	539.567
620.443	488.986
623.335	391.135
626.228	301.472
629.121	239.054
632.013	160.747
634.906	174.062
637.799	136.796
640.692	101.874
643.584	91.198
646.477	55.1687
649.37	68.5698
652.262	40.8723
655.155	18.0845
658.048	5.49377
660.94	59.1172
663.833	12.4154
666.726	30.8495
669.619	17.9987
672.511	20.2941
675.404	24.3677
678.297	5.45923
681.189	20.5237
684.082	25.5647
686.975	60.4592
689.867	0.186035
692.76	17.0841
695.653	18.3456
698.545	23.215
701.438	51.6508
704.331	51.2872
707.224	66.078
710.116	60.4027
713.009	93.8164
715.902	68.8361
718.794	66.2948
721.687	63.8383
724.58	37.8154
727.472	34.9559
730.365	28.9597
733.258	34.3978
736.151	33.2555
739.043	39.5566
741.936	16.6477
744.829	14.9377
747.721	58.6258
750.614	57.6008
753.507	65.7351
756.399	25.9657
759.292	57.4347
762.185	37.3577
765.078	57.3461
767.97	108.344
770.863	119.96
773.756	169.406
776.648	195.438
779.541	199.86
782.434	220.775
785.327	300.504
788.219	334.563
791.112	276.702
794.005	269.757
796.897	235.573
799.79	222.913
802.683	217.663
805.575	208.859
808.468	146.397
811.361	138.212
814.254	120.347
817.146	135.743
820.039	90.6715
822.932	90.0869
825.824	79.5294
828.717	16.3179
831.61	19.7743
834.502	20.6503
837.395	32.4722
840.288	2.44031
843.181	20.8426
846.073	4.12451
848.966	30.8344
851.859	17.3591
854.751	2.11658
857.644	31.6068
860.537	14.9673
863.429	25.078
866.322	1.06982
869.215	19.6826
872.107	24.0587
875	23.8502
877.893	33.0049
880.786	12.2352
883.678	22.8203
886.571	7.99878
889.464	29.7985
892.356	48.1581
895.249	35.5984
898.142	21.0885
901.034	17.6914
903.927	45.9654
906.82	58.4812
909.713	31.8645
912.605	53.0485
915.498	80.1576
918.391	19.1943
921.283	47.5593
924.176	62.725
927.069	27.6689
929.962	45.4382
932.854	11.7904
935.747	60.296
938.64	35.1531
941.532	33.8964
944.425	45.4436
947.318	40.0581
950.21	27.2236
953.103	31.3903
955.996	13.9297
958.889	49.5653
961.781	9.6272
964.674	27.0847
967.567	19.6266
970.459	12.7931
973.352	17.3171
976.245	12.6935
979.137	11.3579
982.03	26.5159
984.923	30.7722
987.816	47.3772
990.708	19.7885
993.601	24.698
996.494	1.44385
999.386	35.2335
1002.28	43.4464
1005.17	30.1849
1008.06	37.625
1010.96	38.6886
1013.85	28.1785
1016.74	25.9406
1019.63	22.9893
1022.53	72.0087
1025.42	54.5305
1028.31	64.2865
1031.21	35.4233
1034.1	28.2019
1036.99	41.67
1039.88	35.9774
1042.78	37.4286
1045.67	48.4512
1048.56	3.04163
1051.45	1.13574
1054.35	14.5726
1057.24	20.087
1060.13	1.88098
1063.03	13.7775
1065.92	17.5608
1068.81	22.8275
1071.7	1.67053
1074.6	69.4025
1077.49	31.5618
1080.38	73.5328
1083.28	79.1709
1086.17	84.3248
1089.06	64.8962
1091.95	80.3265
1094.85	60.0258
1097.74	91.6997
1100.63	111.576
1103.52	96.1191
1106.42	104.563
1109.31	126.979
1112.2	102.502
1115.09	120.504
1117.99	126.246
1120.88	125.414
1123.77	110.049
1126.66	119.212
1129.56	122.254
1132.45	102.34
1135.34	113.226
1138.24	127.818
1141.13	121.517
1144.02	113.099
1146.91	126.497
1149.81	102.436
1152.7	132.847
1155.59	156.259
1158.48	166.323
1161.38	125.638
1164.27	100.016
1167.16	97.8683
1170.06	76.1117
1172.95	60.6027
1175.84	56.0248
1178.73	93.5477
1181.63	49.5215
1184.52	33.853
1187.41	85.2776
1190.3	60.8763
1193.2	48.9662
1196.09	69.7108
1198.98	37.2899
1201.88	28.8502
1204.77	15.0966
1207.66	9.95459
1210.55	23.5089
1213.45	6.25232
1216.34	13.1786
1219.23	11.0775
1222.12	7.91956
1225.02	15.4764
1227.91	15.2097
1230.8	3.7428
1233.69	1.23071
1236.59	4.56201
1239.48	22.0433
1242.37	20.4762
1245.27	22.8588
1248.16	21.727
1251.05	60.7179
1253.94	38.9077
1256.84	33.4664
1259.73	34.4325
1262.62	64.515
1265.52	45.8217
1268.41	21.0585
1271.3	9.29126
1274.19	46.1133
1277.09	14.5516
