Measurement: Raman, 785 nm, unoriented, Raman Data Processed
Mineral: Heulandite-Ca
Rruff sample: R050017
Ideal chemistry: NaCa_4_(Si_27_Al_9_)O_72_24H_2_O
Locality: Poona, Maharashtra State, India
Source: Eugene Schlepp
Description: Single crystals
Measured chemistry: (Ca_.70_Na_.22_K_.02_[box]_0.06_)_5_(Si_0.77_Al_0.23_)_36_O_72_Â·24H_2_O
Raman shift (cm-1)	intensity
129.697	0
132.59	136.618
135.483	114.471
138.376	13.3275
141.268	94.0858
144.161	279.028
147.054	543.372
149.946	695.389
152.839	716.969
155.732	559.319
158.625	439.623
161.517	407.852
164.41	414.179
167.303	401.573
170.195	357.175
173.088	287.798
175.981	227.196
178.873	171.404
181.766	128.308
184.659	110.237
187.552	69.9496
190.444	59.9204
193.337	43.2581
196.23	38.0541
199.122	28.2925
202.015	18.6839
204.908	7.86591
207.8	12.848
210.693	16.6199
213.586	6.40863
216.478	11.3575
219.371	13.52
222.264	27.918
225.157	26.7808
228.049	56.4547
230.942	52.0068
233.835	75.6379
236.727	96.7004
239.62	140.694
242.513	164.447
245.405	230.787
248.298	232.512
251.191	257.259
254.084	262.452
256.976	229.969
259.869	214.548
262.762	169.894
265.654	163.727
268.547	143.147
271.44	106.984
274.332	78.9533
277.225	63.1588
280.118	47.727
283.011	38.6128
285.903	34.473
288.796	16.7831
291.689	3.45563
294.581	2.43463
297.474	4.3797
300.367	2.09393
303.26	17.6375
306.152	4.82159
309.045	16.7111
311.938	5.28204
314.83	7.77844
317.723	12.9556
320.616	3.46484
323.508	0.707153
326.401	2.55786
329.294	37.3755
332.187	35.8387
335.079	50.7291
337.972	31.6612
340.865	57.9465
343.757	75.4652
346.65	99.3886
349.543	101.424
352.435	134.297
355.328	154.129
358.221	196.596
361.113	220.23
364.006	266.551
366.899	297.504
369.792	385.483
372.684	428.798
375.577	531.152
378.47	615.415
381.362	705.514
384.255	840.553
387.148	950.795
390.041	1096.44
392.933	1294.26
395.826	1470.54
398.719	1651.26
401.611	1723.95
404.504	1719.11
407.397	1621.27
410.289	1398.91
413.182	1199.35
416.075	999.7
418.967	786.581
421.86	621.746
424.753	483.238
427.646	344.957
430.538	210.919
433.431	146.34
436.324	88.1918
439.216	27.8448
442.109	10.6744
445.002	15.7194
447.894	23.5254
450.787	7.63635
453.68	37.1587
456.573	53.1257
459.465	140.549
462.358	216.163
465.251	330.336
468.143	419.321
471.036	495.831
473.929	586.093
476.822	742.942
479.714	901.576
482.607	1059.37
485.5	1134.73
488.392	1019.73
491.285	801.549
494.178	570.372
497.07	383.056
499.963	249.303
502.856	153.954
505.748	95.3987
508.641	46.8861
511.534	42.5406
514.427	14.6879
517.319	4.85818
520.212	2.77713
523.105	3.1141
525.997	6.2309
528.89	8.53406
531.783	3.53506
534.676	3.53769
537.568	7.07043
540.461	1.41827
543.354	18.3276
546.246	7.966
549.139	8.5524
552.032	0.04364
554.924	2.1774
557.817	14.2372
560.71	30.3749
563.602	17.3828
566.495	14.8914
569.388	29.3072
572.281	32.608
575.173	44.5525
578.066	47.0227
580.959	61.6407
583.851	61.5799
586.744	84.8864
589.637	100.682
592.529	114.41
595.422	155.556
598.315	181.476
601.208	208.304
604.1	231.998
606.993	266.932
609.886	272.979
612.778	270.817
615.671	244.407
618.564	219.515
621.457	190.166
624.349	141.089
627.242	119.96
630.135	105.236
633.027	92.3122
635.92	48.4102
638.813	48.2065
641.705	51.7938
644.598	39.4676
647.491	30.6974
650.384	16.4699
653.276	18.51
656.169	16.5904
659.062	17.8539
661.954	2.96909
664.847	11.7488
667.74	15.5771
670.632	4.23889
673.525	21.015
676.418	8.70462
679.311	0.330017
682.203	1.26047
685.096	4.10059
687.989	3.49454
690.881	4.45239
693.774	0.037689
696.667	1.853
699.559	14.1573
702.452	15.4088
705.345	20.2895
708.237	17.2556
711.13	9.31674
714.023	13.9466
716.916	18.559
719.808	20.8276
722.701	21.6928
725.594	14.9109
728.486	10.0171
731.379	9.8266
734.272	0.956543
737.164	1.95291
740.057	3.74243
742.95	3.36832
745.843	12.5762
748.735	15.0962
751.628	20.3133
754.521	34.7284
757.413	30.2015
760.306	35.5707
763.199	46.6149
766.091	52.0111
768.984	64.924
771.877	89.4681
774.77	87.2875
777.662	92.9394
780.555	106.01
783.448	102.116
786.34	97.8705
789.233	115.015
792.126	85.4163
795.019	80.4235
797.911	99.3025
800.804	75.0353
803.697	65.992
806.589	87.1835
809.482	63.6335
812.375	81.446
815.267	119.715
818.16	92.1329
821.053	91.7479
823.946	54.712
826.838	63.0612
829.731	33.8302
832.624	13.7456
835.516	16.2498
838.409	10.3601
841.302	12.324
844.194	3.26781
847.087	15.4895
849.98	3.64973
852.872	7.23144
855.765	2.71364
858.658	3.01009
861.551	0.535599
864.443	0.853775
867.336	4.62614
870.229	3.0363
873.121	6.49869
876.014	8.33226
878.907	8.51195
881.799	14.5404
884.692	1.39329
887.585	16.4555
890.478	2.97131
893.37	3.93603
896.263	4.36902
899.156	8.79781
902.048	10.5929
904.941	28.7229
907.834	22.9844
910.726	27.1194
913.619	34.3095
916.512	29.1399
919.405	33.9895
922.297	9.38411
925.19	18.9961
928.083	9.29355
930.975	23.4387
933.868	7.75089
936.761	14.7292
939.654	5.77144
942.546	9.87692
945.439	17.4429
948.332	8.36066
951.224	2.60908
954.117	3.34132
957.01	12.4697
959.902	5.43835
962.795	7.43953
965.688	1.98306
968.581	10.4047
971.473	3.62581
974.366	1.96721
977.259	4.89014
980.151	6.65681
983.044	2.74442
985.937	5.04782
988.829	14.4782
991.722	16.5299
994.615	12.3127
997.508	6.47842
1000.4	16.2721
1003.29	10.7778
1006.19	27.2601
1009.08	12.9375
1011.97	17.2982
1014.86	23.982
1017.76	30.7609
1020.65	21.5367
1023.54	13.2434
1026.43	30.7046
1029.33	0.850464
1032.22	11.1443
1035.11	27.1716
1038.01	13.6284
1040.9	25.1152
1043.79	22.8449
1046.68	15.9859
1049.58	11.3199
1052.47	6.40949
1055.36	1.26086
1058.25	2.76413
1061.15	6.05011
1064.04	3.24893
1066.93	2.64764
1069.83	3.40006
1072.72	1.21997
1075.61	1.12048
1078.5	20.1768
1081.4	32.7184
1084.29	19.3119
1087.18	43.9791
1090.07	30.0154
1092.97	59.5376
1095.86	62.8702
1098.75	63.0525
1101.64	63.4298
1104.54	77.7092
1107.43	62.7716
1110.32	64.1441
1113.21	71.2
1116.11	59.1831
1119	57.9073
1121.89	55.8386
1124.79	68.6791
1127.68	76.3836
1130.57	67.1938
1133.46	67.3859
1136.36	68.9711
1139.25	60.0374
1142.14	90.8201
1145.04	65.1758
1147.93	86.6083
1150.82	67.5537
1153.71	60.8308
1156.61	63.4213
1159.5	64.3201
1162.39	51.832
1165.28	52.5802
1168.18	61.0825
1171.07	58.6745
1173.96	39.2959
1176.86	60.524
1179.75	41.9221
1182.64	40.7039
1185.53	42.7156
1188.43	26.1604
1191.32	15.257
1194.21	13.1048
1197.1	0.122437
1200	12.6608
1202.89	11.9717
1205.78	9.01483
1208.67	11.1358
1211.57	12.8038
1214.46	12.7973
1217.35	15.7897
1220.24	9.78526
1223.14	24.2842
1226.03	12.0682
1228.92	0.646378
1231.82	7.19485
