Measurement: Raman, 532 nm, unoriented, Raman Data Processed
Mineral: Heulandite-Ca
Rruff sample: R061012
Ideal chemistry: NaCa_4_(Si_27_Al_9_)O_72_24H_2_O
Locality: Patterson, New Jersey, USA
Source: Michael Scott
Description: Aggregate of white or colorless tabular coffin-shaped crystals
Measured chemistry: (Ca_2.94_Na_1.55_K_0.51_)_Σ=5_(Si_28.06_Al_7.94_)_36_O_72_·19.5H_2_O
Raman shift (cm-1)	intensity
142.253	0
145.146	120.285
148.038	243.024
150.931	348.201
153.824	662.629
156.717	963.471
159.609	1238.78
162.502	1256.55
165.395	1041.11
168.287	643.123
171.18	303.806
174.073	199.233
176.965	123.863
179.858	182.785
182.751	253.185
185.644	251.607
188.536	303.769
191.429	222.816
194.322	254.227
197.214	154.152
200.107	62.3696
203	75.2398
205.893	22.6372
208.785	50.419
211.678	70.1362
214.571	36.2353
217.463	13.8252
220.356	9.68994
223.249	55.6143
226.141	113.255
229.034	240.825
231.927	359.207
234.82	462.807
237.712	626.252
240.605	757.793
243.498	867.525
246.39	1045.46
249.283	1107.88
252.176	1058.23
255.068	1104.33
257.961	1063.59
260.854	978.926
263.747	954.939
266.639	866.958
269.532	709.336
272.425	569.377
275.317	482.623
278.21	412.894
281.103	312.515
283.995	233.33
286.888	162.139
289.781	175.219
292.673	84.9907
295.566	106.161
298.459	40.8481
301.352	75.7373
304.244	46.7183
307.137	32.1787
310.03	26.8418
312.922	3.69678
315.815	48.3296
318.708	20.5308
321.601	9.43799
324.493	5.65039
327.386	65.3682
330.279	105.118
333.171	155.19
336.064	163.594
338.957	139.436
341.849	222.394
344.742	270.224
347.635	414.262
350.527	544.7
353.42	691.004
356.313	859.885
359.206	1032.28
362.098	1289.6
364.991	1492.64
367.884	1811.5
370.776	2078.03
373.669	2269.9
376.562	2618.36
379.454	2950.45
382.347	3403.48
385.24	3779.18
388.132	4721.46
391.025	4974.1
393.918	5571.52
396.811	6111.41
399.703	6620.01
402.596	6668.4
405.489	6408.96
408.381	5904.62
411.274	5120.76
414.167	4349.76
417.06	3572.28
419.952	2744.2
422.845	2014.94
425.738	1385.64
428.63	875.923
431.523	530.517
434.416	234.885
437.308	55.8062
440.201	9.33496
443.094	48.3652
445.986	41.9155
448.879	13.5181
451.772	181.639
454.665	392.271
457.557	719.712
460.45	1191.97
463.343	1706.85
466.235	2262.37
469.128	2816.42
472.021	3561.75
474.913	4428.11
477.806	5089.43
480.699	5531.13
483.592	5154.47
486.484	4102.15
489.377	2952.35
492.27	2138.32
495.162	1371.7
498.055	903.422
500.948	592.19
503.841	333.56
506.733	108.549
509.626	74.9868
512.519	38.7756
515.411	5.93286
518.304	25.1951
521.197	25.0088
524.089	1.99316
526.982	27.8374
529.875	13.4524
532.768	11.7605
535.66	33.3247
538.553	8.86352
541.446	53.1096
544.338	95.7546
547.231	78.6072
550.124	164.936
553.016	169.987
555.909	196.412
558.802	157.691
561.694	244.865
564.587	297.387
567.48	265.317
570.373	338.614
573.265	395.378
576.158	406.295
579.051	477.665
581.943	565.878
584.836	611.942
587.729	655.683
590.621	718.916
593.514	809.729
596.407	951.913
599.3	1055.22
602.192	1252.21
605.085	1346.91
607.978	1451.29
610.87	1453.81
613.763	1379.2
616.656	1240.19
619.548	1105.04
622.441	931.135
625.334	788.456
628.227	693.916
631.119	540.922
634.012	498.307
636.905	430.873
639.797	310.971
642.69	292.026
645.583	202.147
648.475	189.362
651.368	157.732
654.261	151.82
657.154	99.5876
660.046	56.6746
662.939	18.8257
665.832	40.884
668.724	40.5693
671.617	15.6677
674.51	27.6819
677.402	7.63013
680.295	7.08496
683.188	33.9475
686.081	32.9292
688.973	38.0813
691.866	36.7671
694.759	43.5747
697.651	18.3635
700.544	60.7524
703.437	39.5
706.329	8.89355
709.222	27.2935
712.115	14.4888
715.008	36.4021
717.9	38.8716
720.793	13.2805
723.686	49.2756
726.578	9.39941
729.471	0.868652
732.364	9.49023
735.256	4.79907
738.149	6.61206
741.042	5.44189
743.934	0.268311
746.827	35.6521
749.72	76.416
752.613	82.2393
755.505	85.2339
758.398	93.4763
761.291	133.923
764.183	163.072
767.076	242.702
769.969	337.283
772.861	349.902
775.754	415.623
778.647	406.048
781.54	446.142
784.432	441.918
787.325	403.145
790.218	336.091
793.11	333.29
796.003	240.425
798.896	185.969
801.788	212.348
804.681	204.297
807.574	182.322
810.467	238.576
813.359	261.623
816.252	284.097
819.145	195.673
822.037	241.88
824.93	172.434
827.823	143.609
830.716	173.758
833.608	149.389
836.501	122.066
839.394	107.957
842.286	83.6548
845.179	89.1243
848.072	17.5034
850.964	34.6057
853.857	11.0938
856.75	17.9978
859.643	26.3645
862.535	28.8013
865.428	39.8242
868.321	8.1123
871.213	9.17505
874.106	10.1492
876.999	11.6479
879.891	28.1138
882.784	11.6675
885.677	24.4302
888.569	47.0095
891.462	44.9853
894.355	106.475
897.247	120.742
900.14	71.5205
903.033	21.9504
905.926	80.4463
908.818	16.7239
911.711	40.0251
914.604	1.5459
917.496	46.8648
920.389	1.96728
923.282	69.4519
926.174	38.971
929.067	51.4548
931.96	70.1736
934.853	67.5986
937.745	12.9998
940.638	11.9951
943.531	11.6382
946.423	14.9885
949.316	37.262
952.209	30.8008
955.101	34.2293
957.994	44.0559
960.887	34.7258
963.78	50.4565
966.672	39.4778
969.565	69.9905
972.458	111.186
975.35	77.7978
978.243	80.3589
981.136	110.463
984.029	137.671
986.921	129.95
989.814	99.1081
992.707	102.159
995.599	109.05
998.492	106.736
1001.38	178.328
1004.28	142.392
1007.17	148.216
1010.06	133.957
1012.96	89.0308
1015.85	56.897
1018.74	98.4175
1021.63	89.6633
1024.53	144.228
1027.42	103.835
1030.31	111.378
1033.2	89.5415
1036.1	84.1841
1038.99	60.439
1041.88	55.8955
1044.78	55.8887
1047.67	46.3101
1050.56	30.8711
1053.45	5.57764
1056.35	14.2266
1059.24	1.43408
1062.13	14.7705
1065.02	58.1758
1067.92	26.0391
1070.81	83.5337
1073.7	99.9214
1076.6	148.071
1079.49	128.023
1082.38	209.618
1085.27	282.666
1088.17	342.654
1091.06	341.96
1093.95	410.807
1096.84	426.846
1099.74	455.504
1102.63	522.875
1105.52	485.584
1108.41	484.364
1111.31	535.625
1114.2	513.213
1117.09	527.044
1119.98	522.729
1122.88	500.574
1125.77	525.309
1128.66	516.961
1131.56	550.707
1134.45	523.267
1137.34	467.402
1140.23	437.169
1143.13	429.093
1146.02	400.171
1148.91	424.681
1151.81	371.184
1154.7	352.052
1157.59	325.418
1160.48	320.401
1163.38	298.494
1166.27	232.768
1169.16	285.135
1172.05	243.639
1174.95	198.852
1177.84	159.655
1180.73	140.369
1183.62	88.7669
1186.52	94.9634
1189.41	75.6338
1192.3	70.7622
1195.19	47.2739
1198.09	12.635
1200.98	22.1929
1203.87	16.1174
1206.77	4.89795
1209.66	27.6086
1212.55	3.58521
1215.44	9.85376
1218.34	6.69116
1221.23	10.3001
1224.12	52.5742
1227.02	38.7356
1229.91	41.8359
1232.8	36.0923
1235.69	98.9626
1238.59	82.2703
1241.48	45.0972
1244.37	99.0195
1247.26	115.607
1250.16	73.6377
1253.05	72.5364
1255.94	79.9309
1258.84	18.0461
1261.73	49.3897
1264.62	66.8442
1267.51	107.126
1270.41	113.816
1273.3	103.39
1276.19	76.2063
1279.08	62.8957
1281.98	50.519
1284.87	47.4153
1287.76	50.3645
1290.65	63.832
1293.55	27.1467
1296.44	7.9519
