Measurement: Raman, 785 nm, unoriented, Raman Data Processed
Mineral: Heulandite-Sr
Rruff sample: R070272
Ideal chemistry: NaSr_4_(Si_27_Al_9_)O_72_24H_2_O
Locality: Campegli mine, Campegli, Castiglione Chiavarese, Genova Province, Liguria, Italy
Source: Michael Scott
Description: Classic 'coffin shaped' clear colorless crystals showing perfect 010 cleavage associated with white aragonite
Raman shift (cm-1)	intensity
143.679	0
146.572	329.253
149.464	650.062
152.357	638.806
155.25	321.131
158.142	170.523
161.035	80.0056
163.928	160.434
166.821	118.061
169.713	91.2061
172.606	56.4971
175.499	5.17481
178.391	23.3374
181.284	32.7952
184.177	18.3749
187.069	97.4264
189.962	173.03
192.855	257.864
195.748	370.991
198.64	404.661
201.533	475.656
204.426	533.067
207.318	467.832
210.211	429.459
213.104	288.472
215.996	201.043
218.889	139.764
221.782	61.0574
224.674	30.7082
227.567	21.5819
230.46	24.4508
233.353	16.6503
236.245	42.479
239.138	66.6572
242.031	96.5239
244.923	148.98
247.816	155.355
250.709	184.78
253.601	205.986
256.494	225.265
259.387	270.43
262.28	302.675
265.172	281.464
268.065	218.312
270.958	212.671
273.85	201.671
276.743	168.027
279.636	175.617
282.529	145.298
285.421	111.857
288.314	108.043
291.207	27.8357
294.099	25.9122
296.992	9.22376
299.885	5.29211
302.777	3.98743
305.67	33.5478
308.563	31.1924
311.455	16.3601
314.348	1.90002
317.241	15.391
320.134	41.8838
323.026	58.0468
325.919	49.762
328.812	90.1654
331.704	106.996
334.597	111.007
337.49	93.0576
340.382	119.314
343.275	173.728
346.168	215.149
349.061	284.889
351.953	401.058
354.846	520.822
357.739	532.282
360.631	542.303
363.524	628.758
366.417	781.396
369.31	906.76
372.202	1038.74
375.095	1249.63
377.988	1463.67
380.88	1683.29
383.773	1928.74
386.666	2289.93
389.558	2713.35
392.451	3173.43
395.344	3544.44
398.236	3975.56
401.129	4160.65
404.022	4097.02
406.915	3721.09
409.807	3359.01
412.7	2850.12
415.593	2383.13
418.485	1894.2
421.378	1474.9
424.271	1057.88
427.163	699.317
430.056	429.917
432.949	232.936
435.842	88.567
438.734	27.3981
441.627	41.6925
444.52	40.5032
447.412	52.3176
450.305	226.204
453.198	472.99
456.091	896.053
458.983	1548.66
461.876	2677.52
464.769	3551.13
467.661	3036.51
470.554	2559
473.447	2441.8
476.339	2503.72
479.232	2689.09
482.125	2675.19
485.017	2297.64
487.91	1794.97
490.803	1303.7
493.696	872.499
496.588	520.777
499.481	309.746
502.374	165.439
505.266	82.7716
508.159	44.4605
511.052	11.8218
513.944	7.61688
516.837	24.8088
519.73	14.3114
522.623	7.35053
525.515	5.09662
528.408	13.1891
531.301	1.74615
534.193	7.08136
537.086	10.9159
539.979	8.41162
542.871	18.1741
545.764	29.3307
548.657	33.3294
551.55	50.5201
554.442	74.6225
557.335	66.1141
560.228	75.0678
563.12	101.202
566.013	94.9997
568.906	92.3406
571.798	127.39
574.691	150.255
577.584	141.965
580.477	170.466
583.369	165.311
586.262	212.797
589.155	217.49
592.047	272.104
594.94	315.69
597.833	353.667
600.726	386.652
603.618	435.674
606.511	484.231
609.404	453.219
612.296	444.994
615.189	390.748
618.082	327.804
620.974	301.243
623.867	251.649
626.76	196.606
629.653	182.536
632.545	138.123
635.438	128.652
638.331	113.808
641.223	84.5858
644.116	61.5178
647.009	56.6734
649.901	28.9131
652.794	44.5959
655.687	28.3795
658.58	13.5735
661.472	5.57214
664.365	2.52536
667.258	11.8823
670.15	14.2107
673.043	7.41165
675.936	14.8485
678.828	10.8804
681.721	3.79944
684.614	20.6756
687.506	0.193817
690.399	31.7997
693.292	32.6443
696.185	44.2942
699.077	30.9126
701.97	21.0552
704.863	20.8647
707.755	1.21448
710.648	14.6105
713.541	22.2645
716.433	16.8336
719.326	7.89453
722.219	14.9957
725.112	3.5618
728.004	28.1373
730.897	24.3762
733.79	0.999664
736.682	17.9821
739.575	1.21768
742.468	10.2697
745.361	15.7643
748.253	19.8507
751.146	26.5872
754.039	44.1691
756.931	52.3319
759.824	57.4473
762.717	95.4587
765.609	105.877
768.502	103.945
771.395	124.35
774.288	139.079
777.18	113.718
780.073	125.899
782.966	98.6495
785.858	111.162
788.751	85.6493
791.644	78.743
794.536	84.922
797.429	98.0198
800.322	74.6846
803.215	103.059
806.107	110.909
809	80.3403
811.893	78.2791
814.785	83.9539
817.678	59.8709
820.571	32.5428
823.463	2.98895
826.356	33.3002
829.249	30.6807
832.141	10.4299
835.034	11.6964
837.927	19.7565
840.82	3.68005
843.712	18.5238
846.605	14.2866
849.498	2.75531
852.39	9.00479
855.283	5.76172
858.176	21.2139
861.068	13.1674
863.961	9.96945
866.854	2.76056
869.747	9.50433
872.639	19.3109
875.532	23.3702
878.425	13.9256
881.317	27.5206
884.21	26.1883
887.103	30.321
889.995	9.60327
892.888	24.9443
895.781	26.5012
898.674	27.5652
901.566	2.15814
904.459	25.3324
907.352	25.6034
910.244	10.2785
913.137	21.514
916.03	7.82492
918.923	42.2704
921.815	23.9548
924.708	18.9961
927.601	16.1307
930.493	6.46204
933.386	17.2469
936.279	8.86246
939.171	11.0188
942.064	15.0992
944.957	18.7477
947.85	5.29852
950.742	4.66892
953.635	8.04504
956.528	14.3742
959.42	18.2283
962.313	3.79712
965.206	19.8765
968.098	13.2744
970.991	4.76682
973.884	2.51642
976.777	32.3518
979.669	20.7514
982.562	22.3
985.455	36.3325
988.347	36.1777
991.24	51.8006
994.133	56.6766
997.025	60.9858
999.918	69.4266
1002.81	54.5707
1005.7	36.1938
1008.6	75.6297
1011.49	67.8996
1014.38	70.5781
1017.27	72.6394
1020.17	41.2755
1023.06	75.6364
1025.95	53.9973
1028.85	52.628
1031.74	52.2879
1034.63	21.374
1037.52	40.4283
1040.42	32.1635
1043.31	26.8172
1046.2	11.655
1049.09	5.00607
1051.99	4.53891
1054.88	15.3795
1057.77	6.74383
1060.66	5.53912
1063.56	6.74887
1066.45	30.1008
1069.34	9.17343
1072.24	5.45383
1075.13	40.55
1078.02	66.2332
1080.91	89.8758
1083.81	82.6158
1086.7	104.271
1089.59	114.069
1092.48	144.946
1095.38	159.251
1098.27	163.484
1101.16	178.848
1104.06	181.588
1106.95	168.404
1109.84	182.455
1112.73	147.211
1115.63	187.614
1118.52	166.959
1121.41	164.787
1124.3	156.221
1127.2	155.649
1130.09	170.103
1132.98	147.989
1135.88	155.613
1138.77	172.78
1141.66	168.342
1144.55	171.578
1147.45	163.218
1150.34	165.922
1153.23	187.174
1156.12	171.957
1159.02	179.151
1161.91	167.715
1164.8	144.653
1167.69	99.6506
1170.59	109.464
1173.48	95.0407
1176.37	58.683
1179.27	54.464
1182.16	54.0194
1185.05	34.6648
1187.94	31.3934
1190.84	33.3477
1193.73	2.54681
1196.62	1.47589
1199.51	11.791
1202.41	7.62704
1205.3	8.87161
1208.19	13.705
1211.09	14.8043
1213.98	7.83682
1216.87	16.0809
1219.76	4.35675
1222.66	19.1223
1225.55	16.6871
1228.44	1.91599
