Measurement: Raman, 532 nm, unoriented, Raman Data Processed
Mineral: Heulandite-Ca
Rruff sample: R050017
Ideal chemistry: NaCa_4_(Si_27_Al_9_)O_72_24H_2_O
Locality: Poona, Maharashtra State, India
Source: Eugene Schlepp
Description: Single crystals
Measured chemistry: (Ca_.70_Na_.22_K_.02_[box]_0.06_)_5_(Si_0.77_Al_0.23_)_36_O_72_Â·24H_2_O
Raman shift (cm-1)	intensity
131.823	0
135.198	229.615
138.573	600.442
141.948	610.077
145.323	588.091
148.698	709.74
152.072	904.994
155.447	896.651
158.822	781.183
162.197	604.671
165.572	511.461
168.946	432.124
172.321	411.405
175.696	313.82
179.071	226.601
182.446	110.552
185.821	77.8436
189.195	56.1245
192.57	20.7799
195.945	5.19885
199.32	5.79321
202.695	4.84302
206.07	6.11694
209.444	41.6974
212.819	14.1143
216.194	5.62366
219.569	5.65698
222.944	72.9571
226.318	76.6728
229.693	116.405
233.068	136.997
236.443	232.841
239.818	317.014
243.192	356.734
246.567	427.696
249.942	507.095
253.317	508.745
256.692	482.987
260.067	431.958
263.441	392.197
266.816	342.415
270.191	272.226
273.566	213.571
276.941	151.706
280.315	113.823
283.69	88.2595
287.065	39.4298
290.44	31.9766
293.815	15.8879
297.19	20.9839
300.564	17.1324
303.939	4.00561
307.314	0.032471
310.689	7.56274
314.064	14.2217
317.438	7.38098
320.813	23.9821
324.188	13.3214
327.563	10.0783
330.938	7.50366
334.313	24.9569
337.687	26.0576
341.062	29.9995
344.437	73.3995
347.812	96.5041
351.187	124.416
354.562	187.424
357.936	265.903
361.311	400.575
364.686	490.782
368.061	697.936
371.436	788.951
374.81	999.253
378.185	1168.99
381.56	1378.24
384.935	1630.25
388.31	2012.39
391.685	2469.07
395.059	2915.51
398.434	3275.67
401.809	3507.43
405.184	3389
408.559	3085.78
411.933	2567.55
415.308	2140.14
418.683	1602.38
422.058	1162.85
425.433	824.902
428.808	520.692
432.182	313.026
435.557	170.136
438.932	60.8932
442.307	18.558
445.682	30.8619
449.056	10.092
452.431	83.3041
455.806	281.074
459.181	484.914
462.556	761.501
465.93	969.132
469.305	1120.39
472.68	1375.25
476.055	1708.18
479.43	2189.38
482.805	2598.1
486.179	2536.56
489.554	2080.77
492.929	1417.12
496.304	861.197
499.679	497.989
503.053	270.187
506.428	120.885
509.803	57.6958
513.178	17.2071
516.553	1.27344
519.928	9.48383
523.302	4.06012
526.677	4.62323
530.052	0.525818
533.427	2.97223
536.802	9.5669
540.177	9.1817
543.551	18.3721
546.926	30.9468
550.301	36.8093
553.676	32.3289
557.051	33.6567
560.425	58.2071
563.8	54.673
567.175	57.1646
570.55	76.3456
573.925	115.605
577.299	119.458
580.674	127.204
584.049	195.426
587.424	206.249
590.799	249.506
594.174	353.45
597.548	426.877
600.923	524.375
604.298	595.879
607.673	660.624
611.048	664.662
614.423	607.798
617.797	511.946
621.172	421.023
624.547	325.189
627.922	260.83
631.297	191.313
634.671	144.293
638.046	108.076
641.421	89.4274
644.796	71.7103
648.171	32.8796
651.545	0.522949
654.92	12.4286
658.295	0.443298
661.67	13.2839
665.045	3.8783
668.42	5.68042
671.794	2.42554
675.169	6.12
678.544	6.16638
681.919	12.6519
685.294	7.87451
688.668	0.569153
692.043	3.69641
695.418	25.5723
698.793	4.48138
702.168	16.4362
705.543	37.39
708.917	51.6236
712.292	25.3765
715.667	16.7701
719.042	26.3203
722.417	26.1
725.792	26.6485
729.166	39.3496
732.541	4.94098
735.916	36.9133
739.291	13.9539
742.666	3.77197
746.04	15.3765
749.415	18.5723
752.79	29.6175
756.165	44.7274
759.54	60.7375
762.915	98.9232
766.289	122.983
769.664	127.686
773.039	175.033
776.414	201.225
779.789	195.453
783.163	224.104
786.538	234.227
789.913	233.3
793.288	231.753
796.663	203.502
800.038	204.841
803.412	187.653
806.787	150.009
810.162	164.962
813.537	172.219
816.912	163.853
820.286	160.318
823.661	99.0105
827.036	59.6539
830.411	45.0293
833.786	37.9395
837.16	7.69074
840.535	7.73755
843.91	10.482
847.285	8.43182
850.66	5.22675
854.035	1.1015
857.409	3.24457
860.784	4.56513
864.159	12.4268
867.534	18.3356
870.909	15.4366
874.284	10.4044
877.658	25.9176
881.033	14.9201
884.408	16.548
887.783	37.3533
891.158	32.0671
894.533	24.6353
897.907	14.6065
901.282	16.023
904.657	27.0591
908.032	12.3679
911.407	36.8953
914.781	31.2579
918.156	37.2949
921.531	24.8357
924.906	26.5319
928.281	24.9659
931.655	37.363
935.03	9.57858
938.405	38.4333
941.78	7.42975
945.155	2.89929
948.529	1.45871
951.904	6.54099
955.279	12.2522
958.654	9.37186
962.029	8.74741
965.404	13.6956
968.778	4.64343
972.153	4.05218
975.528	15.5024
978.903	2.89758
982.278	19.8245
985.653	2.61572
989.027	8.67621
992.402	20.2144
995.777	37.6482
999.152	52.2069
1002.53	26.6003
1005.9	62.7088
1009.28	64.1021
1012.65	70.196
1016.03	79.3229
1019.4	55.5385
1022.78	64.7444
1026.15	65.9854
1029.53	42.3342
1032.9	77.739
1036.28	83.6652
1039.65	82.7603
1043.02	80.0312
1046.4	47.7513
1049.77	44.7514
1053.15	24.9778
1056.52	10.1602
1059.9	16.6581
1063.27	3.1181
1066.65	0.296631
1070.02	12.3591
1073.4	3.8288
1076.77	23.6921
1080.15	74.2602
1083.52	68.7281
1086.9	103.055
1090.27	156.026
1093.65	142.278
1097.02	185.614
1100.4	186.837
1103.77	217.628
1107.15	197.4
1110.52	216.444
1113.9	195.437
1117.27	227.651
1120.64	206.816
1124.02	220.932
1127.39	219.185
1130.77	202.8
1134.14	227.571
1137.52	224.949
1140.89	241.614
1144.27	247.705
1147.64	243.992
1151.02	258.047
1154.39	236.53
1157.77	249.219
1161.14	249.028
1164.52	220.27
1167.89	203.599
1171.27	178.825
1174.64	153.173
1178.02	123.153
1181.39	96.655
1184.77	111.514
1188.14	64.5448
1191.52	58.6797
1194.89	45.397
1198.27	29.9705
1201.64	3.65717
1205.02	14.2976
1208.39	11.0878
1211.77	13.7909
1215.14	10.446
1218.52	8.7832
1221.89	9.77862
1225.27	6.79581
1228.64	11.0559
1232.01	11.2197
1235.39	15.0892
1238.76	0.630676
1242.14	19.296
1245.51	2.38113
1248.89	36.9083
1252.26	19.7367
1255.64	46.2858
1259.01	20.0254
1262.39	33.7136
1265.76	34.3079
1269.14	25.4978
1272.51	31.9557
1275.89	7.51166
1279.26	10.3145
1282.64	28.8276
1286.01	13.6526
1289.39	6.97623
1292.76	16.6611
1296.14	1.80536
1299.51	0.750519
