Measurement: Raman, 532 nm, unoriented, Raman Data Processed
Mineral: Heulandite-Sr
Rruff sample: R070272
Ideal chemistry: NaSr_4_(Si_27_Al_9_)O_72_24H_2_O
Locality: Campegli mine, Campegli, Castiglione Chiavarese, Genova Province, Liguria, Italy
Source: Michael Scott
Description: Classic 'coffin shaped' clear colorless crystals showing perfect 010 cleavage associated with white aragonite
Raman shift (cm-1)	intensity
134.716	0
138.091	146.708
141.466	278.177
144.841	337.236
148.215	424.818
151.59	518.376
154.965	466.003
158.34	352.547
161.715	233.869
165.09	86.0359
168.464	53.2846
171.839	8.11169
175.214	19.1669
178.589	26.5665
181.964	11.3656
185.339	103.18
188.713	199.896
192.088	355.599
195.463	499.913
198.838	651.983
202.213	789.772
205.587	806.839
208.962	697.082
212.337	584.463
215.712	370.169
219.087	259.752
222.462	144.986
225.836	55.8865
229.211	32.098
232.586	51.8757
235.961	31.1289
239.336	73.9108
242.71	107.074
246.085	193.336
249.46	176.799
252.835	191.239
256.21	232.562
259.584	310.203
262.959	382.026
266.334	301.456
269.709	216.25
273.084	167.322
276.459	160.305
279.833	146.925
283.208	149.187
286.583	93.4956
289.958	93.9131
293.333	27.1487
296.707	18.4591
300.082	22.0027
303.457	17.6399
306.832	3.58301
310.207	26.8496
313.582	20.8136
316.956	4.01123
320.331	2.37353
323.706	27.6348
327.081	55.3181
330.456	67.0702
333.83	63.8667
337.205	96.1822
340.58	128.563
343.955	174.535
347.33	209.886
350.705	322.539
354.079	490.406
357.454	456.781
360.829	480.165
364.204	562.976
367.579	683.867
370.954	826.206
374.328	957.707
377.703	1191.62
381.078	1435.62
384.453	1768.01
387.828	2109.7
391.202	2513.18
394.577	2983.14
397.952	3339.11
401.327	3590.59
404.702	3318.95
408.077	2955.58
411.451	2470.84
414.826	2011.72
418.201	1511.17
421.576	1126.23
424.951	741.549
428.325	405.354
431.7	204.809
435.075	31.8147
438.45	12.3236
441.825	-6.43577
445.2	46.063
448.574	291.617
451.949	661.037
455.324	1272.97
458.699	2526.64
462.074	4590.74
465.448	5336.62
468.823	3483
472.198	2553.78
475.573	2352.38
478.948	2408.95
482.322	2337.51
485.697	1843.39
489.072	1327.52
492.447	818.618
495.822	487.011
499.197	272.033
502.571	113.91
505.946	43.4904
509.321	5.97986
512.696	14.1831
516.071	8.2821
519.446	8.97363
522.82	16.3069
526.195	2.46442
529.57	10.9014
532.945	18.4396
536.32	34.8652
539.694	26.6059
543.069	28.0739
546.444	43.5254
549.819	45.0292
553.194	48.369
556.568	54.7238
559.943	85.8287
563.318	94.7996
566.693	93.3771
570.068	89.6202
573.443	119.961
576.817	123.898
580.192	149.094
583.567	174.985
586.942	199.835
590.317	229.757
593.692	285.1
597.066	331.852
600.441	403.889
603.816	489.192
607.191	481.109
610.566	475.223
613.94	448.868
617.315	401.247
620.69	334.346
624.065	271.344
627.44	192.138
630.814	185.074
634.189	131.025
637.564	123.797
640.939	89.8021
644.314	59.9742
647.689	63.0519
651.063	77.5525
654.438	30.1398
657.813	20.7582
661.188	39.3531
664.563	10.266
667.938	8.57977
671.312	4.28455
674.687	8.83777
678.062	0.679443
681.437	0.511597
684.812	12.6136
688.186	31.1193
691.561	55.2178
694.936	67.7878
698.311	68.9612
701.686	45.4367
705.061	9.46533
708.435	6.32971
711.81	5.11755
715.185	11.5225
718.56	16.8514
721.935	21.2553
725.309	12.3093
728.684	5.26807
732.059	23.4628
735.434	12.5854
738.809	10.3525
742.183	7.94775
745.558	21.8796
748.933	24.5205
752.308	30.1094
755.683	49.5956
759.058	92.3331
762.432	107.579
765.807	134.879
769.182	162.625
772.557	143.117
775.932	149.328
779.307	179.142
782.681	158.26
786.056	139.415
789.431	170.953
792.806	166.818
796.181	166.097
799.555	148.237
802.93	139.192
806.305	175.437
809.68	172.091
813.055	129.608
816.429	107.137
819.804	107.103
823.179	63.8816
826.554	46.4995
829.929	31.2642
833.304	16.5406
836.678	7.50964
840.053	4.05328
843.428	4.05444
846.803	0.836243
850.178	12.2885
853.553	9.48102
856.927	2.14886
860.302	6.50043
863.677	4.40546
867.052	20.0946
870.427	11.2652
873.801	4.62927
877.176	18.5062
880.551	14.5783
883.926	13.6617
887.301	17.1937
890.676	26.6569
894.05	14.8066
897.425	46.4698
900.8	29.827
904.175	28.6627
907.55	34.7648
910.924	21.3932
914.299	38.4031
917.674	26.9998
921.049	38.964
924.424	17.1606
927.798	34.4621
931.173	17.8716
934.548	11.3842
937.923	12.0903
941.298	11.4631
944.673	17.0211
948.047	19.4272
951.422	11.2167
954.797	10.2471
958.172	10.9029
961.547	5.93341
964.922	3.26025
968.296	11.2924
971.671	5.31464
975.046	3.90478
978.421	32.4685
981.796	35.4242
985.17	59.9039
988.545	66.157
991.92	30.554
995.295	72.577
998.67	69.2377
1002.04	88.182
1005.42	93.2063
1008.79	101.415
1012.17	112.932
1015.54	107.808
1018.92	100.939
1022.29	76.9363
1025.67	67.6581
1029.04	92.5456
1032.42	43.307
1035.79	38.3644
1039.17	26.2639
1042.54	32.041
1045.92	12.1998
1049.29	4.41693
1052.67	7.76837
1056.04	11.1553
1059.42	11.9879
1062.79	8.72345
1066.17	10.9253
1069.54	8.37244
1072.92	24.2685
1076.29	43.3244
1079.66	80.4376
1083.04	104.008
1086.41	92.5771
1089.79	102.745
1093.16	146.163
1096.54	140.17
1099.91	163.751
1103.29	178.387
1106.66	187.866
1110.04	167.189
1113.41	161.271
1116.79	176.204
1120.16	162.829
1123.54	171.583
1126.91	183.331
1130.29	186.655
1133.66	186.935
1137.04	163.306
1140.41	192.745
1143.79	174.117
1147.16	188.12
1150.54	192.469
1153.91	218.795
1157.29	259.216
1160.66	257.802
1164.04	207.941
1167.41	152.204
1170.79	123.228
1174.16	95.4455
1177.54	111.006
1180.91	68.4903
1184.29	38.7999
1187.66	33.1111
1191.03	36.1805
1194.41	9.04858
1197.78	29.5067
1201.16	6.60205
1204.53	9.4696
1207.91	1.60052
1211.28	19.9269
1214.66	7.14697
1218.03	10.1045
1221.41	3.84546
1224.78	4.38306
1228.16	4.92889
1231.53	9.12421
1234.91	23.1399
1238.28	23.0576
1241.66	11.1109
1245.03	20.4828
1248.41	19.91
1251.78	23.6588
1255.16	19.9883
1258.53	19.1569
1261.91	32.9919
1265.28	14.2701
1268.65	41.3345
1272.03	22.4205
1275.4	32.7336
1278.78	22.5179
1282.15	23.7878
1285.53	15.616
1288.9	18.6801
1292.28	2.65949
1295.65	22.2842
1299.03	8.72882
1302.4	38.0069
1305.78	12.9677
1309.15	0.130432
