Measurement: Raman, 785 nm, unoriented, Raman Data Processed
Mineral: Heulandite-Na
Rruff sample: R070281
Ideal chemistry: Na_4_Ca_2_Al_8_Si_28_O_72_24H_2_O
Locality: Warm Spring Creek, Challis, Custer County, Idaho, USA
Source: Michael Scott
Description: Orange tabular crystals lining a vug
Raman shift (cm-1)	intensity
159.107	0
161.999	9.65808
164.892	61.3577
167.785	63.1461
170.677	66.5951
173.57	53.6179
176.463	81.5712
179.356	54.8374
182.248	38.1085
185.141	17.208
188.034	93.5006
190.926	95.778
193.819	63.5786
196.712	111.135
199.604	77.5227
202.497	90.0914
205.39	67.8624
208.282	67.1609
211.175	10.8479
214.068	18.3723
216.961	26.1858
219.853	20.3561
222.746	14.4136
225.639	32.4309
228.531	37.312
231.424	7.54394
234.317	27.5702
237.209	67.0107
240.102	116.226
242.995	105.297
245.888	131.339
248.78	128.229
251.673	168.08
254.566	152.982
257.458	198.677
260.351	176.775
263.244	156.93
266.137	153.342
269.029	128.619
271.922	98.5732
274.815	88.4453
277.707	87.2677
280.6	64.9541
283.493	56.7153
286.385	75.166
289.278	74.1853
292.171	63.5483
295.063	52.9873
297.956	48.8949
300.849	7.68689
303.742	3.42786
306.634	21.4907
309.527	17.3048
312.42	31.8403
315.312	0.588379
318.205	35.5765
321.098	0.224487
323.99	49.6951
326.883	57.804
329.776	76.9038
332.669	67.9075
335.561	109.802
338.454	99.7407
341.347	76.589
344.239	110.26
347.132	130.957
350.025	124.508
352.918	181.605
355.81	213.539
358.703	258.057
361.596	335.728
364.488	414.616
367.381	477.106
370.274	554.721
373.166	710.071
376.059	775.617
378.952	864.77
381.844	1100.07
384.737	1229.52
387.63	1479.09
390.523	1731.28
393.415	2019.51
396.308	2365.51
399.201	2590.85
402.093	2788.45
404.986	2709.83
407.879	2486.49
410.772	2167.52
413.664	1859.27
416.557	1485.47
419.45	1235.63
422.342	919.402
425.235	695.946
428.128	515.778
431.02	287.642
433.913	178.191
436.806	77.3732
439.699	0.411987
442.591	14.6735
445.484	45.9451
448.377	14.1263
451.269	41.3173
454.162	122.406
457.055	276.651
459.947	398.479
462.84	568.86
465.733	754.024
468.625	815.178
471.518	935.749
474.411	1077.46
477.304	1231.91
480.196	1469.53
483.089	1620.02
485.982	1524.04
488.874	1268.62
491.767	936.154
494.66	650.856
497.553	423.699
500.445	211.167
503.338	163.539
506.231	91.5985
509.123	70.5251
512.016	33.0136
514.909	7.66138
517.802	6.79309
520.694	35.5136
523.587	1.64197
526.48	7.25842
529.372	27.8666
532.265	5.93677
535.158	28.3334
538.05	14.733
540.943	3.52832
543.836	28.8186
546.729	13.0457
549.621	27.6034
552.514	43.7699
555.407	45.8988
558.299	41.6351
561.192	54.4138
564.085	56.1617
566.977	60.3375
569.87	69.1762
572.763	93.3726
575.655	80.0964
578.548	94.5046
581.441	124
584.333	128.124
587.226	110.062
590.119	142.819
593.012	195.117
595.904	203.284
598.797	259.574
601.69	268.465
604.582	320.194
607.475	356.424
610.368	402.234
613.26	396.885
616.153	387.359
619.046	308.478
621.939	253.041
624.831	225.08
627.724	193.344
630.617	141.512
633.509	78.3912
636.402	90.8267
639.295	67.8791
642.188	78.2758
645.08	65.7975
647.973	38.4034
650.866	59.6238
653.758	35.8452
656.651	30.6262
659.544	20.4666
662.436	25.2859
665.329	11.967
668.222	31.7318
671.115	0.823486
674.007	13.2518
676.9	23.0152
679.793	32.5506
682.685	10.0951
685.578	17.3697
688.471	3.72882
691.363	8.16223
694.256	1.98578
697.149	28.2281
700.042	19.2358
702.934	0.783203
705.827	31.5134
708.72	38.6774
711.612	30.1514
714.505	41.0705
717.398	45.9027
720.29	30.8222
723.183	51.99
726.076	2.76318
728.968	8.75501
731.861	6.61114
734.754	4.40765
737.647	20.5424
740.539	3.49005
743.432	20.2375
746.325	38.0452
749.217	22.7556
752.11	23.9266
755.003	22.7384
757.895	47.0768
760.788	54.6129
763.681	44.8937
766.574	34.0821
769.466	62.3876
772.359	79.4846
775.252	64.5145
778.144	41.7642
781.037	84.7958
783.93	69.0339
786.822	78.1315
789.715	73.8679
792.608	44.1529
795.501	33.5102
798.393	54.1709
801.286	46.0857
804.179	46.1763
807.071	37.3282
809.964	46.3056
812.857	39.5971
815.75	58.6367
818.642	60.4233
821.535	66.4138
824.428	41.7165
827.32	28.6
830.213	48.7913
833.106	2.26733
835.998	4.84314
838.891	15.3328
841.784	13.5222
844.677	6.70532
847.569	4.73895
850.462	8.0799
853.355	12.3252
856.247	30.0658
859.14	16.7534
862.033	13.4711
864.925	13.257
867.818	2.43439
870.711	14.984
873.604	9.21442
876.496	15.958
879.389	34.2284
882.282	24.653
885.174	16.1339
888.067	17.2387
890.96	20.0195
893.852	25.5684
896.745	41.7611
899.638	25.6882
902.53	10.1329
905.423	41.5226
908.316	2.37665
911.209	30.0542
914.101	25.6081
916.994	41.4712
919.887	20.3961
922.779	31.1077
925.672	0.333801
928.565	38.2262
931.457	9.9978
934.35	0.962463
937.243	22.3536
940.136	14.4102
943.028	6.86328
945.921	13.989
948.814	2.70215
951.706	6.81537
954.599	26.0808
957.492	27.9924
960.385	24.8194
963.277	5.36646
966.17	16.3437
969.063	5.35785
971.955	17.0884
974.848	46.7239
977.741	16.2818
980.633	37.011
983.526	17.6159
986.419	49.0607
989.312	39.143
992.204	40.6856
995.097	52.4242
997.99	60.5981
1000.88	44.3424
1003.77	34.1913
1006.67	52.6248
1009.56	36.0189
1012.45	53.5853
1015.35	53.7974
1018.24	49.2354
1021.13	45.4866
1024.02	41.2313
1026.92	39.6636
1029.81	59.7053
1032.7	46.9634
1035.6	35.8542
1038.49	48.679
1041.38	31.4613
1044.27	24.8121
1047.17	38.8693
1050.06	21.0006
1052.95	35.9261
1055.84	15.7026
1058.74	15.8761
1061.63	2.71295
1064.52	20.1642
1067.41	7.58679
1070.31	1.76483
1073.2	6.92322
1076.09	16.853
1078.98	16.2742
1081.88	24.4623
1084.77	5.84369
1087.66	27.2085
1090.56	43.2258
1093.45	25.4879
1096.34	42.2446
1099.23	70.6578
1102.13	90.6352
1105.02	97.9233
1107.91	98.9871
1110.81	103.94
1113.7	119.117
1116.59	105.548
1119.48	142.585
1122.38	113.731
1125.27	111.823
1128.16	116.812
1131.05	119.749
1133.95	132.75
1136.84	115.482
1139.73	103.563
1142.62	120.669
1145.52	108.619
1148.41	102.225
1151.3	96.714
1154.19	101.366
1157.09	107.576
1159.98	95.3784
1162.87	99.2655
1165.77	72.5944
1168.66	61.0148
1171.55	62.7335
1174.44	75.6959
1177.34	77.5478
1180.23	58.3414
1183.12	51.8812
1186.02	55.4477
1188.91	50.3845
1191.8	36.3424
1194.69	45.489
1197.59	36.7355
1200.48	52.8035
1203.37	41.7277
1206.26	26.2405
1209.16	13.4456
1212.05	21.735
1214.94	19.796
1217.84	12.4689
1220.73	23.8658
1223.62	3.47028
1226.51	15.3647
1229.41	43.2936
1232.3	18.7125
