Measurement: Raman, 532 nm, unoriented, Raman Data Processed
Mineral: Heulandite-Ca
Rruff sample: R050097
Ideal chemistry: NaCa_4_(Si_27_Al_9_)O_72_24H_2_O
Locality: Rat's Nest Claim, Custer County, Idaho, USA
Source: John Cornish
Description: Pale pink coffin-shaped tabular single crystals
Measured chemistry: (Ca_0.66_Na_0.30_K_0.04_)_5_(Si_0.77_Al_0.23_)_36_O_72_Â·24H_2_O
Raman shift (cm-1)	intensity
209.801	0
212.694	83.5835
215.586	38.2864
218.479	30.179
221.372	38.6289
224.264	20.5645
227.157	48.7185
230.05	78.198
232.943	43.322
235.835	80.7666
238.728	135.507
241.621	219.71
244.513	301.789
247.406	331.197
250.299	343.286
253.191	361.213
256.084	438.234
258.977	335.424
261.87	320.091
264.762	287.132
267.655	272.623
270.548	243.391
273.44	256.676
276.333	233.513
279.226	277.306
282.118	327.957
285.011	213.194
287.904	98.8796
290.796	76.9885
293.689	39.876
296.582	15.0215
299.475	27.4329
302.367	8.76099
305.26	17.0393
308.153	22.6975
311.045	10.7832
313.938	28.9719
316.831	12.0803
319.724	6.50854
322.616	5.33887
325.509	17.9019
328.402	45.4602
331.294	19.9685
334.187	12.2373
337.08	90.9277
339.972	58.2835
342.865	40.481
345.758	99.8125
348.651	88.3
351.543	187.354
354.436	277.965
357.329	343.882
360.221	424.378
363.114	483.345
366.007	633.909
368.899	691.82
371.792	803.137
374.685	964.898
377.577	1111.28
380.47	1297.28
383.363	1514.51
386.256	1770.91
389.148	2073.16
392.041	2387.4
394.934	2820.07
397.826	3352.48
400.719	3680.15
403.612	3926.46
406.505	3843.22
409.397	3452.74
412.29	3072.25
415.183	2501.44
418.075	1973.46
420.968	1537.95
423.861	1201.89
426.753	853.009
429.646	589.696
432.539	339.895
435.432	228.69
438.324	122.618
441.217	4.02197
444.11	23.9688
447.002	33.7861
449.895	33.0156
452.788	128.185
455.68	268.822
458.573	506.444
461.466	781.56
464.358	1084.47
467.251	1269.84
470.144	1462.92
473.037	1668.92
475.929	1878.76
478.822	2162.69
481.715	2443.12
484.607	2453.89
487.5	2163.36
490.393	1621.19
493.286	1100.7
496.178	682.263
499.071	442.678
501.964	261.877
504.856	145.09
507.749	53.5459
510.642	50.3069
513.534	2.09375
516.427	47.2781
519.32	50.4348
522.212	19.1191
525.105	4.60547
527.998	2.58789
530.891	3.83911
533.783	25.7266
536.676	30.302
539.569	39.4364
542.461	43.974
545.354	6.12683
548.247	34.6975
551.139	60.6736
554.032	84.0996
556.925	83.4788
559.818	88.9618
562.71	86.1405
565.603	72.5105
568.496	84.5809
571.388	123.679
574.281	113.833
577.174	194.272
580.067	144.69
582.959	163.8
585.852	187.94
588.745	208.093
591.637	261.496
594.53	322.692
597.423	416.098
600.315	432.251
603.208	503.142
606.101	648.206
608.994	634.072
611.886	712.99
614.779	710.324
617.672	634.029
620.564	507.67
623.457	422.709
626.35	341.203
629.242	259.693
632.135	233.023
635.028	163.856
637.92	140.264
640.813	99.0953
643.706	84.4442
646.599	84.239
649.491	28.4524
652.384	26.0026
655.277	39.6936
658.169	22.7138
661.062	12.7849
663.955	16.9329
666.847	2.56226
669.74	13.071
672.633	22.1565
675.525	9.24011
678.418	4.30859
681.311	0.590332
684.204	5.54797
687.096	9.49548
689.989	2.07275
692.882	20.6421
695.774	15.2355
698.667	20.9392
701.56	6.28845
704.452	51.0188
707.345	47.3632
710.238	67.5345
713.131	99.0574
716.023	65.4525
718.916	47.413
721.809	28.8855
724.701	10.5952
727.594	0.559937
730.487	37.2208
733.38	4.15759
736.272	8.8092
739.165	33.4467
742.058	17.6381
744.95	25.3572
747.843	22.3173
750.736	53.9242
753.628	17.0139
756.521	43.298
759.414	95.375
762.307	66.5684
765.199	78.8462
768.092	135.031
770.985	116.716
773.877	163.094
776.77	162.443
779.663	147.4
782.555	147.887
785.448	146.685
788.341	120.87
791.234	137.297
794.126	138.413
797.019	157.232
799.912	120.567
802.804	120.021
805.697	112.534
808.59	133.021
811.482	159.024
814.375	167.607
817.268	135.599
820.16	156.031
823.053	119.085
825.946	104.578
828.839	38.6411
831.731	55.5349
834.624	7.40356
837.517	2.02685
840.409	9.04907
843.302	23.9202
846.195	13.5857
849.087	5.19763
851.98	63.0316
854.873	11.9907
857.766	42.7803
860.658	3.31555
863.551	41.0646
866.444	22.05
869.336	7.99439
872.229	20.4028
875.122	26.8235
878.014	1.32581
880.907	37.118
883.8	50.1671
886.693	45.3099
889.585	20.255
892.478	16.057
895.371	25.1224
898.263	27.398
901.156	8.52026
904.049	27.804
906.942	56.2129
909.834	35.7957
912.727	44.9541
915.62	38.2191
918.512	33.8641
921.405	64.3306
924.298	45.9
927.19	46.7389
930.083	42.5828
932.976	29.2944
935.869	14.3536
938.761	40.9536
941.654	7.75549
944.547	29.7854
947.439	48.7676
950.332	49.0098
953.225	59.5341
956.117	16.8265
959.01	5.37341
961.903	22.9469
964.795	16.5693
967.688	41.9772
970.581	4.7395
973.474	14.5236
976.366	44.5712
979.259	27.9727
982.152	18.5045
985.044	43.2281
987.937	28.2839
990.83	43.8696
993.722	28.2676
996.615	9.90552
999.508	28.4692
1002.4	77.4318
1005.29	55.7147
1008.19	73.2454
1011.08	54.717
1013.97	61.9647
1016.86	56.8003
1019.76	60.4023
1022.65	87.3909
1025.54	38.8499
1028.43	99.6831
1031.33	100.54
1034.22	96.6768
1037.11	24.8162
1040.01	33.7122
1042.9	36.5894
1045.79	31.4224
1048.68	44.2251
1051.58	0.513184
1054.47	12.2366
1057.36	20.2229
1060.26	33.8982
1063.15	5.66138
1066.04	12.6611
1068.93	27.885
1071.83	23.4944
1074.72	45.873
1077.61	29.9905
1080.5	62.4392
1083.4	50.2966
1086.29	50.0869
1089.18	70.0857
1092.07	100.445
1094.97	103.49
1097.86	84.6443
1100.75	120.978
1103.64	150.766
1106.54	143.721
1109.43	130.342
1112.32	203.119
1115.22	181.251
1118.11	157.228
1121	154.24
1123.89	192.729
1126.79	177.658
1129.68	143.515
1132.57	201.356
1135.46	166.934
1138.36	158.286
1141.25	191.407
1144.14	147.986
1147.04	203.223
1149.93	183
1152.82	185.246
1155.71	173.756
1158.61	190.456
1161.5	172.062
1164.39	182.493
1167.28	157.37
1170.18	164.393
1173.07	142.692
1175.96	137.188
1178.86	99.2341
1181.75	96.3521
1184.64	79.4275
1187.53	83.3599
1190.43	87.2087
1193.32	86.5737
1196.21	83.7229
1199.1	33.6997
1202	31.2959
1204.89	20.5762
1207.78	10.6868
1210.67	33.3035
1213.57	5.84741
1216.46	33.1431
1219.35	41.5583
1222.25	30.2476
1225.14	6.21021
1228.03	9.26025
1230.92	32.4853
1233.82	8.00366
1236.71	32.3972
1239.6	4.99365
1242.49	3.02563
1245.39	17.7886
1248.28	43.4514
1251.17	50.439
1254.07	66.0601
1256.96	70.387
1259.85	44.6301
1262.74	119.845
1265.64	41.9036
1268.53	23.4624
1271.42	87.2524
1274.31	64.2803
1277.21	49.7546
1280.1	3.28198
1282.99	36.1951
1285.88	30.9663
