Measurement: Raman, 514 nm, unoriented, Raman Data Processed
Mineral: Heulandite-Ca
Rruff sample: R050017
Ideal chemistry: NaCa_4_(Si_27_Al_9_)O_72_24H_2_O
Locality: Poona, Maharashtra State, India
Source: Eugene Schlepp
Description: Single crystals
Measured chemistry: (Ca_.70_Na_.22_K_.02_[box]_0.06_)_5_(Si_0.77_Al_0.23_)_36_O_72_Â·24H_2_O
Raman shift (cm-1)	intensity
103.124	0
107.3	281.83
111.473	817.482
115.644	1800.84
119.813	3782.71
123.981	4205.81
128.146	4975.4
132.309	6493.36
136.47	6787.55
140.63	8254.24
144.787	8768.48
148.942	9052.51
153.096	8554.49
157.247	7438.07
161.396	6232.86
165.544	4834.29
169.689	3503.28
173.833	2328.85
177.974	1455.32
182.114	653.107
186.251	72.262
190.387	283.432
194.52	226.469
198.652	101.076
202.782	22.565
206.909	137.203
211.035	53.199
215.159	86.646
219.281	57.966
223.4	230.014
227.518	358.113
231.634	545.94
235.748	965.71
239.86	1443.82
243.97	2170.47
248.079	2512.82
252.185	2374.38
256.289	2151.44
260.391	1774.54
264.492	1126.86
268.59	762.286
272.687	365.005
276.781	166.567
280.874	48.246
284.964	37.955
289.053	75.532
293.14	68.539
297.225	21.728
301.308	70.304
305.389	162.483
309.468	415.789
313.545	689.453
317.62	1021.62
321.693	1169.01
325.765	1446.03
329.834	1729.54
333.902	2350.12
337.967	2753.78
342.031	3309.62
346.093	4014.25
350.153	4688.18
354.21	5572.86
358.267	6639.76
362.321	7919
366.373	9410.71
370.423	10936.4
374.471	12492.7
378.518	14497.7
382.563	17102.2
386.605	20204
390.646	23866.5
394.685	28455.9
398.722	34140.2
402.757	36980.8
406.79	36989.3
410.821	33169.2
414.851	27949.9
418.878	22639.4
422.904	18330.4
426.927	14229.5
430.949	10783.6
434.969	8550.46
438.987	6519.28
443.003	5462.14
447.018	5045.6
451.03	5007.3
455.041	5654.57
459.049	6898.4
463.056	9211.36
467.061	10682.8
471.064	11592.3
475.065	13092.5
479.064	15886.5
483.062	20058.2
487.057	21169.3
491.051	17730.2
495.043	12402.7
499.032	7719.02
503.02	4881.19
507.007	3120.99
510.991	2131.67
514.973	1530.38
518.954	1172.47
522.933	933.702
526.91	723.9
530.885	470.062
534.858	411.298
538.829	354.044
542.799	254.35
546.766	108.968
550.732	71.245
554.696	57.128
558.658	92.191
562.618	135.115
566.576	157.019
570.533	67.964
574.488	8.613
578.44	76.158
582.391	377.487
586.341	549.482
590.288	992.217
594.233	1484.55
598.177	2175.31
602.119	3078.92
606.059	4023.78
609.997	4696.02
613.933	4791.8
617.868	4343.01
621.801	3571.47
625.731	2696.04
629.66	2008.64
633.588	1480.19
637.513	930.666
641.437	702.029
645.358	509.246
649.278	335.643
653.196	227.029
657.113	184.526
661.027	152.736
664.94	12.365
668.851	12.849
672.76	31.277
676.667	16.025
680.572	12.594
684.476	122.416
688.378	106.745
692.278	264.057
696.176	300.212
700.072	364.09
703.967	350.221
707.86	433.11
711.751	435.782
715.64	366.875
719.527	358.702
723.413	338.828
727.297	335.982
731.179	461.931
735.059	332.354
738.937	379.073
742.814	372.945
746.689	531.515
750.562	631.229
754.433	760.243
758.303	914.629
762.17	1165.11
766.036	1406.89
769.901	1612.65
773.763	1725.47
777.624	1923.52
781.482	1837.51
785.339	1857
789.195	1617.28
793.048	1441.25
796.9	1279.52
800.75	1222.58
804.598	1162.5
808.445	1340.03
812.289	1496.98
816.132	1944.03
819.973	2289.35
823.813	2160.2
827.65	1435.38
831.486	934.236
835.32	559.177
839.152	445.023
842.983	314.37
846.812	241.962
850.639	156.375
854.464	144.474
858.288	119.696
862.11	53.185
865.93	44.636
869.748	23.909
873.564	23.001
877.379	48.093
881.192	37.52
885.004	25.612
888.813	78.635
892.621	22.481
896.427	30.9
900.232	3.204
904.034	25.155
907.835	10.038
911.634	20.467
915.432	13.422
919.227	58.801
923.021	44.37
926.813	10.178
930.604	46.655
934.393	67.838
938.18	59.739
941.965	68.366
945.749	87.717
949.53	115.804
953.311	139.648
957.089	186.263
960.866	297.679
964.641	327.917
968.414	369.995
972.185	409.926
975.955	569.757
979.723	655.478
983.49	769.356
987.254	858.758
991.017	950.279
994.779	1019.7
998.538	1160.62
1002.3	1235.6
1006.05	1291.22
1009.81	1350.47
1013.56	1480.64
1017.31	1495.04
1021.06	1615.02
1024.81	1723.4
1028.55	1822.32
1032.3	1921.47
1036.04	1973.24
1039.78	2090.64
1043.52	2220.86
1047.26	2223.3
1050.99	2235.51
1054.73	2133.63
1058.46	2066.69
1062.19	1909.56
1065.92	1894.04
1069.65	1964.84
1073.37	2053.23
1077.1	2151.62
1080.82	2371.11
1084.54	2588.06
1088.26	2709.16
1091.97	2897.05
1095.69	3137.03
1099.4	3356.43
1103.12	3414.69
1106.83	3529.26
1110.54	3481.73
1114.24	3425.88
1117.95	3426.89
1121.65	3449.87
1125.35	3561.39
1129.06	3442.09
1132.75	3360.22
1136.45	3284.96
1140.15	3343.26
1143.84	3252.2
1147.53	3364.43
1151.22	3323.72
1154.91	3215.69
1158.6	3029.86
1162.28	3021.16
1165.97	2842.64
1169.65	2727.1
1173.33	2412.09
1177.01	2236.01
1180.69	2042.2
1184.36	1903.03
1188.04	1577.21
1191.71	1325.68
1195.38	1123.36
1199.05	957.344
1202.71	714.803
1206.38	668.944
1210.04	469.367
1213.71	395.668
1217.37	353.317
1221.03	188.019
1224.68	218.75
1228.34	193.557
1231.99	168.757
1235.65	120.741
1239.3	128.659
1242.95	77.514
1246.59	60.366
1250.24	43.826
1253.88	1.815
1257.53	21.535
1261.17	23.754
1264.81	64.453
1268.45	29.462
1272.08	33.9
1275.72	44.838
1279.35	17.04
1282.98	38.503
1286.61	3.766
1290.24	21.325
1293.87	15.352
1297.49	40.766
1301.11	38.9
1304.73	61.178
1308.36	15.5
1311.97	48.143
1315.59	3.735
1319.2	48.118
1322.82	5.34
1326.43	11.088
1330.04	21.074
1333.65	11.122
1337.26	7.734
1340.86	56.364
1344.47	25.776
1348.07	78.959
1351.67	60.29
1355.27	12.384
1358.87	95.478
1362.46	56.087
1366.06	43.421
1369.65	62.814
1373.24	59.516
1376.83	81.04
1380.42	89.078
1384	46.655
1387.59	52.756
1391.17	107.812
1394.75	81.985
1398.33	145.156
1401.91	77.783
1405.49	132.766
1409.06	71.2
1412.64	99.551
1416.21	182.964
1419.78	128.856
1423.35	146.706
1426.91	109.482
1430.48	122.141
1434.05	85.939
1437.61	161.193
1441.17	116.924
1444.73	160.528
1448.29	116.891
1451.84	26.282
1455.4	180.958
1458.95	163.608
1462.5	122.519
1466.05	123.272
1469.6	79.814
1473.15	176.182
1476.69	102.919
1480.24	98.148
1483.78	71.481
1487.32	59.497
1490.86	67.447
1494.39	85.714
1497.93	85.331
1501.46	26.701
1505	43.667
1508.53	23.476
1512.06	6.167
1515.59	55.173
1519.11	38.331
1522.64	0
