Measurement: Raman, 532 nm, unoriented, Raman Data Processed
Mineral: Hexahydrite
Rruff sample: R060051
Ideal chemistry: MgSO_4_6H_2_O
Locality: Weathered surface of a LL5 chondritic meteorite from Antarctica
Source: Kevin Righter
Description: Green single crystals that grew when the sample was thawed in its collection bag.
Raman shift (cm-1)	intensity
151.68	0
154.573	2.02023
157.466	0.223297
160.359	1.82161
163.251	2.14928
166.144	1.94531
169.037	1.44308
171.929	1.38324
174.822	1.77898
177.715	1.97742
180.607	1.83328
183.5	0.953079
186.393	1.61342
189.286	1.48564
192.178	0.524429
195.071	1.64557
197.964	0.542938
200.856	1.58943
203.749	1.74321
206.642	1.85821
209.534	0.63266
212.427	2.36733
215.32	1.30981
218.213	2.06117
221.105	3.51845
223.998	2.32132
226.891	2.17569
229.783	3.65718
232.676	2.6552
235.569	3.34522
238.461	3.66751
241.354	3.62671
244.247	3.57198
247.139	2.66316
250.032	3.80789
252.925	2.55551
255.818	2.47524
258.71	2.19685
261.603	1.47549
264.496	2.43738
267.388	3.21561
270.281	0.88028
273.174	1.33806
276.067	1.60861
278.959	0.332947
281.852	0.132645
284.745	1.47606
287.637	0.754105
290.53	0.130203
293.423	1.27223
296.315	0.884262
299.208	0.622635
302.101	1.14152
304.993	0.331192
307.886	2.54152
310.779	2.7766
313.672	2.76543
316.564	1.63097
319.457	1.74162
322.35	1.57854
325.242	1.43996
328.135	1.5292
331.028	2.18274
333.921	0.724915
336.813	1.34914
339.706	1.11623
342.599	0.647659
345.491	1.52608
348.384	0.947845
351.277	2.16681
354.169	1.92137
357.062	0.092682
359.955	1.20128
362.847	0.503601
365.74	0.635605
368.633	0.178223
371.526	1.44496
374.418	1.04367
377.311	1.0249
380.204	1.88318
383.096	1.58031
385.989	1.26753
388.882	2.62324
391.774	1.80617
394.667	1.91833
397.56	1.31538
400.452	1.75467
403.345	1.73163
406.238	0.556686
409.131	1.99794
412.023	0.109406
414.916	0.853577
417.809	0.625565
420.701	0.963867
423.594	1.34596
426.487	0.407913
429.38	1.78906
432.272	1.10432
435.165	0.033035
438.058	0.047348
440.95	1.22159
443.843	0.970551
446.736	2.00377
449.628	2.11671
452.521	1.4382
455.414	3.66036
458.307	4.04092
461.199	3.198
464.092	5.16768
466.985	3.79901
469.877	3.99805
472.77	4.25949
475.663	4.4726
478.555	5.04239
481.448	6.31297
484.341	7.94473
487.233	6.09181
490.126	3.84697
493.019	3.45126
495.912	2.99219
498.804	1.68684
501.697	1.73602
504.59	0.414047
507.482	0.160782
510.375	0.836121
513.268	0.433365
516.16	1.58958
519.053	0.164139
521.946	0.651672
524.839	0.266693
527.731	0.651047
530.624	0.791916
533.517	2.20883
536.409	0.914063
539.302	1.73857
542.195	1.66003
545.087	1.83803
547.98	0.112778
550.873	0.658554
553.766	1.3351
556.658	1.71936
559.551	1.64035
562.444	0.928955
565.336	1.74788
568.229	0.358856
571.122	0.424759
574.014	0.90065
576.907	2.10408
579.8	1.42062
582.693	2.75682
585.585	1.55768
588.478	1.22012
591.371	1.70096
594.263	0.100525
597.156	2.492
600.049	2.36408
602.941	1.61401
605.834	2.44994
608.727	1.84317
611.62	3.1014
614.512	2.08705
617.405	5.38063
620.298	4.24115
623.19	3.02394
626.083	1.98166
628.976	2.67099
631.868	0.878143
634.761	0.637543
637.654	0.461258
640.547	1.77898
643.439	1.52235
646.332	2.1454
649.225	0.483871
652.117	1.58484
655.01	0.515793
657.903	2.26623
660.795	1.21521
663.688	1.23595
666.581	0.043579
669.473	0.368835
672.366	0.790695
675.259	0.841858
678.152	1.54028
681.044	1.3324
683.937	0.628601
686.83	0.65387
689.722	0.739197
692.615	0.859436
695.508	0.673523
698.4	0.708038
701.293	0.032944
704.186	2.49527
707.079	0.968643
709.971	0.150833
712.864	1.60471
715.757	2.30145
718.649	1.74902
721.542	1.40338
724.435	0.315094
727.327	1.44466
730.22	1.9422
733.113	1.1023
736.006	0.988968
738.898	1.31093
741.791	1.9947
744.684	1.33135
747.576	0.197067
750.469	0.287476
753.362	2.16528
756.255	0.585526
759.147	0.031479
762.04	0.222336
764.933	1.54445
767.825	1.90137
770.718	0.562759
773.611	1.85495
776.503	1.48377
779.396	1.80843
782.289	1.74191
785.182	1.6476
788.074	1.45309
790.967	1.41354
793.86	1.88586
796.752	1.57648
799.645	1.18347
802.538	1.95239
805.43	1.30922
808.323	1.3349
811.216	2.03638
814.108	2.06404
817.001	1.92038
819.894	1.07346
822.787	1.27777
825.679	2.16637
828.572	2.41728
831.465	1.29512
834.357	0.647125
837.25	0.2724
840.143	1.01234
843.035	1.0249
845.928	2.59625
848.821	1.5495
851.713	1.22557
854.606	0.48735
857.499	1.00474
860.392	0.229904
863.284	0.840057
866.177	0.419296
869.07	1.33707
871.962	0.426773
874.855	0.980377
877.748	1.2757
880.64	0.27713
883.533	1.07991
886.426	0.329071
889.319	0.730072
892.211	0.712555
895.104	0.604385
897.997	1.0881
900.889	0.90065
903.782	0.925095
906.675	1.22946
909.567	1.685
912.46	1.99805
915.353	1.66136
918.245	2.11333
921.138	1.03694
924.031	1.68884
926.924	1.5425
929.816	1.40109
932.709	0.71524
935.602	1.79556
938.494	0.363205
941.387	0.54718
944.28	1.42342
947.173	0.923355
950.065	0.682327
952.958	0.870911
955.851	1.14702
958.743	1.35928
961.636	0.143967
964.529	0.453003
967.421	0.432358
970.314	0.08876
973.207	1.15155
976.1	2.55386
978.992	3.4948
981.885	7.17352
984.778	10.0851
987.67	16.5138
990.563	26.2436
993.456	39.7431
996.348	47.5602
999.241	45.3871
1002.13	28.9946
1005.03	14.9334
1007.92	5.44428
1010.81	2.78174
1013.71	1.56435
1016.6	1.82887
1019.49	1.87163
1022.38	0.349365
1025.28	1.42362
1028.17	0.875641
1031.06	1.31358
1033.95	2.14624
1036.85	1.5242
1039.74	0.818344
1042.63	0.444977
1045.52	0.002258
1048.42	0.716919
1051.31	0.630951
1054.2	0.903793
1057.1	1.10779
1059.99	1.66763
1062.88	2.13736
1065.77	2.20882
1068.67	2.66226
1071.56	1.02756
1074.45	2.54745
1077.34	1.06905
1080.24	1.76382
1083.13	2.4451
1086.02	2.25789
1088.91	1.62827
1091.81	1.61494
1094.7	0.681305
1097.59	1.86096
1100.49	3.11089
1103.38	0.674179
1106.27	0.102493
1109.16	0.953552
1112.06	1.37715
1114.95	1.00406
1117.84	0.091415
1120.73	0.925674
1123.63	0.173416
1126.52	0.795959
1129.41	0.711548
1132.31	1.37944
1135.2	0.761353
1138.09	0.328827
1140.98	0.252274
1143.88	1.94557
1146.77	2.21033
1149.66	1.83598
1152.55	1.3037
1155.45	1.05089
1158.34	1.78351
1161.23	1.04646
1164.12	0.165741
1167.02	1.37506
1169.91	0.170898
1172.8	1.83781
1175.7	0.278061
1178.59	0.605606
1181.48	1.47325
1184.37	2.60417
1187.27	1.92795
1190.16	2.07497
1193.05	0.488037
1195.94	1.41928
1198.84	1.72946
1201.73	0.767868
1204.62	0.150223
1207.52	0.815659
1210.41	1.61584
1213.3	1.16692
1216.19	1.93208
1219.09	0.807114
1221.98	0.339401
1224.87	1.05644
1227.76	2.41325
1230.66	1.73673
1233.55	0.094666
1236.44	1.29477
1239.34	0.952026
1242.23	0.820068
1245.12	1.01388
1248.01	1.62114
1250.91	1.01202
1253.8	2.31064
1256.69	1.54102
1259.58	2.30405
1262.48	1.50503
1265.37	2.05142
1268.26	0.515213
1271.15	0.915237
1274.05	1.73503
1276.94	1.12273
1279.83	0.464737
1282.73	1.41156
1285.62	0.865234
1288.51	0.232468
1291.4	0.522293
1294.3	1.364
1297.19	0.599319
1300.08	0.667633
