Measurement: Raman, 780 nm, unoriented, Raman Data Processed
Mineral: Hexahydrite
Rruff sample: R060051
Ideal chemistry: MgSO_4_6H_2_O
Locality: Weathered surface of a LL5 chondritic meteorite from Antarctica
Source: Kevin Righter
Description: Green single crystals that grew when the sample was thawed in its collection bag.
Raman shift (cm-1)	intensity
114.349	0
117.724	0.046709
121.098	0.00243
124.473	0.071648
127.848	0.115513
131.223	0.096141
134.598	0.078662
137.972	0.030849
141.347	0.065879
144.722	0.024212
148.097	0.105993
151.472	0.05673
154.847	0.116917
158.221	0.065985
161.596	0.029805
164.971	0.085809
168.346	0.090881
171.721	0.040248
175.095	0.011501
178.47	0.053078
181.845	0.052135
185.22	0.024999
188.595	0.050746
191.97	0.113123
195.344	0.117324
198.719	0.073239
202.094	0.189151
205.469	0.127665
208.844	0.129495
212.218	0.134418
215.593	0.263698
218.968	0.266496
222.343	0.326861
225.718	0.339245
229.093	0.381041
232.467	0.367203
235.842	0.321619
239.217	0.221685
242.592	0.320513
245.967	0.189199
249.341	0.246536
252.716	0.183989
256.091	0.181412
259.466	0.172424
262.841	0.127487
266.216	0.105813
269.59	0.109341
272.965	0.057598
276.34	0.097072
279.715	0.044144
283.089	0.035986
286.464	0.012897
289.839	0.07039
293.214	0.092042
296.589	0.034523
299.964	0.079541
303.338	0.101183
306.713	0.152577
310.088	0.109155
313.463	0.198941
316.838	0.044096
320.212	0.10799
323.587	0.046771
326.962	0.031412
330.337	0.023099
333.712	0.140314
337.087	0.064967
340.461	0.098973
343.836	0.081598
347.211	0.036563
350.586	0.050944
353.961	0.074996
357.335	0.079684
360.71	0.060961
364.085	0.057205
367.46	0.027833
370.835	0.041687
374.209	0.061754
377.584	0.031165
380.959	0.00358
384.334	0.016131
387.709	0.023181
391.084	0.002612
394.458	0.001378
397.833	0.024
401.208	0.016686
404.583	0.001349
407.958	0.026817
411.332	0.065805
414.707	0.009638
418.082	0.049813
421.457	0.026532
424.832	0.023018
428.207	0.050182
431.581	0.001995
434.956	0.132051
438.331	0.141405
441.706	0.117289
445.081	0.156549
448.455	0.215958
451.83	0.197186
455.205	0.249249
458.58	0.305099
461.955	0.272168
465.329	0.32709
468.704	0.372595
472.079	0.297725
475.454	0.291884
478.829	0.314696
482.204	0.341492
485.578	0.280713
488.953	0.322886
492.328	0.26598
495.703	0.209365
499.078	0.161484
502.452	0.112723
505.827	0.036125
509.202	0.084942
512.577	0.003461
515.952	0.000427
519.327	0.002702
522.701	0.045778
526.076	0.0655
529.451	0.026791
532.826	0.037117
536.201	0.010016
539.575	0.029266
542.95	0.012625
546.325	0.012254
549.7	0.026025
553.075	0.072726
556.449	0.082069
559.824	0.106079
563.199	0.062168
566.574	0.103904
569.949	0.070146
573.323	0.116565
576.698	0.170079
580.073	0.153778
583.448	0.147303
586.823	0.150048
590.198	0.148515
593.572	0.169743
596.947	0.180298
600.322	0.145573
603.697	0.181202
607.072	0.259497
610.447	0.141513
613.821	0.157377
617.196	0.237665
620.571	0.136872
623.946	0.133793
627.321	0.08525
630.695	0.136811
634.07	0.152904
637.445	0.078344
640.82	0.107055
644.195	0.092333
647.569	0.02768
650.944	0.060449
654.319	0.032193
657.694	0.038756
661.069	0.050967
664.443	0.078252
667.818	0.032031
671.193	0.011041
674.568	0.061451
677.943	0.065445
681.318	0.076538
684.692	0.032974
688.067	0.074964
691.442	0.007162
694.817	0.085365
698.192	0.023889
701.567	0.030566
704.941	0.003623
708.316	0.017299
711.691	0.071089
715.066	0.018055
718.441	0.070035
721.815	0.029228
725.19	0.006236
728.565	0.014794
731.94	0.068075
735.315	0.019603
738.689	0.05612
742.064	0.074014
745.439	0.087364
748.814	0.046399
752.189	0.061115
755.563	0.045236
758.938	0.065603
762.313	0.113376
765.688	0.034883
769.063	0.060276
772.438	0.057747
775.812	0.096767
779.187	0.01556
782.562	0.046452
785.937	0.008743
789.312	0.084909
792.687	0.07007
796.061	0.079235
799.436	0.087432
802.811	0.061434
806.186	0.058888
809.561	0.042795
812.935	0.023199
816.31	0.102711
819.685	0.029962
823.06	0.056181
826.435	0.030555
829.809	0.083068
833.184	0.089494
836.559	0.063887
839.934	0.010696
843.309	0.089648
846.683	0.094806
850.058	0.065055
853.433	0.052499
856.808	0.117658
860.183	0.04318
863.558	0.033948
866.932	0.062728
870.307	0.100753
873.682	0.015917
877.057	0.098552
880.432	0.085144
883.807	0.03427
887.181	0.013411
890.556	0.083095
893.931	0.008989
897.306	0.012621
900.681	0.040784
904.055	0.055993
907.43	0.09472
910.805	0.011413
914.18	0.017305
917.555	0.029962
920.929	0.048051
924.304	0.007246
927.679	0.013925
931.054	0.057711
934.429	0.065503
937.803	0.012714
941.178	0.044778
944.553	0.022937
947.928	0.052053
951.303	0.079963
954.678	0.022933
958.052	0.060704
961.427	0.097739
964.802	0.020834
968.177	0.054582
971.552	0.155021
974.927	0.225618
978.301	0.343183
981.676	0.589773
985.051	1.04978
988.426	1.60856
991.801	2.49544
995.175	3.08682
998.55	2.51664
1001.92	1.48144
1005.3	0.500828
1008.67	0.195826
1012.05	0.162047
1015.42	0.106485
1018.8	0.122918
1022.17	0.047105
1025.55	0.056308
1028.92	0.063817
1032.3	0.038566
1035.67	0.023757
1039.05	0.011531
1042.42	0.084037
1045.8	0.059032
1049.17	0.013853
1052.55	0.061502
1055.92	0.043168
1059.3	0.162706
1062.67	0.090717
1066.05	0.069714
1069.42	0.146903
1072.8	0.134106
1076.17	0.110629
1079.55	0.081841
1082.92	0.112612
1086.3	0.11594
1089.67	0.046599
1093.05	0.100758
1096.42	0.055775
1099.8	0.027113
1103.17	0.068384
1106.54	0.095228
1109.92	0.074691
1113.29	0.003311
1116.67	0.061915
1120.04	0.012102
1123.42	0.00424
1126.79	0.017647
1130.17	0.047579
1133.54	0.004898
1136.92	0.053027
1140.29	0.02964
1143.67	0.123952
1147.04	0.094957
1150.42	0.18699
1153.79	0.110656
1157.17	0.146994
1160.54	0.136216
1163.92	0.14461
1167.29	0.114574
1170.67	0.058737
1174.04	0.031034
1177.41	0.05543
1180.79	0.052441
1184.16	0.017688
1187.54	0.036901
1190.91	0.045066
1194.29	0.037996
1197.66	0.034455
1201.04	0.063785
1204.41	0.052825
1207.79	0.081124
1211.16	0.02994
1214.54	0.004623
1217.91	0.026415
1221.29	0.013371
1224.66	0.063131
1228.04	0.054249
1231.41	0.040331
1234.79	0.06209
1238.16	0.033046
1241.54	0.027519
1244.91	0.048275
1248.29	0.037081
1251.66	0.057702
1255.04	0.056732
1258.41	0.063459
1261.79	0.003858
1265.16	0.018695
1268.54	0.061918
1271.91	0.051985
1275.29	0.009404
1278.66	0.047629
1282.04	0.029464
