Measurement: Raman, 785 nm, unoriented, Raman Data Processed
Mineral: Hidalgoite
Rruff sample: R060683
Ideal chemistry: Pb^2+^Al_3_(S^6+^O_4_)(As^5+^O_4_)(OH)_6_
Locality: Gold Hill, Nevada, USA
Source: Bob Jenkins
Description: Aggregate of olive green spheroidal masses
Measured chemistry: light: Pb_1.00_(Al_2.60_Fe^3+^_0.40_)_Σ=3_[(As_0.85_S_0.15_)O_4_]_2_((OH)_5.30_(H_2_O)_0.70_)_Σ=6_; dark : Pb_1.00_(Al_2.76_Fe^3+^_0.24_)_Σ=3_[(As_0.75_S_0.25_)O_4_]_2_((OH)_5.49_(H_2_O)_0.51_)_Σ=6_; OH  by charge balance; traces Cu, Zn, S
Raman shift (cm-1)	intensity
147.08	0
149.973	707.395
152.866	1145.89
155.758	891.045
158.651	535.481
161.544	75.646
164.436	44.7988
167.329	1.75049
170.222	203.81
173.115	252.876
176.007	175.877
178.9	381.984
181.793	594.562
184.685	1100.52
187.578	1595.7
190.471	2306.87
193.363	3005.28
196.256	3579.16
199.149	3907.54
202.042	4042.06
204.934	4117.52
207.827	3797.07
210.72	3412.58
213.612	2941.21
216.505	2389.34
219.398	1929.31
222.29	1503.46
225.183	1242.21
228.076	1040.57
230.969	954.017
233.861	909.913
236.754	877.789
239.647	801.697
242.539	699.363
245.432	653.562
248.325	625.527
251.217	598.95
254.11	651.184
257.003	781.231
259.896	847.073
262.788	1000.89
265.681	904.439
268.574	708.484
271.466	495.275
274.359	195.993
277.252	40.123
280.144	4.34766
283.037	28.9756
285.93	51.459
288.823	16.3857
291.715	92.1904
294.608	258.93
297.501	274.873
300.393	525.066
303.286	664.176
306.179	766.319
309.071	930.226
311.964	1060.78
314.857	1122.95
317.75	1183.84
320.642	1185.11
323.535	1221
326.428	1238.15
329.32	1223.45
332.213	1210.31
335.106	1042.65
337.998	825.532
340.891	661.021
343.784	498.993
346.677	440.831
349.569	334.697
352.462	307.916
355.355	210.947
358.247	143.446
361.14	27.2959
364.033	16.2895
366.925	39.4775
369.818	94.6841
372.711	87.8769
375.603	47.0781
378.496	96.1826
381.389	44.272
384.282	30.7988
387.174	5.70752
390.067	61.2622
392.96	157.334
395.852	226.851
398.745	261.75
401.638	460.525
404.53	547.924
407.423	793.011
410.316	907.594
413.209	1235.78
416.101	1482.64
418.994	1839.85
421.887	1974.78
424.779	2123.51
427.672	2267.67
430.565	2198.77
433.457	2242.59
436.35	2092.21
439.243	2053.61
442.136	1856.18
445.028	1814.94
447.921	1655.19
450.814	1549.65
453.706	1409.52
456.599	1461.87
459.492	1603.79
462.384	1682.74
465.277	2020.96
468.17	2401.26
471.063	2801.13
473.955	3166.71
476.848	3418.22
479.741	3482.78
482.633	3248.32
485.526	2907.22
488.419	2619.75
491.311	2195.1
494.204	1905.28
497.097	1522.44
499.99	1251.86
502.882	1146.94
505.775	1053.03
508.668	1029.44
511.56	1153.83
514.453	1231.73
517.346	1328
520.239	1587.07
523.131	1838.73
526.024	2142.8
528.917	1968.32
531.809	1542.82
534.702	892.96
537.595	504.311
540.487	166.343
543.38	6.22803
546.273	112.999
549.166	136.333
552.058	126.746
554.951	74.9858
557.844	31.4038
560.736	126.339
563.629	133.533
566.522	194.642
569.414	164.051
572.307	222.808
575.2	211.47
578.093	242.916
580.985	231.304
583.878	256.338
586.771	307.164
589.663	243.648
592.556	211.762
595.449	220.772
598.341	203.268
601.234	208.727
604.127	138.531
607.019	120.362
609.912	114.231
612.805	84.981
615.698	145.569
618.59	225.462
621.483	254.326
624.376	324.333
627.268	268.948
630.161	264.276
633.054	332.668
635.946	277.925
638.839	377.239
641.732	432.438
644.625	416.807
647.517	386.75
650.41	330.316
653.303	310.289
656.195	261.383
659.088	132.825
661.981	37.7315
664.873	15.2354
667.766	17.227
670.659	11.1792
673.552	17.5122
676.444	56.373
679.337	66.2476
682.23	88.0596
685.122	187.256
688.015	138.819
690.908	142.069
693.8	91.2192
696.693	235.123
699.586	152.299
702.479	131.909
705.371	162.041
708.264	169.389
711.157	171.674
714.049	149.619
716.942	246.036
719.835	206.678
722.727	253.716
725.62	241.789
728.513	179.697
731.406	152.386
734.298	132.428
737.191	130.477
740.084	116.33
742.976	148.852
745.869	104.673
748.762	119.134
751.654	98.291
754.547	83.8213
757.44	50.0425
760.333	53.3755
763.225	48.8965
766.118	67.3745
769.011	20.6519
771.903	22.4507
774.796	59.5596
777.689	76.791
780.581	34.772
783.474	16.2363
786.367	64.3242
789.26	140.285
792.152	160.733
795.045	281.084
797.938	434.551
800.83	519.65
803.723	645.958
806.616	790.72
809.508	1036.18
812.401	1135.65
815.294	1444.61
818.187	1663.67
821.079	1845.62
823.972	2194.66
826.865	2520.16
829.757	2945.64
832.65	3424.48
835.543	4012.32
838.435	4773.64
841.328	5568.54
844.221	6279.65
847.114	6909.79
850.006	7463.11
852.899	7827.4
855.792	8018.26
858.684	8072.39
861.577	8161.19
864.47	8197.19
867.362	8133.87
870.255	8106.93
873.148	7949.09
876.041	7676
878.933	7199.48
881.826	6637.87
884.719	5772.68
887.611	5003.47
890.504	4143.64
893.397	3531.52
896.289	2935.19
899.182	2469.14
902.075	1937.04
904.968	1520.44
907.86	1243.85
910.753	994.649
913.646	787.152
916.538	580.988
919.431	454.685
922.324	285.721
925.216	206.868
928.109	50.9219
931.002	37.4517
933.894	14.0659
936.787	36.5288
939.68	88.5615
942.573	122.056
945.465	36.312
948.358	44.9507
951.251	20.8311
954.143	12.3081
957.036	51.814
959.929	15.0352
962.821	60.0674
965.714	80.644
968.607	157.132
971.5	253.71
974.392	366.143
977.285	387.908
980.178	547.892
983.07	698.004
985.963	818.586
988.856	977.32
991.748	1223.12
994.641	1427.39
997.534	1678.38
1000.43	1714.36
1003.32	1928.46
1006.21	2192.42
1009.11	2524.04
1012	2704.51
1014.89	2544.88
1017.78	2255.86
1020.68	1544.92
1023.57	916.074
1026.46	479.968
1029.35	208.023
1032.25	68.668
1035.14	17.0518
1038.03	17.5938
1040.92	12.374
1043.82	38.0855
1046.71	28.144
1049.6	37.8618
1052.49	97.1226
1055.39	84.7534
1058.28	148.567
1061.17	116.691
1064.07	138.609
1066.96	204.514
1069.85	186.407
1072.74	204.185
1075.64	282.07
1078.53	207.23
1081.42	363.301
1084.32	298.516
1087.21	311.394
1090.1	288.349
1092.99	338.503
1095.89	306.287
1098.78	288.727
1101.67	287.922
1104.56	261.755
1107.46	237.197
1110.35	288.075
1113.24	200.677
1116.13	208.367
1119.03	131.318
1121.92	118.812
1124.81	117.951
1127.7	88.5039
1130.6	90.353
1133.49	65.915
1136.38	30.2195
1139.28	60.9228
1142.17	34.7212
1145.06	11.9551
1147.95	38.8203
1150.85	3.98071
1153.74	21.5005
1156.63	10.9993
1159.53	38.7588
1162.42	19.6506
1165.31	25.6548
1168.2	52.8337
1171.1	42.1592
1173.99	5.30005
1176.88	41.7505
1179.77	33.092
1182.67	96.9238
1185.56	57.9421
1188.45	17.9668
1191.35	72.3581
1194.24	77.6231
1197.13	26.2622
1200.02	14.5454
1202.92	38.5994
1205.81	59.8083
1208.7	63.9565
1211.59	6.01636
1214.49	19.2798
1217.38	2.14648
1220.27	64.0386
1223.16	52.322
1226.06	23.3208
1228.95	16.5742
1231.84	37.4412
1234.73	13.3005
1237.63	6.52539
1240.52	26.0164
1243.41	55.4268
1246.31	47.2771
1249.2	93.1863
1252.09	143.988
1254.98	20.2051
1257.88	25.7021
1260.77	18.9138
1263.66	54.374
1266.56	0
