Measurement: Raman, 532 nm, unoriented, Raman Data Processed
Mineral: Hidalgoite
Rruff sample: R060683
Ideal chemistry: Pb^2+^Al_3_(S^6+^O_4_)(As^5+^O_4_)(OH)_6_
Locality: Gold Hill, Nevada, USA
Source: Bob Jenkins
Description: Aggregate of olive green spheroidal masses
Measured chemistry: light: Pb_1.00_(Al_2.60_Fe^3+^_0.40_)_Σ=3_[(As_0.85_S_0.15_)O_4_]_2_((OH)_5.30_(H_2_O)_0.70_)_Σ=6_; dark : Pb_1.00_(Al_2.76_Fe^3+^_0.24_)_Σ=3_[(As_0.75_S_0.25_)O_4_]_2_((OH)_5.49_(H_2_O)_0.51_)_Σ=6_; OH  by charge balance; traces Cu, Zn, S
Raman shift (cm-1)	intensity
142.736	0
145.629	92.6152
148.522	230.051
151.414	364.227
154.307	618.717
157.2	1181.27
160.092	960.589
162.985	555.341
165.878	46.9785
168.77	121.438
171.663	57.4082
174.556	264.447
177.449	813.721
180.341	1634.14
183.234	2838.29
186.127	4143.6
189.019	5653.59
191.912	6926.4
194.805	7906.96
197.697	8348.32
200.59	8623
203.483	8615.63
206.376	8337.23
209.268	7742.28
212.161	6780.21
215.054	5755.96
217.946	4818.8
220.839	3963.94
223.732	3335.89
226.624	2733.42
229.517	2422.08
232.41	2332.85
235.303	2259.21
238.195	2009.87
241.088	1909.98
243.981	1741.08
246.873	1663.6
249.766	1561.34
252.659	1433.59
255.551	1325.1
258.444	1470.69
261.337	1598.68
264.229	1513.8
267.122	1386.54
270.015	903.486
272.908	503.453
275.8	288.519
278.693	48.3379
281.586	58.3516
284.478	80.2715
287.371	99.2754
290.264	360.74
293.156	516.178
296.049	673.182
298.942	740.535
301.835	1193.32
304.727	1405.61
307.62	1730.9
310.513	1783.37
313.405	2001.76
316.298	1945.59
319.191	2048.98
322.083	1988.81
324.976	2080.3
327.869	2034.27
330.762	1947.3
333.654	1817.67
336.547	1441.36
339.44	1295.02
342.332	1052.41
345.225	753.49
348.118	547.592
351.01	519.711
353.903	382.275
356.796	121.783
359.689	28.5918
362.581	177.756
365.474	75.1152
368.367	191.715
371.259	152.443
374.152	80.6269
377.045	65.3086
379.938	128.568
382.83	167.006
385.723	44.1562
388.616	103.981
391.508	222.326
394.401	280.039
397.294	348.812
400.186	592.514
403.079	806.219
405.972	1243.98
408.865	1767.87
411.757	2302.76
414.65	2728.18
417.543	3461.8
420.435	3932.96
423.328	4265.02
426.221	4472.26
429.113	4721.25
432.006	4968.82
434.899	5103.79
437.791	5032.65
440.684	4757.46
443.577	4515.31
446.47	4237.84
449.362	4041.44
452.255	3978.62
455.148	4041.1
458.04	4335.14
460.933	4850.47
463.826	5603.42
466.718	6629.58
469.611	7766.47
472.504	8784.06
475.397	9583.78
478.289	9633.3
481.182	9247.21
484.075	8433.58
486.967	7412.97
489.86	5948.42
492.753	4774.68
495.645	3793.5
498.538	3006.8
501.431	2501.53
504.323	2260.09
507.216	2324.53
510.109	2257.27
513.002	2358.46
515.894	2456.72
518.787	2775.31
521.68	3288.08
524.572	3869.45
527.465	3747.61
530.358	3175.3
533.25	1865.78
536.143	755.414
539.036	303.703
541.929	159.869
544.821	241.408
547.714	291.723
550.607	122.25
553.499	148.305
556.392	4.41211
559.285	200.299
562.177	296.469
565.07	495.67
567.963	517.158
570.856	784.715
573.748	1068.47
576.641	645.686
579.534	669.141
582.426	651.254
585.319	743.045
588.212	720.264
591.104	757.258
593.997	494.971
596.89	313.658
599.783	491.902
602.675	333.082
605.568	324.111
608.461	194.477
611.353	278.188
614.246	398.543
617.139	375.932
620.031	674.244
622.924	802.561
625.817	774.498
628.71	721.979
631.602	540.117
634.495	632.762
637.388	675.644
640.28	714.639
643.173	734.539
646.066	792.367
648.958	940.75
651.851	816.92
654.744	647.49
657.636	319.668
660.529	227.127
663.422	26.1133
666.315	24.8008
669.207	32.7695
672.1	112.986
674.993	30.8574
677.885	43.2402
680.778	201.42
683.671	247.475
686.563	371.131
689.456	344.281
692.349	349.209
695.242	546.404
698.134	331.291
701.027	368.238
703.92	362.103
706.812	480.467
709.705	387.685
712.598	426.102
715.49	537.613
718.383	688.852
721.276	570.957
724.169	640.736
727.061	627.537
729.954	596.043
732.847	518.469
735.739	331.941
738.632	445.451
741.525	396.949
744.417	319.086
747.31	280.914
750.203	251.748
753.096	116.883
755.988	56.6934
758.881	0.658203
761.774	48.0898
764.666	247.758
767.559	105.65
770.452	86.3164
773.344	189.394
776.237	159.307
779.13	101.191
782.023	35.75
784.915	0.6875
787.808	153.994
790.701	399.889
793.593	799.021
796.486	1085.85
799.379	1184.2
802.271	1458.13
805.164	1915.68
808.057	2275.27
810.95	2761.24
813.842	3194.17
816.735	3789.47
819.628	4313.7
822.52	5029.43
825.413	5782.06
828.306	6848.31
831.198	8166.48
834.091	9349.48
836.984	11034.2
839.877	12839.7
842.769	14699.3
845.662	16372.1
848.555	17752.2
851.447	18756.2
854.34	19115.1
857.233	19668.9
860.125	20100
863.018	20401
865.911	20571
868.804	20510.6
871.696	20370.1
874.589	19938.8
877.482	18935.1
880.374	17711.9
883.267	15753
886.16	13798.8
889.052	11911.4
891.945	10003.9
894.838	8869.08
897.731	7055.44
900.623	5704.94
903.516	4584.1
906.409	3596.09
909.301	2886.7
912.194	2221.67
915.087	1627.55
917.979	1252.88
920.872	854.271
923.765	642.078
926.657	516.619
929.55	394.984
932.443	161.643
935.336	15.7012
938.228	6.23633
941.121	22.3945
944.014	239.615
946.906	218.06
949.799	245.727
952.692	124.76
955.584	101.457
958.477	25.0977
961.37	109.272
964.263	297.084
967.155	302.348
970.048	493.076
972.941	735.994
975.833	950.529
978.726	1302.37
981.619	1520.26
984.511	1733.6
987.404	1996.03
990.297	2490.38
993.19	3121.69
996.082	3815.69
998.975	4152.45
1001.87	4830.23
1004.76	5231.01
1007.65	6049.73
1010.55	6646.49
1013.44	6677.1
1016.33	5994.76
1019.22	4358.52
1022.12	2835.14
1025.01	1626.08
1027.9	721.922
1030.8	94.1328
1033.69	86.2832
1036.58	19.2363
1039.47	21.2109
1042.37	9.37305
1045.26	1.42188
1048.15	47.7148
1051.04	207.397
1053.94	310.152
1056.83	374.721
1059.72	410.269
1062.61	401.672
1065.51	523.809
1068.4	368.379
1071.29	587.91
1074.18	554.725
1077.08	628.408
1079.97	668.691
1082.86	662.678
1085.76	959.307
1088.65	879.373
1091.54	921.621
1094.43	944.041
1097.33	865.018
1100.22	901.186
1103.11	1011.64
1106.01	1030.77
1108.9	902.068
1111.79	754.307
1114.68	551.537
1117.58	557.08
1120.47	337.623
1123.36	329.934
1126.25	266.873
1129.15	371.281
1132.04	336.287
1134.93	241.961
1137.83	204.676
1140.72	172.602
1143.61	122.619
1146.5	51.2422
1149.39	34.5469
1152.29	85.3633
1155.18	113.34
1158.07	115.647
1160.97	150.869
1163.86	30.2441
1166.75	44.334
1169.64	56.8848
1172.54	165.353
1175.43	200.769
1178.32	146.826
1181.21	242.35
1184.11	221.344
1187	164.67
1189.89	79.6797
1192.79	1.20898
1195.68	43.0879
1198.57	39.002
1201.46	68.6973
1204.36	3.41602
1207.25	43.0234
1210.14	130.74
1213.04	134.32
1215.93	258.826
1218.82	106.789
1221.71	47.627
1224.61	32.5898
1227.5	73.2773
1230.39	36.3223
1233.28	119.217
1236.18	228.434
1239.07	223.238
1241.96	138.516
1244.85	204.197
1247.75	242.141
1250.64	325.166
1253.53	338.92
1256.42	176.043
1259.32	295.871
1262.21	85.3555
1265.1	9.53711
1268	205.133
1270.89	366.664
1273.78	413.25
1276.67	357.529
1279.57	156.889
1282.46	200.531
1285.35	51.2246
