Measurement: Raman, 780 nm, unoriented, Raman Data Processed
Mineral: Hilairite
Rruff sample: R080098
Ideal chemistry: Na_2_ZrSi_3_O_9_3H_2_O
Locality: St. Hilaire, Quebec, Canada
Source: William W. Pinch
Description: Pale orange rhombohedral crystals associated with calcite
Raman shift (cm-1)	intensity
149.895	0
152.788	1.13333
155.681	0.044449
158.573	1.10463
161.466	1.31226
164.359	2.21805
167.251	2.77261
170.144	3.65924
173.037	6.23288
175.93	6.43025
178.822	6.21077
181.715	4.73746
184.608	1.24974
187.5	0.856247
190.393	1.12845
193.286	0.427734
196.179	0.64151
199.071	0.65686
201.964	0.526276
204.857	0.129776
207.749	0.635208
210.642	3.01874
213.535	4.3157
216.427	6.18091
219.32	7.4594
222.213	7.21811
225.106	7.9203
227.998	7.79436
230.891	8.40375
233.784	8.51054
236.676	8.83873
239.569	10.2403
242.462	11.5548
245.354	12.6592
248.247	13.9234
251.14	15.5805
254.032	17.998
256.925	20.1953
259.818	21.583
262.711	25.3463
265.603	29.4437
268.496	32.9903
271.389	37.4789
274.281	40.1932
277.174	42.6761
280.067	42.9554
282.959	41.7803
285.852	38.0048
288.745	31.3203
291.638	29.6598
294.53	27.547
297.423	25.8504
300.316	27.4344
303.208	28.0297
306.101	29.4395
308.994	32.3798
311.887	34.5945
314.779	35.493
317.672	36.9004
320.565	37.4534
323.457	39.4781
326.35	40.4412
329.243	39.0271
332.135	36.6417
335.028	31.2312
337.921	25.7804
340.813	18.8142
343.706	11.9556
346.599	8.63406
349.492	4.93401
352.384	2.91513
355.277	2.43547
358.17	0.094894
361.062	0.817337
363.955	0.16124
366.848	0.577042
369.74	0.49321
372.633	0.264084
375.526	0.289902
378.419	0.153976
381.311	0.697464
384.204	0.369141
387.097	1.16103
389.989	0.501938
392.882	0.974686
395.775	0.831909
398.668	1.52901
401.56	1.28661
404.453	2.97377
407.346	4.30032
410.238	4.64008
413.131	4.95772
416.024	6.55544
418.916	7.39336
421.809	7.97675
424.702	9.07251
427.594	11.5002
430.487	12.2997
433.38	13.9059
436.273	15.6228
439.165	17.0419
442.058	18.1224
444.951	18.8346
447.843	17.7354
450.736	15.749
453.629	12.304
456.522	10.8162
459.414	7.35977
462.307	6.98125
465.2	4.02124
468.092	1.62239
470.985	1.84169
473.878	2.31082
476.77	2.41374
479.663	3.17804
482.556	4.49699
485.449	7.09726
488.341	8.43181
491.234	13.9024
494.127	18.2701
497.019	25.5893
499.912	37.9128
502.805	50.8493
505.697	71.8074
508.59	90.513
511.483	116.969
514.375	142.825
517.268	166.018
520.161	170.491
523.054	153.349
525.946	119.729
528.839	88.2031
531.732	63.1859
534.624	46.6297
537.517	35.2283
540.41	25.0409
543.303	20.2104
546.195	14.8562
549.088	10.0713
551.981	7.87129
554.873	5.19713
557.766	5.28383
560.659	2.86197
563.551	0.236588
566.444	2.11107
569.337	0.879013
572.23	0.185852
575.122	1.64626
578.015	0.28447
580.908	0.415283
583.8	1.37854
586.693	0.037338
589.586	1.06958
592.478	0.500992
595.371	0.148987
598.264	0.282578
601.156	1.48808
604.049	0.259277
606.942	2.07059
609.835	2.85776
612.727	3.07163
615.62	3.30038
618.513	3.38455
621.405	3.8633
624.298	5.33527
627.191	5.68248
630.083	5.51863
632.976	7.15196
635.869	5.59714
638.761	8.61908
641.654	9.43344
644.547	9.88709
647.44	11.2301
650.332	12.0045
653.225	13.193
656.118	12.2536
659.01	12.8798
661.903	11.3317
664.796	10.7508
667.688	8.97688
670.581	8.22108
673.474	5.83903
676.367	4.19704
679.259	2.83958
682.152	2.0589
685.045	1.23356
687.937	0.776001
690.83	0.0155222
693.723	0.06778
696.615	0.499854
699.508	0.220398
702.401	0.414726
705.294	1.39072
708.186	1.56548
711.079	2.50751
713.972	3.09701
716.864	4.65763
719.757	6.18728
722.65	8.04472
725.543	8.15146
728.435	8.74081
731.328	8.37734
734.221	7.14802
737.113	7.18713
740.006	5.96398
742.899	5.97881
745.791	4.80475
748.684	4.55711
751.577	4.23846
754.47	3.12731
757.362	2.88763
760.255	1.94299
763.148	2.31993
766.04	1.35179
768.933	2.70057
771.826	1.65732
774.718	1.45531
777.611	0.763748
780.504	0.807838
783.396	1.17911
786.289	0.495575
789.182	0.865135
792.075	0.787437
794.967	0.31076
797.86	0.686676
800.753	0.713989
803.645	0.850029
806.538	0.394035
809.431	0.504486
812.323	1.51473
815.216	0.793831
818.109	1.48941
821.002	1.61284
823.894	1.83977
826.787	1.3323
829.68	1.3873
832.572	2.32264
835.465	1.38123
838.358	0.22226
841.25	1.07409
844.143	0.50248
847.036	0.28862
849.929	0.095062
852.821	0.182236
855.714	0.11129
858.607	0.20295
861.5	0.630363
864.392	0.107689
867.285	0.788361
870.178	0.600647
873.07	0.90239
875.963	2.71442
878.856	2.72851
881.748	3.76437
884.641	6.54059
887.534	10.1594
890.427	12.6218
893.319	16.8509
896.212	24.3335
899.105	32.1405
901.997	42.4576
904.89	53.5147
907.783	67.7326
910.675	77.7837
913.568	83.443
916.461	81.4133
919.353	72.9511
922.246	60.3591
925.139	46.8738
928.032	36.9154
930.924	27.707
933.817	21.2568
936.71	15.3511
939.602	12.3581
942.495	11.9048
945.388	9.31227
948.28	9.59907
951.173	10.3461
954.066	11.3514
956.958	11.4682
959.851	11.6838
962.744	10.0944
965.637	8.31467
968.529	6.83341
971.422	4.13675
974.315	2.76168
977.207	2.14266
980.1	0.628868
982.993	0.011337
985.885	0.751656
988.778	0.427254
991.671	0.005974
994.564	1.12487
997.456	0.099991
1000.35	1.64933
1003.24	2.08362
1006.13	2.229
1009.03	4.09427
1011.92	6.28554
1014.81	7.36608
1017.71	10.5313
1020.6	12.0051
1023.49	14.9406
1026.38	17.1303
1029.28	17.1257
1032.17	17.3123
1035.06	15.9291
1037.95	14.5487
1040.85	14.0666
1043.74	12.7067
1046.63	11.5613
1049.53	10.3674
1052.42	9.98453
1055.31	9.43083
1058.2	10.4782
1061.1	10.7263
1063.99	9.38953
1066.88	9.13754
1069.77	7.66785
1072.67	7.70396
1075.56	5.57155
1078.45	5.30945
1081.35	4.53101
1084.24	4.43307
1087.13	3.70023
1090.02	2.05496
1092.91	2.40089
1095.81	1.96506
1098.7	1.85168
1101.59	1.01157
1104.49	1.19869
1107.38	0.371819
1110.27	1.35905
1113.16	0.745605
1116.06	0.04805
1118.95	0.443825
1121.84	0.966942
1124.73	0.882095
1127.63	0.794426
1130.52	0.533134
1133.41	0.253288
1136.31	0.26416
1139.2	0.469833
1142.09	0.5811
1144.98	0.100334
1147.88	0.813779
1150.77	0.855609
1153.66	0.017921
1156.56	0.342896
1159.45	0.708427
1162.34	1.34492
1165.23	0.3563
1168.13	1.47942
1171.02	0.733025
1173.91	1.55717
1176.8	1.96856
1179.7	0.649597
1182.59	0.830742
1185.48	0.327217
1188.38	0.734993
1191.27	0.591736
1194.16	0.390968
1197.05	1.25332
1199.94	1.03818
1202.84	0.810165
1205.73	0.99015
1208.62	1.00027
1211.52	1.08384
1214.41	1.18779
1217.3	0.643883
1220.19	0.490822
1223.09	1.26883
1225.98	1.52343
1228.87	1.3373
1231.77	0.572449
1234.66	3.01394
1237.55	1.1992
1240.44	1.0341
1243.34	0.170364
1246.23	0.933792
1249.12	0.31826
1252.01	1.55449
1254.91	1.42929
1257.8	0.963242
1260.69	0.657578
1263.59	1.71707
1266.48	0.913193
1269.37	1.27636
1272.26	0.854767
1275.16	1.34128
1278.05	0.644165
1280.94	1.99036
1283.83	1.29054
