Measurement: Raman, 532 nm, unoriented, Raman Data Processed
Mineral: Hilgardite
Rruff sample: R070426
Ideal chemistry: Ca_2_B_5_O_9_ClH_2_O
Locality: Boulby mine, Loftus, Cleveland, England, UK
Source: Michael Scott
Description: Pink to orange poorly formed crystals scattered over a pale green boracite matrix, polytype 1A
Measured chemistry: Ca_2.00_B_5_O_9_(Cl_0.95_(OH)_0.05_)_Σ=1_·H_2_O ; = darker. Trace amounts of Na ; OH by difference 1-Cl; gray: Ca_2.00_(B_4.98_Al_0.01_Fe^3+^_0.01_)_Σ=5_O_9_Cl_1.00_·H_2_O; traces of Na; B estimated by 5-Al-Fe; light: boracite
Raman shift (cm-1)	intensity
105.086	0
108.461	590.642
111.836	185.465
115.21	57.1494
118.585	32.1644
121.96	19.3063
125.335	75.8096
128.71	358.87
132.084	760.862
135.459	1352.94
138.834	1929.95
142.209	2729.36
145.584	3777.18
148.959	4256.1
152.333	4642.88
155.708	6284.74
159.083	7472.5
162.458	5718.22
165.833	2767.16
169.208	2062.92
172.582	2040.63
175.957	1670.68
179.332	1090.71
182.707	952.796
186.082	1022.65
189.456	1315.15
192.831	1918.05
196.206	2997.68
199.581	5022.15
202.956	7832.19
206.331	7270.78
209.705	2753.68
213.08	934.992
216.455	263.263
219.83	86.5759
223.205	70.6017
226.579	4.71057
229.954	58.2238
233.329	41.0618
236.704	26.0002
240.079	213.328
243.453	579.496
246.828	1166.25
250.203	1453.51
253.578	961.336
256.953	530.653
260.328	349.65
263.702	297.201
267.077	311.79
270.452	418.749
273.827	584.886
277.202	604.645
280.577	538.843
283.951	609.572
287.326	604.771
290.701	622.403
294.076	196.256
297.451	33.4132
300.825	28.022
304.2	15.183
307.575	15.7752
310.95	53.5922
314.325	150.217
317.7	304.76
321.074	526.188
324.449	397.472
327.824	379.928
331.199	514.814
334.574	912.169
337.948	1363.32
341.323	1453.32
344.698	1134.06
348.073	1134.51
351.448	1487.09
354.822	2166.76
358.197	2357.23
361.572	1511.94
364.947	1120.8
368.322	1179.66
371.697	1309.2
375.071	1370.16
378.446	1244.32
381.821	1178.49
385.196	971.531
388.571	655.002
391.945	352.399
395.32	31.1299
398.695	25.3235
402.07	6.96912
405.445	35.804
408.82	5.53772
412.194	41.7867
415.569	57.7668
418.944	116.393
422.319	279.544
425.694	559.459
429.068	1020.96
432.443	1672.64
435.818	1827.14
439.193	1386.94
442.568	1261.37
445.943	1202.67
449.317	1164.73
452.692	1506.89
456.067	2277.93
459.442	3400.78
462.817	4788.52
466.192	4909.86
469.566	2929.31
472.941	1565.79
476.316	1002.53
479.691	917.517
483.066	1036.45
486.44	899.262
489.815	325.357
493.19	127.854
496.565	30.1216
499.94	41.1578
503.315	60.5325
506.689	4.60681
510.064	30.072
513.439	16.1614
516.814	45.8942
520.189	77.9048
523.563	160.718
526.938	422.234
530.313	569.972
533.688	282.924
537.063	82.4266
540.438	51.3256
543.812	58.035
547.187	94.063
550.562	114.683
553.937	212.014
557.312	353.637
560.686	768.006
564.061	1487.19
567.436	2535.69
570.811	4230.59
574.186	4988.94
577.561	2440.4
580.935	1688.26
584.31	1677.38
587.685	950.897
591.06	819.757
594.435	1397.14
597.809	2125.47
601.184	3073.18
604.559	3835.99
607.934	2049.26
611.309	563.857
614.683	90.2513
618.058	82.8424
621.433	93.3307
624.808	128.975
628.183	465.881
631.558	894.916
634.932	1228.91
638.307	992.622
641.682	981.239
645.057	1347.93
648.432	1762.88
651.807	2157.4
655.181	2383.93
658.556	1611.36
661.931	1074.76
665.306	764.794
668.681	594.362
672.055	385.676
675.43	229.542
678.805	95.1627
682.18	170.153
685.555	392.954
688.929	781.841
692.304	1375
695.679	1959.65
699.054	2225.94
702.429	1671.67
705.804	902.574
709.178	435.025
712.553	243.271
715.928	92.1079
719.303	41.3565
722.678	172.438
726.053	422.849
729.427	585.064
732.802	196.678
736.177	7.85474
739.552	1.84509
742.927	232.957
746.301	726.132
749.676	1854.8
753.051	3729.34
756.426	6564.94
759.801	9487.91
763.176	6370.72
766.55	2597.07
769.925	1139.94
773.3	504.28
776.675	204.4
780.05	44.5243
783.424	0.800781
786.799	38.8079
790.174	52.3827
793.549	53.197
796.924	26.4274
800.298	137.547
803.673	314.381
807.048	758.076
810.423	1410.54
813.798	1938.21
817.173	1970.9
820.547	1192.31
823.922	645.577
827.297	400.294
830.672	395.383
834.047	561.552
837.421	793.909
840.796	1126.15
844.171	1157.58
847.546	939.326
850.921	1045.48
854.296	1373.37
857.67	1547.56
861.045	1243.29
864.42	742.019
867.795	391.888
871.17	215.209
874.544	111.562
877.919	54.9361
881.294	2.72272
884.669	1.08246
888.044	21.2355
891.419	3.60553
894.793	2.62756
898.168	48.4316
901.543	102.365
904.918	186.101
908.293	245.631
911.668	246.047
915.042	234.787
918.417	278.798
921.792	385.914
925.167	636.456
928.542	945.182
931.916	1098.26
935.291	853.014
938.666	589.99
942.041	381.828
945.416	260.928
948.79	160.155
952.165	72.2587
955.54	26.5818
958.915	11.6119
962.29	24.3727
965.665	58.1147
969.039	67.9343
972.414	141.189
975.789	233.175
979.164	415.812
982.539	550.115
985.913	679.755
989.288	670.071
992.663	462.833
996.038	285.679
999.413	176.885
1002.79	88.9905
1006.16	93.1865
1009.54	51.4976
1012.91	44.8163
1016.29	37.45
1019.66	0.286682
1023.04	12.403
1026.41	15.6335
1029.79	4.21472
1033.16	14.7413
1036.54	37.5793
1039.91	26.2616
1043.29	20.1122
1046.66	72.2949
1050.04	118.284
1053.41	175.098
1056.79	251.578
1060.16	377.725
1063.53	592.951
1066.91	889.888
1070.28	1279.94
1073.66	1706.29
1077.03	1908.21
1080.41	1572.95
1083.78	1054.7
1087.16	712.712
1090.53	578.328
1093.91	526.815
1097.28	512.418
1100.66	479.266
1104.03	450.752
1107.41	424.914
1110.78	296.801
1114.16	182.189
1117.53	118.888
1120.91	52.8415
1124.28	31.4628
1127.66	39.4477
1131.03	41.3954
1134.41	102.856
1137.78	142.515
1141.15	239.724
1144.53	430.179
1147.9	580.852
1151.28	791.963
1154.65	950.31
1158.03	1098.58
1161.4	885.865
1164.78	755.343
1168.15	568.694
1171.53	359.954
1174.9	245.518
1178.28	123.68
1181.65	89.8392
1185.03	83.7992
1188.4	104.574
1191.78	63.0056
1195.15	30.9288
1198.53	16.1996
1201.9	26.8326
1205.28	35.4647
1208.65	19.9017
1212.03	4.28979
1215.4	8.84021
1218.78	21.9362
1222.15	11.83
1225.53	42.6415
1228.9	8.46912
1232.28	22.5284
1235.65	39.8569
1239.03	6.39197
1242.4	48.7969
1245.77	46.1027
1249.15	6.24439
1252.52	16.4437
1255.9	53.6948
1259.27	81.2255
1262.65	7.96655
1266.02	36.9246
1269.4	60.3829
1272.77	39.0352
1276.15	30.8746
1279.52	20.0215
1282.9	66.5453
1286.27	60.9061
1289.65	105.437
1293.02	115.337
1296.4	119.406
1299.77	189.734
1303.15	140.393
1306.52	74.302
1309.9	82.6876
1313.27	34.9885
