Measurement: Raman, 785 nm, unoriented, Raman Data Processed
Mineral: Hilgardite
Rruff sample: R070426
Ideal chemistry: Ca_2_B_5_O_9_ClH_2_O
Locality: Boulby mine, Loftus, Cleveland, England, UK
Source: Michael Scott
Description: Pink to orange poorly formed crystals scattered over a pale green boracite matrix, polytype 1A
Measured chemistry: Ca_2.00_B_5_O_9_(Cl_0.95_(OH)_0.05_)_Σ=1_·H_2_O ; = darker. Trace amounts of Na ; OH by difference 1-Cl; gray: Ca_2.00_(B_4.98_Al_0.01_Fe^3+^_0.01_)_Σ=5_O_9_Cl_1.00_·H_2_O; traces of Na; B estimated by 5-Al-Fe; light: boracite
Raman shift (cm-1)	intensity
81.4956	0
84.3883	44.4976
87.281	73.9752
90.1737	89.8952
93.0664	107.514
95.9591	219.965
98.8518	239.932
101.745	138.626
104.637	72.8352
107.53	0.235291
110.423	26.0956
113.315	45.5141
116.208	6.74048
119.101	21.3243
121.993	113.798
124.886	446.779
127.779	827.6
130.672	1164.99
133.564	1772.59
136.457	2223.74
139.35	2439.64
142.242	2783.62
145.135	3951.13
148.028	5751
150.92	6857.12
153.813	7858.02
156.706	9148.12
159.599	10158.5
162.491	8516.18
165.384	5137.14
168.277	3663.8
171.169	3357.05
174.062	3100.14
176.955	2426.8
179.847	1801.72
182.74	1645.38
185.633	1803.33
188.525	2224.05
191.418	2682.54
194.311	3487.87
197.204	4873.35
200.096	7310.15
202.989	11289
205.882	12601.7
208.774	7040.47
211.667	2817.32
214.56	1235.44
217.452	524.932
220.345	210.82
223.238	124.336
226.131	55.257
229.023	24.7629
231.916	89.3723
234.809	153.214
237.701	230.523
240.594	412.34
243.487	532.642
246.38	936.374
249.272	1425.36
252.165	1256.16
255.058	647.54
257.95	388.334
260.843	202.41
263.736	18.0166
266.628	1.41943
269.521	8.88562
272.414	78.5758
275.307	208.55
278.199	143.46
281.092	30.2305
283.985	46.8872
286.877	52.4208
289.77	49.5013
292.663	5.37451
295.555	30.4611
298.448	0.056763
301.341	37.168
304.233	11.2878
307.126	39.5207
310.019	162.949
312.912	345.935
315.804	597.528
318.697	1091.44
321.59	1445.72
324.482	1046.76
327.375	983.078
330.268	1190.81
333.161	1545.21
336.053	2085.48
338.946	2637.88
341.839	2646.17
344.731	2123.07
347.624	1928.63
350.517	2154.92
353.409	2823.3
356.302	3397.03
359.195	3119.49
362.087	1905.91
364.98	1030.37
367.873	713.773
370.766	607.004
373.658	551.653
376.551	482.641
379.444	244.221
382.336	70.2505
385.229	32.8715
388.122	34.8643
391.014	32.4207
393.907	52.2803
396.8	11.6381
399.693	5.38916
402.585	2.12207
405.478	56.3654
408.371	165.886
411.263	231.729
414.156	227.325
417.049	266.125
419.942	376.891
422.834	576.553
425.727	863.608
428.62	1386.22
431.512	2300.73
434.405	2922.84
437.298	2347.4
440.19	1728
443.083	1514.98
445.976	1556.41
448.868	1604.44
451.761	1884.36
454.654	2574.83
457.547	3645.42
460.439	5170.95
463.332	6960.8
466.225	6959.56
469.117	4672.5
472.01	2607.48
474.903	1662.66
477.796	1271.72
480.688	1314.36
483.581	1628.62
486.474	1428.83
489.366	807.348
492.259	471.237
495.152	299.387
498.044	266.903
500.937	179.402
503.83	153.682
506.723	155.215
509.615	151.108
512.508	172.872
515.401	249.961
518.293	304.296
521.186	412.772
524.079	504.932
526.971	753.315
529.864	858.338
532.757	512.801
535.649	71.6033
538.542	26.0633
541.435	66.2218
544.328	68.2261
547.22	72.7116
550.113	22.9026
553.006	75.4641
555.898	173.278
558.791	479.144
561.684	1070.1
564.577	1779.01
567.469	2938.9
570.362	5241.7
573.255	7090.08
576.147	4211.3
579.04	1583.09
581.933	845.077
584.825	684.541
587.718	766.144
590.611	1114.01
593.504	1648.47
596.396	2285.9
599.289	3152.39
602.182	4345.76
605.074	4701.22
607.967	2805.38
610.86	1156.66
613.752	427.012
616.645	46.7129
619.538	37.0866
622.431	47.7427
625.323	317.151
628.216	820.339
631.109	1455.1
634.001	1889.61
636.894	1663.9
639.787	1201.42
642.679	1065.93
645.572	1270.04
648.465	1593.62
651.357	2021.21
654.25	2421.73
657.143	1768.72
660.036	1057.54
662.928	732.388
665.821	553.016
668.714	322.919
671.606	209.824
674.499	27.4915
677.392	19.6156
680.284	20.785
683.177	31.4377
686.07	179.155
688.963	471.825
691.855	850.218
694.748	1340.41
697.641	1743.8
700.533	1638.52
703.426	1118.58
706.319	598.543
709.212	261.899
712.104	105.38
714.997	9.24207
717.89	71.4645
720.782	46.9446
723.675	112.073
726.568	414.76
729.46	532.35
732.353	266.324
735.246	48.9847
738.139	73.5294
741.031	255.662
743.924	587.822
746.817	1354.58
749.709	2859.76
752.602	4916.24
755.495	8372.74
758.387	13105.6
761.28	13339.2
764.173	7927.85
767.066	3667.64
769.958	1842.54
772.851	1008.86
775.744	504.817
778.636	281.665
781.529	136.114
784.422	33.7513
787.314	34.0077
790.207	27.4158
793.1	7.6427
795.992	10.3201
798.885	83.0743
801.778	214.333
804.671	403.524
807.563	728.205
810.456	1291.74
813.349	1765.54
816.241	1870.05
819.134	1338.06
822.027	777.427
824.919	467.287
827.812	357.585
830.705	411.774
833.598	553.98
836.49	744.107
839.383	1088.57
842.276	1368.65
845.168	1259.26
848.061	1090.86
850.954	1223.87
853.846	1586.72
856.739	1903.7
859.632	1771.45
862.525	1274.85
865.417	825.189
868.31	445.162
871.203	252.153
874.095	161.979
876.988	93.4507
879.881	58.7752
882.774	9.10407
885.666	5.21893
888.559	5.09381
891.452	4.38782
894.344	32.3331
897.237	9.58264
900.13	10.0309
903.022	93.2405
905.915	134.903
908.808	193.481
911.701	237.308
914.593	236.643
917.486	316.45
920.379	417.023
923.271	632.74
926.164	966.698
929.057	1331.15
931.949	1478.48
934.842	1220.84
937.735	876.919
940.628	650.484
943.52	422.731
946.413	290.815
949.306	202.305
952.198	126.104
955.091	45.0004
957.984	1.52344
960.876	6.73981
963.769	14.0987
966.662	52.7825
969.554	43.4078
972.447	79.8
975.34	166.315
978.233	222.866
981.125	399.413
984.018	465.459
986.911	547.679
989.803	517.885
992.696	357.963
995.589	220.63
998.481	154.663
1001.37	128.591
1004.27	99.2128
1007.16	87.5093
1010.05	8.59009
1012.95	20.4292
1015.84	38.015
1018.73	1.48529
1021.62	8.48303
1024.52	18.78
1027.41	18.4929
1030.3	2.31012
1033.19	13.1536
1036.09	0.24707
1038.98	43.5646
1041.87	28.5379
1044.77	37.2238
1047.66	86.7835
1050.55	114.571
1053.44	195.744
1056.34	252.691
1059.23	411.909
1062.12	530.17
1065.01	786.001
1067.91	1067.53
1070.8	1514.98
1073.69	2032.59
1076.58	2346.13
1079.48	2121.38
1082.37	1551.47
1085.26	1025.87
1088.15	732.609
1091.05	548.636
1093.94	520.101
1096.83	493.906
1099.73	432.673
1102.62	356.957
1105.51	323.997
1108.4	275.123
1111.3	199.091
1114.19	160.918
1117.08	74.3936
1119.97	56.845
1122.87	29.9337
1125.76	5.28766
1128.65	16.1392
1131.55	18.4076
1134.44	79.2841
1137.33	151.604
1140.22	239.162
1143.12	346.869
1146.01	478.548
1148.9	656.594
1151.8	840.172
1154.69	1003
1157.58	1068.59
1160.47	1000.14
1163.37	864.369
1166.26	676.316
1169.15	522.487
1172.04	324.847
1174.94	231.412
1177.83	133.69
1180.72	91.9649
1183.61	101.206
1186.51	113.28
1189.4	31.472
1192.29	55.0987
1195.18	50.0848
1198.08	29.6801
1200.97	30.7801
1203.86	9.25275
1206.76	0.213074
1209.65	9.72937
1212.54	7.01886
1215.43	43.087
1218.33	27.6371
1221.22	43.3531
1224.11	17.1862
1227.01	20.4274
1229.9	9.50067
