Measurement: Raman, 532 nm, unoriented, Raman Data Processed
Mineral: Hilgardite
Rruff sample: R070427
Ideal chemistry: Ca_2_B_5_O_9_ClH_2_O
Locality: Boulby mine, Loftus, Cleveland, England, UK
Source: Michael Scott
Description: Massive etched pink crystallline associated with pale green boracite, polytype 3TC
Raman shift (cm-1)	intensity
134.013	0
136.906	6.98731
139.798	160.102
142.691	210.494
145.584	297.473
148.476	342.265
151.369	667.197
154.262	1326.94
157.155	1461.7
160.047	1052.03
162.94	903.739
165.833	927.749
168.725	1100.91
171.618	1423.72
174.511	1433.11
177.404	1318.26
180.296	1008.79
183.189	604.768
186.082	342.187
188.974	316.358
191.867	488.513
194.76	793.528
197.652	1192.94
200.545	1795.19
203.438	2364.45
206.331	2736.33
209.223	1862.57
212.116	664.544
215.009	153.061
217.901	11.5215
220.794	22.0143
223.687	2.66943
226.579	79.0425
229.472	8.93359
232.365	3.17139
235.257	6.73938
238.15	7.44238
241.043	96.7607
243.936	289.955
246.828	510.556
249.721	582.25
252.614	558.305
255.506	535.582
258.399	559.152
261.292	518.317
264.185	387.316
267.077	336.541
269.97	348.632
272.863	497.701
275.755	624.284
278.648	589.856
281.541	683.756
284.433	835.106
287.326	917.531
290.219	895.325
293.111	584.205
296.004	26.3381
298.897	27.287
301.79	2.16846
304.682	8.45459
307.575	5.79163
310.468	8.16065
313.36	21.2366
316.253	59.8207
319.146	146.657
322.038	263.164
324.931	341.529
327.824	565.386
330.717	806.606
333.609	1236.97
336.502	1668.86
339.395	1692.66
342.287	1218.12
345.18	805.087
348.073	653.475
350.966	731.24
353.858	912.737
356.751	1167.01
359.644	1216.2
362.536	965.869
365.429	982.553
368.322	1337.79
371.214	1704.47
374.107	2113.07
377	2179.2
379.892	1712.66
382.785	1353.18
385.678	1072.44
388.571	724.979
391.463	419.254
394.356	93.5981
397.249	39.0496
400.142	8.7948
403.034	25.9249
405.927	36.0391
408.82	59.2766
411.712	115.145
414.605	55.7001
417.498	76.0256
420.39	121.987
423.283	194.564
426.176	333.285
429.068	515.895
431.961	719.723
434.854	635.226
437.747	447.849
440.639	312.896
443.532	370.62
446.425	415.932
449.317	559.168
452.21	772.917
455.103	1180.97
457.995	1518.94
460.888	1719.32
463.781	1462.59
466.674	798.276
469.566	372.31
472.459	306.634
475.352	317.008
478.244	449.017
481.137	691.979
484.03	899.708
486.923	723.488
489.815	244.496
492.708	63.4443
495.601	12.205
498.493	1.42041
501.386	21.5117
504.279	13.3137
507.171	18.0186
510.064	26.2646
512.957	7.19531
515.85	33.3408
518.742	49.9863
521.635	103.233
524.528	173.711
527.42	240.151
530.313	303.145
533.206	233.57
536.098	94.939
538.991	79.8484
541.884	80.0454
544.777	69.5413
547.669	142.945
550.562	151.067
553.455	234.37
556.347	376.395
559.24	619.114
562.133	1142.39
565.025	1820.08
567.918	2752.37
570.811	4087.08
573.704	4454.89
576.596	2391.47
579.489	1500
582.382	1302.76
585.274	1051.86
588.167	549.567
591.06	339.365
593.952	416.911
596.845	510.226
599.738	514.899
602.631	413.138
605.523	243.012
608.416	141.315
611.309	40.5523
614.201	5.40369
617.094	59.8586
619.987	23.1508
622.88	30.9387
625.772	156.646
628.665	307.091
631.558	404.721
634.45	479.054
637.343	414.131
640.236	414.873
643.128	530.76
646.021	690.377
648.914	830.312
651.807	804.172
654.699	758.872
657.592	541.407
660.485	387.221
663.377	356.633
666.27	242.749
669.163	189.077
672.055	156.532
674.948	53.3489
677.841	36.3826
680.734	44.7869
683.626	150.953
686.519	245.594
689.412	450.461
692.304	677.926
695.197	874.441
698.09	933.197
700.982	769.999
703.875	592.422
706.768	390.447
709.66	230.289
712.553	160.505
715.446	96.1125
718.339	24.0179
721.231	2.0304
724.124	16.2942
727.017	18.0184
729.909	14.0687
732.802	11.2336
735.695	40.2874
738.587	84.8596
741.48	233.841
744.373	421.707
747.266	983.038
750.158	1884.91
753.051	3156.87
755.944	4902.14
758.836	6817.07
761.729	6349.4
764.622	3423.12
767.514	1715.58
770.407	982.264
773.3	534.751
776.193	294.776
779.085	129.741
781.978	67.7703
784.871	39.4495
787.763	0.229004
790.656	14.332
793.549	11.8359
796.442	6.56128
799.334	56.2346
802.227	103.02
805.12	188.685
808.012	338.741
810.905	556.625
813.798	676.745
816.69	747.719
819.583	537.876
822.476	271.246
825.369	165.654
828.261	108.19
831.154	137.918
834.047	225.241
836.939	390.03
839.832	481.721
842.725	516.99
845.617	397.615
848.51	387.319
851.403	463.856
854.296	643.136
857.188	759.099
860.081	654.634
862.974	477.977
865.866	321.804
868.759	188.88
871.652	104.198
874.544	44.3083
877.437	38.6135
880.33	9.5011
883.223	14.5781
886.115	3.6189
889.008	1.02026
891.901	7.41504
894.793	14.4563
897.686	17.7848
900.579	13.8237
903.471	13.7245
906.364	41.8845
909.257	43.1357
912.15	65.4722
915.042	99.1016
917.935	155.956
920.828	210.144
923.72	279.132
926.613	461.287
929.506	654.408
932.399	634.134
935.291	494.967
938.184	379.201
941.077	296.831
943.969	223.145
946.862	151.602
949.755	135.743
952.647	83.7423
955.54	92.2976
958.433	44.6787
961.326	57.5984
964.218	31.4287
967.111	21.5538
970.004	3.60522
972.896	30.9595
975.789	27.1332
978.682	23.4779
981.574	7.11035
984.467	48.2493
987.36	2.09778
990.253	35.272
993.145	28.7098
996.038	14.0221
998.931	29.5381
1001.82	11.3614
1004.72	78.135
1007.61	107.006
1010.5	149.454
1013.39	205.095
1016.29	208.597
1019.18	169.289
1022.07	139.856
1024.96	60.9602
1027.86	45.3698
1030.75	39.9801
1033.64	44.1936
1036.54	103.362
1039.43	133.906
1042.32	182.205
1045.21	243.808
1048.11	304.945
1051	325.379
1053.89	285.095
1056.79	228.276
1059.68	190.24
1062.57	121.264
1065.46	65.8954
1068.36	36.166
1071.25	42.6295
1074.14	15.6699
1077.03	9.71094
1079.93	4.66846
1082.82	13.4327
1085.71	77.3934
1088.6	110.518
1091.5	218.812
1094.39	298.367
1097.28	363.775
1100.17	400.216
1103.07	438.591
1105.96	421.384
1108.85	318.145
1111.75	237.394
1114.64	188.591
1117.53	152.624
1120.42	98.5396
1123.32	96.4247
1126.21	109.925
1129.1	130.053
1131.99	158.717
1134.89	233.562
1137.78	307.072
1140.67	451.405
1143.57	533.005
1146.46	527.345
1149.35	528.225
1152.24	458.992
1155.14	312.466
1158.03	242.266
1160.92	145.042
1163.82	121.886
1166.71	105.975
1169.6	57.0055
1172.49	37.5125
1175.38	44.1122
1178.28	3.4519
1181.17	11.8856
1184.06	23.9131
1186.96	2.7041
1189.85	1.28796
1192.74	7.75708
1195.63	11.3558
1198.53	4.32483
1201.42	1.66064
1204.31	10.8745
1207.2	21.4553
1210.1	61.4414
1212.99	34.7179
1215.88	40.5012
1218.78	19.0214
1221.67	44.9148
1224.56	56.1169
1227.45	31.2711
1230.35	30.1062
1233.24	20.4473
1236.13	30.4594
1239.03	0.548462
1241.92	59.5095
