Measurement: Raman, 785 nm, unoriented, Raman Data Processed
Mineral: Hilgardite
Rruff sample: R070427
Ideal chemistry: Ca_2_B_5_O_9_ClH_2_O
Locality: Boulby mine, Loftus, Cleveland, England, UK
Source: Michael Scott
Description: Massive etched pink crystallline associated with pale green boracite, polytype 3TC
Raman shift (cm-1)	intensity
132.118	0
135.011	4.13263
137.903	67.222
140.796	220.038
143.689	471.928
146.581	854.764
149.474	1450.94
152.367	2581.57
155.26	3685.79
158.152	2932.01
161.045	1799.45
163.938	1497.55
166.83	1462.1
169.723	1505.58
172.616	1505.45
175.508	1485.94
178.401	1364.4
181.294	1072.12
184.186	711.667
187.079	474.908
189.972	457.716
192.864	569.571
195.757	833.125
198.65	1156.5
201.543	1537.29
204.435	1425.7
207.328	1254.26
210.221	672.278
213.113	170.126
216.006	15.3709
218.899	59.2876
221.792	20.9442
224.684	47.2275
227.577	63.178
230.47	175.756
233.362	265.67
236.255	288.878
239.148	357.375
242.041	354.978
244.933	452.99
247.826	709.739
250.719	744.167
253.611	467.479
256.504	241.529
259.397	145.335
262.289	79.971
265.182	24.0279
268.075	28.7097
270.967	27.0388
273.86	37.7765
276.753	9.36908
279.646	22.3035
282.538	6.87341
285.431	15.8223
288.324	1.30609
291.216	13.1481
294.109	7.71454
297.002	30.9341
299.894	1.25458
302.787	3.349
305.68	34.7632
308.572	74.7908
311.465	104.391
314.358	179.593
317.251	263.257
320.143	322.343
323.036	409.853
325.929	477.624
328.821	576.168
331.714	675.002
334.607	808.383
337.5	914.327
340.392	842.765
343.285	734.879
346.178	723.438
349.07	873
351.963	1138.13
354.856	1585.27
357.748	1988.67
360.641	1840.63
363.534	1290.55
366.426	1092.01
369.319	1221.84
372.212	1589.94
375.105	1976.84
377.997	1669.41
380.89	871.222
383.783	378.935
386.675	172.363
389.568	69.0936
392.461	31.361
395.353	5.46576
398.246	13.7733
401.139	18.2571
404.032	9.33612
406.924	10.9097
409.817	40.845
412.71	61.975
415.602	99.4476
418.495	151.308
421.388	301.945
424.281	431.734
427.173	657.171
430.066	984.096
432.959	1226.68
435.851	980.689
438.744	690.767
441.637	678.355
444.529	804.883
447.422	892.905
450.315	1026.06
453.208	1409.6
456.1	1941
458.993	2554
461.886	2874.19
464.778	2184.77
467.671	1092.24
470.564	507.865
473.457	273.963
476.349	167.42
479.242	154.284
482.135	204.725
485.027	250.709
487.92	169.781
490.813	91.8713
493.705	65.1788
496.598	50.9335
499.491	47.7521
502.384	39.1567
505.276	67.066
508.169	83.8253
511.062	84.5336
513.954	131.981
516.847	181.813
519.74	213.918
522.632	270.222
525.525	278.311
528.418	289.22
531.311	228.415
534.203	63.6349
537.096	7.14654
539.989	39.5974
542.881	40.3447
545.774	13.4758
548.667	9.44904
551.559	41.1051
554.452	104.219
557.345	190.486
560.237	414.657
563.13	700.137
566.023	1090.34
568.915	1751.11
571.808	2484.19
574.701	1908.7
577.594	908.148
580.486	612.244
583.379	603.479
586.272	768.549
589.164	911.414
592.057	1144.85
594.95	1328.64
597.842	1367.68
600.735	1305.44
603.628	960.929
606.521	499.232
609.413	187.345
612.306	70.4519
615.199	13.3835
618.091	38.5909
620.984	9.26807
623.877	43.4019
626.769	154.392
629.662	292.354
632.555	452.553
635.448	498.245
638.34	458.586
641.233	570.7
644.126	807.431
647.018	1011.58
649.911	990.505
652.804	812.523
655.697	625.527
658.589	541.981
661.482	593.943
664.375	495.9
667.267	394.041
670.16	307.284
673.053	225.243
675.945	180.481
678.838	198.992
681.731	260.692
684.624	351.928
687.516	547.955
690.409	810.71
693.302	1043.8
696.194	1218.23
699.087	1174.18
701.98	924.999
704.872	671.844
707.765	450.545
710.658	297.66
713.551	189.139
716.443	85.7068
719.336	44.3757
722.229	53.7227
725.121	92.3961
728.014	43.1637
730.907	30.3016
733.799	17.4923
736.692	21.9722
739.585	25.0565
742.477	164.527
745.37	386.321
748.263	931.569
751.156	1726.73
754.048	2948.59
756.941	4777.98
759.834	6166.12
762.726	4661.91
765.619	2396.9
768.512	1214.31
771.404	651.361
774.297	362.229
777.19	201.089
780.083	112.404
782.975	53.2164
785.868	34.4603
788.761	29.6107
791.653	22.4852
794.546	12.5741
797.439	12.3195
800.332	36.9681
803.224	132.341
806.117	297.39
809.01	490.443
811.902	782.238
814.795	1038.69
817.688	1003.11
820.58	643.365
823.473	340.614
826.366	232.218
829.259	279.702
832.151	373.225
835.044	573.276
837.937	853.687
840.829	1050.7
843.722	859.315
846.615	528.583
849.507	417.279
852.4	419.924
855.293	526.056
858.186	557.166
861.078	523.782
863.971	377.581
866.864	248.541
869.756	141.961
872.649	84.9123
875.542	59.3804
878.434	38.0602
881.327	18.5269
884.22	12.9357
887.112	3.94098
890.005	0.237671
892.898	13.4457
895.791	9.24829
898.683	18.9925
901.576	26.0881
904.469	20.4501
907.361	34.188
910.254	59.146
913.147	117.088
916.04	172.438
918.932	268.503
921.825	450.454
924.718	652.783
927.61	925.204
930.503	1136.36
933.396	1032.11
936.288	735.866
939.181	526.191
942.074	378.343
944.967	295.476
947.859	244.738
950.752	229.348
953.645	189.43
956.537	148.756
959.43	120.02
962.323	92.3413
965.216	59.0492
968.108	46.8133
971.001	22.6545
973.894	20.396
976.786	18.9634
979.679	5.57043
982.572	11.9085
985.464	13.7435
988.357	15.5776
991.25	14.8392
994.143	6.73856
997.035	15.4396
999.928	16.9101
1002.82	9.84357
1005.71	50.8301
1008.61	50.6202
1011.5	106.537
1014.39	134.608
1017.28	153.438
1020.18	118.076
1023.07	86.9964
1025.96	42.3851
1028.86	56.1428
1031.75	81.4229
1034.64	108.731
1037.53	143.699
1040.43	225.758
1043.32	321.73
1046.21	457.586
1049.1	531.351
1052	555.722
1054.89	511.157
1057.78	392.011
1060.67	277.645
1063.57	191.626
1066.46	162.646
1069.35	76.8353
1072.24	48.0742
1075.14	19.2446
1078.03	13.7521
1080.92	22.9099
1083.82	36.7986
1086.71	91.7259
1089.6	180.92
1092.49	218.808
1095.39	360.283
1098.28	467.117
1101.17	561.9
1104.07	561.831
1106.96	475.332
1109.85	357.196
1112.74	278.674
1115.64	150.256
1118.53	116.472
1121.42	81.1239
1124.31	49.8852
1127.21	39.6528
1130.1	35.4918
1132.99	0.482117
1135.88	25.1834
1138.78	39.9953
1141.67	53.9207
1144.56	62.0271
1147.46	56.9898
1150.35	67.5425
1153.24	45.0456
1156.13	28.4543
1159.03	42.2009
1161.92	19.1676
1164.81	35.4107
1167.7	14.9618
1170.6	22.3501
1173.49	20.763
1176.38	8.5444
1179.28	4.93344
1182.17	20.4887
1185.06	12.0916
1187.95	13.1644
1190.85	35.2809
1193.74	8.37561
1196.63	42.6501
1199.52	44.2289
1202.42	32.4538
1205.31	22.6903
1208.2	9.74585
1211.1	1.17178
1213.99	30.9043
1216.88	12.0181
1219.77	1.85315
