Measurement: Raman, 532 nm, unoriented, Raman Data Processed
Mineral: Hillebrandite
Rruff sample: R110067
Ideal chemistry: Ca_2_SiO_3_(OH)_2_
Locality: Terneras mine, Velardeña, Velardeña District, Mun. de Cuencamé, Durango, Mexico
Source: Renato & Adriana Pagano
Description: White, fine-grained massive. Cell parameters are given that match Dai and Post (1995) but the diffraction results indicate lower symmetry.
Raman shift (cm-1)	intensity
159.917	0
162.81	9.28732
165.702	36.9547
168.595	66.7823
171.488	105.318
174.381	145.686
177.273	216.861
180.166	227.789
183.059	174.978
185.951	127.244
188.844	91.196
191.737	66.5362
194.629	52.6534
197.522	29.0892
200.415	27.9635
203.308	7.58545
206.2	6.69943
209.093	2.01486
211.986	13.8408
214.878	17.232
217.771	0.320984
220.664	5.44748
223.556	4.38147
226.449	8.9093
229.342	29.4894
232.234	57.1277
235.127	100.997
238.02	114.918
240.913	95.8409
243.805	90.8132
246.698	104.589
249.591	116.176
252.483	129.606
255.376	125.5
258.269	110.905
261.161	94.1979
264.054	84.6149
266.947	98.1597
269.84	106.041
272.732	93.5456
275.625	65.4089
278.518	52.4725
281.41	58.0261
284.303	53.0742
287.196	69.4485
290.089	74.5574
292.981	92.4996
295.874	119.529
298.767	170.323
301.659	222.975
304.552	289.969
307.445	347.997
310.337	402.504
313.23	425.235
316.123	391.328
319.015	320.467
321.908	240.821
324.801	176.188
327.694	147.361
330.586	129.382
333.479	116.522
336.372	100.928
339.264	86.5084
342.157	89.3738
345.05	93.5898
347.942	107.909
350.835	109.055
353.728	100.694
356.621	57.7513
359.513	27.071
362.406	10.0386
365.299	0.829834
368.191	1.01923
371.084	5.90418
373.977	5.06824
376.87	5.27429
379.762	14.9193
382.655	6.01355
385.548	8.12207
388.44	23.69
391.333	33.0571
394.226	32.0081
397.118	37.6957
400.011	36.6363
402.904	25.0754
405.796	21.8773
408.689	27.7372
411.582	33.8686
414.475	39.9582
417.367	47.8024
420.26	45.671
423.153	46.0929
426.045	40.0031
428.938	35.9798
431.831	27.524
434.724	30.2566
437.616	10.353
440.509	11.9724
443.402	5.22412
446.294	12.8611
449.187	9.96646
452.08	7.08514
454.972	4.09302
457.865	12.7075
460.758	1.61688
463.651	1.02612
466.543	0.265167
469.436	0.22049
472.329	8.32925
475.221	19.481
478.114	30.3063
481.007	56.7631
483.899	83.0045
486.792	109.029
489.685	151.624
492.577	174.427
495.47	162.908
498.363	118.039
501.256	72.667
504.148	48.2317
507.041	36.8429
509.934	27.6807
512.826	26.5568
515.719	21.3928
518.612	27.3037
521.505	30.1773
524.397	26.6217
527.29	27.2555
530.183	21.9514
533.075	20.7787
535.968	9.38226
538.861	16.132
541.753	4.07422
544.646	3.37537
547.539	1.74976
550.432	2.53565
553.324	3.32846
556.217	2.68625
559.11	0.486481
562.002	5.79312
564.895	4.41098
567.788	1.07309
570.68	3.31009
573.573	4.27402
576.466	0.510468
579.359	5.81485
582.251	4.62103
585.144	10.3525
588.037	1.57712
590.929	12.0822
593.822	7.12231
596.715	13.3323
599.607	17.1764
602.5	18.2583
605.393	26.7226
608.285	34.3287
611.178	47.0199
614.071	64.2392
616.964	86.5898
619.856	136.397
622.749	191.816
625.642	286.425
628.534	431.176
631.427	634.516
634.32	872.832
637.212	1167.62
640.105	1434.71
642.998	1530.13
645.891	1323.91
648.783	971.348
651.676	670.022
654.569	459.984
657.461	314.226
660.354	226.598
663.247	165.682
666.139	123.731
669.032	92.1676
671.925	66.9842
674.818	54.7977
677.71	41.3559
680.603	33.7289
683.496	24.0482
686.388	25.0288
689.281	19.948
692.174	18.0888
695.067	18.2841
697.959	15.3136
700.852	8.34
703.745	1.08371
706.637	2.38684
709.53	2.92404
712.423	2.79138
715.315	0.100098
718.208	4.35437
721.101	1.6586
723.994	1.31876
726.886	4.00522
729.779	6.0368
732.672	11.2335
735.564	12.2818
738.457	14.5718
741.35	15.0095
744.242	16.4653
747.135	16.4747
750.028	16.28
752.92	11.1538
755.813	9.01724
758.706	10.1761
761.599	11.2551
764.491	9.89343
767.384	6.82617
770.277	14.2334
773.169	13.5794
776.062	12.3807
778.955	12.0182
781.847	12.3467
784.74	11.8068
787.633	7.28744
790.526	13.4513
793.418	19.4392
796.311	7.22403
799.204	2.86981
802.096	0.52533
804.989	5.05389
807.882	4.89075
810.774	2.65421
813.667	2.76837
816.56	6.41577
819.453	7.17212
822.345	15.4315
825.238	8.92053
828.131	10.7704
831.023	8.70761
833.916	19.5421
836.809	19.4656
839.702	21.2406
842.594	21.1329
845.487	18.878
848.38	18.0868
851.272	19.0915
854.165	20.8622
857.058	12.9347
859.95	8.83905
862.843	11.7082
865.736	12.5896
868.629	4.80179
871.521	5.81497
874.414	2.2066
877.307	0.994904
880.199	2.35522
883.092	2.01239
885.985	0.45575
888.877	0.120361
891.77	1.24204
894.663	6.46298
897.556	9.92755
900.448	5.50256
903.341	16.507
906.234	20.2476
909.126	26.703
912.019	17.0673
914.912	1.08905
917.804	5.93292
920.697	2.84299
923.59	4.34149
926.482	4.37982
929.375	5.77866
932.268	7.83844
935.161	11.6073
938.053	12.0096
940.946	25.052
943.839	45.0869
946.731	73.7912
949.624	146.278
952.517	239.329
955.409	373.955
958.302	569.736
961.195	716.172
964.088	555.63
966.98	348.082
969.873	269.193
972.766	265.75
975.658	258.396
978.551	239.284
981.444	258.924
984.337	285.991
987.229	268.38
990.122	195.715
993.015	148.988
995.907	106.541
998.8	89.184
1001.69	89.4046
1004.59	127.501
1007.48	184.165
1010.37	257.146
1013.26	412.762
1016.16	480.367
1019.05	258.445
1021.94	111.619
1024.83	53.0749
1027.73	25.5062
1030.62	11.4275
1033.51	7.07834
1036.4	9.69
1039.3	1.93134
1042.19	0.590698
1045.08	1.67596
1047.98	3.75629
1050.87	1.26401
1053.76	3.55505
1056.65	0.985748
1059.55	6.76022
1062.44	11.339
1065.33	20.1616
1068.22	28.0914
1071.12	32.5866
1074.01	33.4373
1076.9	31.0575
1079.8	29.9065
1082.69	43.9802
1085.58	55.8458
1088.47	52.5301
1091.37	28.0643
1094.26	23.8455
1097.15	16.5651
1100.04	16.1874
1102.94	15.1905
1105.83	0.250671
1108.72	8.77298
1111.62	5.77527
1114.51	2.27753
1117.4	1.17746
1120.29	4.50104
1123.19	8.30286
1126.08	3.15637
1128.97	6.26852
1131.86	1.59668
1134.76	4.02786
1137.65	0.468018
1140.54	3.99661
1143.43	2.15033
1146.33	0.12674
1149.22	3.36707
1152.11	2.04437
1155.01	3.12994
1157.9	4.79709
1160.79	4.63751
1163.68	2.81241
1166.58	6.02823
1169.47	6.65701
1172.36	7.48593
1175.26	8.61658
1178.15	3.26608
1181.04	4.80112
1183.93	7.76163
1186.83	8.34381
1189.72	4.63663
1192.61	5.89374
1195.5	7.16824
1198.4	6.51996
1201.29	10.6293
1204.18	0.277222
1207.07	8.15149
1209.97	6.98859
1212.86	4.70572
1215.75	6.71371
1218.64	2.15417
1221.54	6.19614
1224.43	3.91943
1227.32	4.33353
1230.22	4.19742
1233.11	3.20776
1236	3.62176
1238.89	1.60956
1241.79	7.69766
1244.68	7.18741
1247.57	3.59918
1250.46	0.556122
1253.36	4.87613
1256.25	4.12765
1259.14	1.39737
1262.04	0.340729
1264.93	3.46597
1267.82	9.94412
1270.71	5.84992
1273.61	8.42642
1276.5	3.50259
1279.39	2.71872
1282.29	7.69348
1285.18	7.08313
1288.07	0.110443
1290.96	3.28363
1293.86	0.114441
1296.75	0.985321
1299.64	3.75565
1302.53	0.426178
