Measurement: Raman, 780 nm, unoriented, Raman Data Processed
Mineral: Hillebrandite
Rruff sample: R110067
Ideal chemistry: Ca_2_SiO_3_(OH)_2_
Locality: Terneras mine, Velardeña, Velardeña District, Mun. de Cuencamé, Durango, Mexico
Source: Renato & Adriana Pagano
Description: White, fine-grained massive. Cell parameters are given that match Dai and Post (1995) but the diffraction results indicate lower symmetry.
Raman shift (cm-1)	intensity
158.136	0
161.028	9.71924
163.921	48.6679
166.814	84.1765
169.706	122.178
172.599	163.231
175.492	212.036
178.385	247.732
181.277	223.907
184.17	149.814
187.063	100.399
189.955	54.2779
192.848	30.9801
195.741	14.3986
198.633	0.770782
201.526	0.120239
204.419	3.73654
207.311	1.08389
210.204	2.77747
213.097	8.25278
215.99	1.91867
218.882	15.7697
221.775	30.3804
224.668	45.303
227.56	70.3707
230.453	99.86
233.346	136.727
236.238	167.744
239.131	159.114
242.024	143.85
244.917	150.788
247.809	158.59
250.702	158.778
253.595	155.279
256.487	139.18
259.38	121.984
262.273	110.482
265.166	115.165
268.058	125.28
270.951	126.912
273.844	111.866
276.736	92.8901
279.629	87.8014
282.522	87.5132
285.414	85.4577
288.307	98.8987
291.2	110.444
294.092	139.601
296.985	176.984
299.878	222.179
302.771	278.326
305.663	353.441
308.556	427.619
311.449	477.089
314.341	460.832
317.234	383.762
320.127	298.536
323.019	239.547
325.912	201.758
328.805	184.724
331.698	158.718
334.59	130.334
337.483	95.2799
340.376	69.8813
343.269	64.0825
346.161	53.1323
349.054	52.8495
351.947	41.1124
354.839	30.2798
357.732	11.5998
360.625	0.497925
363.517	4.30884
366.41	2.86716
369.303	0.447662
372.195	2.11316
375.088	5.10998
377.981	8.86311
380.874	2.21765
383.766	5.31685
386.659	14.4233
389.552	29.9361
392.444	42.4826
395.337	37.5919
398.23	31.3414
401.123	24.4412
404.015	12.5085
406.908	4.80959
409.801	2.38644
412.693	7.18907
415.586	6.58183
418.479	13.4405
421.371	14.9595
424.264	18.2702
427.157	21.4417
430.05	22.762
432.942	22.6649
435.835	18.2086
438.728	6.40566
441.62	11.5938
444.513	1.98242
447.406	6.27472
450.298	8.17685
453.191	3.17227
456.084	4.64424
458.976	9.7316
461.869	4.81438
464.762	4.54044
467.655	5.31511
470.547	3.77208
473.44	0.507858
476.333	3.65901
479.225	12.8419
482.118	20.4678
485.011	31.9597
487.904	44.2297
490.796	59.351
493.689	64.3167
496.582	50.7915
499.474	36.2836
502.367	22.8143
505.26	20.851
508.152	20.1996
511.045	25.5911
513.938	25.7804
516.83	31.2069
519.723	31.8924
522.616	37.3942
525.509	42.0596
528.401	47.6072
531.294	46.857
534.187	45.6277
537.079	32.9852
539.972	17.117
542.865	9.27454
545.757	1.65326
548.65	0.028412
551.543	0.314117
554.436	0.105911
557.328	1.37268
560.221	0.595688
563.114	1.45046
566.006	4.91957
568.899	3.33514
571.792	5.7706
574.684	5.25717
577.577	10.1201
580.47	12.5217
583.362	10.6859
586.255	9.68243
589.148	10.2007
592.041	10.4965
594.933	12.7976
597.826	18.7052
600.719	18.3418
603.611	26.4472
606.504	27.9396
609.397	38.4039
612.29	48.1937
615.182	64.3372
618.075	92.5025
620.968	125.796
623.86	181.376
626.753	267.704
629.646	382.79
632.538	512.609
635.431	682.018
638.324	893.802
641.217	1091.12
644.109	1134.66
647.002	933.746
649.895	641.112
652.787	416.039
655.68	270.046
658.573	183.799
661.466	132.673
664.358	96.672
667.251	71.1267
670.144	53.6011
673.036	41.1556
675.929	28.9785
678.822	22.3633
681.714	19.3206
684.607	14.6374
687.5	14.1726
690.393	6.84172
693.285	7.94536
696.178	6.32103
699.071	1.25311
701.963	1.81813
704.856	1.12355
707.749	0.583618
710.641	1.9875
713.534	1.34499
716.427	0.383301
719.319	3.13619
722.212	1.42194
725.105	0.443985
727.998	1.08791
730.89	1.91
733.783	4.44856
736.676	1.4417
739.568	6.76041
742.461	6.389
745.354	11.0297
748.246	8.51741
751.139	12.3504
754.032	11.5257
756.925	12.7788
759.817	15.5599
762.71	13.8487
765.603	22.4047
768.495	21.6019
771.388	25.9984
774.281	24.384
777.173	27.1917
780.066	27.2353
782.959	26.6706
785.852	31.0687
788.744	33.9285
791.637	24.7808
794.53	23.9763
797.422	20.7306
800.315	24.4663
803.208	19.4034
806.101	20.4434
808.993	15.2757
811.886	17.1282
814.779	15.3394
817.671	18.0536
820.564	15.2099
823.457	16.132
826.349	17.1471
829.242	22.4361
832.135	21.3309
835.028	23.2983
837.92	22.6693
840.813	19.2351
843.706	20.3061
846.598	19.1741
849.491	20.5375
852.384	13.9564
855.276	15.9595
858.169	10.3397
861.062	9.17337
863.955	4.96331
866.847	6.02557
869.74	2.3999
872.633	5.15524
875.525	1.50832
878.418	2.26268
881.311	1.26711
884.203	0.101524
887.096	2.76633
889.989	2.49789
892.881	0.612495
895.774	3.03926
898.667	2.21431
901.56	5.48404
904.452	11.903
907.345	11.7444
910.238	11.1027
913.13	3.19327
916.023	3.82996
918.916	0.371658
921.808	0.605324
924.701	0.857895
927.594	1.61102
930.487	1.6675
933.379	6.22638
936.272	11.4484
939.165	11.7176
942.057	20.8001
944.95	33.2699
947.843	62.3192
950.736	100.483
953.628	157.61
956.521	247.909
959.414	372.756
962.306	441.757
965.199	447.193
968.092	453.624
970.984	333.386
973.877	202.07
976.77	136.32
979.663	116.513
982.555	119.064
985.448	138.603
988.341	130.683
991.233	129.162
994.126	145.485
997.019	131.451
999.911	86.6829
1002.8	63.2135
1005.7	64.6375
1008.59	75.6998
1011.48	102.166
1014.38	182.29
1017.27	173.365
1020.16	85.3567
1023.05	41.6038
1025.95	22.1412
1028.84	10.7831
1031.73	7.6719
1034.62	2.59907
1037.52	1.44788
1040.41	2.71285
1043.3	4.56417
1046.19	0.061447
1049.09	0.58411
1051.98	1.16105
1054.87	1.16987
1057.77	0.575382
1060.66	2.83924
1063.55	5.64271
1066.44	7.37555
1069.34	9.04007
1072.23	14.0163
1075.12	14.1478
1078.01	17.0241
1080.91	24.1992
1083.8	37.3416
1086.69	61.7216
1089.59	32.6325
1092.48	22.4078
1095.37	17.274
1098.26	15.0373
1101.16	11.3773
1104.05	7.55643
1106.94	4.86911
1109.83	3.17456
1112.73	4.48986
1115.62	6.76612
1118.51	2.21923
1121.4	4.62777
1124.3	3.7726
1127.19	8.18107
1130.08	0.035545
1132.98	1.29811
1135.87	2.89681
1138.76	2.74834
1141.65	2.10664
1144.55	5.24968
1147.44	2.43085
1150.33	3.56804
1153.22	4.61351
1156.12	6.91381
1159.01	8.70804
1161.9	5.93854
1164.8	5.9678
1167.69	6.73661
1170.58	4.96339
1173.47	4.91083
1176.37	0.760429
1179.26	4.16867
1182.15	4.36756
1185.04	2.14683
1187.94	3.65681
1190.83	2.41371
1193.72	1.36784
1196.62	4.74569
1199.51	0.746948
1202.4	2.55424
1205.29	0.066422
1208.19	0.890419
1211.08	1.15902
1213.97	2.90176
1216.86	1.51703
1219.76	5.65083
1222.65	5.46255
1225.54	10.989
1228.43	8.24385
1231.33	11.4509
1234.22	17.0689
1237.11	19.6334
1240.01	17.1298
1242.9	15.5383
1245.79	18.5025
1248.68	18.3445
1251.58	23.4659
1254.47	24.804
1257.36	25.4756
1260.26	22.7554
1263.15	20.5847
1266.04	21.5321
1268.93	19.3093
1271.83	14.5914
1274.72	12.2428
1277.61	11.6744
1280.5	4.59438
1283.4	0.402191
