Measurement: Raman, 785 nm, unoriented, Raman Data Processed
Mineral: Hillite
Rruff sample: R061014
Ideal chemistry: Ca_2_Zn^2+^(P^5+^O_4_)_2_2H_2_O
Locality: Reaphook Hill, South Australia
Source: Michael Scott
Description: Colorless pillow-shaped aggregate associated with colorless bladed scholzite.
Raman shift (cm-1)	intensity
166.365	0
169.258	30.9929
172.15	7.25281
175.043	0.579712
177.936	29.1101
180.828	93.9228
183.721	214.479
186.614	223.868
189.507	343.52
192.399	498.73
195.292	532.282
198.185	345.17
201.077	217.53
203.97	192.391
206.863	240.231
209.756	440.663
212.648	607.512
215.541	765.103
218.434	627.111
221.326	376.456
224.219	185.792
227.112	24.9722
230.004	34.1338
232.897	54.2419
235.79	150.919
238.683	320.33
241.575	509.375
244.468	672.571
247.361	744.731
250.253	698.597
253.146	512.077
256.039	331.671
258.931	222.595
261.824	154.893
264.717	45.0271
267.61	19.4065
270.502	13.4612
273.395	7.78345
276.288	70.3015
279.18	203.814
282.073	420.73
284.966	779.339
287.858	1093.81
290.751	1444.24
293.644	1344.75
296.536	944.564
299.429	516.093
302.322	271.612
305.215	92.9326
308.107	63.6997
311	60.9519
313.893	149.856
316.785	207.393
319.678	392.186
322.571	622.346
325.464	950.989
328.356	1023.8
331.249	720.118
334.142	359.088
337.034	178.018
339.927	78.3619
342.82	68.1079
345.712	14.6158
348.605	27.0127
351.498	12.1785
354.39	4.56299
357.283	28.5605
360.176	6.46484
363.069	17.4385
365.961	8.15832
368.854	4.1156
371.747	22.3832
374.639	14.7222
377.532	48.6399
380.425	61.8219
383.317	68.0497
386.21	94.4082
389.103	122.782
391.996	167.892
394.888	201.265
397.781	228.181
400.674	318.247
403.566	404.601
406.459	498.176
409.352	708.88
412.245	986.994
415.137	1407.43
418.03	1891.63
420.923	2374
423.815	2659.72
426.708	2811.05
429.601	2712.43
432.493	2241.99
435.386	1535.93
438.279	1057.26
441.171	749.654
444.064	606.631
446.957	523.661
449.85	459.018
452.742	441.016
455.635	388.843
458.528	372.211
461.42	361.173
464.313	268.308
467.206	196.617
470.098	114.172
472.991	134.082
475.884	85.6125
478.777	61.8446
481.669	53.8953
484.562	20.1591
487.455	24.3212
490.347	27.5467
493.24	43.036
496.133	7.7666
499.026	16.515
501.918	10.016
504.811	3.04443
507.704	8.41382
510.596	13.3132
513.489	21.5352
516.382	23.4884
519.274	1.45361
522.167	0.537354
525.06	5.50024
527.952	14.4465
530.845	44.5612
533.738	21.157
536.631	43.9736
539.523	79.6344
542.416	143.63
545.309	271.123
548.201	403.508
551.094	604.302
553.987	804.807
556.88	869.966
559.772	592.468
562.665	349.142
565.558	149.942
568.45	105.784
571.343	109.375
574.236	104.264
577.128	128.624
580.021	119.35
582.914	149.373
585.807	154.684
588.699	292.481
591.592	499.295
594.485	713.833
597.377	833.171
600.27	794.336
603.163	638.644
606.055	382.039
608.948	179.31
611.841	134.83
614.734	83.3173
617.626	81.6509
620.519	43.5008
623.412	65.9912
626.304	52.1328
629.197	43.9567
632.09	44.8019
634.982	12.7837
637.875	9.87805
640.768	39.6154
643.66	33.6095
646.553	33.3568
649.446	2.23682
652.339	11.6921
655.231	30.369
658.124	32.3882
661.017	10.9736
663.909	11.8748
666.802	8.91553
669.695	5.15308
672.587	5.78186
675.48	15.3102
678.373	22.2889
681.266	25.8152
684.158	14.595
687.051	14.7421
689.944	41.7938
692.836	45.0581
695.729	30.6586
698.622	33.5029
701.514	17.2744
704.407	7.32104
707.3	21.38
710.193	36.3225
713.085	46.2977
715.978	80.0454
718.871	70.0553
721.763	35.1671
724.656	66.764
727.549	61.4076
730.442	21.2393
733.334	71.9592
736.227	86.5299
739.12	88.3618
742.012	58.8551
744.905	28.486
747.798	110.204
750.69	77.979
753.583	81.4269
756.476	51.2313
759.369	49.6841
762.261	36.8326
765.154	31.8845
768.047	10.2913
770.939	16.5221
773.832	23.5314
776.725	20.7899
779.617	40.5049
782.51	47.8048
785.403	67.8509
788.295	32.7964
791.188	27.6504
794.081	43.2793
796.974	29.6853
799.866	10.4653
802.759	1.6499
805.652	24.7334
808.544	38.0474
811.437	51.0533
814.33	63.1798
817.222	58.0267
820.115	28.8163
823.008	30.6354
825.901	39.7071
828.793	41.6166
831.686	23.9209
834.579	55.3796
837.471	62.0983
840.364	78.6658
843.257	115.403
846.149	138.328
849.042	145.737
851.935	135.864
854.827	145.433
857.72	124.433
860.613	121.159
863.506	109.75
866.398	80.4614
869.291	75.9367
872.184	46.7202
875.076	50.1278
877.969	25.142
880.862	43.83
883.755	28.9983
886.647	2.2334
889.54	34.214
892.433	31.6478
895.325	35.8173
898.218	1.39551
901.111	5.48865
904.003	0.817749
906.896	13.6012
909.789	22.2097
912.682	54.7321
915.574	74.8875
918.467	124.642
921.36	201.166
924.252	286.145
927.145	455.296
930.038	698.949
932.93	1022.11
935.823	1718.01
938.716	3252.47
941.609	6708.63
944.501	11826.1
947.394	14571.5
950.287	9287.98
953.179	4090.49
956.072	2010.23
958.965	1212.84
961.857	794.919
964.75	615.237
967.643	496.086
970.535	396.587
973.428	323.495
976.321	318.808
979.214	357.6
982.106	433.952
984.999	537.756
987.892	685.867
990.784	862.29
993.677	1223.26
996.57	1781.52
999.462	2377.58
1002.36	2630.64
1005.25	2450.47
1008.14	1930.4
1011.03	1232.64
1013.93	794.8
1016.82	513.225
1019.71	269.629
1022.6	189.414
1025.5	75.3117
1028.39	110.568
1031.28	39.8
1034.17	27.5842
1037.07	12.9845
1039.96	39.1284
1042.85	4.66296
1045.75	5.80615
1048.64	32.4988
1051.53	1.69482
1054.42	20.0525
1057.32	4.24817
1060.21	20.9283
1063.1	33.9556
1065.99	2.89478
1068.89	4.90894
1071.78	0.16687
1074.67	55.9236
1077.57	36.8085
1080.46	38.9288
1083.35	94.4224
1086.24	189.651
1089.14	253.443
1092.03	470.278
1094.92	865.322
1097.81	1186.94
1100.71	852.291
1103.6	410.163
1106.49	214.276
1109.38	131.822
1112.28	108.46
1115.17	101.031
1118.06	73.0105
1120.96	33.5179
1123.85	40.6002
1126.74	34.9762
1129.63	3.64282
1132.53	17.24
1135.42	32.1097
1138.31	1.32849
1141.2	10.0518
1144.1	52.7346
1146.99	24.755
1149.88	26.7252
1152.78	25.691
1155.67	40.2539
1158.56	39.5978
1161.45	10.0014
1164.35	17.3712
1167.24	3.552
1170.13	38.9671
1173.03	22.535
1175.92	64.025
1178.81	13.2324
1181.7	17.3956
1184.6	10.9572
1187.49	74.8938
1190.38	73.188
1193.27	25.212
1196.17	47.6744
1199.06	59.1435
1201.95	10.2472
1204.84	20.3489
1207.74	2.29773
1210.63	36.3221
1213.52	56.0737
1216.41	54.1624
1219.31	56.8417
1222.2	36.8093
1225.09	32.8795
1227.99	60.2824
1230.88	54.976
1233.77	33.5161
1236.66	7.69403
1239.56	8.06
1242.45	31.3676
1245.34	67.4504
1248.23	36.8491
1251.13	14.4053
1254.02	42.356
1256.91	41.5543
1259.81	24.3422
1262.7	28.0437
1265.59	26.684
1268.48	34.1731
1271.38	0.069885
