Measurement: Raman, 532 nm, unoriented, Raman Data Processed
Mineral: Hillite
Rruff sample: R061014
Ideal chemistry: Ca_2_Zn^2+^(P^5+^O_4_)_2_2H_2_O
Locality: Reaphook Hill, South Australia
Source: Michael Scott
Description: Colorless pillow-shaped aggregate associated with colorless bladed scholzite.
Raman shift (cm-1)	intensity
164.913	0
167.805	22.8192
170.698	24.8517
173.591	2.03296
176.483	26.938
179.376	75.1046
182.269	106.619
185.161	165.287
188.054	159.826
190.947	152.69
193.84	180.455
196.732	148.579
199.625	86.9908
202.518	74.2295
205.41	78.71
208.303	129.84
211.196	152.429
214.089	220.863
216.981	267.371
219.874	241.86
222.767	138.179
225.659	55.0143
228.552	8.59949
231.445	6.15186
234.337	12.7605
237.23	38.0652
240.123	61.0645
243.016	75.1023
245.908	111.55
248.801	95.7913
251.694	107.949
254.586	34.2639
257.479	42.884
260.372	27.8264
263.264	9.26343
266.157	7.76685
269.05	5.33862
271.942	4.25977
274.835	21.6738
277.728	42.7502
280.62	97.0586
283.513	134.999
286.406	196.779
289.299	265.953
292.191	255.69
295.084	205.478
297.977	89.1965
300.869	67.5254
303.762	65.1064
306.655	58.3272
309.548	34.6899
312.44	71.2373
315.333	17.4155
318.226	80.4631
321.118	91.395
324.011	175.44
326.904	205.817
329.796	166.367
332.689	72.5125
335.582	33.468
338.474	55.4631
341.367	33.206
344.26	6.92896
347.153	0.386475
350.045	16.0891
352.938	18.0908
355.831	16.2004
358.723	2.73511
361.616	5.63354
364.509	7.28345
367.401	3.93408
370.294	25.3911
373.187	16.8047
376.08	4.70312
378.972	27.6533
381.865	30.4724
384.758	29.0933
387.65	36.5969
390.543	74.561
393.436	56.8809
396.329	105.01
399.221	111.981
402.114	133.117
405.007	232.82
407.899	304.738
410.792	393.031
413.685	550.984
416.577	745.111
419.47	930.384
422.363	1070.88
425.255	1037.43
428.148	1046.74
431.041	915.327
433.934	704.635
436.826	510.734
439.719	367.411
442.612	300.915
445.504	305.708
448.397	297.164
451.29	300.342
454.183	320.618
457.075	292.451
459.968	240.381
462.861	190.297
465.753	113.23
468.646	101.131
471.539	104.801
474.431	31.3157
477.324	28.9441
480.217	59.708
483.11	53.7869
486.002	34.2058
488.895	17.1111
491.788	3.27246
494.68	19.2769
497.573	10.2876
500.466	20.4793
503.358	1.37305
506.251	40.0725
509.144	38.3611
512.036	8.88672
514.929	16.4268
517.822	35.6399
520.715	26.9861
523.607	13.2048
526.5	4.15259
529.393	48.5217
532.285	26.3821
535.178	58.6121
538.071	24.2261
540.963	171.715
543.856	185.387
546.749	289.901
549.641	398.872
552.534	521.479
555.427	617.778
558.32	526.686
561.212	322.941
564.105	151.917
566.998	116.931
569.89	102.595
572.783	96.0732
575.676	115.854
578.568	63.9145
581.461	108.118
584.354	138.076
587.247	173.873
590.139	254.612
593.032	348.227
595.925	362.654
598.817	384.815
601.71	340.416
604.603	263.31
607.495	242.672
610.388	207.404
613.281	190.498
616.174	204.793
619.066	207.065
621.959	246.267
624.852	242.142
627.744	248.073
630.637	223.703
633.53	192.929
636.423	210.84
639.315	160.624
642.208	147.347
645.101	73.9155
647.993	97.8152
650.886	59.053
653.779	47.8005
656.671	30.3938
659.564	6.30054
662.457	6.74243
665.35	16.8149
668.242	10.6851
671.135	23.0925
674.028	37.2288
676.92	13.4265
679.813	9.83838
682.706	15.8772
685.598	8.80786
688.491	48.4155
691.384	2.67944
694.276	19.0862
697.169	25.9348
700.062	14.5005
702.955	31.8359
705.847	11.644
708.74	3.43433
711.633	17.8999
714.525	25.5193
717.418	62.9446
720.311	36.4775
723.203	47.1013
726.096	32.3567
728.989	18.2578
731.881	36.561
734.774	63.4031
737.667	52.4822
740.56	6.72876
743.452	39.3689
746.345	56.9558
749.238	46.7085
752.13	53.6179
755.023	24.5381
757.916	46.5083
760.808	10.3442
763.701	47.5088
766.594	10.5586
769.487	39.5378
772.379	35.9827
775.272	5.16333
778.165	48.5747
781.057	46.8552
783.95	66.5557
786.843	23.9705
789.736	77.2917
792.628	81.1714
795.521	85.6235
798.414	54.9868
801.306	123.454
804.199	106.368
807.092	96.2632
809.984	183.282
812.877	212.424
815.77	239.87
818.663	186.217
821.555	214.946
824.448	233.81
827.341	239.769
830.233	240.579
833.126	243.509
836.019	263.423
838.911	194.701
841.804	232.335
844.697	256.675
847.59	200.844
850.482	190.079
853.375	168.996
856.268	162.138
859.16	115.898
862.053	153.489
864.946	122.879
867.838	138.749
870.731	63.605
873.624	41.2344
876.516	77.2085
879.409	13.2349
882.302	13.0747
885.195	59.3594
888.087	19.0923
890.98	20.7954
893.873	24.8584
896.765	32.2524
899.658	39.7446
902.551	7.25049
905.443	18.0146
908.336	17.1899
911.229	47.3218
914.121	11.2456
917.014	44.9214
919.907	51.4517
922.8	195.59
925.692	241.819
928.585	358.877
931.478	560.281
934.37	898.706
937.263	1545.25
940.156	2617.5
943.048	4127.79
945.941	5914.18
948.834	5641.22
951.727	2883.94
954.619	1238.84
957.512	651.39
960.405	356.56
963.297	228.596
966.19	136.944
969.083	200.521
971.976	136.273
974.868	140.918
977.761	178.117
980.654	130.837
983.546	210.818
986.439	226.547
989.332	302.862
992.224	311.554
995.117	409.118
998.01	546.513
1000.9	603.616
1003.79	571.428
1006.69	515.693
1009.58	331.316
1012.47	199.977
1015.37	95.8164
1018.26	62.8096
1021.15	35.896
1024.04	67.9116
1026.94	29.9673
1029.83	48.146
1032.72	10.4805
1035.62	24.2144
1038.51	1.59814
1041.4	0.706543
1044.29	21.3657
1047.19	26.772
1050.08	3.30322
1052.97	73.5215
1055.86	68.8779
1058.76	38.2437
1061.65	37.2266
1064.54	51.1401
1067.43	56.8042
1070.33	0.270996
1073.22	42.0469
1076.11	67.0283
1079.01	77.874
1081.9	82.6289
1084.79	165.315
1087.68	270.716
1090.58	473.93
1093.47	727.46
1096.36	1091.64
1099.25	1143.96
1102.15	659.612
1105.04	286.219
1107.93	199.609
1110.83	101.706
1113.72	63.7695
1116.61	41.1499
1119.5	30.9824
1122.4	28.1724
1125.29	57.9658
1128.18	77.7041
1131.07	36.9922
1133.97	74.1894
1136.86	106.793
1139.75	86.8115
1142.64	33.1875
1145.54	41.9072
1148.43	1.30322
1151.32	18.9102
1154.22	60.5181
1157.11	13.209
1160	68.0137
1162.89	47.0977
1165.79	22.9961
1168.68	2.09912
1171.57	37.7148
1174.46	47.8047
1177.36	44.3433
1180.25	30.0674
1183.14	62.1128
1186.04	115.752
1188.93	55.5815
1191.82	68.9561
1194.71	29.686
1197.61	62.3525
1200.5	65.9805
1203.39	10.6992
1206.28	42.2685
1209.18	68.7398
1212.07	81.917
1214.96	90.4512
1217.86	45.2529
1220.75	3.57373
1223.64	19.1743
1226.53	58.082
1229.43	16.3911
1232.32	50.0029
1235.21	43.9131
1238.1	63.1953
1241	29.8208
1243.89	43.5093
1246.78	93.2031
1249.67	71.8545
1252.57	85.437
1255.46	56.4873
1258.35	80.8276
1261.24	34.8164
1264.14	13.3062
1267.03	28.1567
1269.92	108.587
1272.82	112.818
1275.71	2.91992
