Measurement: Raman, 532 nm, unoriented, Raman Data Processed
Mineral: Hiortdahlite
Rruff sample: R060092
Ideal chemistry: Na_4_Ca_8_Zr_2_(Nb,Mn,Ti,Fe,Mg,Al)_2_(Si_2_O_7_)_4_O_3_F_5_
Locality: Vesuvius, Italy
Source: University of Arizona Mineral Museum
Description: Tan colored prismatic crystals, variety guarinite
Raman shift (cm-1)	intensity
144.368	0
147.261	0.294384
150.154	0.130421
153.046	0.245667
155.939	1.23324
158.832	0.096664
161.725	0.293919
164.617	0.256119
167.51	0.095451
170.403	0.159355
173.295	0.270348
176.188	0.130646
179.081	0.243141
181.973	0.712929
184.866	0.795856
187.759	0.872925
190.651	0.250011
193.544	0.238762
196.437	0.400726
199.33	0.372578
202.222	0.237713
205.115	0.249996
208.008	0.204712
210.9	0.157436
213.793	0.448452
216.686	0.748871
219.578	0.658287
222.471	0.29356
225.364	0.584198
228.257	0.416477
231.149	0.664749
234.042	0.90414
236.935	1.86525
239.827	2.24248
242.72	2.59404
245.613	2.42347
248.506	2.79338
251.398	2.81245
254.291	3.31771
257.184	3.17552
260.076	3.20392
262.969	3.61743
265.862	3.67024
268.754	3.64647
271.647	3.61638
274.54	3.42976
277.433	3.54993
280.325	3.21174
283.218	3.37021
286.111	2.98841
289.003	2.71608
291.896	2.2033
294.789	2.55403
297.681	2.31282
300.574	2.06415
303.467	1.98225
306.36	2.42443
309.252	2.42466
312.145	2.2034
315.038	1.90951
317.93	1.7682
320.823	1.97408
323.716	0.864273
326.608	0.186939
329.501	0.062809
332.394	0.120987
335.286	0.118786
338.179	0.050835
341.072	0.006695
343.965	0.729435
346.857	0.909142
349.75	2.18416
352.643	2.89473
355.535	3.37079
358.428	4.38823
361.321	5.74982
364.214	7.03566
367.106	7.68346
369.999	8.76262
372.892	8.99133
375.784	8.97776
378.677	8.27458
381.57	7.64699
384.462	6.72987
387.355	5.95031
390.248	4.67826
393.14	3.66731
396.033	2.48537
398.926	1.76046
401.819	0.921566
404.711	1.37028
407.604	0.732807
410.497	0.959137
413.389	0.620777
416.282	0.362255
419.175	0.095169
422.067	0.429039
424.96	0.047272
427.853	0.214436
430.746	0.232975
433.638	0.29771
436.531	0.595737
439.424	0.487438
442.316	1.44182
445.209	2.02824
448.102	2.28946
450.995	2.16753
453.887	3.30527
456.78	4.11521
459.673	4.29501
462.565	5.17995
465.458	4.24797
468.351	3.82662
471.243	3.33117
474.136	1.87603
477.029	2.19765
479.921	1.09318
482.814	1.32237
485.707	0.870056
488.6	0.702332
491.492	0.495876
494.385	0.033985
497.278	0.294281
500.17	0.2192
503.063	0.009354
505.956	0.460228
508.849	0.730556
511.741	1.14943
514.634	1.7602
517.527	2.40668
520.419	1.58694
523.312	1.82725
526.205	1.26942
529.097	1.22447
531.99	0.84552
534.883	0.94244
537.775	0.512493
540.668	1.12018
543.561	1.15007
546.454	0.545975
549.346	1.42392
552.239	1.48615
555.132	1.02693
558.024	0.637161
560.917	0.526131
563.81	0.796204
566.702	0.435989
569.595	1.02028
572.488	1.40019
575.381	2.46777
578.273	3.07326
581.166	3.41119
584.059	4.10352
586.951	3.14513
589.844	2.65201
592.737	2.42197
595.63	1.24252
598.522	1.23914
601.415	0.747849
604.308	0.046806
607.2	0.535744
610.093	0.113014
612.986	0.017525
615.878	0.249588
618.771	0.209663
621.664	0.226158
624.557	0.440575
627.449	0.905563
630.342	1.39535
633.235	2.02656
636.127	2.88184
639.02	3.48169
641.913	4.64395
644.805	5.91575
647.698	7.88688
650.591	9.40177
653.484	11.2195
656.376	14.4995
659.269	17.6329
662.162	20.0869
665.054	20.5338
667.947	18.2142
670.84	14.1227
673.732	10.5807
676.625	6.99077
679.518	5.69574
682.41	4.36053
685.303	3.56173
688.196	2.85559
691.089	1.9275
693.981	1.92663
696.874	1.34921
699.767	1.41585
702.659	1.03086
705.552	0.276062
708.445	0.001747
711.337	0.514526
714.23	0.245247
717.123	0.348442
720.015	0.004272
722.908	0.286804
725.801	0.309761
728.694	0.10231
731.586	0.231819
734.479	0.053818
737.372	0.876099
740.264	0.548622
743.157	0.443039
746.05	1.01471
748.942	1.37933
751.835	1.47687
754.728	2.18088
757.621	1.64918
760.513	2.02756
763.406	2.01334
766.299	2.26131
769.191	2.84804
772.084	1.96741
774.977	1.41803
777.87	2.17248
780.762	0.865692
783.655	0.872902
786.548	1.32684
789.44	1.89496
792.333	1.57225
795.226	2.1984
798.118	2.18167
801.011	2.5263
803.904	1.73387
806.797	1.63076
809.689	2.37941
812.582	1.71056
815.475	1.72647
818.367	2.20304
821.26	2.96377
824.153	3.41014
827.045	4.42197
829.938	5.52181
832.831	5.55077
835.723	7.02827
838.616	8.31477
841.509	8.04358
844.402	9.50436
847.294	9.47812
850.187	7.98675
853.08	5.22475
855.972	4.62575
858.865	2.20982
861.758	1.39651
864.65	1.12882
867.543	0.767067
870.436	0.203171
873.329	0.025314
876.221	0.155251
879.114	0.067673
882.007	0.229813
884.899	1.46486
887.792	1.28829
890.685	1.96131
893.577	2.77603
896.47	3.55268
899.363	4.42577
902.256	5.09473
905.148	6.26699
908.041	6.90527
910.934	7.70462
913.826	7.89494
916.719	7.93692
919.612	8.43588
922.505	8.99131
925.397	8.70571
928.29	9.09415
931.183	9.78293
934.075	10.1233
936.968	10.8889
939.861	12.304
942.753	13.1493
945.646	12.8633
948.539	13.0942
951.432	10.9881
954.324	10.25
957.217	8.2262
960.11	6.31728
963.002	4.242
965.895	3.44711
968.788	2.0099
971.68	1.14406
974.573	0.967674
977.466	0.454163
980.359	1.02341
983.251	0.910492
986.144	0.903824
989.037	0.450371
991.929	0.239174
994.822	0.349861
997.715	0.268089
1000.61	0.309334
1003.5	0.088676
1006.39	0.420532
1009.28	0.167503
1012.18	0.281914
1015.07	0.100723
1017.96	0.404274
1020.86	1.01803
1023.75	1.47164
1026.64	2.31879
1029.53	2.4359
1032.43	2.33308
1035.32	2.64479
1038.21	3.0993
1041.11	3.11212
1044	5.02843
1046.89	5.74751
1049.78	5.08517
1052.68	4.90764
1055.57	5.07861
1058.46	3.68259
1061.35	2.37671
1064.25	1.66344
1067.14	1.4502
1070.03	1.356
1072.92	0.900703
1075.82	0.066498
1078.71	0.690971
1081.6	0.178749
1084.5	0.266632
1087.39	0.598083
1090.28	0.310425
1093.17	0.998566
1096.07	1.33107
1098.96	0.543861
1101.85	0.484276
1104.74	0.91713
1107.64	0.951729
1110.53	0.638466
1113.42	1.13599
1116.32	0.042297
1119.21	0.302719
1122.1	0.765678
1124.99	0.493042
1127.89	0.880615
1130.78	0.94136
1133.67	0.297089
1136.56	0.251236
1139.46	0.418015
1142.35	0.589767
1145.24	1.16569
1148.13	0.540985
1151.03	0.059509
1153.92	0.538757
1156.81	2.04614
1159.71	1.48094
1162.6	1.22743
1165.49	0.918396
1168.38	0.887894
1171.28	0.633331
1174.17	1.19077
1177.06	1.17593
1179.95	0.778488
1182.85	0.310425
1185.74	0.227188
1188.63	1.08933
1191.53	0.630661
1194.42	0.880402
1197.31	0.983215
1200.2	1.11607
1203.1	0.561005
1205.99	0.773758
1208.88	1.7056
1211.77	0.758224
1214.67	0.062622
1217.56	0.297348
1220.45	0.111557
1223.35	0.417007
1226.24	0.251816
1229.13	0.208893
1232.02	0.622925
1234.92	0.615189
1237.81	0.245773
1240.7	0.026764
1243.59	0.131134
1246.49	0.129929
1249.38	1.26526
1252.27	1.28127
1255.16	0.690369
1258.06	0.950851
1260.95	0.980515
1263.84	0.323151
1266.74	1.142
1269.63	0.401337
1272.52	1.17123
1275.41	1.24911
1278.31	0.834946
1281.2	1.08064
1284.09	0.377777
1286.98	0.726227
1289.88	0.429977
1292.77	0.023224
1295.66	0.023148
1298.56	0.577972
