Measurement: Raman, 780 nm, unoriented, Raman Data Processed
Mineral: Hochelagaite
Rruff sample: R110182
Ideal chemistry: CaNb_4_O_11_8H_2_O
Locality: Mont St-Hilaire, Quebec, Canada
Source: Donald Doell
Description: Radiating groups of colorless acicular fibers associated with siderite and microcline. EDS confirms Ca and Nb
Raman shift (cm-1)	intensity
129.209	0
132.101	0.035919
134.994	2.14087
137.887	20.2169
140.779	44.8493
143.672	68.1026
146.565	68.7286
149.458	65.1926
152.35	56.5908
155.243	44.9307
158.136	34.861
161.028	24.2556
163.921	15.3665
166.814	7.49005
169.706	3.67987
172.599	6.64209
175.492	14.8948
178.385	27.1719
181.277	49.7036
184.17	72.6371
187.063	96.0272
189.955	117.665
192.848	137.006
195.741	152.569
198.633	163.949
201.526	178.904
204.419	187.602
207.311	195.978
210.204	198.138
213.097	202.282
215.99	199.169
218.882	198.758
221.775	204.691
224.668	210.925
227.56	216.486
230.453	219.767
233.346	217.686
236.238	213.81
239.131	204.819
242.024	194.02
244.917	171.435
247.809	135.691
250.702	91.8047
253.595	54.0573
256.487	25.7685
259.38	8.11066
262.273	0.355072
265.166	5.94434
268.058	3.87866
270.951	0.96582
273.844	4.45786
276.736	18.5018
279.629	30.9962
282.522	45.8649
285.414	56.9748
288.307	62.324
291.2	65.6409
294.092	58.7086
296.985	47.7151
299.878	33.5038
302.771	19.2208
305.663	14.8818
308.556	14.4683
311.449	19.1153
314.341	21.7477
317.234	23.2635
320.127	21.415
323.019	18.8707
325.912	10.9447
328.805	4.83401
331.698	3.81769
334.59	5.15555
337.483	2.10162
340.376	4.83327
343.268	13.1027
346.161	16.7624
349.054	19.703
351.947	21.6618
354.839	30.2717
357.732	40.3491
360.625	52.3815
363.517	62.9567
366.41	70.6072
369.303	78.5082
372.195	88.0033
375.088	99.3971
377.981	118.234
380.873	138.572
383.766	162.905
386.659	176.989
389.552	173.264
392.444	143.931
395.337	103.234
398.23	70.3251
401.122	46.2634
404.015	29.5123
406.908	18.1617
409.8	10.5517
412.693	5.5697
415.586	3.52199
418.479	3.3593
421.371	5.10712
424.264	5.90248
427.157	8.54796
430.049	12.7322
432.942	19.2824
435.835	24.3538
438.728	29.0019
441.62	39.821
444.513	46.8663
447.406	56.5237
450.298	69.3472
453.191	78.6453
456.084	90.4522
458.976	103.012
461.869	109.002
464.762	117.995
467.654	122.727
470.547	124.666
473.44	121.581
476.333	105.754
479.225	86.3372
482.118	68.5027
485.011	46.5362
487.903	31.3872
490.796	20.0732
493.689	14.7869
496.582	4.96393
499.474	1.41843
502.367	4.86334
505.26	5.95866
508.152	7.50418
511.045	7.45293
513.938	6.67255
516.83	0.802643
519.723	4.20514
522.616	11.1374
525.509	21.1551
528.401	26.2272
531.294	31.9696
534.187	33.4017
537.079	28.738
539.972	24.0788
542.865	18.308
545.757	17.9182
548.65	16.5766
551.543	18.6584
554.436	23.3552
557.328	29.6902
560.221	39.0576
563.114	51.1855
566.006	65.6351
568.899	80.1216
571.792	98.4217
574.684	118.256
577.577	139.752
580.47	155.039
583.362	166.862
586.255	179.037
589.148	183.01
592.041	182.239
594.933	170.783
597.826	160.631
600.719	137.258
603.611	114.519
606.504	87.3324
609.397	65.7634
612.29	43.6745
615.182	32.5919
618.075	21.2349
620.968	21.41
623.86	19.3235
626.753	27.8624
629.646	46.3693
632.538	61.5442
635.431	91.9472
638.324	129.189
641.217	177.157
644.109	234.612
647.002	305.889
649.895	385.857
652.787	472.87
655.68	554.809
658.573	623.021
661.466	660.793
664.358	657.765
667.251	600.699
670.144	515.905
673.036	412.538
675.929	319.936
678.822	237.166
681.714	170.952
684.607	121.225
687.5	87.4441
690.393	58.8788
693.285	37.7805
696.178	21.7544
699.071	11.664
701.963	5.27393
704.856	0.097916
707.749	2.06125
710.641	4.48657
713.534	4.424
716.427	3.61838
719.319	3.76518
722.212	3.46916
725.105	1.74561
727.998	0.663696
730.89	1.21307
733.783	2.56133
736.676	3.98041
739.568	4.52504
742.461	4.3177
745.354	6.87723
748.246	8.10504
751.139	8.5105
754.032	8.62926
756.925	8.73174
759.817	9.01114
762.71	7.27734
765.603	9.03766
768.495	9.24991
771.388	7.56447
774.281	5.72731
777.173	4.53113
780.066	5.24321
782.959	3.8475
785.852	1.79689
788.744	2.16717
791.637	1.56261
794.53	0.036972
797.422	0.057892
800.315	1.15802
803.208	1.00229
806.101	0.885513
808.993	1.56708
811.886	1.59189
814.779	1.65637
817.671	1.46776
820.564	0.229523
823.457	0.183197
826.349	0.820343
829.242	3.89504
832.135	7.13036
835.028	12.3833
837.92	17.6069
840.813	25.9262
843.706	38.1813
846.598	54.1829
849.491	71.9033
852.384	95.6455
855.276	123.847
858.169	159.766
861.062	203.746
863.955	256.932
866.847	315.68
869.74	382.21
872.633	453.04
875.525	521.008
878.418	577.917
881.311	613.141
884.203	603.47
887.096	540.959
889.989	434.004
892.881	327.948
895.774	238.564
898.667	177.072
901.56	138.47
904.452	117.585
907.345	108.125
910.238	104.05
913.13	105.23
916.023	106.252
918.916	114.472
921.808	128.08
924.701	143.411
927.594	151.773
930.487	142.882
933.379	123.455
936.272	96.5559
939.165	71.4918
942.057	51.6924
944.95	36.3039
947.843	25.7244
950.736	16.551
953.628	11.0644
956.521	5.60395
959.414	1.65792
962.306	1.27464
965.199	2.95062
968.092	2.67699
970.984	1.79984
973.877	1.64296
976.77	1.63651
979.663	0.898727
982.555	0.444252
985.448	0.207542
988.341	2.70207
991.233	0.302574
994.126	0.240059
997.019	1.03662
999.911	1.11212
1002.8	0.73111
1005.7	2.62037
1008.59	3.88786
1011.48	3.3287
1014.38	4.44219
1017.27	4.66939
1020.16	6.67529
1023.05	7.16965
1025.95	6.57345
1028.84	7.63379
1031.73	7.39837
1034.62	7.82505
1037.52	8.70667
1040.41	7.59916
1043.3	7.53988
1046.19	7.89696
1049.09	6.67206
1051.98	6.74757
1054.87	7.2449
1057.77	7.28175
1060.66	7.41219
1063.55	6.71844
1066.44	6.04188
1069.34	6.23438
1072.23	5.31455
1075.12	5.35258
1078.01	4.69318
1080.91	5.00487
1083.8	4.46682
1086.69	5.22269
1089.59	4.39063
1092.48	4.38531
1095.37	2.79226
1098.26	3.74232
1101.16	2.79736
1104.05	2.85329
1106.94	1.82687
1109.83	1.19223
1112.73	2.06382
1115.62	1.89506
1118.51	2.00842
1121.4	1.48882
1124.3	3.02377
1127.19	2.26065
1130.08	1.90355
1132.98	2.65887
1135.87	1.78776
1138.76	2.55457
1141.65	1.70931
1144.55	1.93751
1147.44	2.40916
1150.33	1.31309
1153.22	1.1607
1156.12	1.90622
1159.01	0.346069
1161.9	0.007286
1164.8	0.82135
1167.69	0.393616
1170.58	0.185982
1173.47	0.381775
1176.37	1.86248
1179.26	0.115486
1182.15	1.09634
1185.04	0.926582
1187.94	2.11987
1190.83	1.69495
1193.72	0.345764
1196.62	2.59679
1199.51	2.87529
1202.4	2.76017
1205.29	3.83919
1208.19	3.19655
1211.08	4.94877
1213.97	4.99556
1216.86	4.01778
1219.76	5.00484
1222.65	4.93312
1225.54	4.4048
1228.43	4.84999
1231.33	3.58242
1234.22	2.38618
1237.11	3.13506
1240.01	2.43173
1242.9	1.27945
1245.79	1.6086
1248.68	1.53318
1251.58	0.775749
1254.47	0.554344
1257.36	1.5037
1260.25	1.32587
1263.15	1.19933
1266.04	0.928596
1268.93	2.22761
1271.83	0.347267
1274.72	1.52607
1277.61	1.16397
1280.5	1.16772
1283.4	0.160202
