Measurement: Raman, 532 nm, unoriented, Raman Data Processed
Mineral: Hochelagaite
Rruff sample: R110182
Ideal chemistry: CaNb_4_O_11_8H_2_O
Locality: Mont St-Hilaire, Quebec, Canada
Source: Donald Doell
Description: Radiating groups of colorless acicular fibers associated with siderite and microcline. EDS confirms Ca and Nb
Raman shift (cm-1)	intensity
182.577	0
185.469	1.93897
188.362	5.50464
191.255	16.4064
194.147	29.1384
197.04	44.5163
199.933	59.4601
202.825	71.8328
205.718	80.4741
208.611	88.3862
211.504	93.5403
214.396	95.7006
217.289	99.3019
220.182	103.541
223.074	106.343
225.967	111.851
228.86	115.017
231.752	117.542
234.645	119.375
237.538	114.496
240.43	114.734
243.323	103.132
246.216	88.8881
249.109	69.964
252.001	45.3953
254.894	28.2977
257.787	16.9825
260.679	5.50207
263.572	1.81024
266.465	1.43045
269.358	0.593353
272.25	0.964417
275.143	6.25095
278.036	14.4405
280.928	25.3484
283.821	27.9479
286.714	33.8349
289.606	37.3021
292.499	37.4196
295.392	36.6867
298.284	27.0807
301.177	18.7589
304.07	13.3516
306.963	11.088
309.855	8.42615
312.748	11.0037
315.641	13.5798
318.533	12.8255
321.426	8.63461
324.319	6.8501
327.212	5.04889
330.104	0.761993
332.997	3.22031
335.89	4.01498
338.782	0.20105
341.675	4.4209
344.568	4.37747
347.46	7.95969
350.353	9.78525
353.246	11.7685
356.139	20.4339
359.031	25.4804
361.924	32.9986
364.817	40.3042
367.709	44.4133
370.602	49.6115
373.495	55.2149
376.387	64.9257
379.28	76.7084
382.173	93.2292
385.065	108.756
387.958	116.755
390.851	109.502
393.744	89.6772
396.636	67.801
399.529	46.1539
402.422	29.9457
405.314	19.7743
408.207	12.1992
411.1	8.8033
413.993	7.15662
416.885	5.07907
419.778	1.56891
422.671	3.43666
425.563	5.93027
428.456	3.83914
431.349	8.65094
434.241	11.8484
437.134	15.1109
440.027	18.2499
442.92	23.3461
445.812	28.8922
448.705	36.7502
451.598	43.1236
454.49	51.7812
457.383	59.6701
460.276	66.1106
463.168	73.5956
466.061	74.5706
468.954	75.4008
471.846	78.1767
474.739	73.7943
477.632	63.389
480.525	54.5633
483.417	41.4861
486.31	29.939
489.203	21.8596
492.095	13.2561
494.988	9.1199
497.881	4.51697
500.774	0.935425
503.666	1.52994
506.559	4.81134
509.452	5.12991
512.344	3.21139
515.237	5.29111
518.13	5.17053
521.022	1.84439
523.915	7.05893
526.808	11.3815
529.701	16.9055
532.593	19.1321
535.486	26.4109
538.379	18.2547
541.271	19.9622
544.164	16.4095
547.057	19.7294
549.949	20.8963
552.842	23.5565
555.735	29.9484
558.628	34.4875
561.52	42.4611
564.413	55.8384
567.306	68.3184
570.198	79.1904
573.091	93.4101
575.984	109.152
578.876	127.225
581.769	143.479
584.662	149.11
587.554	161.601
590.447	158.829
593.34	158.614
596.232	148.498
599.125	132.185
602.018	115.055
604.911	95.6551
607.803	73.6138
610.696	56.4003
613.589	38.181
616.481	28.7307
619.374	21.0172
622.267	17.0538
625.159	18.9712
628.052	24.2652
630.945	36.9074
633.838	51.6816
636.73	74.436
639.623	109.764
642.516	147.894
645.408	193.354
648.301	247.719
651.194	318.549
654.087	385.37
656.979	451.763
659.872	506.508
662.765	531.73
665.657	523.994
668.55	477.683
671.443	403.878
674.335	323.851
677.228	248.064
680.121	184.606
683.014	134.659
685.906	96.2767
688.799	69.1556
691.692	46.7693
694.584	29.3122
697.477	19.4447
700.37	10.0534
703.263	4.8194
706.155	3.87308
709.048	1.2016
711.941	2.8533
714.833	4.99454
717.726	3.76431
720.619	4.76517
723.511	1.35959
726.404	0.516907
729.297	3.05081
732.189	0.280701
735.082	3.77475
737.975	3.5899
740.868	1.80014
743.76	3.96426
746.653	7.43161
749.546	8.06393
752.438	8.86407
755.331	9.57959
758.224	9.6998
761.116	9.16757
764.009	7.35586
766.902	8.19025
769.795	8.32687
772.687	6.79983
775.58	5.25797
778.473	4.0181
781.365	3.87131
784.258	3.86734
787.151	3.46201
790.043	0.701599
792.936	2.35983
795.829	1.2699
798.722	1.81012
801.614	1.66757
804.507	2.32721
807.4	0.383575
810.292	1.047
813.185	0.470978
816.078	0.483704
818.971	0.409393
821.863	0.877258
824.756	0.472992
827.649	1.07513
830.541	2.7883
833.434	7.57748
836.327	9.14771
839.219	12.9666
842.112	23.1236
845.005	30.7296
847.898	42.7782
850.79	57.6553
853.683	80.7264
856.576	101.664
859.468	135.244
862.361	172.803
865.254	215.618
868.146	260.378
871.039	320.869
873.932	379.4
876.824	436.944
879.717	479.496
882.61	503.959
885.503	486.61
888.395	427.897
891.288	340.359
894.181	252.178
897.073	183.664
899.966	138.779
902.859	110.413
905.751	98.0045
908.644	90.7997
911.537	87.5521
914.43	89.2301
917.322	94.1193
920.215	103.843
923.108	115.878
926	130.277
928.893	134.119
931.786	125.336
934.678	103.776
937.571	80.4921
940.464	60.2583
943.357	44.3513
946.249	32.0048
949.142	22.2985
952.035	13.4344
954.927	11.1738
957.82	5.29474
960.713	0.815399
963.606	0.26535
966.498	0.22229
969.391	1.37836
972.284	0.493439
975.176	1.99506
978.069	1.1911
980.962	1.06189
983.854	1.9552
986.747	1.58719
989.64	0.738464
992.533	3.57596
995.425	0.966797
998.318	0.337952
1001.21	1.42773
1004.1	2.27826
1007	1.58539
1009.89	2.87653
1012.78	2.54617
1015.67	2.35733
1018.57	3.15805
1021.46	4.27634
1024.35	6.17236
1027.24	6.06158
1030.14	5.85678
1033.03	6.59235
1035.92	8.79767
1038.82	6.38547
1041.71	5.25867
1044.6	7.03088
1047.49	6.50583
1050.39	8.64737
1053.28	8.68378
1056.17	7.10254
1059.07	7.37317
1061.96	5.54633
1064.85	4.92712
1067.74	7.26749
1070.63	5.06226
1073.53	4.50711
1076.42	4.40665
1079.31	4.54474
1082.21	3.39871
1085.1	4.26086
1087.99	3.25549
1090.88	5.42551
1093.78	4.41492
1096.67	3.78909
1099.56	2.68738
1102.45	0.824066
1105.35	2.85364
1108.24	3.03046
1111.13	3.35672
1114.03	2.66217
1116.92	3.34824
1119.81	1.28885
1122.7	3.50238
1125.6	2.44952
1128.49	2.40515
1131.38	2.90332
1134.28	0.714966
1137.17	1.85901
1140.06	3.60593
1142.95	1.93304
1145.85	1.66504
1148.74	3.29462
1151.63	1.37353
1154.52	1.54501
1157.42	0.508148
1160.31	1.2323
1163.2	0.906952
1166.09	0.879425
1168.99	0.000427
1171.88	0.214478
1174.77	1.16596
1177.66	1.51502
1180.56	1.38092
1183.45	2.90189
1186.34	2.30902
1189.24	2.52216
1192.13	2.91833
1195.02	2.29694
1197.91	3.65601
1200.81	2.64297
1203.7	0.410492
1206.59	6.15213
1209.48	6.19553
1212.38	4.22147
1215.27	2.02783
1218.16	2.18133
1221.06	2.40961
1223.95	0.791443
1226.84	3.36761
1229.73	1.91733
1232.63	1.68933
1235.52	0.473267
1238.41	1.63184
1241.31	0.390778
1244.2	1.22186
1247.09	1.07105
1249.98	1.83792
1252.88	2.04181
1255.77	3.81717
1258.66	3.79398
1261.55	1.59244
1264.45	2.97488
1267.34	0.843292
1270.23	1.09308
1273.12	1.68454
1276.02	1.84457
1278.91	2.15933
1281.8	1.30899
1284.69	1.34467
1287.59	0.502319
1290.48	0.749023
1293.37	0.527039
1296.27	2.45676
1299.16	2.90054
1302.05	1.03851
