Measurement: Raman, 532 nm, unoriented, Raman Data Processed
Mineral: Hodgkinsonite
Rruff sample: R140280
Ideal chemistry: Zn^2+^_2_Mn^2+^SiO_4_(OH)_2_
Locality: Parker Shaft, Franklin mine, Franklin, Franklin Mining District, Sussex County, New Jersey, USA
Source: Marcus Origlieri
Description: Pinkish striated subhedral crystals, associated with franklinite and calcite
Raman shift (cm-1)	intensity
113.407	0
116.782	118.5
120.157	178.294
123.531	439.107
126.906	298.043
130.281	124.109
133.656	116.962
137.031	266.68
140.405	343.898
143.78	126.603
147.155	16.8857
150.53	31.0928
153.905	30.8164
157.28	85.3467
160.654	253.41
164.029	573.731
167.404	900.036
170.779	1303.31
174.154	662.657
177.528	556.812
180.903	415.731
184.278	418.06
187.653	418.148
191.028	404.249
194.403	513.856
197.777	747.981
201.152	1214.88
204.527	2018.99
207.902	1536
211.277	407.353
214.651	112.312
218.026	27.9209
221.401	13.4229
224.776	12.7627
228.151	12.7705
231.525	23.4326
234.9	28.3193
238.275	88.6416
241.65	146.386
245.025	148.734
248.4	171.499
251.774	241.281
255.149	375.522
258.524	541.113
261.899	594.422
265.274	713.563
268.649	907.826
272.023	905.792
275.398	842.885
278.773	914.262
282.148	1014.42
285.523	815.624
288.897	459.285
292.272	236.787
295.647	82.3682
299.022	13.666
302.397	5.38184
305.772	14.3994
309.146	129.6
312.521	245.692
315.896	381.591
319.271	625.144
322.646	1071.16
326.02	1463.84
329.395	982.762
332.77	429.549
336.145	208.537
339.52	110.812
342.894	71.7837
346.269	54.146
349.644	63.7837
353.019	108.21
356.394	201.762
359.769	191.45
363.143	149.71
366.518	83.8721
369.893	48.7358
373.268	38.8945
376.643	81.3076
380.017	141.395
383.392	155.946
386.767	116.017
390.142	90.0562
393.517	64.9673
396.892	74.6182
400.266	69.5474
403.641	63.3335
407.016	17.0923
410.391	3.38525
413.766	2.13525
417.14	28.813
420.515	45.3857
423.89	24.3452
427.265	1.59228
430.64	16.5254
434.014	12.1567
437.389	19.4917
440.764	2.32715
444.139	10.3911
447.514	36.4605
450.889	55.7046
454.263	110.784
457.638	233.356
461.013	400.382
464.388	482.882
467.763	249.143
471.137	130.506
474.512	79.7227
477.887	25.293
481.262	3.50342
484.637	24.6641
488.012	36.5
491.386	23.3599
494.761	13.831
498.136	20.1138
501.511	54.6753
504.886	121.349
508.26	200.556
511.635	347.811
515.01	499.241
518.385	631.948
521.76	680.136
525.135	598.1
528.509	513.015
531.884	506.541
535.259	478.392
538.634	361.138
542.009	208.313
545.384	123.251
548.758	78.6406
552.133	48.249
555.508	29.6714
558.883	53.5469
562.258	125.272
565.632	191.472
569.007	295.571
572.382	435.844
575.757	502.167
579.132	372.644
582.506	257.196
585.881	245.71
589.256	287.78
592.631	381.091
596.006	444.658
599.381	355.021
602.755	163.691
606.13	71.1562
609.505	41.4194
612.88	16.1577
616.255	9.20703
619.63	8.18945
623.004	8.30762
626.379	3.22607
629.754	6.67627
633.129	7.77246
636.504	0.884766
639.878	3.97461
643.253	1.02344
646.628	12.3833
650.003	13.2793
653.378	31.2637
656.752	12.064
660.127	16.7007
663.502	28.4116
666.877	38.4287
670.252	41.0718
673.626	32.7075
677.001	25.1973
680.376	31.0845
683.751	36.873
687.126	37.1602
690.501	43.5459
693.875	31.0474
697.25	27.105
700.625	14.813
704	31.2593
707.375	31.8047
710.75	24.0513
714.124	27.1821
717.499	25.7964
720.874	22.0991
724.249	34.623
727.624	33.1802
730.998	21.647
734.373	20.6787
737.748	19.0605
741.123	20.9082
744.498	24.5098
747.872	34.4121
751.247	52.3101
754.622	29.1377
757.997	26.6357
761.372	37.1523
764.747	45.0483
768.121	49.7666
771.496	40.1309
774.871	18.3799
778.246	0.505371
781.621	9.31152
784.995	0.667969
788.37	10.083
791.745	2.63818
795.12	2.39356
798.495	0.593262
801.87	15.6733
805.244	36.2769
808.619	55.1065
811.994	54.9409
815.369	59.2856
818.744	82.3394
822.119	108.188
825.493	134.389
828.868	193.927
832.243	347.329
835.618	647.375
838.993	1078.16
842.367	1744.62
845.742	2597.94
849.117	2752.9
852.492	1684
855.867	849.052
859.241	489.958
862.616	326.994
865.991	252.048
869.366	229.246
872.741	202.97
876.115	157.539
879.49	125.6
882.865	146.772
886.24	223.044
889.615	316.328
892.99	418.524
896.364	373.121
899.739	159.025
903.114	41.2754
906.489	0.353516
909.864	2.34863
913.239	0.03125
916.613	12.0864
919.988	32.6001
923.363	36.2305
926.738	17.1445
930.113	3.89941
933.487	6.68213
936.862	23.273
940.237	89.6255
943.612	162.958
946.987	278.872
950.361	427.118
953.736	545.769
957.111	465.962
960.486	270.431
963.861	148.477
967.236	74.6675
970.61	38.124
973.985	16.2793
977.36	2.42725
980.735	1.74731
984.11	4.73096
987.485	4.64233
990.859	8.54346
994.234	1.29932
997.609	4.04883
1000.98	8.84912
1004.36	14.2598
1007.73	8.65771
1011.11	18.852
1014.48	16.6668
1017.86	24.8391
1021.23	26.1567
1024.61	25.8718
1027.98	39.9529
1031.36	37.7112
1034.73	41.3076
1038.11	49.6585
1041.48	38.7007
1044.86	42.3909
1048.23	34.9404
1051.61	30.1919
1054.98	24.7986
1058.36	15.5554
1061.73	18.022
1065.11	23.0051
1068.48	20.6331
1071.86	17.0437
1075.23	15.9731
1078.6	12.6519
1081.98	14.2029
1085.35	16.1177
1088.73	17.1152
1092.1	13.248
1095.48	11.04
1098.85	20.4998
1102.23	11.9077
1105.6	13.9663
1108.98	4.87598
1112.35	9.4436
1115.73	6.93604
1119.1	10.4392
1122.48	11.2441
1125.85	1.28027
1129.23	5.61841
1132.6	5.47388
1135.98	0.275391
1139.35	7.24097
1142.73	13.093
1146.1	7.09546
1149.48	8.27319
1152.85	18.2815
1156.22	20.2295
1159.6	20.0166
1162.97	17.1912
1166.35	15.6794
1169.72	22.8875
1173.1	20.0786
1176.47	29.1511
1179.85	28.241
1183.22	23.6848
1186.6	30.5727
1189.97	29.552
1193.35	29.1438
1196.72	24.3184
1200.1	13.4927
1203.47	14.676
1206.85	19.1965
1210.22	25.5144
1213.6	14.929
1216.97	11.7947
1220.35	11.0581
1223.72	10.4714
1227.1	0.170166
1230.47	2.21606
1233.85	6.79956
1237.22	0.986328
1240.6	4.92749
1243.97	2.58081
1247.35	8.60059
1250.72	22.0291
1254.1	15.0293
1257.47	25.4192
1260.85	22.0073
1264.22	13.4585
1267.59	6.96704
1270.97	4.11621
1274.34	8.38428
1277.72	12.0095
1281.09	10.8462
1284.47	12.4553
1287.84	13.5396
1291.22	8.72315
1294.59	14.386
1297.97	4.51074
1301.34	0.475098
