Measurement: Raman, 780 nm, unoriented, Raman Data Processed
Mineral: Hodgkinsonite
Rruff sample: R140280
Ideal chemistry: Zn^2+^_2_Mn^2+^SiO_4_(OH)_2_
Locality: Parker Shaft, Franklin mine, Franklin, Franklin Mining District, Sussex County, New Jersey, USA
Source: Marcus Origlieri
Description: Pinkish striated subhedral crystals, associated with franklinite and calcite
Raman shift (cm-1)	intensity
99.2738	0
102.649	129.823
106.023	18.3419
109.398	24.0689
112.773	1.99152
116.148	32.3732
119.523	26.0167
122.897	83.1305
126.272	204.329
129.647	19.9386
133.022	0.422577
136.397	33.804
139.772	110.463
143.146	81.952
146.521	12.1914
149.896	1.59308
153.271	9.48389
156.646	36.2154
160.02	99.6201
163.395	220.404
166.77	373.64
170.145	514.586
173.52	442.579
176.894	229.7
180.269	217.606
183.644	167.404
187.019	226.85
190.394	182.894
193.769	211.829
197.143	307.488
200.518	481.832
203.893	838.413
207.268	1114.06
210.643	464.205
214.018	125.413
217.392	35.7821
220.767	3.60941
224.142	3.00577
227.517	8.7948
230.892	1.8652
234.266	9.1889
237.641	29.9881
241.016	45.2741
244.391	38.7449
247.766	37.0255
251.14	52.4612
254.515	77.8977
257.89	131.807
261.265	165.364
264.64	150.049
268.014	175.031
271.389	203.216
274.764	200.852
278.139	226.359
281.514	305.909
284.889	334.091
288.263	211.035
291.638	96.8468
295.013	32.0949
298.388	2.41794
301.763	4.65051
305.137	5.29135
308.512	36.0231
311.887	80.6687
315.262	131.641
318.637	223.787
322.012	378.124
325.386	619.302
328.761	633.901
332.136	326.416
335.511	159.027
338.886	82.0097
342.26	38.1238
345.635	20.772
349.01	18.6407
352.385	27.2758
355.76	49.1759
359.135	65.0883
362.509	51.7208
365.884	29.596
369.259	19.8997
372.634	12.2411
376.009	10.8536
379.383	22.2703
382.758	29.9186
386.133	26.9513
389.508	19.6797
392.883	19.7209
396.257	19.5328
399.632	16.6625
403.007	10.4343
406.382	3.57686
409.757	0.272278
413.132	1.90079
416.506	2.59287
419.881	1.00252
423.256	3.00069
426.631	1.36026
430.006	0.046585
433.38	3.2415
436.755	2.51875
440.13	0.661346
443.505	2.47011
446.88	11.2096
450.255	26.0113
453.629	36.6975
457.004	63.3938
460.379	120.723
463.754	203.188
467.129	149.682
470.503	60.8095
473.878	29.8161
477.253	15.6409
480.628	8.04591
484.003	4.15797
487.377	2.47116
490.752	3.69551
494.127	6.19871
497.502	13.3664
500.877	27.5538
504.252	53.0972
507.626	89.3505
511.001	138
514.376	204.375
517.751	276.35
521.126	324.116
524.5	308.902
527.875	256.246
531.25	211.685
534.625	196.15
538	169.713
541.375	116.07
544.749	70.3675
548.124	42.3629
551.499	26.8658
554.874	20.3958
558.249	21.775
561.623	34.9309
564.998	55.636
568.373	87.1987
571.748	137.725
575.123	191.065
578.497	178.689
581.872	114.363
585.247	73.3276
588.622	67.2589
591.997	82.0574
595.371	114.611
598.746	128.078
602.121	77.4097
605.496	30.9238
608.871	11.8931
612.246	3.57716
615.62	0.57135
618.995	1.39316
622.37	2.40091
625.745	2.45218
629.12	0.702271
632.494	1.89206
635.869	0.397934
639.244	0.444214
642.619	1.39218
645.994	3.4657
649.369	3.19527
652.743	6.5778
656.118	5.05432
659.493	6.81346
662.868	9.00911
666.243	8.87315
669.617	9.75946
672.992	10.5341
676.367	11.0608
679.742	11.8582
683.117	12.6242
686.491	13.3873
689.866	12.3008
693.241	15.1173
696.616	12.4048
699.991	14.181
703.366	11.7809
706.74	10.8358
710.115	9.21721
713.49	7.87825
716.865	7.75751
720.24	6.38577
723.614	7.9366
726.989	5.27065
730.364	6.42236
733.739	3.64159
737.114	5.31682
740.489	2.17175
743.863	2.82318
747.238	3.6806
750.613	3.92073
753.988	3.08283
757.363	3.03658
760.737	4.8535
764.112	5.00522
767.487	7.71031
770.862	6.16548
774.237	3.02437
777.611	1.01193
780.986	1.48796
784.361	1.55809
787.736	1.6976
791.111	0.857773
794.486	1.17889
797.86	0.371796
801.235	2.1917
804.61	5.79961
807.985	10.7028
811.36	13.8401
814.734	16.7387
818.109	21.8091
821.484	28.1933
824.859	39.2756
828.234	57.598
831.609	92.001
834.983	166.477
838.358	269.767
841.733	423.866
845.108	683.109
848.483	954.512
851.857	789.693
855.232	411.704
858.607	203.792
861.982	112.736
865.357	72.4903
868.731	54.0103
872.106	47.4556
875.481	35.1763
878.856	25.5877
882.231	22.4
885.606	30.5211
888.98	44.9068
892.355	64.5886
895.73	79.4143
899.105	53.4393
902.48	15.7802
905.854	3.66597
909.229	0.353195
912.604	0.038834
915.979	0.263504
919.354	6.58521
922.729	8.70178
926.103	9.63684
929.478	6.04485
932.853	7.5043
936.228	15.969
939.603	31.6921
942.977	54.4274
946.352	89.4475
949.727	135.701
953.102	196.101
956.477	213.053
959.851	154.186
963.226	87.1761
966.601	43.9302
969.976	22.6466
973.351	10.8874
976.726	3.15432
980.1	0.874893
983.475	0.372978
986.85	1.20883
990.225	0.030968
993.6	0.703697
996.974	0.254799
1000.35	0.93615
1003.72	0.479225
1007.1	1.96768
1010.47	4.98454
1013.85	2.5858
1017.22	4.31541
1020.6	6.11507
1023.97	5.22733
1027.35	6.0075
1030.72	8.22607
1034.1	7.48281
1037.47	9.64812
1040.85	10.3254
1044.22	11.6894
1047.6	8.87884
1050.97	8.71813
1054.35	8.3803
1057.72	8.33782
1061.1	7.07119
1064.47	7.08895
1067.85	7.01509
1071.22	5.57266
1074.6	5.62545
1077.97	7.17001
1081.35	5.80612
1084.72	5.68636
1088.09	6.3104
1091.47	6.45753
1094.84	5.41834
1098.22	5.30885
1101.59	6.38095
1104.97	3.28827
1108.34	2.76393
1111.72	1.48121
1115.09	1.56168
1118.47	1.33639
1121.84	1.20185
1125.22	0.068169
1128.59	2.03923
1131.97	0.599915
1135.34	1.65095
1138.72	1.75972
1142.09	2.08628
1145.47	4.45055
1148.84	1.43444
1152.22	1.80726
1155.59	2.53551
1158.97	0.992096
1162.34	0.987206
1165.71	0.230423
1169.09	2.22019
1172.46	3.42601
1175.84	2.37214
1179.21	1.75838
1182.59	1.71658
1185.96	0.719528
1189.34	1.52091
1192.71	1.13146
1196.09	0.4422
1199.46	2.14436
1202.84	1.01523
1206.21	1.69387
1209.59	1.17278
1212.96	0.827095
1216.34	0.363518
1219.71	0.164757
1223.09	0.837479
1226.46	0.342896
1229.84	2.72962
1233.21	2.74541
1236.59	1.4696
1239.96	1.46158
1243.34	1.08416
1246.71	1.09493
1250.09	0.754539
1253.46	2.49463
1256.84	1.14908
1260.21	1.94206
1263.59	1.90012
1266.96	1.22596
1270.33	0.836632
1273.71	0.046928
1277.08	0.456177
1280.46	0.914009
1283.83	1.71183
