Measurement: Raman, 785 nm, unoriented, Raman Data Processed
Mineral: Hoelite
Rruff sample: R060874
Ideal chemistry: C_14_H_8_O_2_
Locality: Kladno, Central Bohemia Region, Bohemia, Czech Republic
Source: Michael Scott
Description: Straw-yellow acicular crystals
Raman shift (cm-1)	intensity
156.722	0
159.615	3.01269
162.507	207.464
165.4	499.887
168.293	554.841
171.185	546.668
174.078	396.232
176.971	259.023
179.863	202.476
182.756	149.667
185.649	258.141
188.542	209.265
191.434	249.465
194.327	226.442
197.22	278.725
200.112	247.069
203.005	220.803
205.898	262.198
208.791	222.462
211.683	236.993
214.576	288.682
217.469	332.136
220.361	369.209
223.254	438.174
226.147	528.482
229.039	765.331
231.932	1277.93
234.825	2058.3
237.718	2652.37
240.61	2429.17
243.503	2050.75
246.396	1641.55
249.288	910.024
252.181	656.606
255.074	617.343
257.966	395.946
260.859	214.963
263.752	169.284
266.645	145.892
269.537	89.687
272.43	80.6523
275.323	137.117
278.215	91.5322
281.108	98.9502
284.001	48.9238
286.894	86.9668
289.786	6.6084
292.679	18.2627
295.572	8.29785
298.464	182.629
301.357	203.978
304.25	137.288
307.142	105.814
310.035	22.7627
312.928	49.4697
315.82	6.8916
318.713	14.544
321.606	17.5596
324.499	5.67676
327.391	103.846
330.284	143.13
333.177	105.633
336.069	40.6211
338.962	53.6484
341.855	0.717773
344.748	0.378906
347.64	37.5293
350.533	81.3379
353.426	95.0098
356.318	145.255
359.211	267.858
362.104	404.202
364.996	282.712
367.889	96.0537
370.782	65.1084
373.675	95.1826
376.567	101.603
379.46	71.3535
382.353	115.895
385.245	7.75488
388.138	4.17578
391.031	165.562
393.923	98.0147
396.816	144.176
399.709	106.853
402.601	28.7471
405.494	22.4902
408.387	87.4072
411.28	71.5811
414.172	87.041
417.065	142.928
419.958	191.056
422.85	123.801
425.743	116.549
428.636	137.392
431.529	68.2393
434.421	193.442
437.314	297.104
440.207	244.941
443.099	312.488
445.992	206.942
448.885	137.455
451.777	68.9473
454.67	145.068
457.563	58.6065
460.455	134.761
463.348	208.418
466.241	435.423
469.134	860.477
472.026	1682.54
474.919	2771.99
477.812	2537.13
480.704	1121.59
483.597	482.701
486.49	230.257
489.382	202.922
492.275	148.158
495.168	160.541
498.061	62.8232
500.953	1.28809
503.846	25.2812
506.739	6.54297
509.631	127.398
512.524	39.8242
515.417	77.417
518.309	72.4766
521.202	102.081
524.095	72.8301
526.988	13.8174
529.88	0.792969
532.773	12.4434
535.666	52.081
538.558	93.0557
541.451	9.5918
544.344	96.5527
547.236	49.4111
550.129	33.3115
553.022	66.9307
555.915	96.0371
558.807	125.783
561.7	43.7461
564.593	36.6309
567.485	45.5459
570.378	30.2705
573.271	35.8818
576.163	9.57324
579.056	7.27832
581.949	34.8428
584.842	82.8018
587.734	92.8086
590.627	28.0479
593.52	10.4268
596.412	41.7275
599.305	13.2559
602.198	24.0986
605.091	51.0772
607.983	71.2978
610.876	13.5762
613.769	45.0312
616.661	68.958
619.554	54.6123
622.447	54.8887
625.339	58.333
628.232	61.4932
631.125	77.4522
634.018	66.0342
636.91	73.3984
639.803	87.8838
642.696	75.2519
645.588	41.7334
648.481	79.2754
651.374	90.6328
654.266	157.192
657.159	190.477
660.052	77.4971
662.944	62.6221
665.837	23.0186
668.73	28.4102
671.623	168.301
674.515	217.075
677.408	344.082
680.301	558.094
683.193	1038.47
686.086	427.582
688.979	103.568
691.871	131.431
694.764	117.272
697.657	167.989
700.55	72.3477
703.442	52.6728
706.335	31.666
709.228	49.2676
712.12	27.792
715.013	10.4629
717.906	10.4834
720.798	40.1934
723.691	75.5811
726.584	36.2842
729.477	13.373
732.369	57.8018
735.262	8.29492
738.155	83.1221
741.047	103.227
743.94	91.7041
746.833	33.4258
749.726	48.5781
752.618	76.9038
755.511	51.9766
758.404	19.8467
761.296	174.174
764.189	254.882
767.082	349.903
769.974	259.652
772.867	204.666
775.76	107.191
778.653	104.969
781.545	97.708
784.438	173.532
787.331	219.828
790.223	143.492
793.116	101.469
796.009	71.3135
798.901	60.4946
801.794	49.1572
804.687	124.689
807.58	135.313
810.472	141.952
813.365	143.359
816.258	173.903
819.15	227.872
822.043	62.646
824.936	40.0654
827.828	71.1196
830.721	44.542
833.614	14.6069
836.507	77.439
839.399	35.523
842.292	25.9199
845.185	5.1333
848.077	75.6523
850.97	65.5288
853.863	71.4106
856.755	31.0747
859.648	40.4443
862.541	66.8877
865.434	32.9868
868.326	16.2725
871.219	35.5435
874.112	50.3296
877.004	80.2046
879.897	52.2012
882.79	35.8648
885.683	25.5781
888.575	32.1148
891.468	8.58154
894.361	53.4639
897.253	37.3247
900.146	40.1445
903.039	12.6729
905.931	53.2998
908.824	56.1289
911.717	28.251
914.61	88.1611
917.502	62.5942
920.395	69.2031
923.288	70.4273
926.18	133.995
929.073	40.7783
931.966	17.6943
934.858	73.1938
937.751	79.5933
940.644	11.6968
943.537	4.10059
946.429	25.7183
949.322	41.0142
952.215	49.5107
955.107	45.1685
958	43.9595
960.893	60.6387
963.785	121.153
966.678	82.1636
969.571	31.2476
972.463	64.0386
975.356	135.345
978.249	103.946
981.142	122.784
984.034	66.396
986.927	34.0581
989.82	50.9619
992.712	5.28467
995.605	19.3643
998.498	84.3906
1001.39	67.1367
1004.28	108.647
1007.18	76.2808
1010.07	90.9819
1012.96	103.471
1015.85	201.718
1018.75	145.456
1021.64	312.076
1024.53	515.385
1027.42	1426.56
1030.32	3423.61
1033.21	2009.4
1036.1	468.368
1039	226.29
1041.89	147.139
1044.78	99.2861
1047.67	79.4702
1050.57	31.9961
1053.46	33.3662
1056.35	59.6084
1059.24	28.8179
1062.14	78.5425
1065.03	11.2822
1067.92	4.71631
1070.82	118.987
1073.71	66.6602
1076.6	47.6592
1079.49	102.311
1082.39	128.132
1085.28	4.23877
1088.17	19.6426
1091.06	40.8286
1093.96	60.0723
1096.85	99.8555
1099.74	19.3774
1102.63	5.87451
1105.53	6.43311
1108.42	35.2109
1111.31	4.11182
1114.21	38.2388
1117.1	39.873
1119.99	16.8594
1122.88	20.5347
1125.78	17.1562
1128.67	30.0503
1131.56	15.3774
1134.45	17.2759
1137.35	107.806
1140.24	250.698
1143.13	562.417
1146.03	972.202
1148.92	1064.16
1151.81	763.057
1154.7	514.488
1157.6	346.342
1160.49	228.574
1163.38	207.567
1166.27	232.823
1169.17	429.975
1172.06	1228.11
1174.95	2273.4
1177.85	3452.35
1180.74	1047.5
1183.63	264.457
1186.52	118.811
1189.42	85.5791
1192.31	74.8911
1195.2	60.8965
1198.09	38.3657
1200.99	95.939
1203.88	61.4922
1206.77	101.244
1209.66	142.723
1212.56	291.671
1215.45	247.712
1218.34	130.117
1221.24	96.2871
1224.13	61.2144
1227.02	72.1387
1229.91	28.8984
1232.81	16.2979
1235.7	73.3818
1238.59	15.7319
1241.48	45.4844
1244.38	49.4282
1247.27	44.4155
1250.16	47.4868
1253.06	3.21533
1255.95	33.4746
1258.84	14.7202
1261.73	41.9204
1264.63	45.6533
1267.52	0
