Measurement: Raman, 532 nm, unoriented, Raman Data Processed
Mineral: Holdawayite
Rruff sample: R090029
Ideal chemistry: Mn^2+^_6_(CO_3_)_2_(OH)_7_(Cl,OH)
Locality: Kombat, Namibia
Source: William W. Pinch
Description: Compact platy crystalline. Colorless when thin, but brown when thick.
Raman shift (cm-1)	intensity
120.335	0
123.71	2.95499
127.085	0.37952
130.46	28.8099
133.834	49.1594
137.209	70.4515
140.584	89.281
143.959	99.398
147.334	115.606
150.708	123.45
154.083	117.589
157.458	105.04
160.833	104.561
164.208	102.139
167.583	91.7123
170.957	85.5857
174.332	67.3255
177.707	54.6649
181.082	43.1173
184.457	37.0433
187.832	33.4128
191.206	26.4267
194.581	23.7311
197.956	25.1031
201.331	26.5348
204.706	27.1669
208.08	31.5878
211.455	35.2529
214.83	34.9451
218.205	37.3451
221.58	36.4223
224.954	35.4492
228.329	33.225
231.704	24.9272
235.079	18.5101
238.454	14.2366
241.829	11.4077
245.203	4.89534
248.578	2.12418
251.953	0.191856
255.328	1.91722
258.703	1.00739
262.077	3.62952
265.452	1.42217
268.827	0.238716
272.202	2.4512
275.577	0.928169
278.952	0.52351
282.326	0.745972
285.701	1.36769
289.076	0.897392
292.451	4.63551
295.826	5.61199
299.2	7.05194
302.575	6.35823
305.95	8.20208
309.325	9.27252
312.7	9.36249
316.075	10.2021
319.449	8.94145
322.824	12.2941
326.199	12.9858
329.574	8.53958
332.949	8.5737
336.323	10.7601
339.698	8.49189
343.073	8.06395
346.448	5.88271
349.823	4.019
353.197	5.16595
356.572	4.43141
359.947	6.41533
363.322	2.89285
366.697	4.9664
370.072	2.97602
373.446	3.40602
376.821	1.73638
380.196	0.821594
383.571	0.22374
386.946	3.317
390.32	2.27393
393.695	4.02179
397.07	2.68375
400.445	7.14572
403.82	5.0988
407.195	9.38523
410.569	12.3165
413.944	11.2514
417.319	8.99173
420.694	7.99298
424.069	7.71963
427.443	5.29326
430.818	5.2026
434.193	4.18619
437.568	4.76168
440.943	3.34863
444.317	6.43225
447.692	6.25067
451.067	3.3581
454.442	5.45266
457.817	4.08736
461.192	4.41521
464.566	1.01339
467.941	3.95002
471.316	2.1642
474.691	0.038235
478.066	1.39341
481.44	0.158043
484.815	2.43587
488.19	0.217724
491.565	1.01811
494.94	2.93453
498.315	2.62989
501.689	0.231659
505.064	4.64106
508.439	3.04845
511.814	3.1275
515.189	3.35061
518.563	2.59314
521.938	1.40937
525.313	1.88837
528.688	0.179817
532.063	2.45112
535.438	0.113327
538.812	1.77346
542.187	3.25426
545.562	2.85658
548.937	1.64185
552.312	2.11664
555.687	2.04719
559.061	3.4227
562.436	4.12268
565.811	5.41184
569.186	5.09929
572.561	5.43678
575.935	6.00745
579.31	4.94446
582.685	5.69812
586.06	8.08018
589.435	6.35539
592.809	7.4005
596.184	9.0675
599.559	7.77908
602.934	8.98928
606.309	7.24898
609.683	8.069
613.058	8.09349
616.433	9.39879
619.808	9.61841
623.183	8.91227
626.558	9.34726
629.932	8.01464
633.307	9.50613
636.682	8.3836
640.057	6.93962
643.432	7.11434
646.807	5.00837
650.181	3.9401
653.556	3.99195
656.931	1.13817
660.306	0.300503
663.681	2.88363
667.055	0.226967
670.43	0.737907
673.805	0.939972
677.18	1.37466
680.555	1.65718
683.929	1.9147
687.304	5.16313
690.679	9.03189
694.054	15.2495
697.429	20.1815
700.803	21.0278
704.178	16.8343
707.553	9.63049
710.928	5.93192
714.303	3.75743
717.678	3.40511
721.052	4.47983
724.427	6.74069
727.802	5.88968
731.177	4.02278
734.552	2.82367
737.927	3.40944
741.301	2.77304
744.676	5.23257
748.051	3.62602
751.426	1.20096
754.801	3.07156
758.175	1.31684
761.55	1.71585
764.925	1.21176
768.3	2.22183
771.675	2.30203
775.049	1.68247
778.424	1.56982
781.799	0.113033
785.174	0.012375
788.549	3.43629
791.923	1.66141
795.298	2.40494
798.673	3.47031
802.048	0.58728
805.423	0.277969
808.798	0.283707
812.172	2.0407
815.547	2.15826
818.922	0.546322
822.297	2.47359
825.672	1.59538
829.047	0.6077
832.421	1.45859
835.796	1.62447
839.171	6.26136
842.546	3.84156
845.921	4.90338
849.295	5.27677
852.67	6.66454
856.045	4.97493
859.42	3.76119
862.795	5.33629
866.169	4.48449
869.544	5.92817
872.919	4.2582
876.294	8.14201
879.669	7.57385
883.044	11.3536
886.418	8.95178
889.793	12.7962
893.168	16.6723
896.543	23.5057
899.918	30.4053
903.293	26.1877
906.667	14.5093
910.042	8.38681
913.417	4.86607
916.792	2.47186
920.167	2.74009
923.541	3.43258
926.916	7.14922
930.291	6.62934
933.666	9.18968
937.041	8.07549
940.415	9.01568
943.79	10.1359
947.165	12.7558
950.54	6.60077
953.915	3.21689
957.29	1.81516
960.664	0.122879
964.039	0.611504
967.414	0.128662
970.789	0.125118
974.164	0.285652
977.538	1.7836
980.913	0.87439
984.288	0.11842
987.663	0.358391
991.038	0.714451
994.413	0.755196
997.787	2.09131
1001.16	2.6834
1004.54	0.073818
1007.91	1.3445
1011.29	0.186855
1014.66	2.16283
1018.04	1.71253
1021.41	1.4857
1024.79	1.87555
1028.16	1.89715
1031.54	3.03342
1034.91	5.06961
1038.29	4.15199
1041.66	2.27691
1045.04	3.36563
1048.41	4.33178
1051.78	5.94559
1055.16	2.83347
1058.53	7.64509
1061.91	10.9671
1065.28	12.1851
1068.66	20.1093
1072.03	36.3563
1075.41	79.954
1078.78	176.774
1082.16	379.089
1085.53	638.151
1088.91	685.327
1092.28	431.675
1095.66	176.231
1099.03	64.5927
1102.41	27.9251
1105.78	15.353
1109.16	7.04235
1112.53	4.45095
1115.91	0.803436
1119.28	2.50562
1122.66	3.4373
1126.03	2.55684
1129.4	0.780533
1132.78	0.10918
1136.15	0.616779
1139.53	1.56603
1142.9	2.34858
1146.28	0.265572
1149.65	2.65611
1153.03	2.9254
1156.4	0.90284
1159.78	0.674995
1163.15	2.37256
1166.53	1.10604
1169.9	1.79331
1173.28	3.79745
1176.65	0.366444
1180.03	3.61323
1183.4	0.841282
1186.78	2.51285
1190.15	1.7493
1193.53	3.33208
1196.9	3.61303
1200.28	1.89695
1203.65	3.90603
1207.03	1.77367
1210.4	3.93808
1213.78	2.43401
1217.15	1.60828
1220.53	0.76078
1223.9	1.39917
1227.28	0.900536
1230.65	0.426987
1234.02	1.73669
1237.4	1.66066
1240.77	1.46685
1244.15	1.45853
1247.52	4.03165
1250.9	0.56921
1254.27	2.64243
1257.65	2.75151
1261.02	2.0863
1264.4	1.28458
1267.77	0.254776
1271.15	3.53255
1274.52	2.11807
1277.9	0.522583
1281.27	2.71704
1284.65	3.24299
1288.02	1.10842
1291.4	2.9029
1294.77	2.1286
1298.15	0.173107
1301.52	2.16432
