Measurement: Raman, 780 nm, unoriented, Raman Data Processed
Mineral: Holdawayite
Rruff sample: R090029
Ideal chemistry: Mn^2+^_6_(CO_3_)_2_(OH)_7_(Cl,OH)
Locality: Kombat, Namibia
Source: William W. Pinch
Description: Compact platy crystalline. Colorless when thin, but brown when thick.
Raman shift (cm-1)	intensity
116.001	0
119.376	0.99353
122.75	17.9788
126.125	52.2745
129.5	100.85
132.875	146.632
136.25	189.693
139.624	223.989
142.999	238.632
146.374	238.637
149.749	223.34
153.124	207.462
156.499	199.073
159.873	188.157
163.248	180.112
166.623	152.167
169.998	118.32
173.373	84.5904
176.747	52.7648
180.122	32.7238
183.497	20.3961
186.872	11.5056
190.247	13.9543
193.621	20.2512
196.996	32.9788
200.371	53.9906
203.746	75.8805
207.121	97.2051
210.495	118.427
213.87	137.186
217.245	147.162
220.62	151.33
223.995	148.156
227.37	127.213
230.744	104.422
234.119	77.3003
237.494	55.5616
240.869	33.5893
244.244	18.4886
247.619	2.63332
250.993	2.27074
254.368	4.22981
257.743	4.07251
261.118	2.39865
264.493	4.68106
267.867	0.758072
271.242	0.284149
274.617	1.62935
277.992	6.76656
281.367	9.29909
284.741	12.0317
288.116	15.2024
291.491	19.2522
294.866	23.8797
298.241	29.3223
301.616	29.7055
304.99	33.9369
308.365	33.8313
311.74	33.2997
315.115	34.9607
318.49	32.1816
321.865	30.6498
325.239	26.2527
328.614	25.4646
331.989	20.1608
335.364	19.6496
338.739	19.1074
342.113	18.5984
345.488	17.9717
348.863	17.9047
352.238	16.1146
355.613	12.9923
358.987	13.3003
362.362	10.369
365.737	7.73016
369.112	6.33728
372.487	3.3049
375.861	2.47333
379.236	2.7105
382.611	2.79621
385.986	2.95268
389.361	4.23631
392.736	10.5709
396.11	13.2362
399.485	16.3347
402.86	23.0636
406.235	23.8252
409.61	26.1616
412.985	22.8478
416.359	25.8325
419.734	19.8993
423.109	15.7963
426.484	14.4232
429.859	13.1709
433.233	12.2981
436.608	12.8715
439.983	12.7859
443.358	11.9004
446.733	12.1257
450.108	9.9485
453.482	10.9839
456.857	12.3553
460.232	8.37394
463.607	5.3677
466.982	3.64755
470.356	0.391319
473.731	1.39669
477.106	2.61383
480.481	0.649849
483.856	0.31881
487.231	0.294037
490.605	0.962784
493.98	0.417061
497.355	2.77096
500.73	1.45069
504.104	1.68414
507.479	0.647057
510.854	2.93939
514.229	1.03921
517.604	0.240913
520.979	1.64476
524.354	1.95799
527.728	3.15033
531.103	3.46959
534.478	2.65646
537.853	6.00134
541.227	8.21516
544.602	7.41746
547.977	5.5694
551.352	10.4158
554.727	10.7478
558.102	14.9664
561.476	16.0395
564.851	16.9841
568.226	18.8552
571.601	21.5982
574.976	22.7543
578.351	25.1444
581.725	25.1752
585.1	25.7991
588.475	27.1843
591.85	31.6447
595.225	32.0877
598.599	32.8055
601.974	33.7786
605.349	32.2662
608.724	31.9164
612.099	33.2448
615.473	31.5016
618.848	33.0328
622.223	30.676
625.598	26.1626
628.973	25.3458
632.347	21.6384
635.722	20.6928
639.097	19.7684
642.472	16.2924
645.847	11.1774
649.222	9.13049
652.596	7.33369
655.971	4.13977
659.346	1.55606
662.721	3.29683
666.096	0.984222
669.471	1.01671
672.845	1.15579
676.22	0.340408
679.595	0.493073
682.97	9.15653
686.345	17.5621
689.719	29.8324
693.094	40.8027
696.469	52.8563
699.844	49.5049
703.219	38.1177
706.593	23.0984
709.968	14.98
713.343	12.4831
716.718	9.11789
720.093	9.39215
723.468	9.36189
726.842	10.2806
730.217	9.30635
733.592	6.40009
736.967	5.19817
740.342	4.23038
743.716	3.19852
747.091	5.41615
750.466	3.04205
753.841	5.40134
757.216	3.23666
760.591	0.377914
763.965	2.36159
767.34	0.60791
770.715	1.89967
774.09	0.274002
777.465	1.13242
780.84	1.47601
784.214	1.51033
787.589	1.15723
790.964	3.40662
794.339	4.02649
797.714	1.65887
801.088	0.722633
804.463	2.7468
807.838	1.65714
811.213	1.79094
814.588	4.60832
817.962	6.73057
821.337	5.66476
824.712	5.59081
828.087	7.03136
831.462	7.29642
834.837	10.1464
838.211	11.2011
841.586	13.2458
844.961	12.4744
848.336	12.4089
851.711	12.1385
855.085	11.7134
858.46	13.2108
861.835	15.4616
865.21	13.9535
868.585	14.5745
871.96	13.3382
875.334	16.1219
878.709	18.8235
882.084	21.0064
885.459	28.1248
888.834	35.4819
892.208	42.0369
895.583	51.215
898.958	55.4691
902.333	44.504
905.708	25.1722
909.082	13.7961
912.457	10.3556
915.832	9.24654
919.207	10.7726
922.582	12.9752
925.957	16.1226
929.331	19.6804
932.706	24.6954
936.081	25.6068
939.456	22.5245
942.831	21.4964
946.205	20.5933
949.58	14.3331
952.955	5.64284
956.33	0.698746
959.705	1.45959
963.08	0.784737
966.454	0.563187
969.829	1.49258
973.204	1.31092
976.579	0.450787
979.954	1.30188
983.328	0.513676
986.703	0.978085
990.078	1.00544
993.453	2.00827
996.828	0.996086
1000.2	1.62892
1003.58	0.195953
1006.95	1.72319
1010.33	3.47138
1013.7	4.27814
1017.08	3.26864
1020.45	4.50194
1023.83	3.48232
1027.2	3.3537
1030.58	5.11398
1033.95	2.50413
1037.33	3.81983
1040.7	2.47161
1044.08	1.93382
1047.45	6.76261
1050.83	8.99929
1054.2	9.86022
1057.57	15.1402
1060.95	23.0697
1064.32	34.2799
1067.7	66.6813
1071.07	142.997
1074.45	299.311
1077.82	544.392
1081.2	853.856
1084.57	1126.53
1087.95	1131.22
1091.32	795.387
1094.7	383.359
1098.07	154.477
1101.45	65.1892
1104.82	32.156
1108.2	18.245
1111.57	9.65999
1114.95	9.58344
1118.32	5.98843
1121.7	2.54909
1125.07	3.02977
1128.45	2.06047
1131.82	0.670782
1135.19	0.879831
1138.57	0.839855
1141.94	0.487606
1145.32	0.596771
1148.69	0.00312
1152.07	1.13213
1155.44	0.229668
1158.82	1.22536
1162.19	1.84011
1165.57	1.4702
1168.94	0.500193
1172.32	0.134052
1175.69	2.48066
1179.07	2.02131
1182.44	2.80402
1185.82	1.00938
1189.19	2.60785
1192.57	2.10537
1195.94	3.76616
1199.32	1.95647
1202.69	1.1035
1206.07	0.724043
1209.44	0.64933
1212.82	1.73565
1216.19	3.31556
1219.57	2.97828
1222.94	3.50465
1226.32	1.88637
1229.69	2.77963
1233.07	4.82811
1236.44	2.33584
1239.81	3.39012
1243.19	3.60837
1246.56	3.67262
1249.94	4.21974
1253.31	5.18793
1256.69	3.96646
1260.06	2.88071
1263.44	2.96428
1266.81	3.40049
1270.19	0.87595
1273.56	2.58315
1276.94	1.77106
1280.31	0.948254
1283.69	1.85979
