Measurement: Raman, 780 nm, unoriented, Raman Data Processed
Mineral: Holfertite
Rruff sample: R060595
Ideal chemistry: (U^6+^O_2_)_1.75_Ca_0.25_Ti^4+^O_4_3H_2_O
Locality: Searle Canyon, Thomas Range, Juab County, Utah, USA
Source: Michael Scott
Description: Yellow bladed crystals embedded in topaz
Raman shift (cm-1)	intensity
91.5599	0
94.9347	34.5654
98.3096	24.7034
101.684	18.9145
105.059	19.2816
108.434	15.4889
111.809	0.032776
115.184	2.02258
118.558	1.58676
121.933	0.80368
125.308	7.25171
128.683	10.0025
132.058	13.0472
135.433	14.6395
138.807	19.6414
142.182	23.1977
145.557	19.8132
148.932	18.9765
152.307	19.1561
155.681	18.4315
159.056	14.9603
162.431	10.092
165.806	9.01971
169.181	2.81546
172.555	0.199982
175.93	0.840088
179.305	1.33362
182.68	0.826874
186.055	0.976532
189.43	5.22964
192.804	8.8819
196.179	10.9893
199.554	13.48
202.929	13.8269
206.304	18.51
209.678	18.6561
213.053	19.8735
216.428	19.3865
219.803	20.0709
223.178	19.686
226.553	22.6461
229.927	24.5856
233.302	26.8996
236.677	33.8042
240.052	48.3879
243.427	47.4779
246.801	26.8583
250.176	25.9629
253.551	23.9389
256.926	21.8337
260.301	22.216
263.675	23.2298
267.05	33.8631
270.425	45.7595
273.8	11.9526
277.175	7.40231
280.55	5.23086
283.924	12.1808
287.299	28.9855
290.674	11.5717
294.049	4.0748
297.424	4.33539
300.798	1.62012
304.173	0.326385
307.548	3.3916
310.923	7.83206
314.298	14.3364
317.673	21.1651
321.047	25.1772
324.422	28.1096
327.797	29.0746
331.172	30.1483
334.547	32.3937
337.921	27.3712
341.296	22.6936
344.671	22.8892
348.046	24.2711
351.421	26.5771
354.796	29.5806
358.17	36.0658
361.545	45.9639
364.92	55.8784
368.295	71.9853
371.67	88.0478
375.044	105.544
378.419	126.149
381.794	143.773
385.169	162.418
388.544	175.219
391.918	178.689
395.293	173.453
398.668	160.46
402.043	142.261
405.418	124.528
408.793	95.5216
412.167	71.0773
415.542	50.2494
418.917	33.8722
422.292	20.6982
425.667	13.3323
429.041	7.50667
432.416	2.1595
435.791	2.3116
439.166	2.07262
442.541	1.69307
445.915	2.2001
449.29	0.494476
452.665	4.69423
456.04	8.66388
459.415	14.6587
462.789	16.948
466.164	23.6276
469.539	19.2482
472.914	15.6859
476.289	14.428
479.664	14.7588
483.038	15.3179
486.413	14.9273
489.788	13.5169
493.163	13.4541
496.538	9.66754
499.913	6.62459
503.287	5.79651
506.662	3.27486
510.037	2.98755
513.412	3.19736
516.787	2.48177
520.161	3.14624
523.536	2.81085
526.911	1.74976
530.286	0.650269
533.661	1.4644
537.035	0.794891
540.41	1.0314
543.785	0.626465
547.16	0.707657
550.535	1.11653
553.909	1.28697
557.284	0.078323
560.659	1.95578
564.034	2.51064
567.409	0.411484
570.784	0.702026
574.158	1.00966
577.533	1.05991
580.908	1.39311
584.283	2.00966
587.658	1.35344
591.033	2.14499
594.407	2.03033
597.782	1.68118
601.157	2.89133
604.532	1.31642
607.907	3.0439
611.281	2.7523
614.656	3.23657
618.031	3.57741
621.406	4.94281
624.781	7.10907
628.155	5.66739
631.53	5.98384
634.905	6.27679
638.28	8.17891
641.655	7.42804
645.029	6.2547
648.404	4.38498
651.779	3.80385
655.154	3.30739
658.529	2.69305
661.904	1.74703
665.278	0.833755
668.653	0.426849
672.028	0.666412
675.403	0.573334
678.778	1.65869
682.153	0.763382
685.527	1.64681
688.902	0.398605
692.277	1.08267
695.652	1.28505
699.027	2.05162
702.401	3.68214
705.776	6.42181
709.151	7.52203
712.526	11.6742
715.901	15.2555
719.275	18.609
722.65	23.8391
726.025	31.6793
729.4	39.2427
732.775	49.8349
736.149	61.2152
739.524	73.5406
742.899	85.6387
746.274	93.8437
749.649	98.7702
753.024	100.306
756.398	91.5877
759.773	79.279
763.148	65.9319
766.523	53.4676
769.898	39.2527
773.273	28.646
776.647	20.7546
780.022	13.7815
783.397	9.70383
786.772	7.26816
790.146	6.31796
793.521	6.91301
796.896	7.94752
800.271	10.6484
803.646	13.1127
807.021	19.2641
810.395	25.8481
813.77	33.5065
817.145	45.361
820.52	58.6785
823.895	73.8773
827.269	86.6711
830.644	94.6589
834.019	91.0269
837.394	75.6649
840.769	57.9891
844.144	39.9428
847.518	26.8357
850.893	19.0564
854.268	13.4047
857.643	9.91673
861.018	6.47831
864.393	2.42621
867.767	1.21664
871.142	0.644112
874.517	0.317635
877.892	0.967331
881.266	0.076241
884.641	1.00311
888.016	0.38372
891.391	1.10828
894.766	0.780937
898.141	0.760788
901.515	0.663559
904.89	1.42839
908.265	2.10409
911.64	3.64246
915.015	4.19268
918.389	5.12524
921.764	7.68141
925.139	10.038
928.514	10.716
931.889	12.3998
935.264	11.7409
938.638	13.1336
942.013	11.4317
945.388	6.35801
948.763	4.23868
952.138	2.85136
955.512	1.59795
958.887	1.51953
962.262	1.24596
965.637	3.6651
969.012	1.13619
972.386	0.926666
975.761	1.19923
979.136	1.32894
982.511	1.58344
985.886	2.11717
989.261	1.9102
992.635	1.26633
996.01	1.15607
999.385	1.44197
1002.76	2.61894
1006.13	2.17387
1009.51	2.66411
1012.88	2.63484
1016.26	3.22324
1019.63	3.74233
1023.01	1.06141
1026.38	1.56558
1029.76	1.40671
1033.13	0.814484
1036.51	1.50416
1039.88	0.773735
1043.26	1.12017
1046.63	2.70798
1050.01	1.60848
1053.38	1.5109
1056.76	2.45837
1060.13	2.45954
1063.51	2.21202
1066.88	1.90752
1070.26	2.69264
1073.63	1.12746
1077.01	0.837616
1080.38	1.1516
1083.76	0.813309
1087.13	1.67462
1090.51	0.827568
1093.88	0.766388
1097.26	0.079094
1100.63	0.326469
1104	0.377243
1107.38	0.841843
1110.75	0.942101
1114.13	0.421524
1117.5	0.452011
1120.88	2.5869
1124.25	2.91784
1127.63	6.01957
1131	8.0303
1134.38	10.3679
1137.75	12.6286
1141.13	12.1325
1144.5	10.2823
1147.88	7.23174
1151.25	5.00278
1154.63	3.18377
1158	1.68172
1161.38	0.290337
1164.75	0.175934
1168.13	0.551125
1171.5	0.011932
1174.88	0.664383
1178.25	1.10966
1181.62	1.2382
1185	3.17532
1188.38	1.58688
1191.75	3.72791
1195.12	4.1889
1198.5	3.37292
1201.87	2.55484
1205.25	2.23656
1208.62	0.38533
1212	0.624115
1215.37	1.05999
1218.75	0.070206
1222.12	0.016747
1225.5	1.20306
1228.87	2.73498
1232.25	1.87279
1235.62	2.52609
1239	3.03204
1242.37	4.31091
1245.75	4.45567
1249.12	6.69111
1252.5	10.9219
1255.87	13.6609
1259.25	15.7641
1262.62	16.1924
1265.99	16.4372
1269.37	11.4383
1272.74	7.08164
1276.12	3.84921
1279.49	2.21912
1282.87	0.031883
