Measurement: Raman, 532 nm, unoriented, Raman Data Processed
Mineral: Holfertite
Rruff sample: R060595
Ideal chemistry: (UO_2_)_1.75_Ca_0.25_TiO_4_3H_2_O
Locality: Searle Canyon, Thomas Range, Juab County, Utah, USA
Source: Michael Scott
Description: Yellow bladed crystals embedded in topaz
Raman shift (cm-1)	intensity
126.826	0
130.201	90.078
133.576	2575.97
136.951	5983.44
140.326	9392.72
143.7	12380.4
147.075	15620.4
150.45	18789.8
153.825	21689.2
157.2	23061
160.574	23423.4
163.949	21320.6
167.324	17571.1
170.699	13372.7
174.074	10002.9
177.449	7325.82
180.823	5090.42
184.198	3561.81
187.573	2120.48
190.948	992.465
194.323	326.352
197.697	68.547
201.072	44.473
204.447	454.938
207.822	675.168
211.197	358.953
214.572	216.422
217.946	67.578
221.321	106.793
224.696	366.652
228.071	207.68
231.446	122.66
234.82	383.949
238.195	515.488
241.57	848.109
244.945	1028.69
248.32	711.359
251.695	459.625
255.069	61
258.444	16.57
261.819	382.086
265.194	689.68
268.569	872.371
271.943	858.996
275.318	1159.45
278.693	1313.03
282.068	1449.44
285.443	1206.46
288.818	1037.63
292.192	789.648
295.567	500.094
298.942	287.117
302.317	244.418
305.691	237.605
309.066	246.234
312.441	38.141
315.816	279.641
319.191	265.945
322.566	36.16
325.94	268.68
329.315	755.93
332.69	1316.08
336.065	2118.2
339.44	2810.96
342.815	4009.32
346.189	5320.8
349.564	6786.16
352.939	8780.98
356.314	10770.3
359.689	13199.4
363.063	15935.1
366.438	19071.7
369.813	22599.5
373.188	26094.7
376.563	29062.1
379.938	31380.1
383.312	32282
386.687	31876.3
390.062	30484.5
393.437	27483.9
396.812	24238.1
400.186	21005.5
403.561	18025
406.936	15105.8
410.311	12560.3
413.686	10122.5
417.06	7767.85
420.435	5734.49
423.81	3773.45
427.185	2367.82
430.56	1349.82
433.935	481.557
437.309	91.066
440.684	146.014
444.059	333.887
447.434	50.814
450.809	124.887
454.183	205.611
457.558	477.965
460.933	817.076
464.308	1076.96
467.683	1258.64
471.057	1313.31
474.432	1199.88
477.807	1043.32
481.182	859.74
484.557	956.816
487.931	861.42
491.306	581.27
494.681	600.041
498.056	507.793
501.431	453.488
504.806	440.658
508.181	492.16
511.555	498.664
514.93	472.996
518.305	547.119
521.68	491.082
525.055	337.715
528.429	296.568
531.804	115.818
535.179	32.375
538.554	93.08
541.929	6.283
545.303	51.43
548.678	29.082
552.053	42.314
555.428	148.381
558.803	77.045
562.177	87.977
565.552	326.465
568.927	428.684
572.302	638.824
575.677	694.523
579.052	864.004
582.426	1022.76
585.801	1257.86
589.176	1355.47
592.551	1378.91
595.926	1641.54
599.3	1579.62
602.675	1751.05
606.05	1970.51
609.425	2211.39
612.8	2326.15
616.175	2529.49
619.549	2657.22
622.924	2877.52
626.299	2965.78
629.674	2872.52
633.049	2637.86
636.424	2207.18
639.798	1945.08
643.173	1757.26
646.548	1389.91
649.923	1210.51
653.297	874.113
656.672	775.223
660.047	370.621
663.422	23.57
666.797	42.992
670.172	157.264
673.546	302.287
676.921	541.932
680.296	467.855
683.671	313.584
687.046	82.082
690.42	264.285
693.795	681.311
697.17	1318.17
700.545	2080.55
703.92	2858.69
707.295	4143.96
710.669	5633.57
714.044	7779.08
717.419	9061.67
720.794	10542.9
724.169	12121.7
727.544	12935.5
730.918	13493.1
734.293	13547.8
737.668	13383
741.043	12656.6
744.417	12115.4
747.792	11510
751.167	10379.9
754.542	9334.81
757.917	8537.33
761.292	7837.35
764.666	7273.09
768.041	7046.83
771.416	7045.61
774.791	7069.32
778.166	7461.67
781.541	7985.43
784.915	8900.5
788.29	9989.91
791.665	11678.8
795.04	13811.1
798.415	16505
801.789	19061
805.164	21582.8
808.539	23679.5
811.914	24218.4
815.289	22659.5
818.664	19284.7
822.038	15729.6
825.413	12481.7
828.788	10143
832.163	7881.03
835.537	5895.44
838.912	4063.94
842.287	2512.28
845.662	1654.27
849.037	851.844
852.412	409.102
855.786	7.055
859.161	170.502
862.536	310.203
865.911	315.23
869.286	312.721
872.661	319.82
876.035	202.086
879.41	33.695
882.785	85.881
886.16	53.732
889.534	370.572
892.909	521.754
896.284	731.24
899.659	840.172
903.034	929.766
906.409	1064.77
909.783	1136.36
913.158	1077.58
916.533	1226.15
919.908	1213.84
923.283	1270.93
926.657	1206.21
930.032	1152.59
933.407	1037.53
936.782	821.048
940.157	790.032
943.532	687.948
946.906	518.605
950.281	577.051
953.656	473.242
957.031	637.169
960.406	490.882
963.781	579.08
967.155	545.856
970.53	525.6
973.905	440.023
977.28	406.428
980.655	422.428
984.029	360.42
987.404	397.831
990.779	243.502
994.154	293.49
997.529	323.665
1000.9	254.183
1004.28	259.171
1007.65	172.707
1011.03	153.107
1014.4	146.363
1017.78	162.272
1021.15	133.522
1024.53	131.503
1027.9	177.258
1031.28	131.432
1034.65	124.09
1038.03	153.034
1041.4	61.851
1044.78	260.165
1048.15	34.279
1051.53	125.617
1054.9	15.859
1058.28	112.749
1061.65	59.125
1065.03	63.587
1068.4	12.338
1071.78	23.512
1075.15	110.731
1078.52	75.134
1081.9	19.289
1085.27	35.548
1088.65	128.521
1092.02	43.01
1095.4	37.999
1098.77	82.479
1102.15	139.163
1105.52	127.861
1108.9	87.125
1112.27	27.456
1115.65	91.141
1119.02	24.197
1122.4	26.194
1125.77	32.501
1129.15	62.445
1132.52	109.62
1135.9	71.211
1139.27	108.223
1142.65	236.199
1146.02	71.102
1149.39	34.312
1152.77	83.164
1156.14	105.818
1159.52	40.337
1162.89	220.321
1166.27	55.605
1169.64	13.979
1173.02	121.668
1176.39	149.704
1179.77	79.901
1183.14	215.993
1186.52	100.633
1189.89	88.972
1193.27	3.376
1196.64	120.088
1200.02	140.347
1203.39	31.511
1206.77	84.637
1210.14	137.184
1213.52	20.301
1216.89	72.993
1220.27	71.778
1223.64	93.015
1227.02	95.406
1230.39	56.711
1233.77	205.741
1237.14	157.236
1240.52	135.07
1243.89	107.134
1247.27	157.138
1250.64	121.468
1254.02	103.745
1257.39	86.164
1260.76	78.582
1264.14	5.788
1267.51	0.033
1270.89	79.473
1274.26	213.515
1277.64	94.031
1281.01	70.391
1284.39	6.636
1287.76	12.996
1291.14	9.612
1294.51	36.228
1297.89	32.469
