Measurement: Raman, 780 nm, unoriented, Raman Data Processed
Mineral: Holmquistite
Rruff sample: R130004
Ideal chemistry: [box]Li_2_(Mg_3_Al_2_)Si_8_O_22_(OH)_2_
Locality: Quebec Lithium Corporation mine, La Corne, Abitibi RCM, Abitibi-Temiscamingue, Quebec, Canada
Source: Don Doell
Description: Parallel aggregate of pale purple bladed crystals
Measured chemistry: Na_0.06_Li_2_(Mg_1.89_Fe_1.41_Al_1.73_)Si_8_O_22_(OH)_1.90_F_0.10_
Raman shift (cm-1)	intensity
101.806	0
105.181	3.42398
108.556	2.96563
111.931	1.11866
115.305	5.65213
118.68	8.67958
122.055	8.44302
125.43	0.674141
128.805	0.855743
132.179	1.07723
135.554	0.972946
138.929	3.88796
142.304	4.91885
145.679	7.98557
149.054	9.24711
152.428	6.97223
155.803	3.2317
159.178	1.41057
162.553	2.62531
165.928	2.12196
169.302	6.56068
172.677	11.6514
176.052	17.0842
179.427	23.1548
182.802	31.788
186.177	43.1193
189.551	53.6147
192.926	45.5095
196.301	26.6086
199.676	13.7334
203.051	7.80617
206.425	4.5122
209.8	4.17779
213.175	4.31327
216.55	4.68178
219.925	2.28667
223.299	2.21815
226.674	1.67236
230.049	2.26
233.424	2.95492
236.799	3.29057
240.173	6.08033
243.548	6.30681
246.923	6.85573
250.298	5.39961
253.673	4.16321
257.048	2.32833
260.422	2.27903
263.797	0.759632
267.172	0.015896
270.547	0.830444
273.922	1.08864
277.296	0.205032
280.671	0.22744
284.046	1.97266
287.421	3.18677
290.796	5.38078
294.171	6.00647
297.545	5.41223
300.92	5.67874
304.295	5.92103
307.67	5.50552
311.045	3.67158
314.42	2.39119
317.794	1.6822
321.169	2.29264
324.544	2.64932
327.919	2.83158
331.293	3.40598
334.668	4.57032
338.043	4.53916
341.418	4.10667
344.793	2.59019
348.168	1.5151
351.542	0.330742
354.917	0.619946
358.292	0.545998
361.667	0.927578
365.042	3.16035
368.416	5.28104
371.791	9.25444
375.166	13.7207
378.541	19.1522
381.916	27.4742
385.291	33.8373
388.665	29.451
392.04	18.0777
395.415	11.5494
398.79	9.23926
402.165	9.01952
405.539	9.92944
408.914	9.69198
412.289	10.6567
415.664	11.7333
419.039	11.2668
422.413	7.93821
425.788	3.28238
429.163	0.251644
432.538	0.04179
435.913	1.08591
439.288	0.282822
442.662	0.321804
446.037	1.62368
449.412	2.35916
452.787	2.9542
456.162	1.76212
459.536	0.198074
462.911	0.352936
466.286	0.461136
469.661	0.405144
473.036	0.453094
476.411	0.966339
479.785	0.893711
483.16	0.525185
486.535	0.316116
489.91	1.19356
493.285	1.45119
496.659	2.01992
500.034	2.47412
503.409	3.10828
506.784	4.03968
510.159	2.21353
513.534	2.06839
516.908	3.3492
520.283	4.02298
523.658	5.99812
527.033	8.42645
530.408	9.89063
533.782	11.6467
537.157	13.8977
540.532	15.1262
543.907	15.7129
547.282	17.9378
550.656	17.6799
554.031	17.3072
557.406	16.2262
560.781	12.1518
564.156	10.9555
567.53	8.76477
570.905	7.52814
574.28	7.25718
577.655	6.44429
581.03	5.26452
584.405	4.57363
587.779	3.92491
591.154	3.1953
594.529	2.23096
597.904	3.04936
601.279	3.10699
604.654	2.89615
608.028	2.65028
611.403	2.38384
614.778	0.063824
618.153	0.777897
621.528	0.78059
624.902	0.468529
628.277	0.118641
631.652	0.697575
635.027	1.53174
638.402	3.86939
641.776	5.88501
645.151	7.24936
648.526	8.62381
651.901	10.4951
655.276	13.6962
658.65	17.7238
662.025	23.8443
665.4	31.9413
668.775	43.2345
672.15	59.4073
675.525	72.0524
678.899	59.4218
682.274	37.0395
685.649	23.7178
689.024	15.9364
692.399	10.9588
695.774	8.0516
699.148	4.60755
702.523	3.5424
705.898	1.96416
709.273	0.948002
712.648	0.412724
716.022	0.942139
719.397	0.440941
722.772	0.062675
726.147	0.225018
729.522	0.176495
732.896	0.857967
736.271	1.88381
739.646	3.3442
743.021	4.06655
746.396	5.51873
749.77	8.11334
753.145	6.3784
756.52	3.64781
759.895	1.49017
763.27	0.80724
766.645	0.048824
770.019	0.409889
773.394	0.433811
776.769	0.837708
780.144	2.36249
783.519	3.5039
786.894	5.30001
790.268	4.26305
793.643	3.39386
797.018	1.145
800.393	1.48938
803.768	0.078037
807.142	1.14602
810.517	1.18496
813.892	0.166512
817.267	0.222351
820.642	0.00808
824.016	0.484325
827.391	0.501511
830.766	0.820587
834.141	0.680664
837.516	0.877968
840.89	0.785755
844.265	1.20419
847.64	1.71124
851.015	1.66593
854.39	1.16502
857.765	2.10623
861.139	2.25266
864.514	1.28243
867.889	1.83985
871.264	1.98039
874.639	2.04559
878.013	2.16608
881.388	2.33235
884.763	2.10175
888.138	2.08726
891.513	1.83471
894.888	1.28141
898.262	1.16114
901.637	0.939434
905.012	1.05391
908.387	0.833778
911.762	0.4123
915.136	0.695271
918.511	0.95385
921.886	0.730385
925.261	0.160549
928.636	0.423428
932.01	0.405319
935.385	0.148911
938.76	0.151012
942.135	0.613556
945.51	0.002983
948.885	0.051731
952.259	0.222557
955.634	0.181747
959.009	0.188122
962.384	0.547421
965.759	0.679485
969.133	1.0655
972.508	1.33763
975.883	1.07514
979.258	1.86758
982.633	2.36524
986.008	3.16993
989.382	3.81041
992.757	4.21469
996.132	2.72142
999.507	1.8478
1002.88	0.530014
1006.26	0.342304
1009.63	0.915649
1013.01	1.76043
1016.38	2.71695
1019.76	3.20307
1023.13	4.01247
1026.51	3.55572
1029.88	4.0696
1033.26	4.16201
1036.63	4.22579
1040.01	5.03979
1043.38	4.87192
1046.75	4.69258
1050.13	4.32454
1053.5	3.51247
1056.88	1.93034
1060.25	2.67116
1063.63	2.35418
1067	0.611595
1070.38	0.524658
1073.75	0.533426
1077.13	0.151197
1080.5	0.020933
1083.88	0.361166
1087.25	0.189316
1090.63	1.12792
1094	0.595331
1097.38	0.212275
1100.75	0.606495
1104.13	0.271515
1107.5	1.19386
1110.88	0.563128
1114.25	0.817648
1117.62	1.40063
1121	1.75708
1124.38	2.25272
1127.75	3.63341
1131.12	2.24991
1134.5	2.56943
1137.87	2.08869
1141.25	2.42718
1144.62	1.46438
1148	2.09834
1151.37	2.06493
1154.75	1.10146
1158.12	1.40969
1161.5	0.505142
1164.87	0.701328
1168.25	0.776016
1171.62	0.61079
1175	0.308645
1178.37	0.678925
1181.75	0.219345
1185.12	0.20525
1188.5	0.403997
1191.87	0.590572
1195.25	0.390753
1198.62	0.679642
1202	0.624641
1205.37	0.474333
1208.74	0.863419
1212.12	0.787136
1215.49	0.307552
1218.87	0.541559
1222.24	0.402409
1225.62	0.26647
1228.99	0.692377
1232.37	0.586493
1235.74	0.669748
1239.12	1.86023
1242.49	0.720921
1245.87	0.253914
1249.24	0.169897
1252.62	0.496174
1255.99	0.51462
1259.37	0.494392
1262.74	0.197077
1266.12	0.26738
1269.49	1.18071
1272.87	0.85725
1276.24	0.457821
1279.62	0.653221
1282.99	1.34447
