Measurement: Raman, 532 nm, unoriented, Raman Data Processed
Mineral: Holmquistite
Rruff sample: R130004
Ideal chemistry: [box]Li_2_(Mg_3_Al_2_)Si_8_O_22_(OH)_2_
Locality: Quebec Lithium Corporation mine, La Corne, Abitibi RCM, Abitibi-Temiscamingue, Quebec, Canada
Source: Don Doell
Description: Parallel aggregate of pale purple bladed crystals
Measured chemistry: Na_0.06_Li_2_(Mg_1.89_Fe_1.41_Al_1.73_)Si_8_O_22_(OH)_1.90_F_0.10_
Raman shift (cm-1)	intensity
180.964	0
183.857	0.208878
186.749	11.536
189.642	27.085
192.535	46.8083
195.427	47.6982
198.32	30.8208
201.213	17.1983
204.105	11.6294
206.998	9.13363
209.891	8.13312
212.784	9.11488
215.676	9.87105
218.569	8.61646
221.462	5.50931
224.354	3.52103
227.247	1.13501
230.14	2.07972
233.032	3.2303
235.925	2.55491
238.818	4.86069
241.71	3.33262
244.603	5.08891
247.496	5.32355
250.389	4.78185
253.281	5.53613
256.174	5.33595
259.067	6.27802
261.959	5.34649
264.852	2.9899
267.745	2.09899
270.637	0.358887
273.53	0.929665
276.423	1.53464
279.316	0.874603
282.208	0.60231
285.101	0.843277
287.994	2.49811
290.886	3.19882
293.779	4.47382
296.672	5.12246
299.565	4.24806
302.457	5.41031
305.35	5.98316
308.243	5.04655
311.135	3.41243
314.028	1.6006
316.921	0.151527
319.813	0.888142
322.706	1.21548
325.599	2.34507
328.491	4.90757
331.384	5.58854
334.277	7.69126
337.17	8.54123
340.062	9.62472
342.955	7.527
345.848	5.24408
348.74	2.74807
351.633	0.146076
354.526	0.534313
357.418	0.699978
360.311	0.591515
363.204	1.79047
366.097	3.26751
368.989	7.72014
371.882	12.9028
374.775	20.3974
377.667	31.3297
380.56	44.5433
383.453	60.385
386.346	72.9401
389.238	69.6556
392.131	51.2719
395.024	32.6535
397.916	24.2962
400.809	20.0346
403.702	18.2343
406.594	18.4747
409.487	18.3584
412.38	17.8731
415.272	17.8422
418.165	17.7951
421.058	15.4203
423.951	10.8711
426.843	5.01664
429.736	1.04913
432.629	0.398125
435.521	0.956676
438.414	0.230614
441.307	0.588432
444.2	2.44859
447.092	4.46957
449.985	5.9778
452.878	8.06715
455.77	7.76359
458.663	4.76758
461.556	2.16235
464.448	0.622749
467.341	0.216503
470.234	0.509396
473.127	1.03624
476.019	0.146832
478.912	0.356567
481.805	0.07
484.697	1.27324
487.59	1.4799
490.483	3.00874
493.375	3.6955
496.268	3.30966
499.161	4.00633
502.053	2.42054
504.946	0.943855
507.839	0.096886
510.732	0.523773
513.624	0.215351
516.517	0.328979
519.41	1.82638
522.302	3.19399
525.195	4.93866
528.088	8.14317
530.981	9.61563
533.873	11.9848
536.766	14.4506
539.659	15.4896
542.551	15.5568
545.444	16.8178
548.337	17.8497
551.229	18.115
554.122	19.6418
557.015	17.8631
559.908	16.1665
562.8	14.6043
565.693	13.4913
568.586	12.2819
571.478	12.6327
574.371	11.9575
577.264	12.054
580.156	11.8332
583.049	11.0481
585.942	10.6759
588.835	10.5253
591.727	9.83951
594.62	10.4557
597.513	9.80058
600.405	11.3023
603.298	12.1562
606.191	12.4974
609.083	12.5643
611.976	10.9747
614.869	7.96101
617.761	5.24358
620.654	2.2787
623.547	0.003952
626.44	1.03286
629.332	0.237392
632.225	0.230515
635.118	0.48148
638.01	0.885475
640.903	2.15561
643.796	2.6804
646.688	4.42227
649.581	5.54625
652.474	7.92744
655.367	10.6137
658.259	15.8759
661.152	23.7484
664.045	35.3899
666.937	55.1924
669.83	81.0009
672.723	112.812
675.615	139.502
678.508	138.666
681.401	103.918
684.294	65.186
687.186	43.7112
690.079	31.5088
692.972	22.0226
695.864	15.5305
698.757	11.5063
701.65	7.95572
704.543	5.06276
707.435	3.54246
710.328	2.19564
713.221	0.846058
716.113	0.03442
719.006	0.746624
721.899	0.13876
724.791	1.02634
727.684	0.353127
730.577	0.872547
733.47	2.98843
736.362	2.66803
739.255	4.74802
742.148	9.01144
745.04	12.4501
747.933	18.7508
750.826	21.6707
753.718	18.5376
756.611	12.9794
759.504	6.34839
762.396	4.1707
765.289	2.74345
768.182	0.969681
771.075	0.536785
773.967	1.65745
776.86	1.38876
779.753	2.59911
782.645	3.43772
785.538	5.95071
788.431	5.56798
791.323	5.77112
794.216	4.64524
797.109	2.5579
800.002	2.6861
802.894	0.700619
805.787	1.32054
808.68	0.643387
811.572	1.01791
814.465	0.706512
817.358	0.231556
820.25	0.969616
823.143	0.30904
826.036	0.988762
828.929	0.246384
831.821	0.79007
834.714	1.75677
837.607	0.822918
840.5	1.76063
843.392	2.79825
846.285	2.58023
849.178	3.82173
852.07	2.56907
854.963	4.51086
857.856	4.3132
860.748	4.79347
863.641	6.42545
866.534	6.3303
869.427	6.88042
872.319	6.40181
875.212	7.43326
878.105	7.69373
880.997	7.70027
883.89	7.25835
886.783	7.22677
889.675	6.37169
892.568	5.21472
895.461	4.6752
898.354	3.07524
901.246	2.00366
904.139	1.99548
907.032	0.716534
909.924	1.49335
912.817	1.22263
915.71	0.612392
918.602	0.635921
921.495	1.03796
924.388	1.60151
927.28	0.665234
930.173	0.290493
933.066	0.543575
935.959	0.534653
938.851	0.307808
941.744	0.2757
944.637	0.261181
947.529	0.105331
950.422	1.05513
953.315	0.84729
956.207	0.596706
959.1	0.070446
961.993	0.883858
964.886	1.39607
967.778	1.37234
970.671	0.247189
973.564	0.935074
976.456	1.68398
979.349	1.63959
982.242	2.9966
985.135	3.63843
988.027	5.57064
990.92	5.63548
993.813	5.76347
996.705	4.80493
999.598	2.77853
1002.49	0.552109
1005.38	0.14616
1008.28	0.222363
1011.17	0.25808
1014.06	2.3727
1016.95	2.57088
1019.85	4.87135
1022.74	5.44242
1025.63	5.63791
1028.53	5.76415
1031.42	4.34942
1034.31	4.98834
1037.2	5.48328
1040.1	7.16562
1042.99	7.6572
1045.88	7.02045
1048.77	7.17677
1051.67	7.07733
1054.56	5.69762
1057.45	4.70898
1060.35	4.33041
1063.24	3.21639
1066.13	2.22147
1069.02	1.36152
1071.92	0.118908
1074.81	0.317116
1077.7	0.107918
1080.59	0.136372
1083.49	0.554005
1086.38	1.49009
1089.27	0.659073
1092.16	0.685925
1095.06	1.71777
1097.95	2.46222
1100.84	2.0592
1103.73	2.89358
1106.63	3.69959
1109.52	3.67265
1112.41	2.94472
1115.31	4.12256
1118.2	4.72282
1121.09	6.38677
1123.98	8.73643
1126.88	10.5259
1129.77	10.1905
1132.66	7.90268
1135.56	5.99675
1138.45	4.18586
1141.34	4.17708
1144.23	4.4375
1147.13	4.09751
1150.02	4.28409
1152.91	3.81369
1155.8	3.82292
1158.7	2.5347
1161.59	1.87243
1164.48	1.43082
1167.38	0.557541
1170.27	1.06394
1173.16	0.408691
1176.05	0.379784
1178.94	0.916187
1181.84	0.982662
1184.73	0.013103
1187.62	0.258144
1190.52	0.218811
1193.41	0.179756
1196.3	0.034302
1199.19	0.201588
1202.09	0.492329
1204.98	0.577648
1207.87	0.465443
1210.77	0.331604
1213.66	0.421955
1216.55	0.779186
1219.44	0.047268
1222.34	0.070526
1225.23	0.949753
1228.12	1.5711
1231.01	0.661839
1233.91	1.26899
1236.8	1.25971
1239.69	1.16562
1242.59	0.457859
1245.48	0.828266
1248.37	0.485104
1251.26	0.361385
1254.16	0.882862
1257.05	0.554325
1259.94	0.902592
1262.83	0.54467
1265.73	0.383263
1268.62	0.936901
1271.51	0.633652
1274.4	0.734608
1277.3	1.17199
1280.19	0.506313
1283.08	0.508926
1285.97	0.929214
1288.87	1.09948
1291.76	0.268005
1294.65	0.519989
1297.55	0.620689
1300.44	0.041664
