Measurement: Raman, 532 nm, unoriented, Raman Data Processed
Mineral: Holmquistite
Rruff sample: R070004
Ideal chemistry: [box]Li_2_(Mg_3_Al_2_)Si_8_O_22_(OH)_2_
Locality: Uto, Sodermanland, Sweden
Source: Michael Scott
Description: Mass of dark blue thin bladed crystals
Raman shift (cm-1)	intensity
160.305	0
163.68	2.57202
167.055	120.367
170.43	613.583
173.805	1421.58
177.179	2480.99
180.554	3780.84
183.929	5216.94
187.304	6935.21
190.679	7121.76
194.054	4622.07
197.428	2167.45
200.803	1049
204.178	657.2
207.553	546.032
210.928	638.914
214.302	875.606
217.677	760.626
221.052	409.106
224.427	196.966
227.802	70.6587
231.177	20.0012
234.551	53.7095
237.926	8.47705
241.301	36.1533
244.676	129.159
248.051	218.964
251.425	308.377
254.8	244.454
258.175	188.279
261.55	128.713
264.925	109.717
268.3	71.9944
271.674	16.4192
275.049	61.3315
278.424	16.6909
281.799	40.2559
285.174	137.373
288.548	281.167
291.923	463.604
295.298	609.481
298.673	699.816
302.048	815.266
305.423	751.19
308.797	448.776
312.172	171.641
315.547	43.6169
318.922	0.724609
322.297	58.886
325.671	71.8892
329.046	23.958
332.421	161.279
335.796	323.647
339.171	411.12
342.546	484.974
345.92	520.788
349.295	505.959
352.67	519.027
356.045	521.963
359.42	685.853
362.794	845.371
366.169	1032.21
369.544	1420.86
372.919	1885.25
376.294	2536.22
379.668	3050.43
383.043	3562.37
386.418	3802.11
389.793	3267.77
393.168	2025.04
396.543	1218.26
399.917	802.873
403.292	744.551
406.667	936.657
410.042	1256.51
413.417	1575.21
416.791	1780.01
420.166	1615.14
423.541	1026.13
426.916	449.229
430.291	141.255
433.666	156.557
437.04	191.606
440.415	274.059
443.79	466.148
447.165	678.153
450.54	789.967
453.914	677.431
457.289	352.069
460.664	111.029
464.039	20.9084
467.414	90.4438
470.789	73.5144
474.163	73.4087
477.538	12.606
480.913	8.76172
484.288	93.5312
487.663	144.078
491.038	229.152
494.412	319.885
497.787	345.547
501.162	320.836
504.537	300.421
507.912	355.443
511.286	457.986
514.661	640.132
518.036	803.037
521.411	978.115
524.786	1247.93
528.16	1492.14
531.535	1747.42
534.91	1998.77
538.285	2268.96
541.66	2542.28
545.034	2819.01
548.409	2758.11
551.784	2619.24
555.159	2223.46
558.534	1779.92
561.909	1477.14
565.283	1390.84
568.658	1373.24
572.033	1302.78
575.408	1383.5
578.783	1306.99
582.158	1229.3
585.532	1184.23
588.907	1184.16
592.282	1257.5
595.657	1350.36
599.032	1464.39
602.407	1494.2
605.781	1315.92
609.156	1007.5
612.531	606.675
615.906	192.404
619.281	68.6399
622.655	76.5532
626.03	112.947
629.405	99.3071
632.78	53.3064
636.155	37.5581
639.529	137.016
642.904	287.264
646.279	398.871
649.654	554.423
653.029	763.571
656.404	1171.97
659.778	1749.08
663.153	2897.37
666.528	4798.04
669.903	7301.21
673.278	9575.77
676.653	11177.6
680.027	9491.76
683.402	6063.31
686.777	3779.19
690.152	2476.45
693.527	1697.4
696.901	1308.58
700.276	1003.22
703.651	806.493
707.026	609.444
710.401	423.053
713.775	225.187
717.15	111.499
720.525	79.7527
723.9	26.009
727.275	60.9194
730.649	40.8374
734.024	83.2969
737.399	83.9792
740.774	180.841
744.149	226.465
747.524	325.141
750.898	355.922
754.273	361.467
757.648	169.423
761.023	49.9287
764.398	63.6958
767.773	68.0613
771.147	18.0418
774.522	99.936
777.897	196.514
781.272	354.988
784.647	464.377
788.021	563.782
791.396	447.637
794.771	330.983
798.146	201.736
801.521	83.8674
804.895	102.509
808.27	19.1296
811.645	2.56006
815.02	36.801
818.395	26.0535
821.77	34.5923
825.144	14.3091
828.519	12.1328
831.894	1.56592
835.269	85.6135
838.644	67.4001
842.019	75.404
845.393	119.038
848.768	171.962
852.143	192.804
855.518	200.303
858.893	241.885
862.267	315.047
865.642	438.176
869.017	557.125
872.392	682.179
875.767	860.431
879.141	1056.45
882.516	1126.65
885.891	1122.4
889.266	1053.13
892.641	936.235
896.016	767.178
899.39	596.305
902.765	447.385
906.14	317.914
909.515	243.637
912.89	139.266
916.264	143.809
919.639	85.7627
923.014	135.391
926.389	36.3362
929.764	20.2253
933.139	23.1958
936.513	34.9629
939.888	45.0823
943.263	32.5518
946.638	119.734
950.013	98.927
953.388	268.746
956.762	294.945
960.137	428.744
963.512	439.507
966.887	521.674
970.262	796.955
973.636	1030.24
977.011	1676.47
980.386	2371.52
983.761	3041.18
987.136	3300.94
990.51	3162.1
993.885	2300.53
997.26	1257.61
1000.63	572.627
1004.01	178.132
1007.38	86.3489
1010.76	61.1782
1014.13	129.909
1017.51	297.481
1020.88	328.097
1024.26	315.214
1027.63	282.757
1031.01	367.781
1034.38	444.946
1037.76	597.656
1041.13	780.774
1044.51	930.835
1047.88	974.463
1051.26	971.444
1054.63	845.829
1058.01	593.481
1061.38	481.412
1064.76	306.512
1068.13	211.542
1071.51	170.77
1074.88	86.8799
1078.26	113.919
1081.63	22.6453
1085.01	36.5488
1088.38	5.22339
1091.76	5.08618
1095.13	5.79761
1098.51	26.0247
1101.88	51.4722
1105.25	123.304
1108.63	132.442
1112	158.731
1115.38	272.246
1118.75	265.8
1122.13	429.058
1125.5	485.391
1128.88	353.436
1132.25	212.794
1135.63	200.113
1139	227.756
1142.38	188.867
1145.75	223.585
1149.13	222.966
1152.5	211.696
1155.88	175.891
1159.25	127.624
1162.63	59.6655
1166	71.2481
1169.38	24.8572
1172.75	109.365
1176.12	11.3452
1179.5	4.71143
1182.88	7.84741
1186.25	4.91284
1189.62	41.939
1193	36.9497
1196.37	68.3016
1199.75	86.5239
1203.12	77.3221
1206.5	58.9923
1209.87	108.32
1213.25	99.7408
1216.62	94.2095
1220	61.3187
1223.37	129.757
1226.75	95.309
1230.12	100.627
1233.5	109.837
1236.87	97.0575
1240.25	91.8198
1243.62	69.6419
1247	43.4429
1250.37	76.3898
1253.75	105.92
1257.12	90.8885
1260.5	71.6061
1263.87	74.3715
1267.24	31.942
1270.62	80.7786
1273.99	140.616
1277.37	58.2959
1280.74	58.2771
1284.12	38.7849
1287.49	52.7247
1290.87	45.4012
1294.24	80.3897
1297.62	54.2775
1300.99	52.1622
1304.37	29.8191
1307.74	47.5102
1311.12	55.4669
1314.49	1.09277
1317.87	20.7634
