Measurement: Raman, 785 nm, unoriented, Raman Data Processed
Mineral: Holmquistite
Rruff sample: R070004
Ideal chemistry: [box]Li_2_(Mg_3_Al_2_)Si_8_O_22_(OH)_2_
Locality: Uto, Sodermanland, Sweden
Source: Michael Scott
Description: Mass of dark blue thin bladed crystals
Raman shift (cm-1)	intensity
152.648	0
155.54	2.71435
158.433	2.81714
161.326	169.47
164.218	237.978
167.111	295.845
170.004	477.952
172.897	737.235
175.789	1060.26
178.682	1423.44
181.575	1763.21
184.467	2109.25
187.36	2627.95
190.253	2831.09
193.145	2224.36
196.038	1368.72
198.931	711.589
201.823	519.557
204.716	357.416
207.609	343.967
210.501	342.029
213.394	415.525
216.287	466.125
219.18	378.14
222.072	338.109
224.965	149.885
227.858	174.872
230.75	111.341
233.643	123.21
236.536	119.221
239.429	97.5547
242.321	112.753
245.214	125.413
248.107	141.553
250.999	159.08
253.892	170.113
256.785	123.381
259.677	94.7498
262.57	76.8525
265.463	0.05127
268.356	37.0674
271.248	34.6899
274.141	19.6179
277.034	20.6536
279.926	7.38989
282.819	85.0996
285.712	152.569
288.604	151.565
291.497	291.401
294.39	378.092
297.283	441.058
300.175	481.561
303.068	552.244
305.961	458.145
308.853	304.163
311.746	202.963
314.639	80.5415
317.531	59.6245
320.424	62.042
323.317	54.8794
326.209	67.2104
329.102	19.1733
331.995	4.80371
334.888	65.5786
337.78	102.583
340.673	128.9
343.566	95.5298
346.458	154.781
349.351	107.558
352.244	141.966
355.137	180.051
358.029	178.574
360.922	274.507
363.815	353.752
366.707	460.932
369.6	580.93
372.493	788.909
375.385	959.589
378.278	1113.49
381.171	1168.95
384.063	1404.89
386.956	1423.78
389.849	1224.82
392.742	787.653
395.634	536.943
398.527	422.161
401.42	308.174
404.312	314.801
407.205	463.093
410.098	568.611
412.99	746.657
415.883	802.796
418.776	861.604
421.669	627.814
424.561	408.904
427.454	185.139
430.347	98.0898
433.239	82.521
436.132	6.26123
439.025	127.155
441.918	171.164
444.81	225.299
447.703	256.294
450.596	326.346
453.488	252.043
456.381	158.46
459.274	97.6768
462.166	3.87891
465.059	41.8818
467.952	15.1021
470.844	38.6953
473.737	6.12744
476.63	0.647949
479.523	39.1313
482.415	12.7671
485.308	23.4702
488.201	59.8774
491.093	74.0767
493.986	108.245
496.879	132.648
499.772	114.53
502.664	96.1172
505.557	159.68
508.45	170.14
511.342	232.022
514.235	348.457
517.128	377.934
520.02	428.08
522.913	562.19
525.806	682.657
528.698	871.076
531.591	1000.58
534.484	1070.38
537.377	1243.74
540.269	1370.99
543.162	1502.03
546.055	1545.3
548.947	1542.18
551.84	1419.37
554.733	1263.93
557.625	1037.54
560.518	830.638
563.411	758.479
566.303	656.448
569.196	673.346
572.089	593.795
574.982	581.489
577.874	537.811
580.767	587.862
583.66	449.579
586.552	378.286
589.445	364.986
592.338	276.46
595.231	293.643
598.123	302.35
601.016	393.447
603.909	288.05
606.801	236.288
609.694	191.612
612.587	102.796
615.479	38.8125
618.372	38.3799
621.265	79.6162
624.158	1.03418
627.05	79.8135
629.943	27.8896
632.836	40.0967
635.728	93.918
638.621	70.5312
641.514	151.829
644.406	243.19
647.299	310.611
650.192	246.922
653.085	408.641
655.977	594.888
658.87	611.486
661.763	822.865
664.655	1121.68
667.548	1676.67
670.441	2212.89
673.333	2743.95
676.226	3338.08
679.119	3129.48
682.011	2264.78
684.904	1620.37
687.797	1001.6
690.69	631.067
693.582	404.245
696.475	435.578
699.368	251.335
702.26	233.222
705.153	181.753
708.046	27.6387
710.938	154.159
713.831	76.1025
716.724	52.2637
719.617	16.3574
722.509	108.571
725.402	85.2051
728.295	41.752
731.187	2.87695
734.08	38.6133
736.973	6.35938
739.865	63.6924
742.758	77.5918
745.651	26.4824
748.544	147.644
751.436	226.266
754.329	204.764
757.222	193.681
760.114	67.9482
763.007	68.9268
765.9	37.5879
768.793	39.0498
771.685	100.739
774.578	7.42285
777.471	18.625
780.363	90.4941
783.256	246.489
786.149	210.244
789.041	218.953
791.934	150.299
794.827	252.342
797.72	170.328
800.612	71.2402
803.505	54.3525
806.398	88.2861
809.29	23.3916
812.183	120.165
815.076	139.093
817.968	33.7793
820.861	28.291
823.754	96.9434
826.646	104.018
829.539	86.0957
832.432	152.422
835.325	75.8184
838.217	43.1016
841.11	16.5879
844.003	59.7598
846.895	107.299
849.788	77.5859
852.681	146.684
855.573	84.6055
858.466	116.66
861.359	143.572
864.252	66.2539
867.144	101.844
870.037	141.865
872.93	173.967
875.822	236.318
878.715	274.883
881.608	258.451
884.5	365.549
887.393	310.467
890.286	341
893.179	353.92
896.071	178.467
898.964	246.949
901.857	112.787
904.749	81.5312
907.642	253.914
910.535	185.281
913.428	62.0879
916.32	74.3496
919.213	145.346
922.106	76.1777
924.998	79.7949
927.891	49.5039
930.784	27.959
933.676	44.6699
936.569	126.049
939.462	40.6699
942.355	21.9941
945.247	58.0859
948.14	104.348
951.033	146.654
953.925	63.5469
956.818	82.709
959.711	267.769
962.603	223.891
965.496	182.82
968.389	129.873
971.281	124.191
974.174	283.578
977.067	162.947
979.96	381.91
982.852	545.852
985.745	586.035
988.638	655.326
991.53	694.01
994.423	344.205
997.316	268.865
1000.21	58.8203
1003.1	122.139
1005.99	127.711
1008.89	94.9902
1011.78	229.025
1014.67	125.621
1017.57	94.5059
1020.46	160.445
1023.35	206.857
1026.24	111.057
1029.13	96.5
1032.03	145.707
1034.92	204.695
1037.81	146.297
1040.71	131.381
1043.6	358.324
1046.49	249.705
1049.38	170.414
1052.28	226.281
1055.17	237.113
1058.06	231.756
1060.95	287.971
1063.85	245.088
1066.74	122.467
1069.63	109.25
1072.53	132.924
1075.42	96.9316
1078.31	143.701
1081.2	0.779297
1084.1	125.93
1086.99	23.3242
1089.88	64.4453
1092.78	132.883
1095.67	55
1098.56	52.3867
1101.45	93.7383
1104.35	149.014
1107.24	188.065
1110.13	127.584
1113.02	113.162
1115.92	80.418
1118.81	54.6973
1121.7	119.99
1124.59	270.397
1127.49	129.353
1130.38	224.027
1133.27	183.988
1136.16	179.174
1139.06	261.555
1141.95	70.0352
1144.84	31.1074
1147.74	152.705
1150.63	221.15
1153.52	66.0664
1156.41	95.0391
1159.31	13.6953
1162.2	105.801
1165.09	171.012
1167.98	129.537
1170.88	135.08
1173.77	73.0781
1176.66	183.535
1179.56	131.072
1182.45	64.8008
1185.34	89.2656
1188.23	155.332
1191.13	64.0898
1194.02	164.467
1196.91	145.67
1199.81	10.7598
1202.7	181.432
1205.59	70.9023
1208.48	104.455
1211.38	220.387
1214.27	237.805
1217.16	135.488
1220.05	170.565
1222.95	150.67
1225.84	193.193
1228.73	24.7227
1231.62	75.6504
1234.52	97.8984
1237.41	51.8594
1240.3	232.008
1243.19	57.3066
1246.09	0
