Measurement: Raman, 532 nm, unoriented, Raman Data Processed
Mineral: Hopeite
Rruff sample: R130562
Ideal chemistry: Zn_3_(PO_4_)_2_4H_2_O
Locality: Broken Hill mine, Kabwe, Zambia
Source: Eric van Valkenburg
Description: Colorless fragment
Raman shift (cm-1)	intensity
204.588	0
207.48	4.22903
210.373	12.7356
213.266	18.4624
216.158	26.5698
219.051	32.2018
221.944	31.816
224.836	30.8358
227.729	23.667
230.622	13.0777
233.514	5.39615
236.407	1.3056
239.3	0.592407
242.193	0.262543
245.085	0.521698
247.978	1.22351
250.871	1.37625
253.763	1.37262
256.656	0.100708
259.549	0.32782
262.442	4.68909
265.334	11.5637
268.227	12.1284
271.12	16.0178
274.012	16.248
276.905	21.1666
279.798	23.6411
282.69	26.5403
285.583	34.1505
288.476	38.3328
291.368	45.1404
294.261	55.1841
297.154	64.0944
300.047	76.0035
302.939	87.4484
305.832	99.0675
308.725	104.948
311.617	103.221
314.51	97.438
317.403	86.3444
320.296	73.6371
323.188	60.9137
326.081	49.1949
328.974	42.2837
331.866	34.9899
334.759	30.2046
337.652	27.2074
340.544	26.0807
343.437	22.8982
346.33	22.5936
349.223	20.8018
352.115	19.5653
355.008	18.1694
357.901	16.9782
360.793	15.3052
363.686	15.943
366.579	16.1446
369.471	13.7467
372.364	12.5643
375.257	11.6277
378.149	10.3263
381.042	10.2769
383.935	11.6862
386.828	12.2926
389.72	8.49484
392.613	6.83243
395.506	8.17602
398.398	12.2187
401.291	5.13052
404.184	2.76297
407.077	2.9397
409.969	2.69022
412.862	1.97781
415.755	2.79694
418.647	0.930634
421.54	0.32016
424.433	0.975525
427.325	1.33441
430.218	1.27844
433.111	0.684937
436.003	0.654205
438.896	0.353851
441.789	0.135376
444.682	0.866974
447.574	0.816528
450.467	2.31992
453.36	2.32272
456.252	1.41193
459.145	4.116
462.038	2.81226
464.93	3.595
467.823	5.19055
470.716	6.70453
473.609	8.52969
476.501	7.47641
479.394	9.96973
482.287	8.42276
485.179	9.18955
488.072	9.23312
490.965	7.55875
493.858	9.33316
496.75	8.25327
499.643	6.64172
502.536	7.57028
505.428	5.82364
508.321	5.2601
511.214	6.00443
514.106	5.92752
516.999	4.94714
519.892	2.20975
522.784	1.84036
525.677	1.62173
528.57	1.83719
531.463	0.210724
534.355	0.161407
537.248	0.975525
540.141	0.475708
543.033	0.977814
545.926	0.605408
548.819	3.86829
551.712	2.51092
554.604	4.25452
557.497	6.27332
560.39	8.88092
563.282	9.03751
566.175	10.3617
569.068	11.6209
571.96	15.0474
574.853	18.4404
577.746	20.2507
580.639	24.1834
583.531	29.0082
586.424	35.5677
589.317	41.7794
592.209	48.2537
595.102	50.5395
597.995	48.4827
600.888	39.8342
603.78	29.5913
606.673	22.8484
609.566	14.7588
612.458	8.71185
615.351	7.54694
618.244	8.42621
621.136	5.93521
624.029	8.76782
626.922	6.0003
629.814	5.14746
632.707	6.96356
635.6	7.37064
638.493	8.56213
641.385	6.67218
644.278	7.58108
647.171	7.23511
650.063	6.09781
652.956	5.48438
655.849	5.78702
658.741	2.01007
661.634	0.613098
664.527	0.06192
667.42	0.101074
670.312	0.205017
673.205	0.214874
676.098	2.07306
678.99	1.4071
681.883	0.16449
684.776	1.98685
687.668	0.460632
690.561	2.85898
693.454	2.96347
696.347	1.37234
699.239	1.14825
702.132	1.87878
705.025	1.89575
707.917	2.91507
710.81	3.31436
713.703	0.560516
716.596	1.72788
719.488	2.69989
722.381	3.9819
725.274	4.72369
728.166	2.052
731.059	3.39209
733.952	1.95401
736.844	1.1922
739.737	1.85983
742.63	1.68048
745.523	2.12946
748.415	2.97269
751.308	1.72195
754.201	0.858612
757.093	0.746704
759.986	0.904114
762.879	1.62817
765.771	1.89685
768.664	0.128601
771.557	2.05142
774.449	2.39471
777.342	2.26331
780.235	2.12924
783.128	0.206055
786.02	2.06967
788.913	1.81213
791.806	0.512939
794.698	2.95142
797.591	1.54175
800.484	0.099121
803.376	0.545654
806.269	0.958588
809.162	1.2792
812.055	1.98282
814.947	0.146057
817.84	0.541504
820.733	2.62802
823.625	4.21314
826.518	2.97662
829.411	0.59137
832.303	1.31232
835.196	3.54654
838.089	4.03821
840.982	4.86578
843.874	2.29816
846.767	2.78909
849.66	2.45642
852.552	3.45181
855.445	1.9932
858.338	2.29804
861.231	3.23026
864.123	3.88141
867.016	2.33646
869.909	0.888458
872.801	1.10971
875.694	1.05783
878.587	1.08093
881.479	0.354492
884.372	1.332
887.265	1.48346
890.158	0.979218
893.05	1.09921
895.943	0.649139
898.836	0.758667
901.728	0.597137
904.621	1.05514
907.514	2.94003
910.406	3.19064
913.299	4.65832
916.192	8.34582
919.085	12.8769
921.977	17.14
924.87	25.3293
927.763	37.0712
930.655	47.0146
933.548	62.7974
936.441	77.0048
939.333	87.4684
942.226	80.5514
945.119	59.8008
948.011	38.4192
950.904	23.4336
953.797	12.5179
956.69	6.13138
959.582	2.2529
962.475	3.42285
965.368	4.39642
968.26	5.80106
971.153	9.27264
974.046	18.0513
976.938	27.398
979.831	43.0632
982.724	75.0972
985.617	121.017
988.509	190.067
991.402	276.766
994.295	350.73
997.187	335.476
1000.08	246.943
1002.97	160.251
1005.87	107.315
1008.76	74.2828
1011.65	53.8046
1014.54	36.5122
1017.44	24.7726
1020.33	18.0894
1023.22	15.5167
1026.11	10.1592
1029.01	7.71744
1031.9	2.65372
1034.79	2.03159
1037.68	0.170349
1040.58	0.529358
1043.47	1.78412
1046.36	3.79684
1049.26	4.21402
1052.15	6.9964
1055.04	11.8614
1057.93	12.4642
1060.83	11.4578
1063.72	8.02225
1066.61	5.12378
1069.51	2.18225
1072.4	0.956146
1075.29	1.43405
1078.18	1.37003
1081.08	1.70047
1083.97	0.410492
1086.86	0.62793
1089.75	1.84961
1092.65	0.28418
1095.54	1.04923
1098.43	0.81134
1101.33	2.36585
1104.22	1.28155
1107.11	2.0628
1110	5.82297
1112.89	4.20541
1115.79	4.21161
1118.68	5.88284
1121.57	8.28638
1124.47	8.56201
1127.36	9.67035
1130.25	10.5981
1133.14	16.403
1136.04	17.561
1138.93	23.6838
1141.82	29.4528
1144.71	36.7791
1147.61	45.8969
1150.5	51.3672
1153.39	57.8951
1156.29	57.2383
1159.18	51.4033
1162.07	43.0803
1164.96	33.6771
1167.86	24.4786
1170.75	15.355
1173.64	11.238
1176.54	9.74033
1179.43	5.87244
1182.32	3.63071
1185.21	2.99991
1188.11	2.80768
1191	2.52747
1193.89	0.514191
1196.78	0.862823
1199.68	2.41595
1202.57	0.610229
1205.46	1.24725
1208.35	0.393921
1211.25	2.79782
1214.14	2.34824
1217.03	1.37912
1219.92	1.004
1222.82	1.33261
1225.71	1.73972
1228.6	0.212372
1231.5	0.904541
1234.39	1.84497
1237.28	1.07278
1240.17	0.42453
1243.07	0.213013
1245.96	1.7514
1248.85	2.77506
1251.74	0.800537
1254.64	2.13769
1257.53	1.62711
1260.42	2.16504
1263.32	4.09341
1266.21	0.368256
1269.1	3.49554
1271.99	2.88196
1274.89	2.43777
1277.78	1.36795
1280.67	2.26031
1283.57	1.32486
1286.46	0.200317
1289.35	1.06299
1292.24	0.993988
1295.13	1.9176
1298.03	0.757751
1300.92	1.8551
