Measurement: Raman, 780 nm, unoriented, Raman Data Processed
Mineral: Hopeite
Rruff sample: R130562
Ideal chemistry: Zn_3_(PO_4_)_2_4H_2_O
Locality: Broken Hill mine, Kabwe, Zambia
Source: Eric van Valkenburg
Description: Colorless fragment
Raman shift (cm-1)	intensity
104.699	0
108.074	26.699
111.448	15.8195
114.823	1.27225
118.198	9.14865
121.573	16.1821
124.948	16.1383
128.322	15.351
131.697	18.7054
135.072	29.9751
138.447	20.5001
141.822	3.57452
145.197	0.319397
148.571	3.35532
151.946	8.14789
155.321	6.10535
158.696	0.119354
162.071	1.33917
165.446	8.27091
168.82	17.3355
172.195	20.1394
175.57	26.2925
178.945	29.3894
182.32	34.129
185.694	39.2955
189.069	44.9144
192.444	47.3403
195.819	55.0328
199.194	65.5125
202.569	76.2703
205.943	80.8591
209.318	84.2599
212.693	86.3464
216.068	87.1023
219.442	81.2872
222.817	66.2183
226.192	47.22
229.567	28.005
232.942	14.1398
236.317	4.50229
239.691	1.78427
243.066	3.3782
246.441	2.31574
249.816	2.9046
253.191	0.509552
256.565	3.63272
259.94	8.2988
263.315	13.5574
266.69	20.3001
270.065	27.0483
273.44	33.3036
276.814	40.6082
280.189	47.2004
283.564	54.7793
286.939	64.9103
290.314	79.1803
293.688	96.4731
297.063	115.456
300.438	133.867
303.813	155.647
307.188	172.03
310.562	175.786
313.937	164.155
317.312	141.108
320.687	114.673
324.062	89.2847
327.437	71.7831
330.811	58.6101
334.186	48.7747
337.561	40.1724
340.936	34.6898
344.311	31.2824
347.685	28.6329
351.06	25.3047
354.435	25.9795
357.81	23.5306
361.185	23.7568
364.56	20.4336
367.934	19.1352
371.309	17.137
374.684	15.4716
378.059	13.3782
381.434	12.8794
384.808	12.4924
388.183	9.28575
391.558	8.7238
394.933	8.77629
398.308	9.46257
401.683	6.5267
405.057	5.05695
408.432	2.79742
411.807	2.13431
415.182	1.36304
418.557	0.295959
421.931	0.236282
425.306	1.31871
428.681	1.98762
432.056	2.10834
435.431	1.03278
438.805	0.259933
442.18	0.999008
445.555	1.64879
448.93	2.33722
452.305	4.03705
455.68	6.04411
459.054	6.18741
462.429	7.77084
465.804	10.0858
469.179	11.9101
472.554	13.3204
475.928	13.1298
479.303	15.1767
482.678	15.8684
486.053	16.4252
489.428	14.4128
492.803	14.1349
496.177	12.6022
499.552	12.0637
502.927	11.8029
506.302	10.9563
509.677	9.96999
513.051	8.35637
516.426	7.78255
519.801	7.43402
523.176	4.82327
526.551	3.28645
529.926	0.480927
533.3	0.027344
536.675	0.889725
540.05	0.365891
543.425	0.221405
546.799	1.14246
550.174	3.5392
553.549	6.0369
556.924	8.63579
560.299	11.7466
563.674	16.1262
567.048	20.4591
570.423	22.2303
573.798	27.9022
577.173	32.3435
580.548	40.6857
583.923	48.6334
587.297	58.9136
590.672	68.3325
594.047	75.3841
597.422	72.3025
600.797	58.1351
604.171	40.7482
607.546	27.2699
610.921	16.4846
614.296	13.7447
617.671	9.81633
621.045	8.12383
624.42	8.93893
627.795	8.7532
631.17	10.3417
634.545	11.4917
637.919	12.7119
641.294	13.2504
644.669	14.3004
648.044	11.2422
651.419	9.51309
654.794	5.76623
658.168	3.0274
661.543	1.75209
664.918	1.24808
668.293	0.491043
671.668	0.794418
675.043	0.236221
678.417	0.152954
681.792	0.341888
685.167	0.13063
688.542	0.767395
691.917	0.462906
695.291	1.22269
698.666	1.35179
702.041	2.2166
705.416	2.5833
708.791	2.35893
712.165	2.79329
715.54	2.78805
718.915	2.76573
722.29	3.76187
725.665	2.70229
729.039	2.28188
732.414	2.87926
735.789	2.30231
739.164	2.0363
742.539	2.27547
745.914	1.01347
749.288	2.0527
752.663	1.35269
756.038	1.50635
759.413	1.97301
762.788	0.987778
766.163	0.344574
769.537	0.13739
772.912	0.188919
776.287	0.457214
779.662	0.247757
783.037	1.1024
786.411	0.212738
789.786	0.708328
793.161	0.043854
796.536	0.885544
799.911	0.118988
803.285	0.530853
806.66	0.992569
810.035	1.13544
813.41	1.35167
816.785	1.83595
820.159	1.9429
823.534	2.18541
826.909	2.54007
830.284	3.13484
833.659	2.96342
837.034	3.06917
840.408	3.16617
843.783	2.73634
847.158	2.07663
850.533	2.75662
853.908	1.91257
857.283	1.11719
860.657	1.38583
864.032	0.906708
867.407	1.32611
870.782	1.04074
874.157	0.100174
877.531	0.70816
880.906	0.596542
884.281	0.609177
887.656	1.21719
891.031	1.29923
894.405	0.355347
897.78	0.449982
901.155	0.750137
904.53	2.10547
907.905	3.58356
911.279	5.76553
914.654	8.5731
918.029	14.6794
921.404	22.3032
924.779	34.0392
928.154	51.3339
931.528	70.4167
934.903	94.6134
938.278	112.173
941.653	107.885
945.028	76.5595
948.403	45.6562
951.777	24.2154
955.152	11.814
958.527	4.70966
961.902	2.54991
965.277	2.80113
968.651	6.68572
972.026	13.2619
975.401	26.441
978.776	51.4914
982.151	96.3157
985.525	165.957
988.9	276.248
992.275	416.392
995.65	469.383
999.025	356.409
1002.4	219.36
1005.77	136.304
1009.15	89.158
1012.52	57.5885
1015.9	37.296
1019.27	22.4896
1022.65	20.6584
1026.02	11.8037
1029.4	6.59451
1032.77	2.11983
1036.15	0.086609
1039.52	0.249039
1042.9	2.07192
1046.27	3.97441
1049.65	9.36627
1053.02	16.9173
1056.4	20.8338
1059.77	20.8596
1063.15	16.4369
1066.52	8.82838
1069.9	5.6073
1073.27	1.53046
1076.64	0.156609
1080.02	1.35063
1083.39	1.77631
1086.77	0.726357
1090.14	0.71701
1093.52	0.470154
1096.89	1.42238
1100.27	2.39089
1103.64	2.51259
1107.02	4.08609
1110.39	4.81351
1113.77	6.3399
1117.14	6.45673
1120.52	6.78415
1123.89	8.75537
1127.27	11.7702
1130.64	15.0137
1134.02	21.05
1137.39	26.4625
1140.77	33.5736
1144.14	43.9008
1147.52	52.2605
1150.89	61.2954
1154.27	67.9016
1157.64	65.9625
1161.02	54.8682
1164.39	40.3918
1167.77	27.0408
1171.14	17.162
1174.52	11.7761
1177.89	8.96815
1181.27	5.8337
1184.64	4.01973
1188.01	3.6847
1191.39	2.74002
1194.76	1.71829
1198.14	2.07919
1201.51	1.01195
1204.89	1.1927
1208.26	0.590492
1211.64	0.24868
1215.01	0.670898
1218.39	0.565796
1221.76	0.441666
1225.14	0.533859
1228.51	0.618118
1231.89	0.682236
1235.26	0.188072
1238.64	0.100388
1242.01	0.083397
1245.39	1.3627
1248.76	1.04195
1252.14	1.36806
1255.51	1.07751
1258.88	1.86221
1262.26	1.81126
1265.63	0.301834
1269.01	1.54659
1272.38	1.41733
1275.76	1.58183
1279.13	0.075638
1282.51	0.985367
