Measurement: Raman, 780 nm, unoriented, Raman Data Processed
Mineral: Hopeite
Rruff sample: R050254
Ideal chemistry: Zn_3_(PO_4_)_2_4H_2_O
Locality: Broken Hill mine, Kabwe, Zambia
Source: Marcus Origlieri
Description: Reddish-orange tabular single crystal
Measured chemistry: (Zn_2.93_Mg_0.07_)_Σ=3_(P_1.00_O_4_)_2_·4H_2_O
Raman shift (cm-1)	intensity
140.735	0
143.628	64.7764
146.52	179.12
149.413	208.484
152.306	173.661
155.199	109.683
158.091	46.0312
160.984	3.85449
163.877	1.04346
166.769	11.748
169.662	26.2686
172.555	43.044
175.447	52.2856
178.34	49.7041
181.233	43.7578
184.126	51.7954
187.018	47.6182
189.911	44.4346
192.804	40.8047
195.696	34.0815
198.589	32.0952
201.482	38.272
204.375	63.8091
207.267	80.8501
210.16	104.635
213.053	119.055
215.945	155.189
218.838	147.722
221.731	114.618
224.623	66.1011
227.516	42.898
230.409	21.4492
233.302	2.23047
236.194	10.6997
239.087	4.55908
241.98	15.6411
244.872	10.1582
247.765	2.79639
250.658	8.40479
253.55	8.03711
256.443	0.448242
259.336	8.13623
262.228	8.63916
265.121	11.793
268.014	20.4248
270.907	36.1226
273.799	49.1592
276.692	62.6397
279.585	90.0552
282.477	130.606
285.37	183.69
288.263	240.314
291.156	312.384
294.048	384.374
296.941	465.87
299.834	549.211
302.726	621.79
305.619	687.679
308.512	716.662
311.404	697.965
314.297	640.682
317.19	568.97
320.082	490.664
322.975	405.125
325.868	337.198
328.761	286.299
331.653	246.366
334.546	207.149
337.439	174.37
340.331	166.529
343.224	147.346
346.117	153.462
349.01	155.579
351.902	161.155
354.795	172.606
357.688	171.305
360.58	180.344
363.473	198.762
366.366	200.65
369.258	194.502
372.151	189.216
375.044	184.935
377.937	167.026
380.829	166.144
383.722	158.656
386.615	148.856
389.507	137.472
392.4	118.911
395.293	104.081
398.185	105.925
401.078	92.365
403.971	77.7817
406.863	55.4468
409.756	53.7068
412.649	44.5129
415.542	36.3018
418.434	19.0413
421.327	18.4358
424.22	8.49365
427.112	1.43921
430.005	11.0781
432.898	8.29688
435.791	7.59351
438.683	8.34741
441.576	14.1702
444.469	1.53027
447.361	5.49707
450.254	6.10962
453.147	4.84985
456.039	3.24487
458.932	10.824
461.825	12.3511
464.717	25.834
467.61	28.6582
470.503	40.4436
473.396	37.5474
476.288	45.032
479.181	46.4048
482.074	47.6953
484.966	43.8135
487.859	59.5969
490.752	43.937
493.644	49.0002
496.537	33.7498
499.43	36.0056
502.323	33.6482
505.215	38.4697
508.108	30.436
511.001	28.9568
513.893	32.9519
516.786	25.1064
519.679	16.1184
522.572	8.6709
525.464	9.2417
528.357	0.786133
531.25	5.02979
534.142	4.78149
537.035	1.74561
539.928	2.60425
542.82	9.64771
545.713	11.7285
548.606	26.5703
551.499	46.7742
554.391	73.9233
557.284	89.3762
560.177	106.577
563.069	118.863
565.962	117.111
568.855	132.189
571.747	153.342
574.64	184.35
577.533	229.588
580.426	277.933
583.318	328.095
586.211	394.658
589.104	449.323
591.996	511.019
594.889	527.19
597.782	500.825
600.674	418.663
603.567	318.983
606.46	243.939
609.352	186.099
612.245	146.403
615.138	111.374
618.03	98.3054
620.923	79.1594
623.816	85.2991
626.709	105.243
629.601	86.0703
632.494	79.1768
635.387	69.77
638.279	61.801
641.172	58.293
644.065	53.563
646.957	43.5486
649.85	28.2324
652.743	20.2856
655.636	14.8618
658.528	2.00854
661.421	3.19922
664.314	2.72144
667.206	2.80762
670.099	4.67407
672.992	9.0249
675.885	1.72583
678.777	6.5647
681.67	2.95532
684.563	0.28833
687.455	2.37207
690.348	3.89209
693.241	0.647461
696.133	10.4971
699.026	1.02173
701.919	0.082764
704.812	9.35107
707.704	13.6199
710.597	13.3962
713.49	10.1313
716.382	18.8242
719.275	24.8931
722.168	19.2517
725.06	14.1321
727.953	16.3872
730.846	13.5854
733.739	14.9531
736.631	14.7344
739.524	14.6926
742.417	7.65064
745.309	11.2732
748.202	3.25635
751.095	15.3293
753.987	5.39453
756.88	4.88379
759.773	0.744629
762.665	4.42358
765.558	6.20239
768.451	1.64648
771.344	3.34522
774.236	7.41943
777.129	7.60693
780.022	5.91968
782.914	11.1421
785.807	11.4883
788.7	17.5149
791.592	13.6729
794.485	11.7869
797.378	13.6699
800.271	6.18872
803.163	13.7153
806.056	3.62158
808.949	20.8047
811.841	15.7949
814.734	16.0496
817.627	16.9382
820.519	19.9302
823.412	27.6509
826.305	25.3379
829.198	18.4861
832.09	22.0498
834.983	22.3442
837.876	21.6008
840.768	18.3938
843.661	24.3044
846.554	24.25
849.447	20.6409
852.339	20.1533
855.232	19.8247
858.125	12.802
861.017	13.3994
863.91	14.0129
866.803	12.7893
869.695	9.88501
872.588	1.39062
875.481	8.11304
878.374	5.48242
881.266	0.121338
884.159	5.82178
887.052	1.87964
889.944	0.863037
892.837	3.47583
895.73	9.69043
898.622	3.98315
901.515	2.81958
904.408	6.37598
907.301	9.75171
910.193	15.0415
913.086	27.9045
915.979	36.3701
918.871	57.1897
921.764	83.0745
924.657	127.761
927.549	170.635
930.442	235.416
933.335	316.898
936.227	385.58
939.12	451.279
942.013	439.563
944.906	324.989
947.798	207.277
950.691	123.422
953.584	56.606
956.476	34.9888
959.369	12.8579
962.262	5.23511
965.154	20.0647
968.047	40.9004
970.94	92.4187
973.833	153.27
976.725	251.212
979.618	438.871
982.511	730.221
985.403	1098.92
988.296	1582.33
991.189	2214.87
994.082	2762.64
996.974	2634.91
999.867	1929.59
1002.76	1229.5
1005.65	789.177
1008.54	542.37
1011.44	365.92
1014.33	234.735
1017.22	147.773
1020.12	104.78
1023.01	81.9766
1025.9	45.3962
1028.79	20.4956
1031.69	0.894287
1034.58	14.2676
1037.47	0.362061
1040.37	9.26831
1043.26	48.4309
1046.15	98.1716
1049.04	169.587
1051.94	244.642
1054.83	276.786
1057.72	249.487
1060.61	197.915
1063.51	137.353
1066.4	98.4436
1069.29	69.3235
1072.18	48.7615
1075.08	36.7964
1077.97	20.8337
1080.86	14.5574
1083.76	17.2893
1086.65	13.6262
1089.54	3.67407
1092.43	10.7937
1095.33	8.08447
1098.22	1.20606
1101.11	3.10376
1104	0.071533
1106.9	3.52783
1109.79	3.59863
1112.68	0.321045
1115.58	2.60498
1118.47	2.86646
1121.36	1.63232
1124.25	3.55615
1127.15	12.1943
1130.04	21.8916
1132.93	17.895
1135.82	26.229
1138.72	20.7991
1141.61	50.0454
1144.5	38.4766
1147.39	43.8491
1150.29	41.5295
1153.18	41.3323
1156.07	37.6506
1158.96	27.6165
1161.86	35.4998
1164.75	34.2026
1167.64	39.9031
1170.54	31.1982
1173.43	41.2688
1176.32	24.1975
1179.21	28.625
1182.11	21.269
1185	24.6724
1187.89	21.4688
1190.79	17.0759
1193.68	21.6909
1196.57	27.8533
1199.46	19.3015
1202.36	24.0408
1205.25	7.49243
1208.14	14.8379
1211.03	19.4482
1213.93	15.6487
1216.82	6.64014
1219.71	3.92603
1222.61	2.85962
1225.5	0.182373
1228.39	5.93945
1231.28	5.39258
1234.18	8.79517
1237.07	7.44263
1239.96	5.08203
1242.85	0.547119
1245.75	8.04492
1248.64	10.2839
1251.53	5.79785
1254.42	6.08887
1257.32	6.85767
1260.21	5.35938
1263.1	5.68628
1265.99	9.88648
1268.89	4.89551
1271.78	4.82642
1274.67	7.82446
1277.57	4.08521
1280.46	0.10376
1283.35	1.66675
1286.24	0
