Measurement: Raman, 532 nm, unoriented, Raman Data Processed
Mineral: Hopeite
Rruff sample: R050254
Ideal chemistry: Zn_3_(PO_4_)_2_4H_2_O
Locality: Broken Hill mine, Kabwe, Zambia
Source: Marcus Origlieri
Description: Reddish-orange tabular single crystal
Measured chemistry: (Zn_2.93_Mg_0.07_)_Σ=3_(P_1.00_O_4_)_2_·4H_2_O
Raman shift (cm-1)	intensity
170.744	0
173.637	0.524414
176.53	17.1329
179.422	50.0107
182.315	57.1867
185.208	71.3181
188.1	79.4155
190.993	70.7198
193.886	48.4081
196.778	30.9854
199.671	5.47156
202.564	9.8009
205.457	2.73999
208.349	2.44971
211.242	10.0338
214.135	25.3345
217.027	45.663
219.92	56.082
222.813	66.1106
225.705	74.7775
228.598	49.5027
231.491	24.6067
234.383	7.32617
237.276	10.956
240.169	4.53662
243.062	10.8569
245.954	13.9976
248.847	3.57959
251.74	7.16699
254.632	5.22827
257.525	5.85962
260.418	7.16162
263.31	7.26562
266.203	10.4841
269.096	4.17554
271.989	2.25024
274.881	18.9243
277.774	42.0129
280.667	81.9915
283.559	135.505
286.452	193.813
289.345	260.023
292.238	343.807
295.13	436.397
298.023	529.728
300.916	623.729
303.808	700.464
306.701	741.414
309.594	745.924
312.486	708.561
315.379	632.657
318.272	547.174
321.164	455.728
324.057	352.862
326.95	290.544
329.843	241.039
332.735	189.564
335.628	155.861
338.521	134.712
341.413	121.395
344.306	101.263
347.199	106.987
350.091	114.4
352.984	124.971
355.877	121.676
358.77	130.12
361.662	143.489
364.555	156.547
367.448	163.055
370.34	177.828
373.233	171.378
376.126	170.839
379.019	166.9
381.911	161.13
384.804	161.484
387.697	156.506
390.589	150.995
393.482	150.988
396.375	156.001
399.267	154.655
402.16	167.246
405.053	160.163
407.945	154.791
410.838	146.245
413.731	119.685
416.624	97.3579
419.516	79.6799
422.409	54.5154
425.302	48.5352
428.194	36.334
431.087	22.852
433.98	16.7937
436.873	6.0813
439.765	6.38379
442.658	6.16186
445.551	0.378418
448.443	8.48584
451.336	14.5234
454.229	6.54443
457.121	10.6133
460.014	1.2981
462.907	2.92017
465.8	11.9868
468.692	7.71387
471.585	12.9995
474.478	16.1223
477.37	16.1545
480.263	26.9756
483.156	25.9727
486.048	36.7082
488.941	35.8069
491.834	35.366
494.726	38.5581
497.619	43.571
500.512	47.0081
503.405	52.6477
506.297	53.52
509.19	36.9426
512.083	26.7405
514.975	29.5398
517.868	17.97
520.761	13.8213
523.653	11.0908
526.546	8.95752
529.439	5.9519
532.332	7.62427
535.224	5.84912
538.117	5.17163
541.01	1.51562
543.902	5.71509
546.795	22.8372
549.688	25.1199
552.58	36.2568
555.473	48.9336
558.366	55.2874
561.259	66.6067
564.151	65.9446
567.044	77.0115
569.937	83.3235
572.829	102.835
575.722	133.036
578.615	175.824
581.507	214.706
584.4	268.635
587.293	320.727
590.186	386.89
593.078	433.924
595.971	435.584
598.864	404.637
601.756	341.18
604.649	267.431
607.542	209.222
610.434	171.396
613.327	140.86
616.22	120.696
619.112	118.896
622.005	119.383
624.898	125.786
627.791	138.668
630.683	139.035
633.576	127.911
636.469	118.362
639.361	106.918
642.254	90.3897
645.147	72.6064
648.04	57.9045
650.932	48.5696
653.825	38.1492
656.718	37.2878
659.61	32.6282
662.503	29.8667
665.396	21.1746
668.288	11.5059
671.181	4.26343
674.074	1.95606
676.967	1.32129
679.859	0.523438
682.752	6.30835
685.645	1.19165
688.537	4.39038
691.43	4.10815
694.323	4.64746
697.216	6.82446
700.108	2.53516
703.001	3.28394
705.894	0.835938
708.786	9.25732
711.679	6.68481
714.572	9.57642
717.464	6.34058
720.357	1.89111
723.25	6.52856
726.142	7.67041
729.035	16.2771
731.928	12.4329
734.821	17.4155
737.713	8.89893
740.606	10.0852
743.499	8.53882
746.391	7.63306
749.284	15.3643
752.177	10.2461
755.069	13.709
757.962	13.5032
760.855	6.49487
763.747	5.15796
766.64	7.02271
769.533	10.0515
772.426	6.04346
775.318	8.97363
778.211	0.679443
781.104	5.83984
783.996	16.0525
786.889	14.0403
789.782	9.31567
792.674	12.2407
795.567	14.2969
798.46	7.84424
801.353	12.0215
804.245	20.3801
807.138	15.6909
810.031	17.335
812.923	12.1416
815.816	11.9878
818.709	14.4297
821.601	14.0347
824.494	18.7698
827.387	16.7436
830.28	22.1011
833.172	28.5764
836.065	14.8379
838.958	13.9065
841.85	8.14697
844.743	13.4607
847.636	19.9175
850.529	20.8081
853.421	12.1655
856.314	12.1975
859.207	17.4277
862.099	9.01904
864.992	13.2136
867.885	6.92163
870.777	4.62891
873.67	1.04394
876.563	2.77124
879.456	8.71802
882.348	2.40234
885.241	0.936523
888.134	4.73438
891.026	8.62158
893.919	4.6311
896.812	1.85059
899.704	3.88135
902.597	3.79443
905.49	6.30322
908.383	10.9409
911.275	16.0071
914.168	26.1221
917.061	33.5925
919.953	48.0122
922.846	62.3479
925.739	93.2481
928.631	139.5
931.524	194.961
934.417	256.153
937.309	312.726
940.202	348.596
943.095	329.188
945.988	245.527
948.88	155.169
951.773	76.9712
954.666	35.9644
957.558	9.05249
960.451	3.55664
963.344	13.3157
966.236	7.23047
969.129	15.6875
972.022	47.1821
974.915	89.8318
977.807	175.413
980.7	313.894
983.593	534.347
986.485	852.557
989.378	1291.9
992.271	1842.25
995.163	2295.93
998.056	2219.41
1000.95	1658.68
1003.84	1110.03
1006.73	746.178
1009.63	520.108
1012.52	371.319
1015.41	245.188
1018.3	170.177
1021.2	118.079
1024.09	91.0669
1026.98	63.6653
1029.88	33.9815
1032.77	22.332
1035.66	21.3286
1038.55	49.9976
1041.45	86.5737
1044.34	164.833
1047.23	273.387
1050.12	409.136
1053.02	539.753
1055.91	608.271
1058.8	568.992
1061.7	446.002
1064.59	330.756
1067.48	233.978
1070.37	160.855
1073.27	110.316
1076.16	75.4031
1079.05	62.9114
1081.94	40.5581
1084.84	33.2568
1087.73	25.8735
1090.62	19.8806
1093.52	16.1763
1096.41	15.5469
1099.3	5.98267
1102.19	0.795898
1105.09	6.70117
1107.98	4.9939
1110.87	1.02368
1113.76	2.87573
1116.66	1.61255
1119.55	2.20044
1122.44	1.34351
1125.34	4.13623
1128.23	2.38403
1131.12	17.199
1134.01	15.6646
1136.91	9.49048
1139.8	12.9297
1142.69	16.3931
1145.58	23.8164
1148.48	34.0029
1151.37	36.0386
1154.26	31.3648
1157.15	37.3721
1160.05	22.4016
1162.94	16.898
1165.83	28.3049
1168.72	28.2918
1171.62	22.0825
1174.51	20.189
1177.4	20.2705
1180.3	18.948
1183.19	9.69263
1186.08	7.19092
1188.97	13.374
1191.87	17.209
1194.76	16.8538
1197.65	11.3655
1200.55	12.7568
1203.44	6.23975
1206.33	17.3215
1209.22	7.40283
1212.12	7.70581
1215.01	15.2041
1217.9	11.751
1220.79	12.3633
1223.69	8.53394
1226.58	8.02734
1229.47	11.3852
1232.37	9.22485
1235.26	10.302
1238.15	2.38769
1241.04	5.75806
1243.94	4.73218
1246.83	15.2974
1249.72	15.3528
1252.61	14.97
1255.51	18.9512
1258.4	9.43408
1261.29	13.5195
1264.18	18.7209
1267.08	19.1152
1269.97	19.3166
1272.86	16.876
1275.76	4.35449
1278.65	13.7324
1281.54	11.419
1284.43	5.06079
1287.33	6.45654
1290.22	2.49072
1293.11	0.88501
1296	4.02661
1298.9	5.90894
1301.79	5.00513
1304.68	3.67578
