Measurement: Raman, 785 nm, unoriented, Raman Data Processed
Mineral: Hornesite
Rruff sample: R070336
Ideal chemistry: Mg_3_(As^5+^O_4_)_2_8H_2_O
Locality: Ayers, Val d' Anniviers, Wallis, Switzerland
Source: Michael Scott
Description: Radiating aggregates of white fibrous crystals
Raman shift (cm-1)	intensity
156.722	0
159.615	31.6467
162.508	91.1667
165.4	122.525
168.293	80.9607
171.186	118.9
174.078	55.0547
176.971	71.2854
179.864	160.092
182.756	173.197
185.649	121.657
188.542	95.666
191.435	23.3223
194.327	33.6553
197.22	23.5356
200.113	23.4331
203.005	45.8848
205.898	38.5127
208.791	55.5732
211.684	16.2539
214.576	13.7991
217.469	70.7844
220.362	74.8821
223.254	97.4841
226.147	163.278
229.04	164.433
231.932	167.75
234.825	107.127
237.718	116.402
240.611	62.658
243.503	49.4839
246.396	53.2766
249.289	68.0239
252.181	61.9458
255.074	48.9548
257.967	15.8408
260.859	30.5754
263.752	51.0105
266.645	14.8943
269.538	15.9033
272.43	41.0242
275.323	48.4661
278.216	15.9502
281.108	1.78589
284.001	44.6099
286.894	55.4951
289.786	64.3262
292.679	81.8931
295.572	116.996
298.464	231.627
301.357	371.356
304.25	497.615
307.143	604.807
310.035	782.32
312.928	943.717
315.821	1018.97
318.713	945.013
321.606	868.342
324.499	851.186
327.392	998.678
330.284	1034.4
333.177	1101.37
336.07	1154.6
338.962	1238.89
341.855	1399.23
344.748	1466.32
347.64	1590.68
350.533	1742.1
353.426	1706.88
356.318	1526.18
359.211	1305.13
362.104	1018.82
364.997	769.758
367.889	669.855
370.782	517.673
373.675	373.135
376.567	298.774
379.46	135.902
382.353	85.221
385.245	44.4321
388.138	4.13232
391.031	50.8555
393.924	52.0554
396.816	115.193
399.709	179.515
402.602	285.403
405.494	395.892
408.387	574.091
411.28	750.092
414.173	858.428
417.065	709.313
419.958	470.64
422.851	365.901
425.743	334.362
428.636	318.699
431.529	312.574
434.421	354.886
437.314	384.314
440.207	434.877
443.099	442.25
445.992	409.447
448.885	362.144
451.778	299.308
454.67	239.286
457.563	163.641
460.456	89.5571
463.348	54.9529
466.241	4.92993
469.134	33.1899
472.026	32.096
474.919	2.5686
477.812	39.3
480.705	69.5989
483.597	193.277
486.49	228.175
489.383	335.59
492.275	418.745
495.168	326.596
498.061	190.1
500.954	80.2478
503.846	0.066162
506.739	21.7695
509.632	17.842
512.524	20.1619
515.417	11.8516
518.31	31.146
521.202	5.78601
524.095	8.83386
526.988	46.7589
529.88	20.6986
532.773	16.2888
535.666	5.13342
538.559	86.9547
541.451	76.645
544.344	89.4966
547.237	116.868
550.129	51.7355
553.022	83.1499
555.915	119.402
558.808	142.272
561.7	129.231
564.593	129.166
567.486	91.2318
570.378	37.3816
573.271	87.8955
576.164	84.0349
579.056	109.645
581.949	107.442
584.842	74.2266
587.735	76.2865
590.627	96.736
593.52	74.0281
596.413	93.1397
599.305	109.496
602.198	109.158
605.091	143.387
607.983	159.7
610.876	167.735
613.769	235.599
616.662	254.377
619.554	281.71
622.447	238.18
625.34	183.749
628.232	129.728
631.125	73.834
634.018	43.3949
636.91	47.5855
639.803	10.073
642.696	4.11646
645.588	5.41052
648.481	20.8389
651.374	1.71826
654.267	38.8898
657.159	14.167
660.052	52.392
662.945	133.529
665.837	205.781
668.73	280.061
671.623	316.644
674.515	147.217
677.408	90.8068
680.301	79.2462
683.194	97.0569
686.086	33.7404
688.979	98.2948
691.872	183.886
694.764	217.892
697.657	198.978
700.55	247.566
703.442	262.859
706.335	291.615
709.228	294.554
712.121	348.697
715.013	303.482
717.906	340.629
720.799	302.591
723.691	220.514
726.584	205.041
729.477	157.534
732.37	64.4203
735.262	38.4817
738.155	16.8225
741.048	5.23267
743.94	25.4241
746.833	111.594
749.726	48.4585
752.618	14.8887
755.511	22.366
758.404	7.9021
761.297	86.4614
764.189	98.8774
767.082	111.848
769.975	61.3284
772.867	46.7393
775.76	21.2234
778.653	18.3882
781.545	6.52515
784.438	76.4368
787.331	143.823
790.223	246.332
793.116	359.55
796.009	462.614
798.902	555.241
801.794	664.004
804.687	931.89
807.58	1279.21
810.472	1795.07
813.365	2288.28
816.258	2734.43
819.15	2919.89
822.043	2938
824.936	3200.48
827.829	3637.65
830.721	4160.66
833.614	4514.18
836.507	4843.41
839.399	5080.51
842.292	5182.55
845.185	5192.55
848.077	4881.96
850.97	4597.8
853.863	4309.11
856.756	4149.75
859.648	4131.02
862.541	4313.25
865.434	4452.39
868.326	4634.21
871.219	4307.12
874.112	3514.37
877.005	2727.14
879.897	2138.21
882.79	1560.31
885.683	1215.55
888.575	964.538
891.468	856.012
894.361	901.005
897.253	923.603
900.146	982.65
903.039	984.956
905.932	880.824
908.824	743.457
911.717	576.731
914.61	361.882
917.502	166.671
920.395	42.078
923.288	5.5426
926.18	17.181
929.073	76.8731
931.966	51.9696
934.859	40.1632
937.751	32.6399
940.644	41.0078
943.537	22.0131
946.429	23.8561
949.322	9.01636
952.215	50.6543
955.107	44.8632
958	39.7416
960.893	89.3314
963.785	60.6395
966.678	106.636
969.571	124.604
972.464	156.686
975.356	202.425
978.249	192.257
981.142	218.766
984.034	235.28
986.927	261.514
989.82	280.528
992.712	216.022
995.605	325.883
998.498	582.366
1001.39	1142.93
1004.28	2449.7
1007.18	3864.05
1010.07	2739.63
1012.96	866.832
1015.85	400.072
1018.75	248.051
1021.64	139.544
1024.53	74.1924
1027.42	76.257
1030.32	73.6443
1033.21	95.3407
1036.1	55.4836
1039	96.3096
1041.89	78.1326
1044.78	4.22327
1047.67	43.5844
1050.57	45.0592
1053.46	33.1545
1056.35	22.7092
1059.24	59.1602
1062.14	43.1698
1065.03	29.1738
1067.92	38.9996
1070.82	23.7567
1073.71	19.4995
1076.6	10.8602
1079.49	22.7456
1082.39	0.419678
1085.28	49.7595
1088.17	24.1743
1091.06	8.88989
1093.96	85.1095
1096.85	36.829
1099.74	36.6097
1102.63	70.3732
1105.53	22.3967
1108.42	65.8168
1111.31	71.0427
1114.21	103.617
1117.1	96.0758
1119.99	122.028
1122.88	137.565
1125.78	181.508
1128.67	259.996
1131.56	430.45
1134.45	573.42
1137.35	488.896
1140.24	343.303
1143.13	241.627
1146.03	159.719
1148.92	72.0951
1151.81	60.9454
1154.7	49.8633
1157.6	24.7755
1160.49	42.9174
1163.38	17.3248
1166.27	20.3464
1169.17	12.5896
1172.06	25.7268
1174.95	13.1417
1177.85	33.1574
1180.74	26.0032
1183.63	44.5664
1186.52	50.9983
1189.42	8.06921
1192.31	18.2139
1195.2	37.4608
1198.09	41.079
1200.99	30.0602
1203.88	44.5471
1206.77	62.5784
1209.66	51.5936
1212.56	28.84
1215.45	40.8601
1218.34	47.1813
1221.24	0.092041
1224.13	22.932
1227.02	20.8496
1229.91	5.14648
1232.81	39.042
1235.7	41.2647
1238.59	29.4469
1241.48	5.67065
1244.38	14.7604
1247.27	29.4558
1250.16	16.2511
1253.06	51.4818
1255.95	44.4731
1258.84	13.5832
1261.73	4.44067
1264.63	18.4699
