Measurement: Raman, 532 nm, unoriented, Raman Data Processed
Mineral: Hornesite
Rruff sample: R070336
Ideal chemistry: Mg_3_(As^5+^O_4_)_2_8H_2_O
Locality: Ayers, Val d' Anniviers, Wallis, Switzerland
Source: Michael Scott
Description: Radiating aggregates of white fibrous crystals
Raman shift (cm-1)	intensity
156.718	0
159.61	190.906
162.503	301.228
165.396	393.506
168.288	264.565
171.181	123.4
174.074	236.562
176.966	418.596
179.859	503.898
182.752	610.184
185.644	618.275
188.537	611.461
191.43	652.297
194.323	426.809
197.215	353.365
200.108	427.184
203.001	387.461
205.893	539.762
208.786	544.023
211.679	501.428
214.571	387.144
217.464	346.098
220.357	371.516
223.25	464.188
226.142	479.871
229.035	291.41
231.928	403.592
234.82	310.379
237.713	239.432
240.606	168.629
243.498	223.824
246.391	303.065
249.284	254.812
252.177	116.84
255.069	18.8906
257.962	128.156
260.855	16.3633
263.747	37.4102
266.64	78.0879
269.533	0.814453
272.425	11.4531
275.318	27.0977
278.211	27.6328
281.103	93.2422
283.996	1.8418
286.889	71.2734
289.782	220.728
292.674	123.121
295.567	114.215
298.46	223.977
301.352	436.82
304.245	776.512
307.138	1010.08
310.031	1072.6
312.923	1424.47
315.816	1427.65
318.709	1172.82
321.601	1136.5
324.494	1184.66
327.387	1404.8
330.279	1455.92
333.172	1589.49
336.065	1728.99
338.957	2056.78
341.85	2372.58
344.743	2445.5
347.635	2856.85
350.528	3142.28
353.421	3105.38
356.314	2750.22
359.206	2283.87
362.099	1615.53
364.992	1303.14
367.884	898.979
370.777	666.484
373.67	545.334
376.562	207.693
379.455	143.807
382.348	21.3145
385.241	21.5312
388.133	45.332
391.026	194.754
393.919	136.652
396.811	133.893
399.704	371.94
402.597	655.449
405.49	907.193
408.382	1260.91
411.275	1325
414.168	1545.9
417.06	1233.22
419.953	811.498
422.846	562.254
425.738	472.15
428.631	391.027
431.524	403.088
434.416	593.168
437.309	674.561
440.202	874.686
443.094	837.439
445.987	746.268
448.88	517.566
451.773	443.965
454.665	467.332
457.558	251.582
460.451	8.19922
463.343	96.0781
466.236	16.2461
469.129	65.3731
472.022	147.4
474.914	197.705
477.807	159.205
480.7	326.832
483.592	631.877
486.485	758.914
489.378	834.852
492.27	704.182
495.163	610.818
498.056	270.371
500.949	51.9316
503.841	41.1582
506.734	46.6602
509.627	37.625
512.519	18.6465
515.412	30.5137
518.305	55.166
521.197	192.305
524.09	103.047
526.983	206.613
529.875	129.688
532.768	80.8359
535.661	147.725
538.554	40.834
541.446	130.41
544.339	359.256
547.232	418.111
550.124	284.685
553.017	236.238
555.91	318.832
558.802	227.18
561.695	298.234
564.588	354.44
567.481	335.078
570.373	201.537
573.266	313.24
576.159	138.656
579.051	201.772
581.944	205.846
584.837	223.197
587.729	477.637
590.622	284.242
593.515	239.684
596.408	179.277
599.3	261.807
602.193	346.217
605.086	484.336
607.978	613.922
610.871	731.51
613.764	603.254
616.656	703.281
619.549	615.287
622.442	719.42
625.335	536.641
628.227	291.85
631.12	244.598
634.013	127.414
636.905	65.7227
639.798	157.363
642.691	2.43164
645.583	26.5312
648.476	113.201
651.369	223.701
654.261	243.92
657.154	432.809
660.047	272.75
662.94	338.225
665.832	625.385
668.725	651.269
671.618	722.361
674.51	320.609
677.403	183.002
680.296	14.7598
683.188	253.18
686.081	505.666
688.974	453.894
691.866	583.625
694.759	543.717
697.652	657.377
700.545	800.742
703.437	657.543
706.33	687.324
709.223	782.221
712.115	816.207
715.008	860.383
717.901	838.062
720.793	760.779
723.686	663.227
726.579	634.41
729.472	494.047
732.364	174.174
735.257	169.342
738.15	83.8965
741.042	245.475
743.935	86.0977
746.828	58.666
749.721	38.7656
752.613	233.234
755.506	88.043
758.399	118.066
761.291	165.234
764.184	346.098
767.077	456.625
769.969	275.617
772.862	255.016
775.755	24.5195
778.648	112.617
781.54	14.9297
784.433	90.5312
787.326	244.039
790.218	472.231
793.111	757.402
796.004	1004.4
798.896	1280.34
801.789	1670.7
804.682	2410.04
807.574	3239.76
810.467	4271.83
813.36	5319.27
816.253	6467.27
819.145	7264.23
822.038	7843.81
824.931	8729.09
827.823	9684.22
830.716	10926
833.609	11737.7
836.501	12115
839.394	12489.9
842.287	12601.5
845.179	12501.4
848.072	11599.7
850.965	10700.2
853.857	9978.87
856.75	9548.28
859.643	9490.98
862.536	9628.34
865.428	9673.34
868.321	9546.81
871.214	8393.96
874.106	7256.58
876.999	5780.27
879.892	4659.12
882.784	3644.65
885.677	2839.08
888.57	2307.2
891.463	2293.21
894.355	2456.97
897.248	2820.9
900.141	2696.61
903.033	2555.34
905.926	2493.57
908.819	2076.23
911.712	1430.2
914.604	932.914
917.497	420.883
920.39	30.5977
923.282	61.0898
926.175	57.2578
929.068	26.5195
931.96	169.836
934.853	233.602
937.746	39.6562
940.639	122.664
943.531	69.5898
946.424	66.125
949.317	146.516
952.209	47.1055
955.102	29.2812
957.995	111.234
960.887	93.9219
963.78	287.207
966.673	203.812
969.566	388
972.458	326.473
975.351	471.621
978.244	577.414
981.136	738.902
984.029	741.727
986.922	745.641
989.814	891.574
992.707	1117.71
995.6	1829.39
998.492	2960.72
1001.38	4406.7
1004.28	6932.7
1007.17	9512.64
1010.06	7197.28
1012.96	2346.8
1015.85	1141.83
1018.74	671.582
1021.63	475.231
1024.53	430.773
1027.42	578.168
1030.31	428.047
1033.2	341.762
1036.1	311.512
1038.99	456.332
1041.88	428.086
1044.78	217.074
1047.67	132.934
1050.56	145.688
1053.45	232.07
1056.35	403.793
1059.24	406.422
1062.13	112.766
1065.03	51.8828
1067.92	33.7227
1070.81	163.41
1073.7	155.719
1076.6	4.49219
1079.49	7.125
1082.38	136.012
1085.27	81.9844
1088.17	100.144
1091.06	43.1328
1093.95	189.965
1096.84	318.992
1099.74	326.984
1102.63	408.113
1105.52	467.461
1108.41	478.289
1111.31	349.633
1114.2	495.109
1117.09	366.356
1119.99	526.387
1122.88	526.371
1125.77	621.32
1128.66	1052.54
1131.56	1664.21
1134.45	1869.89
1137.34	1523.75
1140.23	942.547
1143.13	689.488
1146.02	365.914
1148.91	227.664
1151.81	160.188
1154.7	300.156
1157.59	321.566
1160.48	160.352
1163.38	84.2031
1166.27	179.598
1169.16	61.6875
1172.05	190.32
1174.95	324.266
1177.84	192.875
1180.73	283.883
1183.62	319.672
1186.52	131.769
1189.41	281.629
1192.3	34.4961
1195.2	167.891
1198.09	67.6211
1200.98	37.4727
1203.87	127.207
1206.77	130.566
1209.66	180.469
1212.55	262.922
1215.44	182.957
1218.34	161.203
1221.23	85.3164
1224.12	179.191
1227.02	32.0234
1229.91	61.9883
1232.8	281.969
1235.69	254.906
1238.59	308.234
1241.48	351.695
1244.37	359.309
1247.26	460.125
1250.16	444.168
1253.05	247.41
1255.94	157.195
1258.84	350.82
1261.73	81
1264.62	0.28125
