Measurement: Raman, 532 nm, unoriented, Raman Data Processed
Mineral: Hornesite
Rruff sample: R060724
Ideal chemistry: Mg_3_(As^5+^O_4_)_2_8H_2_O
Locality: Huercal Overa, Almeria Province, Spain
Source: Bob Jenkins
Description: Stellate aggregate of pearly white bladed crystals associated with green conichalcite
Measured chemistry: (Mg_2.88_Fe_0.10_Mn_0.02_)_Σ=3_(As_1.00_O_4_)_2_·7.82H_2_ ; H_2_O estimated by difference
Raman shift (cm-1)	intensity
145.147	0
148.039	639.981
150.932	1540.01
153.825	2354.85
156.717	3544.57
159.61	5395.24
162.503	3776.17
165.396	1711.38
168.288	1056.95
171.181	955.629
174.074	1357.56
176.966	2020.64
179.859	2243.34
182.752	1988.24
185.645	1298.02
188.537	697.906
191.43	798.695
194.323	1440.14
197.215	3131.2
200.108	6027.65
203.001	10109.3
205.893	15745
208.786	13157.5
211.679	9541.31
214.572	6146.63
217.464	3691.09
220.357	2541.23
223.25	1950.9
226.142	1547.24
229.035	1150.72
231.928	971.149
234.82	1229.24
237.713	2039.73
240.606	2549.07
243.498	3209.78
246.391	3448.72
249.284	2578.8
252.176	2433.04
255.069	3045.65
257.962	3909.3
260.855	4854.72
263.747	4817.28
266.64	4656.07
269.533	4403.75
272.425	4439.05
275.318	4079.67
278.211	3305.04
281.103	2481.5
283.996	1853.99
286.889	1523.65
289.782	1460.45
292.674	1540.77
295.567	1977.58
298.46	2509.45
301.352	3007.53
304.245	3254.92
307.138	3403.2
310.03	2749.72
312.923	1566.2
315.816	712.924
318.709	251.881
321.601	35.18
324.494	137.588
327.387	24.164
330.279	181.793
333.172	105.623
336.065	147.188
338.957	71.871
341.85	56.736
344.743	15.42
347.635	146.504
350.528	478.475
353.421	786.252
356.314	986.533
359.206	1134.95
362.099	1571.62
364.992	1942.62
367.884	1512.32
370.777	1170.93
373.67	977.113
376.562	921.146
379.455	975.484
382.348	1265.52
385.241	1672.59
388.133	2277.55
391.026	3283.67
393.919	4414.03
396.811	5670.72
399.704	7181.83
402.597	8458.89
405.49	9008.64
408.382	8504.31
411.275	7248.63
414.168	6443.69
417.06	6246.83
419.953	6828.44
422.846	8074.93
425.738	9730
428.631	11258.9
431.524	11503.7
434.417	9380.64
437.309	6888.73
440.202	4996.53
443.095	4113.79
445.987	3138.44
448.88	2741.02
451.773	2500.22
454.665	2562.43
457.558	2689.95
460.451	3241.14
463.343	3839.06
466.236	4280.81
469.129	4255.14
472.022	3424.45
474.914	2521.94
477.807	1713.49
480.7	1187.07
483.592	981.971
486.485	685.49
489.378	431.008
492.27	395.242
495.163	276.965
498.056	194.223
500.948	95.562
503.841	45.643
506.734	63.719
509.627	104.822
512.519	25.762
515.412	90.303
518.305	83.949
521.197	49.445
524.09	71.182
526.983	177.148
529.875	72.881
532.768	48.295
535.661	138.426
538.554	80.988
541.446	89.764
544.339	27.424
547.232	61.416
550.124	41.084
553.017	40.518
555.91	131.328
558.802	163.439
561.695	12.119
564.588	5.105
567.481	37.191
570.373	17.691
573.266	22.773
576.159	71.596
579.051	5.459
581.944	99.152
584.837	115.264
587.729	71.535
590.622	9.379
593.515	113.844
596.407	9.768
599.3	16.135
602.193	0.188
605.086	153.646
607.978	211.027
610.871	241.973
613.764	265.08
616.656	346.463
619.549	351.701
622.442	415.293
625.334	498.334
628.227	520.885
631.12	660.604
634.013	704.256
636.905	814.188
639.798	1028.8
642.691	1090.81
645.583	1328.21
648.476	1476.01
651.369	1697.34
654.261	1658.94
657.154	1692.96
660.047	1647.97
662.94	1361.62
665.832	1164.52
668.725	1079.42
671.618	1034.9
674.51	690.035
677.403	535.654
680.296	413.018
683.188	480.385
686.081	481.293
688.974	432.174
691.867	430.744
694.759	441.008
697.652	327.939
700.545	220.701
703.437	308.438
706.33	288.203
709.223	353.084
712.115	372.52
715.008	330.611
717.901	305.664
720.794	381.838
723.686	225.57
726.579	201.525
729.472	117.322
732.364	129.66
735.257	6.004
738.15	29.211
741.042	41.354
743.935	142.084
746.828	137.795
749.721	245.889
752.613	38.57
755.506	67.771
758.399	339.586
761.291	291.357
764.184	270.916
767.077	522.176
769.969	792.494
772.862	1286.68
775.755	1255.25
778.648	1516.72
781.54	2083.51
784.433	2803.77
787.326	3580.03
790.218	4797.11
793.111	6757.32
796.004	9369.84
798.896	13257.4
801.789	18046.9
804.682	23944.3
807.574	28397
810.467	27254.8
813.36	21050
816.253	14531.4
819.145	9899.48
822.038	6964.67
824.931	5263.91
827.823	4097.64
830.716	3303.05
833.609	2609.45
836.501	2224.74
839.394	2036.3
842.287	1801.81
845.18	1683.15
848.072	1792.71
850.965	1845.07
853.858	2180.38
856.75	2727.5
859.643	4020.1
862.536	5911.44
865.428	8328.1
868.321	12037.8
871.214	17426.4
874.106	23072.2
876.999	25631.2
879.892	21404.5
882.784	14586.9
885.677	9618.07
888.57	6985.11
891.463	5500.95
894.355	4650.45
897.248	4253.4
900.141	3743.19
903.033	3499.25
905.926	3047.98
908.819	2784
911.711	2500.39
914.604	2316.73
917.497	1864.83
920.39	1539.13
923.282	1339
926.175	1314.71
929.068	1091.55
931.96	775.01
934.853	530.541
937.746	370.623
940.638	242.662
943.531	184.059
946.424	50.998
949.317	143.607
952.209	22.553
955.102	98.289
957.995	64.541
960.887	160.127
963.78	125.475
966.673	118.686
969.565	145.518
972.458	13.682
975.351	252.045
978.244	18.906
981.136	124.564
984.029	80.529
986.922	145.285
989.814	133.021
992.707	247.73
995.6	97.146
998.492	162.627
1001.38	11.35
1004.28	18.523
1007.17	61.115
1010.06	99.924
1012.96	136.07
1015.85	25.873
1018.74	189.67
1021.63	27.467
1024.53	95.318
1027.42	215.695
1030.31	48.891
1033.2	41.787
1036.1	138.883
1038.99	241.285
1041.88	147.535
1044.78	132.717
1047.67	88.906
1050.56	181.791
1053.45	133.059
1056.35	232.484
1059.24	303.15
1062.13	115.902
1065.03	169.035
1067.92	72.65
1070.81	175.781
1073.7	334.779
1076.6	349.117
1079.49	626.529
1082.38	1122.15
1085.27	2547.35
1088.17	2580.39
1091.06	1425.84
1093.95	1452.25
1096.84	2276.02
1099.74	2223.89
1102.63	919.535
1105.52	306.996
1108.41	250.945
1111.31	270.318
1114.2	85.795
1117.09	25.627
1119.99	40.475
1122.88	86.34
1125.77	16.121
1128.66	119.27
1131.56	255.371
1134.45	212.984
1137.34	87.145
1140.23	35.102
1143.13	165.771
1146.02	52.496
1148.91	104.602
1151.81	84.973
1154.7	225.795
1157.59	151.816
1160.48	156.191
1163.38	8.391
1166.27	33.656
1169.16	45.418
1172.05	59.691
1174.95	219.395
1177.84	185.83
1180.73	141.506
1183.62	221.855
1186.52	175.012
1189.41	6.93
1192.3	24.266
1195.2	88.076
1198.09	66.848
1200.98	105.203
1203.87	27.48
1206.77	45.037
1209.66	70.926
1212.55	102.127
1215.44	250.693
1218.34	0.895
1221.23	84.236
1224.12	72.607
1227.02	81.59
1229.91	33.98
1232.8	25.854
1235.69	37.252
1238.59	149.637
1241.48	8.979
1244.37	39.082
1247.26	95.725
1250.16	32.584
1253.05	67.729
1255.94	127.113
1258.84	32.494
1261.73	0.668
1264.62	164.127
1267.51	181.537
1270.41	47.164
1273.3	125.027
1276.19	166.824
1279.08	34.242
1281.98	123.969
1284.87	137.156
1287.76	167.359
1290.65	124.688
1293.55	63.234
1296.44	0
