Measurement: Raman, 785 nm, unoriented, Raman Data Processed
Mineral: Hornesite
Rruff sample: R060724
Ideal chemistry: Mg_3_(As^5+^O_4_)_2_8H_2_O
Locality: Huercal Overa, Almeria Province, Spain
Source: Bob Jenkins
Description: Stellate aggregate of pearly white bladed crystals associated with green conichalcite
Measured chemistry: (Mg_2.88_Fe_0.10_Mn_0.02_)_Σ=3_(As_1.00_O_4_)_2_·7.82H_2_ ; H_2_O estimated by difference
Raman shift (cm-1)	intensity
145.634	0
148.527	588.987
151.419	1051.96
154.312	984.625
157.205	1489.31
160.097	2267.8
162.99	1340.98
165.883	472.4
168.775	372.522
171.668	331.168
174.561	315.81
177.454	499.089
180.346	670.133
183.239	481.688
186.132	16.4131
189.024	209.432
191.917	109.607
194.81	423.83
197.702	1725.95
200.595	3945.37
203.488	7509.63
206.38	11009.9
209.273	8968.39
212.166	6464.96
215.059	3742.34
217.951	1895.76
220.844	1004.21
223.737	632.731
226.629	398.69
229.522	111.286
232.415	68.4648
235.307	267.383
238.2	781.468
241.093	1409.63
243.986	1796.13
246.878	1297.77
249.771	596.955
252.664	376.383
255.556	654.871
258.449	994.241
261.342	1412.3
264.234	1731.08
267.127	2137.15
270.02	2408.2
272.913	2679.41
275.805	2472.99
278.698	1749.84
281.591	1330.91
284.483	948.601
287.376	760.336
290.269	544.57
293.161	558.089
296.054	702.7
298.947	968.036
301.84	1237.97
304.732	1443.7
307.625	1449.9
310.518	1075.05
313.41	568.803
316.303	229.915
319.196	67.6313
322.089	55.728
324.981	31.4155
327.874	10.5303
330.767	8.57373
333.659	36.874
336.552	49.7964
339.445	87.3184
342.337	20.5122
345.23	42.7368
348.123	196.017
351.016	260.081
353.908	413.084
356.801	535.847
359.694	577.418
362.586	703.239
365.479	757.413
368.372	677.308
371.264	504.94
374.157	287.101
377.05	253.121
379.943	235.484
382.835	185.003
385.728	197.338
388.621	387.613
391.513	673.492
394.406	975.759
397.299	1469.25
400.191	1870.15
403.084	2226.32
405.977	2342.94
408.87	2139.41
411.762	2025.57
414.655	2053.91
417.548	2472.55
420.44	3266.27
423.333	4671.87
426.226	6142.08
429.118	7346.12
432.011	7094.07
434.904	5503.75
437.797	3715.2
440.689	2516.35
443.582	1695.18
446.475	1318.34
449.367	1036.91
452.26	792.746
455.153	761.737
458.045	881.386
460.938	1127.23
463.831	1397.75
466.724	1694.89
469.616	1595.49
472.509	1227.07
475.402	777.457
478.294	466.707
481.187	251.832
484.08	155.836
486.972	130.844
489.865	86.7783
492.758	67.7832
495.651	56.9502
498.543	22.2549
501.436	33.23
504.329	76.1602
507.221	68.2729
510.114	0.03125
513.007	6.01953
515.899	40.0034
518.792	40.8159
521.685	64.665
524.578	47.6123
527.47	37.2388
530.363	4.02002
533.256	9.73193
536.148	3.25098
539.041	53.5542
541.934	64.9004
544.826	1.84619
547.719	0.375488
550.612	44.2769
553.505	35.793
556.397	40.3389
559.29	101.64
562.183	49.9824
565.075	74.7993
567.968	20.731
570.861	16.4238
573.753	36.4912
576.646	8.26416
579.539	43.9741
582.432	56.1743
585.324	46.7231
588.217	73.2022
591.11	103.025
594.002	154.12
596.895	66.4961
599.788	87.1245
602.68	147.141
605.573	131.608
608.466	117.647
611.359	83.6162
614.251	212.751
617.144	151.804
620.037	190.14
622.929	170.792
625.822	231.791
628.715	270.493
631.607	325.025
634.5	354.312
637.393	424.282
640.286	477.824
643.178	617.582
646.071	656.016
648.964	710.533
651.856	770.577
654.749	794.728
657.642	752.301
660.534	755.295
663.427	610.138
666.32	563.172
669.213	428.244
672.105	352.659
674.998	388.909
677.891	327.541
680.783	225.88
683.676	187.423
686.569	170.77
689.461	215.798
692.354	167.906
695.247	244.66
698.14	228.483
701.032	208.759
703.925	223.558
706.818	161.653
709.71	180.492
712.603	195.295
715.496	173.598
718.388	134.931
721.281	107.559
724.174	106.859
727.067	107.933
729.959	42.04
732.852	21.2925
735.745	5.41162
738.637	14.9531
741.53	34.9761
744.423	12.0229
747.315	2.62207
750.208	22.7686
753.101	6.27002
755.994	10.8511
758.886	10.4521
761.779	88.1938
764.672	86.2559
767.564	180.089
770.457	325.284
773.35	397.81
776.242	611.281
779.135	890.568
782.028	1085.62
784.92	1467.96
787.813	1927.66
790.706	2644.09
793.599	3694.77
796.491	5189.66
799.384	7669.9
802.277	11374.4
805.169	15802.1
808.062	18751.6
810.955	17636.3
813.847	13340.6
816.74	8967.5
819.633	6010.2
822.526	3995.38
825.418	2725.12
828.311	1884.63
831.204	1343.37
834.096	917.608
836.989	619.833
839.882	432.706
842.774	214.382
845.667	64.9634
848.56	55.4141
851.453	64.4473
854.345	38.4546
857.238	90.833
860.131	240.858
863.023	542.161
865.916	1072.72
868.809	1873.97
871.701	3160.39
874.594	4411.76
877.487	4712.18
880.38	3552.69
883.272	2250.45
886.165	1333.38
889.058	898.3
891.95	629.33
894.843	569.128
897.736	530.905
900.628	417.553
903.521	511.868
906.414	479.568
909.307	442.504
912.199	463.011
915.092	351.905
917.985	291.026
920.877	189.977
923.77	138.288
926.663	77.3833
929.555	68.8154
932.448	35.0708
935.341	64.4185
938.234	7.00586
941.126	2.97607
944.019	10.522
946.912	9.99756
949.804	2.81103
952.697	2.51514
955.59	24.0737
958.482	18.374
961.375	24.0098
964.268	105.978
967.161	114.539
970.053	67.335
972.946	91.4771
975.839	101.792
978.731	91.4692
981.624	106.171
984.517	104.294
987.409	64.7368
990.302	83.7388
993.195	91.1665
996.088	67.4614
998.98	123.453
1001.87	120.822
1004.77	77.1103
1007.66	136.396
1010.55	91.8672
1013.44	83.8272
1016.34	66.7725
1019.23	2.80664
1022.12	70.0415
1025.02	16.2378
1027.91	9.37158
1030.8	76.9517
1033.69	43.3901
1036.59	44.8706
1039.48	73.9316
1042.37	35.4961
1045.26	27.2559
1048.16	46.2534
1051.05	50.1148
1053.94	4.85059
1056.83	70.0679
1059.73	44.083
1062.62	52.373
1065.51	50.1826
1068.4	55.9644
1071.3	100.954
1074.19	185.689
1077.08	222.454
1079.98	358.498
1082.87	606.377
1085.76	975.678
1088.65	974.883
1091.55	772.552
1094.44	897.293
1097.33	1087.86
1100.22	1021.43
1103.12	841.966
1106.01	834.369
1108.9	971.415
1111.8	979.702
1114.69	1107.97
1117.58	1195.75
1120.47	1055.42
1123.37	1078.4
1126.26	1019.46
1129.15	926.723
1132.04	851.396
1134.94	744.018
1137.83	651.573
1140.72	521.411
1143.62	472.269
1146.51	394.736
1149.4	330.351
1152.29	259.906
1155.19	194.059
1158.08	114.74
1160.97	97.3633
1163.86	63.2988
1166.76	44.8472
1169.65	33.9463
1172.54	21.4795
1175.43	0.767578
1178.33	16.0669
1181.22	3.99658
1184.11	1.00635
1187.01	38.9277
1189.9	112.821
1192.79	126.05
1195.68	197.352
1198.58	195.952
1201.47	172.066
1204.36	201.533
1207.26	140.006
1210.15	233.616
1213.04	288.011
1215.93	439.156
1218.83	523.653
1221.72	597.69
1224.61	592.818
1227.5	440.05
1230.4	281.626
1233.29	141.549
1236.18	45.1435
1239.07	0.518555
