Measurement: Raman, 532 nm, unoriented, Raman Data Processed
Mineral: Howlite
Rruff sample: R050588
Ideal chemistry: Ca_2_B_5_SiO_9_(OH)_5_
Locality: Lake Bras d'Or, Iona, Cape Breton Island, Victoria County, Nova Scotia, Canada
Source: Rock Currier
Description: Group of tan colored tabular to prismatic single crystals
Measured chemistry: Ca_2.01_B_5.00_Si_0.99_O_9_(OH)_5_ ; B and OH not measured but estimated by difference and charge balance.
Raman shift (cm-1)	intensity
129.797	0
133.172	81.6318
136.547	587.267
139.922	494.56
143.297	52.7932
146.671	84.9603
150.046	165.839
153.421	177.001
156.796	176.835
160.171	210.094
163.546	219.288
166.92	293.21
170.295	390.966
173.67	459.904
177.045	481.188
180.42	512.375
183.794	468.462
187.169	358.035
190.544	442.228
193.919	469.015
197.294	321.209
200.668	60.3646
204.043	49.5734
207.418	9.84021
210.793	50.801
214.168	99.3419
217.543	173.128
220.917	135.814
224.292	132.459
227.667	233.338
231.042	263.176
234.417	109.862
237.792	18.5996
241.166	72.9346
244.541	250.119
247.916	470.408
251.291	519.595
254.666	325.674
258.041	109.839
261.415	31.9617
264.79	46.7576
268.165	73.3538
271.54	125.419
274.915	174.977
278.289	204.192
281.664	271.886
285.039	357.492
288.414	415.687
291.789	452.746
295.163	537.774
298.538	752.805
301.913	1107.14
305.288	1248.94
308.663	881.521
312.038	481.919
315.412	194.91
318.787	67.5029
322.162	2.62598
325.537	21.6547
328.912	22.4784
332.287	19.9179
335.661	19.7553
339.036	57.8565
342.411	116.162
345.786	205.471
349.161	309.915
352.536	382.29
355.91	414.675
359.285	447.875
362.66	496.166
366.035	543.676
369.41	458.501
372.784	288.726
376.159	158.377
379.534	138.202
382.909	127.614
386.284	130.592
389.659	96.5066
393.033	59.1836
396.408	41.1952
399.783	59.1223
403.158	95.0006
406.533	128.081
409.907	98.7827
413.282	28.467
416.657	9.7832
420.032	0.848755
423.407	55.9382
426.782	128.322
430.156	159.176
433.531	179.742
436.906	147.996
440.281	75.9965
443.656	27.6906
447.031	23.3035
450.405	51.4827
453.78	121.151
457.155	259.257
460.53	433.444
463.905	707.976
467.279	1096.39
470.654	1238.33
474.029	677.763
477.404	277.25
480.779	159.711
484.154	47.0131
487.528	26.1334
490.903	29.9968
494.278	8.53931
497.653	51.9253
501.028	93.5656
504.402	121.028
507.777	126.833
511.152	110.076
514.527	67.9667
517.902	34.9305
521.277	51.3029
524.651	127.721
528.026	339.681
531.401	642.587
534.776	996.212
538.151	1372.38
541.525	1825.44
544.9	1984.56
548.275	1521.42
551.65	949.557
555.025	620.808
558.399	560.268
561.774	523.319
565.149	325.096
568.524	134.06
571.899	87.181
575.274	121.305
578.649	130.636
582.023	182.511
585.398	282.293
588.773	373.363
592.148	485.296
595.523	627.827
598.897	697.837
602.272	635.139
605.647	505.918
609.022	329.999
612.397	166.313
615.771	35.0972
619.146	27.6931
622.521	30.6962
625.896	14.0382
629.271	70.9711
632.646	67.7557
636.02	43.8644
639.395	3.19336
642.77	1.87659
646.145	85.7046
649.52	224.314
652.894	417.012
656.269	664.484
659.644	922.908
663.019	1154.45
666.394	1363.16
669.769	1497.92
673.144	1470.22
676.518	1192.7
679.893	920.225
683.268	893.543
686.643	890.204
690.018	667.209
693.392	273.051
696.767	82.0109
700.142	17.0326
703.517	2.10877
706.892	22.3364
710.266	52.4827
713.641	96.5844
717.016	148.003
720.391	223.668
723.766	370.058
727.141	555.725
730.515	835.292
733.89	994.353
737.265	821.231
740.64	470.046
744.015	222.157
747.389	99.155
750.764	46.559
754.139	11.5245
757.514	6.72046
760.889	3.71948
764.264	4.93005
767.639	7.53491
771.013	1.22436
774.388	0.71228
777.763	7.83167
781.138	21.884
784.513	4.14856
787.887	2.5564
791.262	4.92156
794.637	5.14282
798.012	1.81641
801.387	25.6791
804.761	30.5472
808.136	61.0754
811.511	81.8946
814.886	98.6295
818.261	129.016
821.636	143.888
825.01	150.519
828.385	103.413
831.76	91.6227
835.135	70.8344
838.51	77.8632
841.885	110.41
845.259	134.725
848.634	184.938
852.009	243.753
855.384	290.229
858.759	280.907
862.134	217.665
865.508	132.96
868.883	75.5491
872.258	40.4733
875.633	32.1191
879.008	38.833
882.382	46.8866
885.757	66.8772
889.132	70.1931
892.507	51.9337
895.882	44.1738
899.256	38.9314
902.631	28.1681
906.006	15.0867
909.381	3.96777
912.756	15.8379
916.131	0.63269
919.505	29.1211
922.88	74.0122
926.255	82.9895
929.63	49.9668
933.005	15.1238
936.38	0.628662
939.754	3.41809
943.129	3.5437
946.504	30.4303
949.879	51.5902
953.254	65.0765
956.629	67.7295
960.003	48.9619
963.378	41.8699
966.753	45.0426
970.128	63.9522
973.503	87.7004
976.877	102.622
980.252	121.27
983.627	119.948
987.002	109.485
990.377	84.5402
993.751	76.1731
997.126	55.2596
1000.5	48.5596
1003.88	46.5166
1007.25	76.8068
1010.63	110.556
1014	120.49
1017.38	122.562
1020.75	113.433
1024.12	105.9
1027.5	112.431
1030.88	93.9503
1034.25	73.3784
1037.62	39.9557
1041	16.2495
1044.37	5.73694
1047.75	9.1145
1051.12	12.9182
1054.5	1.01819
1057.87	20.1317
1061.25	44.0837
1064.62	51.1523
1068	44.3665
1071.37	36.2902
1074.75	27.0249
1078.12	16.1838
1081.5	8.16479
1084.87	10.0718
1088.25	21.5321
1091.62	36.5527
1095	54.264
1098.37	79.4641
1101.75	82.7349
1105.12	83.3806
1108.49	99.5098
1111.87	127.572
1115.24	134.008
1118.62	116.372
1121.99	87.1058
1125.37	69.3754
1128.74	59.5812
1132.12	42.7091
1135.49	6.7312
1138.87	5.65332
1142.24	1.07153
1145.62	6.0769
1148.99	30.297
1152.37	38.0346
1155.74	43.491
1159.12	60.1982
1162.49	62.1704
1165.87	62.0476
1169.24	56.7343
1172.62	38.279
1175.99	28.3896
1179.37	21.1006
1182.74	1.86475
1186.12	3.32202
1189.49	2.14539
1192.87	20.6113
1196.24	41.7114
1199.62	55.688
1202.99	66.891
1206.37	75.2671
1209.74	60.0286
1213.12	60.3026
1216.49	36.6205
1219.87	34.7698
1223.24	24.0338
1226.61	18.7128
1229.99	9.16589
1233.36	7.09155
1236.74	6.57007
1240.11	4.14844
1243.49	0.777222
1246.86	3.89062
1250.24	1.96655
1253.61	4.93066
1256.99	4.75278
1260.36	5.19434
1263.74	8.91992
1267.11	19.8573
1270.49	41.5579
1273.86	37.4147
1277.24	26.8699
1280.61	12.754
1283.99	3.14185
1287.36	2.4303
1290.74	17.389
1294.11	36.4037
1297.48	25.2696
1300.86	10.7803
