Measurement: Raman, 532 nm, unoriented, Raman Data Processed
Mineral: Howlite
Rruff sample: R110150
Ideal chemistry: Ca_2_B_5_SiO_9_(OH)_5_
Locality: Potash Corporation of Saskatchewan mine, Penobsquis, Kings County, New Brunswick, Canada
Source: Donald M Doell and Brian Roulston
Description: Colorless bladed crystals, extracted by dissolving the matrix of sylvite/halite, associated with strontioginorite R110149, volkovskite R110151, ruitenbergite R110152, congolite R110153, and hilgardite
Raman shift (cm-1)	intensity
177.273	0
180.166	29.0852
183.059	39.1056
185.951	83.6403
188.844	123.973
191.737	201.399
194.629	230.262
197.522	195.078
200.415	96.1519
203.308	24.0418
206.2	5.19885
209.093	12.022
211.986	13.4761
214.878	9.86462
217.771	12.6233
220.664	14.4013
223.556	15.179
226.449	19.2467
229.342	15.8163
232.234	0.9133
235.127	1.12891
238.02	7.65094
240.913	17.4309
243.805	40.5511
246.698	50.5475
249.591	68.5467
252.483	69.4622
255.376	63.4882
258.269	33.2118
261.161	20.7606
264.054	22.7545
266.947	13.5613
269.84	12.5367
272.732	17.9445
275.625	14.3816
278.518	8.29422
281.41	19.5816
284.303	36.7909
287.196	55.9998
290.089	75.8485
292.981	90.6673
295.874	107.408
298.767	130.21
301.659	162.413
304.552	176.521
307.445	146.591
310.337	97.8908
313.23	55.2054
316.123	31.4971
319.015	11.7283
321.908	10.2075
324.801	7.12793
327.694	4.93393
330.586	0.512421
333.479	4.04263
336.372	7.74878
339.264	0.270203
342.157	7.68063
345.05	14.2897
347.942	17.841
350.835	24.3196
353.728	29.1353
356.621	32.275
359.513	44.3946
362.406	56.0947
365.299	62.9382
368.191	67.9257
371.084	57.9612
373.977	35.9716
376.87	27.5167
379.762	25.85
382.655	12.2061
385.548	34.0027
388.44	30.1929
391.333	27.1616
394.226	15.8525
397.118	15.9842
400.011	28.0106
402.904	33.0601
405.796	37.9734
408.689	56.2171
411.582	54.6077
414.475	35.6887
417.367	22.0562
420.26	24.3571
423.153	11.7074
426.045	17.6876
428.938	19.3672
431.831	23.7651
434.724	23.658
437.616	23.0405
440.509	28.1871
443.402	23.5104
446.294	43.5955
449.187	33.6546
452.08	34.3363
454.972	12.5954
457.865	4.11624
460.758	11.2688
463.651	12.775
466.543	20.9033
469.436	26.0343
472.329	26.9384
475.221	7.74017
478.114	0.705292
481.007	3.76495
483.899	0.006348
486.792	2.92215
489.685	7.85883
492.577	0.429749
495.47	1.72891
498.363	0.178314
501.256	2.60873
504.148	8.6973
507.041	14.3083
509.934	17.6798
512.826	23.0688
515.719	18.3971
518.612	16.5366
521.505	25.6015
524.397	40.0392
527.29	64.1045
530.183	104.55
533.075	143.457
535.968	198.286
538.861	259.43
541.753	313.684
544.646	325.147
547.539	252.354
550.432	163.511
553.324	101.211
556.217	72.4249
559.11	55.7505
562.002	48.665
564.895	32.1504
567.788	18.5888
570.68	19.6519
573.573	23.9367
576.466	30.2675
579.359	31.6893
582.251	29.5164
585.144	41.4832
588.037	47.6867
590.929	78.9889
593.822	97.3
596.715	114.725
599.607	123.285
602.5	116.621
605.393	101.35
608.285	81.9552
611.178	56.4428
614.071	37.8665
616.964	4.99374
619.856	4.31952
622.749	14.0714
625.642	0.361053
628.534	3.53302
631.427	1.48236
634.32	17.5315
637.212	10.8603
640.105	3.47961
642.998	0.107056
645.891	7.91333
648.783	17.6824
651.676	35.2673
654.569	57.4538
657.461	76.6824
660.354	114.84
663.247	152.018
666.139	202.494
669.032	251.363
671.925	299.929
674.818	317.501
677.71	271.196
680.603	234.997
683.496	241.605
686.388	276.976
689.281	264.848
692.174	183.027
695.067	89.2572
697.959	48.3443
700.852	31.9927
703.745	8.88293
706.637	22.1116
709.53	18.7753
712.423	14.9787
715.315	9.38074
718.208	13.2821
721.101	20.2989
723.994	38.2737
726.886	52.9181
729.779	82.1345
732.672	116.15
735.564	137.243
738.457	125.039
741.35	88.4685
744.242	52.4587
747.135	29.8336
750.028	15.9361
752.92	5.98932
755.813	2.48831
758.706	2.01129
761.599	2.73224
764.491	1.73987
767.384	1.12152
770.277	1.1282
773.169	7.04199
776.062	0.090179
778.955	2.38791
781.847	3.92407
784.74	6.65851
787.633	4.22458
790.526	2.13306
793.418	7.97321
796.311	11.9921
799.204	1.43393
802.096	12.682
804.989	22.1387
807.882	23.6049
810.774	23.3377
813.667	30.4828
816.56	28.9933
819.453	32.6144
822.345	43.878
825.238	38.7508
828.131	39.3745
831.023	42.3303
833.916	37.4544
836.809	37.4973
839.702	44.2201
842.594	47.0541
845.487	45.7195
848.38	35.6006
851.272	31.841
854.165	23.4707
857.058	29.071
859.95	25.3314
862.843	31.5617
865.736	32.0244
868.629	17.3963
871.521	25.833
874.414	22.721
877.307	28.2383
880.199	23.6436
883.092	27.8094
885.985	36.0703
888.877	42.9743
891.77	32.9939
894.663	34.9505
897.556	37.3665
900.448	33.7552
903.341	23.0587
906.234	18.1399
909.126	9.48715
912.019	10.1402
914.912	3.95471
917.804	5.35455
920.697	4.42014
923.59	7.36987
926.482	9.71631
929.375	1.36786
932.268	3.12668
935.161	1.82938
938.053	3.8855
940.946	1.77747
943.839	2.06778
946.731	4.42465
949.624	12.157
952.517	11.6223
955.409	25.7971
958.302	25.6949
961.195	19.5485
964.088	19.4592
966.98	12.4239
969.873	15.1465
972.766	14.2734
975.658	15.6324
978.551	27.8893
981.444	33.8337
984.337	39.5219
987.229	47.5395
990.122	39.5395
993.015	34.9072
995.907	27.523
998.8	22.5817
1001.69	10.98
1004.59	6.11383
1007.48	9.66901
1010.37	17.3794
1013.26	10.5545
1016.16	9.81088
1019.05	13.4182
1021.94	15.6731
1024.83	2.77145
1027.73	11.2377
1030.62	9.59827
1033.51	12.2213
1036.4	8.85062
1039.3	6.40219
1042.19	1.57791
1045.08	2.03436
1047.98	0.777527
1050.87	5.78275
1053.76	7.55328
1056.65	7.52112
1059.55	10.5321
1062.44	12.4535
1065.33	3.19998
1068.22	6.02194
1071.12	9.95773
1074.01	13.7378
1076.9	9.28128
1079.8	7.57321
1082.69	0.446411
1085.58	1.07025
1088.47	3.49826
1091.37	6.71475
1094.26	12.8584
1097.15	5.16879
1100.05	8.98364
1102.94	5.12555
1105.83	12.6662
1108.72	17.0533
1111.62	17.5372
1114.51	27.7672
1117.4	25.1286
1120.29	35.908
1123.19	31.0928
1126.08	28.886
1128.97	32.7032
1131.86	27.0886
1134.76	11.6315
1137.65	14.4595
1140.54	10.1393
1143.43	12.2398
1146.33	11.3545
1149.22	8.80127
1152.11	4.08377
1155.01	4.98044
1157.9	4.19162
1160.79	0.029175
1163.68	5.38467
1166.58	9.89355
1169.47	10.8645
1172.36	1.33087
1175.26	0.19165
1178.15	5.64777
1181.04	8.62442
1183.93	9.60239
1186.83	13.0094
1189.72	10.1124
1192.61	14.9881
1195.5	15.9068
1198.4	17.1711
1201.29	18.9686
1204.18	20.8502
1207.07	28.0194
1209.97	26.957
1212.86	25.9397
1215.75	20.6847
1218.64	19.7228
1221.54	20.5857
1224.43	17.8878
1227.32	13.2963
1230.22	5.98062
1233.11	13.6061
1236	14.7436
1238.89	11.0156
1241.79	4.12836
1244.68	7.49631
1247.57	12.3791
1250.46	7.5047
1253.36	16.5548
1256.25	19.9801
1259.14	14.4461
1262.04	18.9736
1264.93	12.4241
1267.82	15.6517
1270.71	10.8263
1273.61	15.1249
1276.5	7.33588
1279.39	10.5021
1282.29	0.591309
1285.18	5.61465
