Measurement: Raman, 780 nm, unoriented, Raman Data Processed
Mineral: Howlite
Rruff sample: R050588
Ideal chemistry: Ca_2_B_5_SiO_9_(OH)_5_
Locality: Lake Bras d'Or, Iona, Cape Breton Island, Victoria County, Nova Scotia, Canada
Source: Rock Currier
Description: Group of tan colored tabular to prismatic single crystals
Measured chemistry: Ca_2.01_B_5.00_Si_0.99_O_9_(OH)_5_ ; B and OH not measured but estimated by difference and charge balance.
Raman shift (cm-1)	intensity
103.114	0
106.489	42.2444
109.864	69.3289
113.239	4.78003
116.613	64.4458
119.988	207.785
123.363	416.672
126.738	340.449
130.113	440.748
133.487	315.226
136.862	471.678
140.237	293.998
143.612	45.4216
146.987	47.1482
150.362	12.9097
153.736	15.6669
157.111	4.81921
160.486	39.2992
163.861	98.022
167.236	198.4
170.61	318.033
173.985	406.383
177.36	376.741
180.735	411.104
184.11	432.147
187.484	445.942
190.859	605.785
194.234	633.502
197.609	504.428
200.984	186.179
204.358	44.5251
207.733	54.9321
211.108	56.3846
214.483	65.6916
217.858	85.8457
221.233	31.0537
224.607	9.14246
227.982	18.3007
231.357	58.0308
234.732	26.9673
238.107	0.433105
241.482	27.0256
244.856	90.6278
248.231	166.23
251.606	205.019
254.981	177.873
258.356	91.9273
261.73	58.9977
265.105	45.0623
268.48	44.6809
271.855	48.7031
275.23	53.5236
278.604	49.9731
281.979	84.2655
285.354	155.32
288.729	214.163
292.104	257.338
295.478	321.922
298.853	434.012
302.228	615.812
305.603	626.004
308.978	369.592
312.353	173.94
315.727	63.8237
319.102	19.2805
322.477	1.35828
325.852	5.00305
329.227	8.90393
332.601	3.11084
335.976	12.3873
339.351	32.2336
342.726	72.9938
346.101	116.915
349.476	153.727
352.85	196.058
356.225	222.357
359.6	246.943
362.975	240.288
366.35	260.425
369.724	219.469
373.099	136.909
376.474	81
379.849	67.4515
383.224	65.4219
386.599	54.8751
389.973	34.0801
393.348	9.08154
396.723	4.40002
400.098	8.1792
403.473	22.0723
406.847	33.4902
410.222	35.9871
413.597	16.7618
416.972	8.75476
420.347	28.7063
423.721	52.7046
427.096	81.9166
430.471	90.9407
433.846	90.2015
437.221	73.5429
440.596	45.4818
443.97	60.8308
447.345	61.0353
450.72	52.5013
454.095	35.779
457.47	26.9311
460.844	48.6212
464.219	89.2877
467.594	165.232
470.969	188.306
474.344	87.9857
477.719	22.9042
481.093	2.78186
484.468	4.13501
487.843	13.0701
491.218	8.01318
494.592	12.8813
497.967	36.4148
501.342	42.708
504.717	46.5249
508.092	40.2378
511.467	32.2181
514.841	18.1537
518.216	15.4846
521.591	26.7574
524.966	66.1023
528.341	154.413
531.716	254.047
535.09	367.529
538.465	509.007
541.84	685.354
545.215	700.321
548.59	471.401
551.964	246.136
555.339	137.324
558.714	106.575
562.089	89.0111
565.464	39.6279
568.838	12.7487
572.213	18.6516
575.588	51.5714
578.963	47.4376
582.338	61.2548
585.712	101.823
589.087	126.327
592.462	178.636
595.837	232.804
599.212	252.873
602.587	219.809
605.961	165.869
609.336	109.767
612.711	41.7043
616.086	5.66907
619.461	17.3867
622.836	12.5673
626.21	14.7689
629.585	34.5892
632.96	30.175
636.335	32.5049
639.71	12.2739
643.084	12.7464
646.459	45.023
649.834	100.369
653.209	187.503
656.584	283.222
659.958	378.538
663.333	444.279
666.708	532.859
670.083	626.27
673.458	689.585
676.832	587.597
680.207	483.493
683.582	481.893
686.957	532.353
690.332	394.789
693.707	162.676
697.081	53.4915
700.456	10.5953
703.831	8.7644
707.206	14.327
710.581	25.7173
713.955	35.6538
717.33	50.9111
720.705	63.6735
724.08	93.4793
727.455	156.194
730.83	241.246
734.204	300.417
737.579	256.176
740.954	148.223
744.329	72.6436
747.704	29.7823
751.078	13.9398
754.453	0.168823
757.828	2.41077
761.203	10.5065
764.578	3.37421
767.952	1.60742
771.327	4.38861
774.702	4.53174
778.077	12.772
781.452	2.6521
784.827	2.56366
788.201	2.07104
791.576	12.1674
794.951	2.23114
798.326	15.8974
801.701	13.0701
805.075	23.4876
808.45	41.763
811.825	34.3024
815.2	49.9531
818.575	53.0464
821.949	67.8086
825.324	76.8892
828.699	67.4997
832.074	69.3496
835.449	62.2416
838.824	68.7831
842.198	84.5109
845.573	100.733
848.948	117.09
852.323	143.356
855.698	165.116
859.072	164.688
862.447	126.341
865.822	90.1938
869.197	57.4069
872.572	43.3436
875.947	38.9348
879.321	44.5371
882.696	57.5441
886.071	60.9287
889.446	67.4452
892.821	72.2253
896.195	55.7784
899.57	49.9541
902.945	48.7232
906.32	23.5295
909.695	17.8545
913.069	11.8697
916.444	1.07422
919.819	12.0168
923.194	5.99652
926.569	8.11713
929.944	4.98077
933.318	3.84186
936.693	10.2172
940.068	5.27612
943.443	0.959656
946.818	6.48566
950.192	30.4161
953.567	36.2223
956.942	43.6133
960.317	39.7877
963.692	40.8123
967.067	39.9674
970.441	44.6518
973.816	61.7187
977.191	59.7306
980.566	71.3044
983.941	75.8505
987.315	74.5448
990.69	70.4969
994.065	54.0335
997.44	42.7685
1000.82	33.1539
1004.19	33.9293
1007.56	44.561
1010.94	57.5328
1014.31	57.1279
1017.69	61.1986
1021.06	44.3755
1024.44	41.5489
1027.81	34.9709
1031.19	36.2968
1034.56	26.295
1037.94	24.8596
1041.31	18.0299
1044.69	8.21185
1048.06	2.17658
1051.44	8.50446
1054.81	2.91901
1058.19	21.6379
1061.56	34.9323
1064.94	23.2907
1068.31	11.703
1071.69	3.61279
1075.06	1.64465
1078.43	4.02087
1081.81	0.383545
1085.18	6.70721
1088.56	8.85535
1091.93	20.5449
1095.31	20.0404
1098.68	31.0106
1102.06	29.5455
1105.43	30.7971
1108.81	50.208
1112.18	66.1063
1115.56	67.4479
1118.93	71.7656
1122.31	56.0391
1125.68	68.4918
1129.06	66.6787
1132.43	54.0078
1135.81	21.0952
1139.18	12.3621
1142.56	16.7937
1145.93	7.61578
1149.31	11.1423
1152.68	14.3855
1156.06	14.3651
1159.43	25.7218
1162.81	21.352
1166.18	28.1899
1169.56	17.0662
1172.93	12.6933
1176.31	5.01843
1179.68	3.86292
1183.06	1.1618
1186.43	2.47784
1189.8	4.2832
1193.18	13.9085
1196.55	17.4869
1199.93	24.251
1203.3	22.6206
1206.68	29.7059
1210.05	34.9932
1213.43	26.8032
1216.8	24.2134
1220.18	16.799
1223.55	16.5721
1226.93	13.1667
1230.3	12.2358
1233.68	10.2772
1237.05	0.037903
1240.43	2.30518
1243.8	1.10419
1247.18	14.1915
1250.55	5.37903
1253.93	7.758
1257.3	7.66907
1260.67	12.8157
1264.05	12.9174
1267.42	11.7586
1270.8	17.9651
1274.17	20.7518
1277.55	16.3655
1280.92	1.49188
1284.3	9.95062
