Measurement: Raman, 532 nm, unoriented, Raman Data Processed
Mineral: Hsianghualite
Rruff sample: R060722
Ideal chemistry: Li_2_Ca_3_(BeSiO_4_)_3_F_2_
Locality: Xianghualing mine near Zenzhou, Hunan Province, China
Source: Bob Jenkins and George Guanghua Liu
Description: Colorless rounded crystals and fragments
Raman shift (cm-1)	intensity
130.2	0
133.575	22.5483
136.949	181.84
140.324	415.285
143.699	78.8302
147.074	52.52
150.449	10.598
153.824	53.7835
157.198	99.6706
160.573	184.891
163.948	290.978
167.323	404.432
170.698	91.8132
174.072	9.83032
177.447	22.1951
180.822	11.1505
184.197	9.48779
187.572	79.0128
190.947	127.707
194.321	213.393
197.696	109.556
201.071	69.1295
204.446	165.402
207.821	192.3
211.195	317.33
214.57	532.027
217.945	889.367
221.32	615.052
224.695	822.619
228.07	1435.47
231.444	2017.98
234.819	2081.87
238.194	1960.27
241.569	551.091
244.944	464.551
248.318	611.228
251.693	487.747
255.068	549.78
258.443	361.848
261.818	227.394
265.193	240.278
268.567	522.496
271.942	745.051
275.317	1233.36
278.692	1781.82
282.067	1542.56
285.441	1604.67
288.816	724.325
292.191	282.693
295.566	113.553
298.941	137.927
302.316	161.699
305.69	108.654
309.065	6.95703
312.44	20.036
315.815	49.4607
319.19	89.3729
322.565	246.26
325.939	247.893
329.314	169.835
332.689	157.825
336.064	112.017
339.439	90.1819
342.813	6.1217
346.188	28.2145
349.563	3.87366
352.938	14.178
356.313	20.558
359.688	12.504
363.062	8.80335
366.437	58.108
369.812	88.8093
373.187	164.627
376.562	199.23
379.936	159.567
383.311	206.448
386.686	417.924
390.061	769.451
393.436	1115.43
396.81	1318.71
400.185	1461.43
403.56	737.48
406.935	530.41
410.31	485.611
413.685	370.72
417.06	190.314
420.434	133.516
423.809	100.798
427.184	213.962
430.559	316.063
433.934	468.887
437.308	593.081
440.683	417.4
444.058	158.145
447.433	121.016
450.808	39.5814
454.182	1.89331
457.557	17.5087
460.932	35.8298
464.307	29.5952
467.682	158.888
471.057	266.79
474.431	352.176
477.806	218.602
481.181	150.541
484.556	155.01
487.931	158.35
491.306	149.867
494.68	263.233
498.055	440.719
501.43	479.889
504.805	421.261
508.18	475.116
511.554	291.067
514.929	60.9864
518.304	27.8451
521.679	29.45
525.054	8.01746
528.429	92.759
531.803	275.345
535.178	595.873
538.553	1053.53
541.928	1701.78
545.303	1917.53
548.677	1102.67
552.052	861.357
555.427	1009.68
558.802	1284.2
562.177	1268.15
565.552	883.071
568.926	708.732
572.301	438.851
575.676	196.253
579.051	135.058
582.426	54.5966
585.8	21.6742
589.175	9.91162
592.55	4.07239
595.925	1.11719
599.3	8.6698
602.674	57.1979
606.049	57.7479
609.424	137.575
612.799	29.2837
616.174	37.521
619.549	13.2484
622.923	13.4718
626.298	5.19458
629.673	31.0563
633.048	47.9273
636.423	11.4087
639.797	25.146
643.172	4.15442
646.547	41.5275
649.922	56.5121
653.297	57.8892
656.672	102.715
660.046	103.405
663.421	83.9203
666.796	92.6488
670.171	74.7334
673.546	114.443
676.92	99.7837
680.295	181.807
683.67	193.216
687.045	216.676
690.42	173.023
693.795	183.362
697.169	172.578
700.544	100.773
703.919	69.2894
707.294	106.88
710.669	57.9158
714.044	54.7523
717.418	51.228
720.793	65.1606
724.168	120.734
727.543	150.426
730.918	155.044
734.292	200.635
737.667	112.249
741.042	67.8527
744.417	68.5526
747.792	93.6027
751.167	44.0859
754.541	1.57202
757.916	7.41016
761.291	22.3347
764.666	9.32593
768.041	43.0548
771.416	0.234253
774.79	24.1569
778.165	60.6415
781.54	58.541
784.915	148.102
788.29	94.9869
791.664	105.459
795.039	62.4399
798.414	66.2213
801.789	44.2579
805.164	15.0209
808.539	16.3699
811.913	34.5487
815.288	34.7238
818.663	4.88477
822.038	17.754
825.413	23.7113
828.787	8.65869
832.162	15.1991
835.537	14.9039
838.912	25.7373
842.287	23.7504
845.661	7.07581
849.036	2.38916
852.411	9.45081
855.786	15.1301
859.161	3.77991
862.536	13.1422
865.91	31.3472
869.285	1.05896
872.66	83.1175
876.035	184.466
879.41	351.127
882.784	771.755
886.159	1481.63
889.534	2636.93
892.909	3771.96
896.284	3190.48
899.659	1397.96
903.033	850.718
906.408	688.797
909.783	842.493
913.158	1131.4
916.533	1667.58
919.907	2664.04
923.282	3810.04
926.657	5557.45
930.032	6687.37
933.407	4220.31
936.782	1872.13
940.156	1055.07
943.531	771.154
946.906	709.531
950.281	791.303
953.656	1027.49
957.031	878.807
960.405	571.201
963.78	553.723
967.155	713.64
970.53	923.953
973.905	946.618
977.279	401.783
980.654	179.538
984.029	92.2756
987.404	8.00488
990.779	15.531
994.154	33.7749
997.528	49.3198
1000.9	4.06909
1004.28	12.7759
1007.65	143.433
1011.03	295.084
1014.4	375.305
1017.78	190.876
1021.15	144.071
1024.53	182.591
1027.9	265.334
1031.28	246.02
1034.65	204.111
1038.03	248.87
1041.4	373.703
1044.78	447.901
1048.15	327.217
1051.53	273.763
1054.9	218.784
1058.28	219.312
1061.65	162.881
1065.03	166.833
1068.4	127.082
1071.77	98.9922
1075.15	58.1812
1078.52	59.6382
1081.9	44.6948
1085.27	71.0029
1088.65	68.0466
1092.02	59.3477
1095.4	45.0386
1098.77	101.255
1102.15	92.408
1105.52	66.9807
1108.9	39.8501
1112.27	18.7966
1115.65	35.6858
1119.02	26.2317
1122.4	21.0012
1125.77	8.23315
1129.15	59.7156
1132.52	19.0547
1135.9	57.4989
1139.27	101.369
1142.65	91.8306
1146.02	47.6571
1149.39	103.249
1152.77	99.8675
1156.14	110.931
1159.52	119.91
1162.89	98.8969
1166.27	89.6152
1169.64	109.579
1173.02	120.472
1176.39	79.3894
1179.77	75.1923
1183.14	101.5
1186.52	37.5435
1189.89	82.136
1193.27	17.0635
1196.64	12.5293
1200.02	31.8756
1203.39	15.673
1206.77	7.7843
1210.14	14.335
1213.52	40.6287
1216.89	74.0084
1220.27	44.2761
1223.64	6.3761
1227.02	26.2244
1230.39	69.6553
1233.77	46.3914
1237.14	59.2241
1240.52	64.9576
1243.89	73.5923
1247.27	37.1388
1250.64	95.0814
1254.02	69.0847
1257.39	40.6288
1260.76	28.6918
1264.14	38.7887
1267.51	27.0022
1270.89	1.7041
1274.26	66.1467
1277.64	47.8331
1281.01	71.1278
1284.39	70.0648
1287.76	27.8066
1291.14	28.1979
1294.51	43.5761
1297.89	10.5927
1301.26	0.213257
