Measurement: Raman, 785 nm, unoriented, Raman Data Processed
Mineral: Hubeite
Rruff sample: R060964
Ideal chemistry: Ca_2_Mn^2+^Fe^3+^Si_4_O_12_(OH)2H_2_O
Locality: Fengjiashan mine, Daye, Hubei Province, China
Source: Michael Scott
Description: Dark brown thin bladed crystals coated with fluorapophyllite, on quartz
Measured chemistry: Ca_2.00_Mn^2+^_1.00_(Fe^3+^_0.85_Al_0.15_)_Σ=1_Si_4.00_O_12_(OH)·1.90H_2_O; OH estimated by charge balance; H_2_O by difference
Raman shift (cm-1)	intensity
137.92	0
140.813	6.08838
143.705	290.575
146.598	747.508
149.491	985.612
152.383	996.703
155.276	1007.25
158.169	968.707
161.062	931.105
163.954	1004.47
166.847	1135.83
169.74	1206.59
172.632	1102.75
175.525	1039.37
178.418	984.099
181.31	881.76
184.203	740.201
187.096	811.039
189.989	1161.06
192.881	1611.49
195.774	1758.58
198.667	1388.14
201.559	747.443
204.452	340.831
207.345	61.6007
210.238	6.91368
213.13	0.031364
216.023	5.02684
218.916	17.7902
221.808	86.2573
224.701	107.57
227.594	160.725
230.486	210.107
233.379	304.782
236.272	424.656
239.164	523.403
242.057	621.403
244.95	765.426
247.843	1000.79
250.735	1155.19
253.628	1145.91
256.521	861.097
259.413	491.564
262.306	230.359
265.199	69.2507
268.091	8.46899
270.984	13.4807
273.877	49.9595
276.769	169.853
279.662	306.324
282.555	346.792
285.448	376.608
288.34	326.374
291.233	282.369
294.126	201.691
297.018	104.068
299.911	91.5002
302.804	105.545
305.697	176.557
308.589	223.905
311.482	300.376
314.375	345.704
317.267	367.208
320.16	493.27
323.053	529.507
325.945	602.392
328.838	610.759
331.731	491.65
334.623	297.325
337.516	114.525
340.409	7.23245
343.302	-1.27335
346.194	-1.60365
349.087	3.7234
351.98	41.3065
354.872	162.752
357.765	288.993
360.658	447.503
363.55	556.549
366.443	568.378
369.336	653.952
372.229	778.781
375.121	839.733
378.014	894.247
380.907	993.944
383.799	1293.29
386.692	1728.09
389.585	2357.47
392.477	2825.76
395.37	3069.47
398.263	2810.6
401.156	2439.37
404.048	2186.22
406.941	1990.92
409.834	1739.28
412.726	1407.6
415.619	1022.38
418.512	666.832
421.404	452.413
424.297	228.407
427.19	79.1051
430.082	43.2779
432.975	23.5986
435.868	18.0949
438.761	13.1383
441.653	8.40532
444.546	5.79543
447.439	3.70282
450.331	34.4395
453.224	192.561
456.117	408.473
459.01	817.381
461.902	1145.81
464.795	1360.59
467.688	1384.75
470.58	1166.4
473.473	771.29
476.366	485.676
479.258	278.806
482.151	156.065
485.044	135.475
487.937	147.935
490.829	208.888
493.722	272.012
496.615	301.619
499.507	401.8
502.4	445.7
505.293	454.364
508.185	383.034
511.078	251.459
513.971	102.753
516.864	12.7714
519.756	30.1392
522.649	32.1167
525.542	1.31958
528.434	56.8412
531.327	111.67
534.22	223.384
537.112	418.218
540.005	476.759
542.898	503.286
545.79	476.513
548.683	433.986
551.576	385.455
554.469	363.961
557.361	327.084
560.254	353.344
563.147	438.161
566.039	548.669
568.932	664.38
571.825	749.087
574.717	768.605
577.61	617.41
580.503	463.964
583.395	325.408
586.288	242.142
589.181	202.266
592.074	146.873
594.966	157.077
597.859	134.601
600.752	145.125
603.644	96.9216
606.537	55.4957
609.43	12.1851
612.322	7.83636
615.215	9.49719
618.108	15.1183
621.001	3.29828
623.893	15.0198
626.786	35.8903
629.679	61.4717
632.571	94.0859
635.464	146.334
638.357	198.209
641.25	299.619
644.142	467.108
647.035	684.103
649.928	1013.66
652.82	1497.71
655.713	2072.99
658.606	2606.97
661.498	2718.77
664.391	2337.42
667.284	1644.63
670.177	1061.98
673.069	673.518
675.962	453.328
678.855	296.648
681.747	171.494
684.64	144.329
687.533	123.29
690.425	106.558
693.318	63.5067
696.211	83.2799
699.104	97.9428
701.996	89.3721
704.889	77.1633
707.782	96.0893
710.674	119.654
713.567	155.583
716.46	170.484
719.352	230.153
722.245	259.033
725.138	304.748
728.03	364.505
730.923	395.49
733.816	419.208
736.709	369.862
739.601	307.811
742.494	237.443
745.387	159.56
748.279	93.6232
751.172	89.7689
754.065	47.0311
756.957	16.583
759.85	18.0279
762.743	3.48737
765.635	12.7111
768.528	28.6502
771.421	1.59863
774.314	6.08978
777.206	6.55249
780.099	10.9299
782.992	18.0167
785.884	18.2922
788.777	8.79517
791.67	7.03668
794.562	5.68018
797.455	32.2697
800.348	30.572
803.241	93.4687
806.133	217.842
809.026	378.891
811.919	487.217
814.811	317.296
817.704	113.827
820.597	48.3762
823.49	24.5981
826.382	29.3259
829.275	9.18018
832.168	1.20795
835.06	19.757
837.953	68.4739
840.846	88.723
843.738	90.4484
846.631	131.079
849.524	172.497
852.416	212.18
855.309	242.523
858.202	290.581
861.095	295.395
863.987	304.179
866.88	313.081
869.773	317.741
872.665	376.844
875.558	435.144
878.451	467.378
881.343	550.721
884.236	574.704
887.129	628.457
890.021	688.388
892.914	658.911
895.807	495.774
898.7	376.305
901.592	244.243
904.485	171.432
907.378	111.239
910.27	85.1519
913.163	24.7227
916.056	-1.86349
918.948	-5.62668
921.841	-1.93459
924.734	3.21663
927.627	22.1467
930.519	140.601
933.412	214.99
936.305	335.877
939.197	376.982
942.09	364.073
944.983	423.007
947.875	529.402
950.768	739.374
953.661	973.765
956.554	1069.18
959.446	1058.57
962.339	1013.2
965.232	998.717
968.124	921.38
971.017	742.228
973.91	526.466
976.803	390.924
979.695	274.655
982.588	272.27
985.481	227.699
988.373	209.527
991.266	203.493
994.159	261.796
997.051	349.402
999.944	409.016
1002.84	399.346
1005.73	301.567
1008.62	221.83
1011.51	199.708
1014.41	199.293
1017.3	256.724
1020.19	353.327
1023.09	495.221
1025.98	607.393
1028.87	557.386
1031.76	454.02
1034.66	315.935
1037.55	219.541
1040.44	126.976
1043.34	53.4761
1046.23	43.2445
1049.12	27.0296
1052.01	4.79828
1054.9	5.59375
1057.8	17.7282
1060.69	13.8174
1063.58	5.24597
1066.48	12.5643
1069.37	7.84241
1072.26	17.9365
1075.15	54.1688
1078.05	86.5454
1080.94	156.203
1083.83	157.58
1086.72	129.461
1089.62	101.639
1092.51	36.0057
1095.4	36.3945
1098.3	14.3852
1101.19	4.86465
1104.08	4.47247
1106.97	14.6877
1109.87	7.64807
1112.76	2.4097
1115.65	41.1706
1118.55	27.1569
1121.44	19.738
1124.33	23.1653
1127.22	11.8933
1130.12	10.8221
1133.01	2.93057
1135.9	8.08746
1138.79	0.522919
1141.69	11.9352
1144.58	28.7238
1147.47	19.8131
1150.36	26.9271
1153.26	31.9334
1156.15	59.4315
1159.04	33.6379
1161.93	31.3939
1164.83	38.7047
1167.72	42.5909
1170.61	18.6787
1173.51	27.7865
1176.4	41.5943
1179.29	37.8896
1182.18	34.1137
1185.08	42.9351
1187.97	26.575
1190.86	19.1744
1193.76	42.127
1196.65	24.1929
1199.54	21.2661
1202.43	7.57867
1205.33	8.57431
1208.22	27.5633
1211.11	18.9929
1214	12.3598
1216.9	20.0911
1219.79	17.4056
1222.68	28.0366
1225.58	38.7539
1228.47	24.5169
1231.36	36.9981
1234.25	12.0938
1237.14	24.6937
1240.04	15.0889
1242.93	32.3241
1245.82	22.0237
1248.72	27.5717
1251.61	30.0754
1254.5	18.0912
1257.39	11.1932
1260.29	15.2416
1263.18	6.03784
1266.07	16.6475
