Measurement: Raman, 532 nm, unoriented, Raman Data Processed
Mineral: Hubeite
Rruff sample: R060964
Ideal chemistry: Ca_2_Mn^2+^Fe^3+^Si_4_O_12_(OH)2H_2_O
Locality: Fengjiashan mine, Daye, Hubei Province, China
Source: Michael Scott
Description: Dark brown thin bladed crystals coated with fluorapophyllite, on quartz
Measured chemistry: Ca_2.00_Mn^2+^_1.00_(Fe^3+^_0.85_Al_0.15_)_Σ=1_Si_4.00_O_12_(OH)·1.90H_2_O; OH estimated by charge balance; H_2_O by difference
Raman shift (cm-1)	intensity
124.416	0
127.79	169.847
131.165	162.101
134.54	59.4727
137.915	22.8204
141.29	86.4712
144.665	84.7271
148.039	49.2709
151.414	50.4382
154.789	122.51
158.164	218.703
161.539	287.931
164.913	383.06
168.288	475.58
171.663	461.549
175.038	405.741
178.413	264.642
181.788	175.17
185.162	154.743
188.537	288.474
191.912	509.6
195.287	598.997
198.662	441.347
202.036	182.126
205.411	74.0626
208.786	19.795
212.161	1.93372
215.536	18.6834
218.911	6.15381
222.285	11.1034
225.66	35.5552
229.035	81.6963
232.41	154.534
235.785	208.757
239.159	232.859
242.534	300.371
245.909	377.767
249.284	402.484
252.659	394.542
256.033	318.239
259.408	143.359
262.783	35.8275
266.158	12.2366
269.533	18.0143
272.908	108.887
276.282	230.474
279.657	284.254
283.032	374.016
286.407	375.803
289.782	338.635
293.156	222.352
296.531	170.142
299.906	118.181
303.281	159.145
306.656	237.778
310.031	304.863
313.405	305.5
316.78	357.246
320.155	433.378
323.53	462.332
326.904	471.72
330.279	393.274
333.654	305.38
337.029	158.907
340.404	67.4595
343.779	20.739
347.153	38.7626
350.528	40.0502
353.903	25.4102
357.278	69.0642
360.653	139.806
364.027	185.708
367.402	166.719
370.777	155.236
374.152	232.002
377.527	307.832
380.902	439.195
384.276	653.293
387.651	968.917
391.026	1281.59
394.401	1451.59
397.776	1476.33
401.151	1376.22
404.525	1210.51
407.9	1057.49
411.275	779.057
414.65	531.61
418.024	305.407
421.399	142.802
424.774	31.3685
428.149	-0.911823
431.524	8.56313
434.899	37.8866
438.273	102.833
441.648	123.438
445.023	145.483
448.398	249.12
451.773	508.325
455.147	868.183
458.522	1234.77
461.897	1575.52
465.272	1685.6
468.647	1471.81
472.022	1104.13
475.396	662.876
478.771	412.677
482.146	274.029
485.521	280.362
488.896	292.835
492.27	425.514
495.645	552.51
499.02	670.747
502.395	773.306
505.77	814.18
509.144	671.137
512.519	448.99
515.894	200.608
519.269	66.803
522.644	9.08252
526.019	27.602
529.393	33.429
532.768	58.0746
536.143	170.518
539.518	261.71
542.893	259.063
546.268	263.086
549.642	234.671
553.017	276.738
556.392	381.26
559.767	570.149
563.141	857.103
566.516	1127.6
569.891	1366.61
573.266	1415.12
576.641	1209.64
580.016	898.329
583.39	631.836
586.765	393.849
590.14	254.811
593.515	153.52
596.89	71.085
600.264	32.6548
603.639	0.73291
607.014	10.6235
610.389	7.22168
613.764	10.028
617.139	15.7612
620.513	14.2761
623.888	1.31488
627.263	21.6194
630.638	38.1043
634.013	83.3503
637.387	148.207
640.762	220.548
644.137	297.541
647.512	504.023
650.887	716.709
654.261	1001.8
657.636	1287.99
661.011	1403.11
664.386	1147.22
667.761	789.153
671.135	469.882
674.51	281.017
677.885	171.032
681.26	92.1614
684.635	70.5818
688.01	84.4448
691.384	69.0255
694.759	96.6439
698.134	90.7148
701.509	102.195
704.884	87.9174
708.259	96.6068
711.633	110.061
715.008	167.78
718.383	194.656
721.758	223.822
725.133	263.389
728.507	326.734
731.882	340.903
735.257	299.454
738.632	318.969
742.007	227.113
745.381	160.524
748.756	118.492
752.131	13.3417
755.506	40.8011
758.881	56.992
762.255	35.8045
765.63	14.5481
769.005	19.7857
772.38	5.63696
775.755	7.01276
779.13	9.42468
782.504	6.95453
785.879	1.71045
789.254	10.1151
792.629	16.1054
796.004	7.99829
799.378	0.259644
802.753	16.9706
806.128	3.43652
809.503	12.5529
812.878	11.3702
816.253	3.78717
819.627	31.6254
823.002	12.551
826.377	28.8215
829.752	73.9791
833.127	56.9753
836.501	118.661
839.876	145.333
843.251	187.505
846.626	272.01
850.001	346.882
853.375	402.307
856.75	462.934
860.125	499.912
863.5	550.606
866.875	592.424
870.25	625.003
873.624	737.147
876.999	808.361
880.374	848.853
883.749	837.488
887.124	781.887
890.498	700.361
893.873	612.679
897.248	465.156
900.623	356.789
903.998	304.825
907.372	285.97
910.747	179.269
914.122	80.5793
917.497	-0.948091
920.872	2.75347
924.246	7.65122
927.621	62.2336
930.996	163.858
934.371	274.202
937.746	359.656
941.121	313.306
944.495	274.933
947.87	335.386
951.245	464.731
954.62	573.005
957.995	659.856
961.37	634.495
964.744	631.204
968.119	536.474
971.494	372.354
974.869	202.164
978.244	95.1054
981.618	42.6127
984.993	76.6519
988.368	140.711
991.743	286.685
995.118	470.121
998.492	675.016
1001.87	754.812
1005.24	611.087
1008.62	473.3
1011.99	370.843
1015.37	405.929
1018.74	511.482
1022.12	714.222
1025.49	789.907
1028.87	680.728
1032.24	448.635
1035.62	297.362
1038.99	165.617
1042.37	70.7557
1045.74	27.2932
1049.12	4.22571
1052.49	17.7298
1055.86	21.7574
1059.24	1.89758
1062.61	23.2762
1065.99	65.8171
1069.36	92.9214
1072.74	136.513
1076.11	289.075
1079.49	357.012
1082.86	365.323
1086.24	315.721
1089.61	202.377
1092.99	128.53
1096.36	91.0353
1099.74	42.0304
1103.11	35.2791
1106.49	32.0603
1109.86	11.0617
1113.24	4.93652
1116.61	5.09821
1119.99	3.08276
1123.36	4.34717
1126.73	20.8584
1130.11	31.3832
1133.48	30.5088
1136.86	55.5547
1140.23	46.3663
1143.61	50.653
1146.98	19.8771
1150.36	57.4288
1153.73	48.234
1157.11	67.0018
1160.48	54.6747
1163.86	75.3494
1167.23	64.7253
1170.61	54.0738
1173.98	42.9616
1177.36	60.6801
1180.73	35.5934
1184.11	58.8193
1187.48	21.935
1190.86	38.0087
1194.23	17.2936
1197.61	30.6139
1200.98	13.4489
1204.36	31.8611
1207.73	17.7436
1211.11	14.7395
1214.48	45.3081
1217.86	10.5678
1221.23	15.5307
1224.61	6.96786
1227.98	8.04953
1231.36	13.3343
1234.73	12.1433
1238.1	12.5572
1241.48	25.4233
1244.85	3.89551
1248.23	7.81094
1251.6	15.6995
1254.98	25.3828
1258.35	10.9286
1261.73	27.3635
1265.1	17.3539
1268.48	13.8093
1271.85	11.0613
1275.23	35.2091
1278.6	37.5421
1281.98	29.7793
1285.35	25.4188
1288.73	9.84726
1292.1	29.9496
