Measurement: Raman, 514 nm, unoriented, Raman Data Processed
Mineral: Hubnerite
Rruff sample: R050069
Ideal chemistry: Mn^2+^WO_4_
Locality: Yaogangxian, Yizhang County, Hunan Province, China
Source: Rock Currier
Description: Black colored prismatic single crystal
Measured chemistry: (Mn_0.68_Fe_0.32_)W_1.00_O_4_
Raman shift (cm-1)	intensity
100.34	0
104.516	116.33
108.691	697.882
112.864	331.667
117.034	551.834
121.203	519.954
125.369	2157.5
129.534	4933.1
133.696	735.462
137.857	298.694
142.016	105.408
146.172	79.038
150.327	22.081
154.48	7.504
158.63	32.41
162.779	237.879
166.926	356.901
171.07	204.264
175.213	266.085
179.354	254.108
183.493	215.456
187.63	253.964
191.765	377.483
195.898	631.348
200.029	1192.32
204.158	2282.43
208.285	1891.6
212.41	517.51
216.533	208.342
220.654	62.201
224.773	14.048
228.891	16.123
233.006	22.317
237.119	16.536
241.231	13.477
245.34	4.291
249.448	65.832
253.553	287.118
257.657	670.246
261.758	172.895
265.858	57.288
269.956	120.817
274.052	75.355
278.146	12.896
282.237	22.984
286.327	58.752
290.416	129.662
294.502	253.614
298.586	232.53
302.668	274.778
306.749	413.576
310.827	625.046
314.903	1234.69
318.978	2590.94
323.051	4813.31
327.121	5322.89
331.19	3606.43
335.257	2057.49
339.322	1119.17
343.385	643.763
347.446	491.335
351.505	429.88
355.563	374.371
359.618	251.805
363.672	194.201
367.723	147.559
371.773	82.875
375.821	83.151
379.866	47.387
383.91	75.399
387.952	117.22
391.992	299.362
396.031	720.69
400.067	615.156
404.101	244.833
408.134	96.027
412.165	42.005
416.193	23.865
420.22	40.686
424.245	4.537
428.268	16.082
432.289	30.779
436.309	12.066
440.326	8.728
444.342	18.172
448.355	13.697
452.367	558.459
456.377	120.631
460.385	3.708
464.391	17.301
468.395	30.947
472.398	28.101
476.398	22.362
480.397	0.709
484.394	37.493
488.389	34.338
492.382	53.107
496.373	64.618
500.362	81.92
504.349	119.156
508.335	1011.33
512.319	301.43
516.3	279.469
520.28	191.444
524.259	213.354
528.235	289.2
532.209	486.982
536.182	780.687
540.152	1147.1
544.121	1247.68
548.088	983.177
552.053	699.688
556.017	434.188
559.978	244.686
563.938	170.173
567.895	104.658
571.851	100.061
575.805	66.613
579.758	41.197
583.708	175.719
587.657	12.66
591.603	24.533
595.548	152.269
599.491	1.744
603.432	10.767
607.372	6.489
611.309	2.254
615.245	1.085
619.179	12.924
623.111	17.916
627.041	13.021
630.97	19.084
634.896	5.133
638.821	37.969
642.744	35.966
646.665	0.477
650.584	0.888
654.502	36.414
658.418	52.166
662.331	117.688
666.244	161.319
670.154	295.933
674.062	370.532
677.969	385.118
681.874	471.693
685.777	677.258
689.678	1162.82
693.577	1768.38
697.475	2334.93
701.371	1862.49
705.265	1120.06
709.157	649.626
713.047	455.201
716.936	245.783
720.823	184.376
724.708	147.982
728.591	90.602
732.472	91.24
736.352	80.898
740.23	65.581
744.106	65.16
747.98	62.107
751.853	86.857
755.723	96.19
759.592	141.365
763.459	228.421
767.325	368.537
771.188	480.86
775.05	508.181
778.91	367.163
782.768	269.221
786.625	206.867
790.479	117.366
794.332	76.753
798.183	53.143
802.033	20.542
805.88	22.8
809.726	49.383
813.57	82.07
817.413	81.83
821.253	68.666
825.092	135.683
828.929	152.557
832.764	196.619
836.598	231.759
840.429	288.993
844.259	448.372
848.088	620.107
851.914	938.696
855.739	1302.36
859.562	1673.13
863.383	2221.03
867.203	3159.07
871.02	4960.2
874.836	8447.44
878.65	16608
882.463	33680.4
886.274	35264
890.083	16994.6
893.89	8302.28
897.695	4441.08
901.499	2684.99
905.301	1665.98
909.102	1060.06
912.9	766.246
916.697	584.564
920.492	443.009
924.285	348.568
928.077	301.943
931.867	236.036
935.655	183.946
939.442	154.989
943.226	152.046
947.009	109.436
950.791	82.885
954.57	73.462
958.348	28.226
962.124	27.179
965.899	16.03
969.671	0.959
973.442	3.965
977.211	14.311
980.979	21.208
984.745	7.488
988.509	0.105
992.271	5.082
996.032	16.293
999.791	4.207
1003.55	0.201
1007.3	39.129
1011.06	2.06
1014.81	12.246
1018.56	24.875
1022.31	22.473
1026.06	10.243
1029.8	0.135
1033.55	2.042
1037.29	43.175
1041.03	10.279
1044.77	64.422
1048.5	44.6
1052.24	62.814
1055.97	58.06
1059.7	88.335
1063.43	65.092
1067.16	74.961
1070.89	67.308
1074.61	70.676
1078.34	92.06
1082.06	77.458
1085.78	38.8
1089.5	44.726
1093.21	43.372
1096.93	40.691
1100.64	33.52
1104.35	35.956
1108.06	11.162
1111.77	33.101
1115.48	4.51
1119.18	41.933
1122.89	271.558
1126.59	78.963
1130.29	2.339
1133.99	7.678
1137.68	12.009
1141.38	4.793
1145.07	12.166
1148.76	14.748
1152.45	11.731
1156.14	1.361
1159.83	17.271
1163.51	13.844
1167.19	9.341
1170.88	6.156
1174.56	3.606
1178.23	4.794
1181.91	12.942
1185.59	25.765
1189.26	107.341
1192.93	316.869
1196.6	398.361
1200.27	660.63
1203.94	415.81
1207.6	544.844
1211.27	670.86
1214.93	509.946
1218.59	490.896
1222.25	594.828
1225.9	739.611
1229.56	51.329
1233.21	11.279
1236.86	27.963
1240.51	33.584
1244.16	32.151
1247.81	81.642
1251.45	17.936
1255.1	31.224
1258.74	54.273
1262.38	42.692
1266.02	40.771
1269.66	53.841
1273.29	60.782
1276.93	63.571
1280.56	78.323
1284.19	75.063
1287.82	55.412
1291.45	62.107
1295.07	55.418
1298.7	59.967
1302.32	21.395
1305.94	16.318
1309.56	5.326
1313.18	0.052
1316.8	14.46
1320.41	11.699
1324.02	40.741
1327.63	35.59
1331.24	5.438
1334.85	9.247
1338.46	38.012
1342.06	32.726
1345.67	22.856
1349.27	32.742
1352.87	25.003
1356.47	11.5
1360.07	43.956
1363.66	16.456
1367.25	36.777
1370.85	34.05
1374.44	19.418
1378.03	50.167
1381.61	32.021
1385.2	33.618
1388.78	14.794
1392.37	59.355
1395.95	21.779
1399.53	21.882
1403.1	44.131
1406.68	39.333
1410.26	11.516
1413.83	38.352
1417.4	32.755
1420.97	33.306
1424.54	16.622
1428.1	20.111
1431.67	31.758
1435.23	29.003
1438.8	41.785
1442.36	50.454
1445.91	5.956
1449.47	34.56
1453.03	47.609
1456.58	14.621
1460.13	42.102
1463.68	33.251
1467.23	12.675
1470.78	12.982
1474.33	8.442
1477.87	18.994
1481.42	35.606
1484.96	49.976
1488.5	19.42
1492.04	6.906
1495.57	57.57
1499.11	20.308
1502.64	9.133
1506.17	26
1509.71	22.098
1513.23	10.774
1516.76	8.191
1520.29	13.815
