Measurement: Raman, 785 nm, unoriented, Raman Data Processed
Mineral: Hubnerite
Rruff sample: R060900
Ideal chemistry: Mn^2+^WO_4_
Locality: near Kara-Oba Deposit, Kazakhstan
Source: Michael Scott
Description: Very dark red single crystal
Raman shift (cm-1)	intensity
116.706	0
119.599	99.8223
122.492	870.73
125.384	2907.61
128.277	8879.65
131.17	8818.4
134.062	1403.21
136.955	243.044
139.848	58.8952
142.741	64.3146
145.633	115.862
148.526	119.988
151.419	52.3944
154.311	5.15582
157.204	63.2784
160.097	21.923
162.989	27.88
165.882	165.918
168.775	126.356
171.668	66.8994
174.56	74.15
177.453	125.495
180.346	169.388
183.238	252.997
186.131	408.26
189.024	696.318
191.917	1218.89
194.809	2470.39
197.702	5045.64
200.595	9492.6
203.487	15965.3
206.38	21156.5
209.273	13349
212.165	5427.27
215.058	2412.61
217.951	1160.62
220.844	602.324
223.736	313.432
226.629	135.648
229.522	58.9122
232.414	11.6929
235.307	13.1647
238.2	41.6095
241.092	122.357
243.985	311.545
246.878	839.331
249.77	2115.52
252.663	4553.91
255.556	8427.83
258.449	12985.6
261.341	9476.9
264.234	3426.14
267.127	1242.47
270.019	436.989
272.912	133.75
275.805	31.3294
278.697	67.3287
281.59	52.8147
284.483	32.9665
287.376	2.08154
290.268	139.665
293.161	271.893
296.054	433.004
298.946	665.202
301.839	910.365
304.732	1387.09
307.625	2152.35
310.517	3377.58
313.41	5641.1
316.303	9804.63
319.195	16888
322.088	26425.9
324.981	34752.7
327.873	33082.5
330.766	23040.3
333.659	14498.1
336.551	9012.38
339.444	5586.15
342.337	3651.93
345.23	2408.58
348.122	1659.74
351.015	1245.97
353.908	931.828
356.8	639.82
359.693	404.267
362.586	243.494
365.478	111.276
368.371	62.5813
371.264	25.6913
374.157	108.492
377.049	235.34
379.942	515.997
382.835	1015.69
385.727	2149.71
388.62	4835.31
391.513	10130.7
394.406	17866.3
397.298	25421
400.191	16407.8
403.084	6639.89
405.976	3031.18
408.869	1625.67
411.762	904.402
414.654	528.974
417.547	333.407
420.44	156.289
423.332	71.6968
426.225	13.8286
429.118	17.7615
432.011	31.849
434.903	36.5568
437.796	35.9137
440.689	6.49353
443.581	30.1562
446.474	45.6536
449.367	44.088
452.26	31.6245
455.152	10.4608
458.045	21.2772
460.938	13.2653
463.83	9.94629
466.723	8.68213
469.616	28.5598
472.508	1.67065
475.401	6.41956
478.294	12.2197
481.187	13.9813
484.079	5.99597
486.972	55.1085
489.865	58.1731
492.757	52.8151
495.65	84.1232
498.543	87.1805
501.435	142.596
504.328	198.654
507.221	252.729
510.114	355.027
513.006	412.863
515.899	481.016
518.792	657.902
521.684	869.494
524.577	1231.26
527.47	1744.24
530.362	2552.08
533.255	3657.93
536.148	5209.11
539.04	7149.49
541.933	8740.09
544.826	9153.87
547.719	7917.02
550.611	5877.18
553.504	4052.53
556.397	2744.94
559.289	1891.01
562.182	1313.21
565.075	927.376
567.967	604.5
570.86	451.659
573.753	313.102
576.646	214.461
579.538	170.876
582.431	117.76
585.324	44.5299
588.216	47.7068
591.109	11.9004
594.002	13.1425
596.895	2.74365
599.787	10.6643
602.68	18.1686
605.573	27.1094
608.465	8.16773
611.358	41.4717
614.251	1.07617
617.144	28.2574
620.036	25.5654
622.929	3.55249
625.822	18.116
628.714	24.5217
631.607	18.9182
634.5	57.295
637.392	22.4569
640.285	5.72436
643.178	19.3564
646.071	49.4756
648.963	106.784
651.856	217.243
654.749	342.877
657.641	450.336
660.534	651.643
663.427	910.634
666.319	1259.26
669.212	1687.89
672.105	2232.05
674.997	3029.87
677.89	4065.26
680.783	5739.75
683.676	8062.98
686.568	11752
689.461	16793.2
692.354	23326.2
695.246	29720.4
698.139	31650.6
701.032	26181.7
703.924	17721.7
706.817	11214.2
709.71	7259.49
712.603	4840.59
715.495	3405.89
718.388	2517.61
721.281	1894.98
724.173	1477.21
727.066	1100.43
729.959	863.581
732.851	737.315
735.744	540.217
738.637	420.755
741.53	342.001
744.422	288.91
747.315	192.91
750.208	206.362
753.1	179.728
755.993	184.352
758.886	172.034
761.779	199.942
764.671	170.43
767.564	202.7
770.457	192.629
773.349	260.37
776.242	163.387
779.135	141.628
782.027	74.7721
784.92	51.4919
787.813	10.7023
790.706	21.8611
793.598	37.0573
796.491	32.4896
799.384	108.567
802.276	86.6564
805.169	70.3689
808.062	61.6
810.954	13.7769
813.847	7.5542
816.74	19.0776
819.633	84.7869
822.525	170.43
825.418	250.178
828.311	353.96
831.203	519.284
834.096	748.684
836.989	1005.25
839.881	1357.22
842.774	1875.96
845.667	2554.67
848.559	3448.89
851.452	4705.89
854.345	6312.55
857.238	8334.72
860.13	11217.4
863.023	14992.3
865.916	20392.6
868.808	29117.6
871.701	43786.9
874.594	71358.7
877.486	123012
880.379	202836
883.272	277383
886.165	242285
889.057	131056
891.95	65554.4
894.843	36315.4
897.735	21988.8
900.628	14299.3
903.521	9718.5
906.413	6768.3
909.306	4869.72
912.199	3562.58
915.092	2564.09
917.984	1968.63
920.877	1358.03
923.77	1012.2
926.663	695.566
929.555	487.305
932.448	346.356
935.341	229.846
938.233	168.39
941.126	88.6443
944.019	113.288
946.911	30.8632
949.804	32.9192
952.697	10.4574
955.59	0.179688
958.482	58.4883
961.375	59.2328
964.268	76.74
967.16	17.9047
970.053	46.0259
972.946	17.9185
975.838	21.481
978.731	17.2837
981.624	21.0678
984.516	42.6576
987.409	49.4106
990.302	27.3661
993.195	25.1724
996.087	15.1075
998.98	0.867371
1001.87	47.1849
1004.76	71.9951
1007.66	75.1186
1010.55	102.2
1013.44	139.283
1016.34	185.894
1019.23	180.44
1022.12	165.623
1025.01	184.369
1027.91	215.508
1030.8	237.682
1033.69	206.828
1036.59	211.722
1039.48	255.936
1042.37	267.243
1045.26	282.45
1048.16	303.955
1051.05	282.9
1053.94	243.151
1056.83	273.211
1059.73	230.121
1062.62	230.524
1065.51	250.381
1068.4	235.983
1071.3	256.868
1074.19	247.9
1077.08	233.86
1079.98	234.052
1082.87	206.49
1085.76	206.232
1088.65	179.508
1091.55	164.237
1094.44	153.417
1097.33	142.792
1100.22	117.442
1103.12	96.9149
1106.01	106.693
1108.9	96.1244
1111.8	73.6691
1114.69	82.8273
1117.58	64.2661
1120.47	61.6415
1123.37	70.9711
1126.26	65.3826
1129.15	29.4824
1132.04	24.0692
1134.94	10.2667
1137.83	7.09491
1140.72	0.661682
1143.62	18.4554
1146.51	8.56696
1149.4	26.2054
1152.29	11.0968
1155.19	13.3599
1158.08	21.1271
1160.97	34.2269
1163.86	10.3109
1166.76	2.65399
1169.65	26.5142
1172.54	39.9202
1175.43	28.2152
1178.33	11.7754
1181.22	21.754
1184.11	9.99252
1187.01	9.99432
1189.9	24.175
1192.79	8.9548
1195.68	18.8522
1198.58	20.5442
1201.47	28.2866
1204.36	6.51892
1207.25	36.1918
1210.15	27.175
1213.04	12.5733
1215.93	49.0354
1218.83	25.8874
1221.72	37.9601
1224.61	74.039
1227.5	9.9646
1230.4	24.8699
1233.29	38.7688
1236.18	22.8636
1239.07	4.51361
1241.97	53.0547
1244.86	2.68436
