Measurement: Raman, 780 nm, unoriented, Raman Data Processed
Mineral: Hubnerite
Rruff sample: R050556
Ideal chemistry: Mn^2+^WO_4_
Locality: Pasto Bueno, Ancash Department, Peru
Source: Dave Bunk Minerals
Description: Blackish brown bladed crystal associated with quartz
Measured chemistry: Mn^2+^_0.98_W_1.00_O_4_
Raman shift (cm-1)	intensity
136.902	0
139.795	1.33691
142.688	13.9257
145.58	1.69458
148.473	9.91516
151.366	24.5905
154.258	53.3528
157.151	86.5504
160.044	144.534
162.936	183.617
165.829	253.458
168.722	297.89
171.615	353.227
174.507	390.882
177.4	427.627
180.293	503.728
183.185	614.065
186.078	825.588
188.971	916.763
191.863	947.934
194.756	1069.12
197.649	1324.18
200.542	1858.95
203.434	3166.09
206.327	4476.91
209.22	2587.84
212.112	1076.12
215.005	550.179
217.898	342.151
220.791	211.52
223.683	138.036
226.576	82.9536
229.469	52.4133
232.361	39.0919
235.254	50.0231
238.147	131.425
241.039	185.775
243.932	215.905
246.825	284.4
249.718	430.399
252.61	701.082
255.503	1428.34
258.396	2131.61
261.288	806.596
264.181	82.006
267.074	76.0045
269.966	117.691
272.859	96.6516
275.752	58.3208
278.644	36.7454
281.537	1.83423
284.43	57.0652
287.322	124.901
290.215	223.163
293.108	318.937
296.001	493.422
298.893	732.792
301.786	1101.34
304.679	1738.72
307.571	2552.39
310.464	3451.33
313.357	4464.11
316.25	5912.3
319.142	8373.37
322.035	12308.5
324.928	15850.3
327.82	14451.6
330.713	9702.38
333.606	5955.99
336.498	3650.65
339.391	2386.52
342.284	1672.35
345.176	1278.83
348.069	1069.51
350.962	1010.28
353.855	989.292
356.747	1070.79
359.64	1167.72
362.533	1322.75
365.425	1487.83
368.318	1672.6
371.211	1951.61
374.103	2191.35
376.996	2482.42
379.889	2810
382.782	3067.02
385.674	3283.68
388.567	3499.91
391.46	3812.13
394.352	4587.64
397.245	5593.9
400.138	4494.4
403.031	3087.01
405.923	2381.36
408.816	1882.53
411.709	1461.11
414.601	1104.9
417.494	809.343
420.387	551.735
423.279	377.79
426.172	179.078
429.065	108.844
431.957	30.2524
434.85	26.5928
437.743	42.5044
440.636	59.8284
443.528	41.8582
446.421	43.1853
449.314	24.3665
452.206	8.54175
455.099	0.847168
457.992	30.106
460.884	13.3084
463.777	41.8215
466.67	38.4141
469.562	18.6067
472.455	16.7556
475.348	13.218
478.241	9.88635
481.133	10.2011
484.026	6.95886
486.919	29.3994
489.811	7.27246
492.704	8.88049
495.597	36.2762
498.49	60.8572
501.382	98.7445
504.275	138.028
507.168	207.133
510.06	277.297
512.953	376.226
515.846	485.22
518.738	610.064
521.631	783.752
524.524	1021.03
527.417	1314.66
530.309	1659.93
533.202	2065.59
536.095	2591.09
538.987	3183.92
541.88	3751.67
544.773	3940.95
547.665	3490.79
550.558	2689.63
553.451	2009.42
556.343	1496
559.236	1126.81
562.129	875.058
565.021	688.794
567.914	546.148
570.807	439.789
573.7	338.041
576.592	284.76
579.485	208.569
582.378	175.985
585.27	127.316
588.163	113.36
591.056	78.7103
593.948	74.6236
596.841	60.2239
599.734	56.7551
602.627	42.745
605.519	41.4076
608.412	35.5529
611.305	36.004
614.197	31.9087
617.09	18.2331
619.983	22.0977
622.875	15.7128
625.768	8.4624
628.661	4.61945
631.554	1.51917
634.446	4.12726
637.339	2.00354
640.232	0.583252
643.124	11.2133
646.017	1.64471
648.91	0.890991
651.803	21.9967
654.695	34.8677
657.588	38.7606
660.481	61.5171
663.373	80.0833
666.266	104.23
669.159	154.198
672.051	198.937
674.944	270.576
677.837	360.692
680.73	525.43
683.622	736.74
686.515	992.03
689.408	1338.71
692.3	1793.7
695.193	2356.96
698.086	2650.89
700.978	2209.74
703.871	1489.46
706.764	966.318
709.656	662.158
712.549	492.974
715.442	381.228
718.335	312.825
721.227	256.305
724.12	217.67
727.013	173.452
729.905	144.194
732.798	118.21
735.691	100.525
738.583	72.4608
741.476	51.1618
744.369	38.1155
747.261	27.3441
750.154	21.0892
753.047	0.895996
755.94	4.63061
758.832	4.84851
761.725	3.85394
764.618	2.32489
767.51	2.46417
770.403	6.7605
773.296	2.24347
776.188	14.9998
779.081	15.4238
781.974	21.0076
784.867	23.48
787.759	24.775
790.652	22.8154
793.545	24.2706
796.437	10.9847
799.33	12.4581
802.223	19.1303
805.115	7.84192
808.008	11.9061
810.901	4.95947
813.794	4.70886
816.686	4.6098
819.579	2.76099
822.472	8.03351
825.364	12.6227
828.257	4.76569
831.15	26.9123
834.043	60.5378
836.935	114.438
839.828	167.678
842.721	261.879
845.613	392.438
848.506	588.209
851.399	819.758
854.291	1135.75
857.184	1564.3
860.077	2132.83
862.97	2978.05
865.862	4397.77
868.755	6895.99
871.648	10682.8
874.54	14867.1
877.433	20848.7
880.326	30984
883.218	46339
886.111	46917.8
889.004	25872
891.896	12479.5
894.789	6731.15
897.682	3992.48
900.574	2508.04
903.467	1677.48
906.36	1152.56
909.253	820.197
912.145	589.649
915.038	418.068
917.931	309.845
920.823	229.198
923.716	169.716
926.609	117.749
929.501	83.5887
932.394	55.467
935.287	37.8505
938.18	25.1857
941.072	15.7634
943.965	12.0916
946.858	6.41617
949.75	8.70972
952.643	4.80563
955.536	0.596588
958.428	5.00555
961.321	7.69608
964.214	6.77814
967.107	10.5683
969.999	5.35756
972.892	4.05411
975.785	0.653763
978.677	8.31364
981.57	9.9939
984.463	9.48456
987.356	6.01263
990.248	7.86346
993.141	5.04169
996.034	8.93539
998.926	3.72206
1001.82	13.4473
1004.71	12.4203
1007.6	19.7896
1010.5	18.8219
1013.39	24.5352
1016.28	29.9994
1019.17	31.6599
1022.07	29.6377
1024.96	30.9072
1027.85	31.6615
1030.75	28.2988
1033.64	39.2221
1036.53	32.6717
1039.42	41.7618
1042.32	38.1103
1045.21	40.9595
1048.1	33.4002
1050.99	35.751
1053.89	38.0775
1056.78	34.2669
1059.67	36.0321
1062.57	40.0378
1065.46	38.6845
1068.35	38.0832
1071.24	35.6613
1074.14	36.3067
1077.03	36.9938
1079.92	31.75
1082.81	34.4942
1085.71	30.661
1088.6	23.795
1091.49	26.988
1094.38	18.8242
1097.28	18.0741
1100.17	19.0826
1103.06	16.523
1105.96	10.1908
1108.85	13.4432
1111.74	12.3395
1114.63	14.6413
1117.53	13.1373
1120.42	10.9701
1123.31	9.64661
1126.2	4.02252
1129.1	9.08282
1131.99	6.48109
1134.88	0.408997
1137.78	5.15668
1140.67	0.061775
1143.56	3.19712
1146.45	7.50628
1149.35	12.0861
1152.24	1.08657
1155.13	1.08015
1158.03	1.82615
1160.92	0.583664
1163.81	1.2802
1166.7	1.29691
1169.6	6.39121
1172.49	9.71182
1175.38	5.68401
1178.27	2.43546
1181.17	5.10091
1184.06	4.0473
1186.95	6.86827
1189.84	2.20721
1192.74	5.56641
1195.63	2.74023
1198.52	2.21307
1201.41	6.09405
1204.31	1.96598
1207.2	3.91924
1210.09	9.29246
1212.99	2.20525
1215.88	2.39927
1218.77	4.57541
1221.66	0.019035
1224.56	1.54912
1227.45	5.4988
1230.34	2.17455
1233.23	3.70889
1236.13	3.14615
1239.02	5.95597
1241.91	4.82851
1244.81	3.04907
1247.7	7.27663
1250.59	4.72212
1253.48	3.16623
1256.38	6.2855
1259.27	0.733093
1262.16	0.792313
1265.05	4.58476
1267.95	7.19473
1270.84	10.0714
1273.73	12.6091
1276.62	13.4921
1279.52	8.17795
1282.41	3.83338
1285.3	0.045692
