Measurement: Raman, 532 nm, unoriented, Raman Data Processed
Mineral: Hubnerite
Rruff sample: R050139
Ideal chemistry: Mn^2+^WO_4_
Locality: Pasto Bueno District, Pallasca Province, Ancash Department, Peru
Source: Dave Bunk Minerals
Description: Black tabular crystals associated with quartz
Measured chemistry: (Mn^2+^_0.79_Fe^2+^_0.20_)W_1.00_O4
Raman shift (cm-1)	intensity
144.507	0
147.882	3.13262
151.257	1.83594
154.631	4.55528
158.006	0.312954
161.381	3.87583
164.756	3.42464
168.131	0.275089
171.506	6.45555
174.88	5.04809
178.255	3.27039
181.63	2.5593
185.005	1.80349
188.38	6.62308
191.754	7.61679
195.129	13.9161
198.504	9.89381
201.879	14.2109
205.254	16.3774
208.629	19.1956
212.003	17.5463
215.378	10.2032
218.753	4.98288
222.128	2.0693
225.503	2.30922
228.877	1.41338
232.252	0.20166
235.627	1.5262
239.002	1.48877
242.377	0.107452
245.751	0.45575
249.126	2.06698
252.501	3.40964
255.876	6.9493
259.251	7.7527
262.626	11.0537
266	14.2153
269.375	14.9565
272.75	15.2085
276.125	10.3779
279.5	6.68819
282.875	5.47031
286.249	3.24269
289.624	3.23407
292.999	0.627502
296.374	1.74544
299.748	1.02009
303.123	1.77382
306.498	3.57449
309.873	3.94384
313.248	6.23153
316.623	10.2773
319.997	13.434
323.372	18.7425
326.747	22.788
330.122	22.3588
333.497	18.6321
336.872	13.7927
340.246	10.1116
343.621	7.83997
346.996	5.73638
350.371	4.24802
353.746	2.48081
357.12	4.22234
360.495	3.4024
363.87	2.56383
367.245	1.04703
370.62	1.21881
373.995	0.257626
377.369	1.70195
380.744	3.87645
384.119	7.53318
387.494	14.4168
390.869	17.8285
394.243	24.7369
397.618	31.8137
400.993	35.5168
404.368	24.3307
407.743	13.202
411.118	9.36955
414.492	4.61099
417.867	3.53957
421.242	0.769913
424.617	1.53426
427.991	2.19962
431.366	0.294353
434.741	0.820263
438.116	1.13027
441.491	0.317139
444.866	1.19614
448.24	0.820393
451.615	1.22052
454.99	0.05994
458.365	2.34745
461.74	1.57502
465.115	1.20657
468.489	3.15414
471.864	2.85428
475.239	0.725254
478.614	2.0439
481.989	0.355759
485.363	2.00729
488.738	3.32415
492.113	2.42344
495.488	1.71894
498.863	3.22664
502.238	2.91119
505.612	4.38103
508.987	3.53064
512.362	4.22399
515.737	4.90099
519.112	3.39147
522.486	2.89596
525.861	5.36494
529.236	5.23097
532.611	6.54981
535.986	6.24296
539.361	5.91516
542.735	7.35037
546.11	6.30527
549.485	4.30437
552.86	3.24447
556.235	3.48428
559.609	0.856972
562.984	1.75735
566.359	1.65404
569.734	0.855892
573.109	0.792904
576.484	0.072514
579.858	0.261814
583.233	2.08485
586.608	1.06334
589.983	0.883442
593.357	0.511559
596.732	0.105656
600.107	1.48195
603.482	1.00466
606.857	0.205246
610.232	1.96082
613.606	0.32233
616.981	1.09488
620.356	2.53306
623.731	2.32213
627.106	2.35528
630.481	1.73336
633.855	2.52963
637.23	1.65569
640.605	2.3659
643.98	1.92145
647.355	5.92118
650.729	4.73878
654.104	7.71835
657.479	9.64374
660.854	14.756
664.229	18.0791
667.604	22.1046
670.978	30.4807
674.353	38.8058
677.728	52.8885
681.103	63.1994
684.478	73.155
687.852	80.0225
691.227	78.1667
694.602	69.9708
697.977	59.6216
701.352	47.0148
704.726	33.2743
708.101	24.3469
711.476	17.0876
714.851	12.1827
718.226	10.5769
721.601	7.23391
724.975	4.94727
728.35	2.96975
731.725	1.41935
735.1	2.18199
738.475	0.138458
741.849	0.832832
745.224	0.38929
748.599	0.476265
751.974	0.26432
755.349	1.61929
758.723	1.68947
762.098	0.8302
765.473	2.4695
768.848	3.5371
772.223	4.14681
775.598	1.92385
778.972	3.18018
782.347	2.26736
785.722	3.51437
789.097	2.52284
792.472	0.632492
795.846	0.577354
799.221	0.133934
802.596	1.09116
805.971	0.00518
809.346	0.345444
812.721	0.753258
816.095	1.92236
819.47	1.05556
822.845	0.565086
826.22	2.80683
829.595	2.86092
832.97	4.44603
836.344	10.0833
839.719	10.8019
843.094	16.6408
846.469	22.5906
849.844	31.6912
853.218	44.4372
856.593	64.3965
859.968	93.6492
863.343	136.892
866.718	195.668
870.092	270.337
873.467	343.023
876.842	408.383
880.217	410.942
883.592	334.937
886.967	230.395
890.341	146.068
893.716	90.2168
897.091	57.2081
900.466	37.8682
903.841	26.7767
907.216	17.4643
910.59	14.128
913.965	9.47784
917.34	5.80358
920.715	3.98928
924.09	1.21152
927.464	2.72402
930.839	1.52554
934.214	0.830383
937.589	0.034779
940.964	0.365879
944.338	0.093391
947.713	0.658298
951.088	0.45969
954.463	0.243515
957.838	0.435097
961.212	0.12534
964.587	0.039703
967.962	0.740799
971.337	1.95332
974.712	0.826725
978.087	0.529732
981.461	1.1884
984.836	0.816376
988.211	1.50629
991.586	1.76258
994.961	2.17766
998.335	1.55901
1001.71	1.74832
1005.09	1.67921
1008.46	2.72573
1011.84	1.28685
1015.21	2.30125
1018.58	1.07479
1021.96	0.783756
1025.33	2.10944
1028.71	2.01818
1032.08	1.72769
1035.46	2.31513
1038.83	2.25199
1042.21	2.046
1045.58	0.748356
1048.96	1.94794
1052.33	3.50059
1055.71	3.47157
1059.08	5.78704
1062.46	1.51754
1065.83	1.19769
1069.21	1.42616
1072.58	2.20121
1075.96	2.50926
1079.33	1.74657
1082.71	3.24866
1086.08	3.54991
1089.45	1.40165
1092.83	2.15903
1096.2	1.44585
1099.58	2.38628
1102.95	1.92007
1106.33	1.14279
1109.7	2.51119
1113.08	1.04791
1116.45	1.57306
1119.83	0.413292
1123.2	0.011322
1126.58	1.77185
1129.95	1.09188
1133.33	0.361553
1136.7	2.50877
1140.08	0.525551
1143.45	1.40465
1146.83	0.409855
1150.2	0.855873
1153.58	0.430321
1156.95	0.766788
1160.33	0.945759
1163.7	0.294415
1167.08	1.54048
1170.45	0.723869
1173.83	0.5966
1177.2	0.04554
1180.58	1.74987
1183.95	1.20593
1187.33	1.46423
1190.7	2.13494
1194.08	0.076149
1197.45	0.075333
1200.82	1.03604
1204.2	3.29401
1207.57	1.62968
1210.95	2.27402
1214.32	3.80777
1217.7	1.70865
1221.07	0.67408
1224.45	1.69979
1227.82	1.73286
1231.2	0.446011
1234.57	1.12141
1237.95	2.11256
1241.32	2.40002
1244.7	0.292175
1248.07	1.84503
1251.45	1.95758
1254.82	0.191048
1258.2	0.950699
1261.57	0.38966
1264.95	0.711796
1268.32	1.82557
1271.7	1.68246
1275.07	2.36396
1278.44	3.09639
1281.82	1.77274
1285.19	0.891788
1288.57	0.362053
1291.94	0.758793
1295.32	1.2476
1298.69	1.07356
1302.07	0.9589
1305.44	0
