Measurement: Raman, 532 nm, unoriented, Raman Data Processed
Mineral: Hubnerite
Rruff sample: R050069
Ideal chemistry: Mn^2+^WO_4_
Locality: Yaogangxian, Yizhang County, Hunan Province, China
Source: Rock Currier
Description: Black colored prismatic single crystal
Measured chemistry: (Mn_0.68_Fe_0.32_)W_1.00_O_4_
Raman shift (cm-1)	intensity
116.396	0
119.771	7.54868
123.145	13.0798
126.52	52.8747
129.895	137.408
133.27	39.471
136.645	22.733
140.019	32.3188
143.394	14.0856
146.769	9.4149
150.144	8.46597
153.519	22.9213
156.894	13.2109
160.268	28.6451
163.643	15.6994
167.018	13.6109
170.393	28.2273
173.768	23.6777
177.143	28.6696
180.517	39.8551
183.892	47.19
187.267	122.292
190.642	207.49
194.017	330.639
197.391	484.541
200.766	741.711
204.141	1009.82
207.516	930.49
210.891	445.975
214.266	200.354
217.64	92.2382
221.015	48.908
224.39	14.1806
227.765	17.3208
231.14	1.44782
234.514	1.18217
237.889	2.50383
241.264	10.8477
244.639	36.8701
248.014	76.7204
251.388	143.461
254.763	207.408
258.138	332.486
261.513	240.348
264.888	91.4026
268.263	33.3557
271.637	6.02487
275.012	7.45468
278.387	8.67847
281.762	0.854889
285.137	6.61493
288.512	10.0473
291.886	14.0865
295.261	44.5739
298.636	61.201
302.011	90.2443
305.386	184.062
308.76	317.241
312.135	546.783
315.51	840.167
318.885	1234.34
322.26	1651.54
325.635	1760.05
329.009	1427.43
332.384	952.287
335.759	594.532
339.134	375.972
342.509	240.162
345.883	165.723
349.258	113.209
352.633	74.7631
356.008	63.5053
359.383	39.9286
362.757	30.3978
366.132	23.1374
369.507	0.763092
372.882	11.8828
376.257	17.9871
379.632	40.2825
383.006	101.701
386.381	197.141
389.756	347.753
393.131	509.56
396.506	649.12
399.88	450.274
403.255	186.227
406.63	91.5386
410.005	40.2973
413.38	21.1712
416.755	6.58084
420.129	5.96785
423.504	17.0223
426.879	0.357712
430.254	3.07111
433.629	6.25002
437.003	20.923
440.378	25.3861
443.753	26.2459
447.128	23.5381
450.503	30.7517
453.878	21.6089
457.252	16.9179
460.627	27.7602
464.002	24.3631
467.377	10.616
470.752	17.9605
474.127	24.5264
477.501	18.6955
480.876	17.2143
484.251	8.27214
487.626	6.09412
491.001	1.47992
494.375	6.75864
497.75	6.97107
501.125	9.099
504.5	12.0819
507.875	12.8242
511.25	25.3756
514.624	32.1937
517.999	42.7215
521.374	68.0625
524.749	104.523
528.124	148.011
531.498	183.958
534.873	253.846
538.248	298.656
541.623	329.286
544.998	271.79
548.372	227.376
551.747	154.944
555.122	105.265
558.497	74.8143
561.872	36.6087
565.247	14.0273
568.621	19.925
571.996	19.1628
575.371	8.17958
578.746	5.55467
582.121	4.78653
585.495	0.539001
588.87	10.2772
592.245	8.85095
595.62	19.7326
598.995	15.3734
602.37	15.3316
605.744	10.4502
609.119	10.5856
612.494	10.4318
615.869	19.7071
619.244	13.2197
622.619	20.454
625.993	14.625
629.368	11.5143
632.743	2.49057
636.118	0.222198
639.493	2.09402
642.867	5.15634
646.242	6.0769
649.617	19.2535
652.992	22.543
656.367	41.7937
659.741	59.0074
663.116	98.3769
666.491	143.534
669.866	198.843
673.241	297.296
676.616	420.073
679.99	608.352
683.365	904.547
686.74	1305.81
690.115	1699.04
693.49	1956.61
696.865	2026.95
700.239	1725.18
703.614	1238.3
706.989	805.707
710.364	516.558
713.739	356.864
717.113	256.168
720.488	187.609
723.863	144.795
727.238	107.848
730.613	67.9337
733.987	40.049
737.362	28.8879
740.737	25.7535
744.112	4.95895
747.487	13.7163
750.862	6.20981
754.236	1.92575
757.611	11.44
760.986	10.7162
764.361	3.42426
767.736	13.6216
771.111	11.2113
774.485	26.7003
777.86	8.02502
781.235	5.39322
784.61	4.23578
787.985	19.1669
791.359	2.65631
794.734	6.47436
798.109	2.62476
801.484	10.9813
804.859	5.39029
808.234	11.4416
811.608	9.23135
814.983	9.39941
818.358	6.31729
821.733	30.4913
825.108	15.1656
828.482	46.8708
831.857	57.2974
835.232	100.416
838.607	130.769
841.982	203.521
845.356	261.678
848.731	364.592
852.106	519.83
855.481	779.885
858.856	1074.65
862.231	1553.37
865.605	2256.07
868.98	3535.38
872.355	5848.22
875.73	9145.66
879.105	12670
882.48	14393.3
885.854	11629.7
889.229	6507.6
892.604	3357.39
895.979	1867.86
899.354	1091.72
902.729	677.417
906.103	476.167
909.478	284.045
912.853	203.923
916.228	139.231
919.602	111.083
922.977	53.9469
926.352	40.8755
929.727	26.9674
933.102	17.0766
936.477	14.2683
939.851	5.86932
943.226	7.38043
946.601	1.07224
949.976	0.79071
953.351	3.24072
956.726	4.86844
960.1	3.65823
963.475	2.61606
966.85	4.15369
970.225	15.0808
973.6	14.5456
976.974	2.05835
980.349	8.23441
983.724	17.8359
987.099	16.2239
990.474	4.7912
993.848	8.92273
997.223	15.4523
1000.6	3.09882
1003.97	19.3659
1007.35	13.0068
1010.72	26.7618
1014.1	21.0974
1017.47	11.4588
1020.85	23.4803
1024.22	21.2646
1027.6	33.4945
1030.97	19.7237
1034.35	28.7998
1037.72	29.296
1041.1	19.0283
1044.47	30.024
1047.85	34.8957
1051.22	22.193
1054.6	26.3814
1057.97	22.8788
1061.35	16.9416
1064.72	33.8351
1068.09	32.0637
1071.47	17.4995
1074.84	22.3911
1078.22	37.0813
1081.59	13.7265
1084.97	17.225
1088.34	27.5639
1091.72	15.719
1095.09	19.5216
1098.47	15.2271
1101.84	11.7201
1105.22	6.87674
1108.59	9.55978
1111.97	11.9826
1115.34	6.89322
1118.72	8.90744
1122.09	6.53824
1125.47	9.06638
1128.84	6.60126
1132.22	5.33484
1135.59	12.6039
1138.97	8.44153
1142.34	11.5292
1145.71	7.16077
1149.09	8.57913
1152.46	3.59256
1155.84	3.88623
1159.21	6.11282
1162.59	9.68402
1165.96	1.64023
1169.34	8.05167
1172.71	3.59878
1176.09	10.1085
1179.46	1.64853
1182.84	7.01288
1186.21	16.2418
1189.59	11.5675
1192.96	10.1882
1196.34	15.8945
1199.71	2.44943
1203.09	14.343
1206.46	6.25488
1209.84	18.6514
1213.21	11.5551
1216.59	4.84106
1219.96	23.9435
1223.34	6.94869
1226.71	31.8633
1230.09	22.6316
1233.46	15.8628
1236.84	14.0081
1240.21	3.37637
1243.59	11.6
1246.96	7.18454
1250.34	20.5052
1253.71	15.8504
1257.08	13.9137
1260.46	28.797
1263.83	3.3326
1267.21	13.5602
1270.58	12.3277
1273.96	16.3167
1277.33	22.6845
1280.71	26.3785
1284.08	21.8139
1287.46	8.56456
1290.83	15.3295
1294.21	1.43706
1297.58	19.0492
1300.96	23.3377
1304.33	16.108
1307.71	7.59439
