Measurement: Raman, 514 nm, unoriented, Raman Data Processed
Mineral: Hubnerite
Rruff sample: R050139
Ideal chemistry: Mn^2+^WO_4_
Locality: Pasto Bueno District, Pallasca Province, Ancash Department, Peru
Source: Dave Bunk Minerals
Description: Black tabular crystals associated with quartz
Measured chemistry: (Mn^2+^_0.79_Fe^2+^_0.20_)W_1.00_O4
Raman shift (cm-1)	intensity
52.866	0
57.065	1.819
61.262	2.195
65.458	17.072
69.651	100.561
73.842	152.433
78.031	241.155
82.218	457.729
86.404	699.161
90.587	825.411
94.768	678.623
98.947	630.453
103.124	611.35
107.3	749.121
111.473	676.821
115.644	1155.29
119.813	2195.42
123.981	5065.17
128.146	6343.53
132.309	2231.46
136.47	862.926
140.63	457.568
144.787	285.818
148.942	170.714
153.096	113.862
157.247	34.292
161.396	177.031
165.544	142.31
169.689	111.243
173.833	88.906
177.974	80.899
182.114	117.243
186.251	165.935
190.387	260.95
194.52	514.282
198.652	878.933
202.782	1278.88
206.909	1112.11
211.035	487.613
215.159	125.376
219.281	49.916
223.4	16.542
227.518	8.566
231.634	22.619
235.748	31.851
239.86	83.537
243.97	181.623
248.079	328.069
252.185	578.843
256.289	935.932
260.391	758.366
264.492	339.152
268.59	115.478
272.687	2.981
276.781	37.303
280.874	16.581
284.964	74.309
289.053	190.629
293.14	272.16
297.225	441.904
301.308	720.845
305.389	1133.9
309.468	1756.67
313.545	2816.18
317.62	4477.05
321.693	5992.97
325.765	6114.24
329.834	5143.52
333.902	3671.91
337.967	2586.19
342.031	1763.85
346.093	1249.64
350.153	925.805
354.21	656.58
358.267	479.718
362.321	407.963
366.373	243.311
370.423	176.756
374.471	121.296
378.518	103.926
382.563	118.649
386.605	229.512
390.646	541.519
394.685	1106.54
398.722	1225.65
402.757	731.041
406.79	429.547
410.821	282.372
414.851	119.951
418.878	74.378
422.904	36.922
426.927	20.298
430.949	3.805
434.969	10.021
438.987	63.946
443.003	21.339
447.018	47.39
451.03	59.883
455.041	30.225
459.049	30.351
463.056	18.922
467.061	25.557
471.064	19.971
475.065	1.809
479.064	62.842
483.062	11.814
487.057	5.511
491.051	30.281
495.043	6.254
499.032	41.821
503.02	83.616
507.007	89.117
510.991	140.614
514.973	196.104
518.954	281.585
522.933	393.057
526.91	534.516
530.885	779.962
534.858	968.394
538.829	954.809
542.799	975.206
546.766	774.584
550.732	594.941
554.696	394.276
558.658	252.589
562.618	180.876
566.576	65.135
570.533	54.36
574.488	34.544
578.44	7.631
582.391	78.446
586.341	70.77
590.288	0.544
594.233	28.618
598.177	10.037
602.119	3.43
606.059	21.621
609.997	3.392
613.933	12.514
617.868	58.253
621.801	5.921
625.731	17.569
629.66	23.597
633.588	60.014
637.513	42.069
641.437	4.179
645.358	13.024
649.278	15.971
653.196	75.856
657.113	6.998
661.027	95.84
664.94	145.659
668.851	159.458
672.76	236.236
676.667	396.996
680.572	519.739
684.476	697.467
688.378	941.181
692.278	1151.88
696.176	1256.58
700.072	1183.27
703.967	823.956
707.86	641.654
711.751	425.359
715.64	328.07
719.527	245.788
723.413	107.523
727.297	120.051
731.179	35.937
735.059	22.526
738.937	3.386
742.814	10.518
746.689	11.655
750.562	17.694
754.433	97.919
758.303	159.293
762.17	168.882
766.036	216.705
769.901	270.317
773.763	300.42
777.624	261.851
781.482	272.4
785.339	254.931
789.195	246.687
793.048	227.996
796.9	253.536
800.75	256.351
804.598	300.932
808.445	293.433
812.289	372.032
816.132	377.062
819.973	425.183
823.813	506.396
827.65	599.699
831.486	801.094
835.32	931.586
839.152	1135.18
842.983	1491.88
846.812	1844.75
850.639	2450.31
854.464	3432.34
858.288	4603.89
862.11	6410.21
865.93	8977.24
869.748	13086.1
873.564	19868.7
877.379	30332.5
881.192	41023.5
885.004	39308.6
888.813	26946.1
892.621	15900.6
896.427	9432.16
900.232	5981.03
904.034	4217.08
907.835	3017.27
911.634	2191.62
915.432	1747.1
919.227	1329.71
923.021	1070.46
926.813	879.349
930.604	723.382
934.393	589.541
938.18	568.833
941.965	490.251
945.749	439.486
949.53	333.655
953.311	308.505
957.089	237.736
960.866	227.533
964.641	171.731
968.414	141.967
972.185	114.715
975.955	103.123
979.723	116.613
983.49	46.184
987.254	99.156
991.017	12.905
994.779	90.833
998.538	9.237
1002.3	28.732
1006.05	12.635
1009.81	34.765
1013.56	20.183
1017.31	8.127
1021.06	3.373
1024.81	19.879
1028.55	10.671
1032.3	19.043
1036.04	11.084
1039.78	43.436
1043.52	32.993
1047.26	32.152
1050.99	25.795
1054.73	50.349
1058.46	65.966
1062.19	59.762
1065.92	51.343
1069.65	36.321
1073.37	54.002
1077.1	39.623
1080.82	23.249
1084.54	17.858
1088.26	42.657
1091.97	32.315
1095.69	15.92
1099.4	11.532
1103.12	21.894
1106.83	26.371
1110.54	43.125
1114.24	9.558
1117.95	4.034
1121.65	295.334
1125.35	125.674
1129.06	25.984
1132.75	1.263
1136.45	2.498
1140.15	6.677
1143.84	0.189
1147.53	9.822
1151.22	20.794
1154.91	0.963
1158.6	14.764
1162.28	5.299
1165.97	1.314
1169.65	7.383
1173.33	16.873
1177.01	23.546
1180.69	56.738
1184.36	2.101
1188.04	8.853
1191.71	5.758
1195.38	41.075
1199.05	23.856
1202.71	19.536
1206.38	2.79
1210.04	47.656
1213.71	64.256
1217.37	32.613
1221.03	42.072
1224.68	43.38
1228.34	67.685
1231.99	28.324
1235.65	97.975
1239.3	83.85
1242.95	58.009
1246.59	63.419
1250.24	86.795
1253.88	102.941
1257.53	73.336
1261.17	81.762
1264.81	90.764
1268.45	85.107
1272.08	89.418
1275.72	100.689
1279.35	105.56
1282.98	90.504
1286.61	121.213
1290.24	94.603
1293.87	112.432
1297.49	88.705
1301.11	59.969
1304.73	73.456
1308.36	45.639
1311.97	16.829
1315.59	66.297
1319.2	23.079
1322.82	34.739
1326.43	69.983
1330.04	13.641
1333.65	43.393
1337.26	24.202
1340.86	62.05
1344.47	52.691
1348.07	24.39
1351.67	39.111
1355.27	33.714
1358.87	65.331
1362.46	27.487
1366.06	14.975
1369.65	19.418
1373.24	11.841
1376.83	2.672
1380.42	36.554
1384	31.174
1387.59	32.047
1391.17	54.852
1394.75	28.62
1398.33	33.298
1401.91	40.87
1405.49	29.355
1409.06	54.758
1412.64	41.949
1416.21	31.887
1419.78	19.345
1423.35	4.572
1426.91	3.893
1430.48	35.136
1434.05	24.831
1437.61	24.522
1441.17	9.726
1444.73	15.794
1448.29	10.664
1451.84	28.572
1455.4	45.051
1458.95	39.101
1462.5	9.064
1466.05	30.224
1469.6	11.291
1473.15	90.15
1476.69	30.963
1480.24	28.733
1483.78	35.642
1487.32	17.057
1490.86	34.368
1494.39	19.944
1497.93	49.07
1501.46	39.858
1505	25.751
1508.53	27.268
1512.06	22.251
1515.59	2.024
1519.11	43.792
1522.64	0
