Measurement: Raman, 785 nm, unoriented, Raman Data Processed
Mineral: Hubnerite
Rruff sample: R050069
Ideal chemistry: Mn^2+^WO_4_
Locality: Yaogangxian, Yizhang County, Hunan Province, China
Source: Rock Currier
Description: Black colored prismatic single crystal
Measured chemistry: (Mn_0.68_Fe_0.32_)W_1.00_O_4_
Raman shift (cm-1)	intensity
79.5574	0
82.9322	5.24855
86.307	12.5468
89.6818	16.3417
93.0566	20.4917
96.4315	36.5793
99.8063	21.9058
103.181	10.5006
106.556	1.76772
109.931	5.13067
113.305	3.45066
116.68	12.385
120.055	39.4968
123.43	60.0354
126.805	160.139
130.18	417.872
133.554	222.978
136.929	146.739
140.304	98.1114
143.679	62.0466
147.054	89.1458
150.429	147.868
153.803	145.774
157.178	76.9605
160.553	57.1255
163.928	53.5985
167.303	46.2779
170.677	30.8995
174.052	45.5324
177.427	39.079
180.802	42.4672
184.177	66.388
187.552	126.44
190.926	242.332
194.301	369.853
197.676	558.37
201.051	789.85
204.426	1173.16
207.8	1362.91
211.175	768.152
214.55	309.298
217.925	135.385
221.3	65.5114
224.674	30.606
228.049	14.7618
231.424	1.90384
234.799	2.78836
238.174	16.2285
241.549	42.6674
244.923	106.119
248.298	189.924
251.673	285.506
255.048	436.82
258.423	670.834
261.798	616.405
265.172	246.031
268.547	63.6379
271.922	5.37405
275.297	7.03479
278.672	15.4355
282.046	5.4473
285.421	27.0613
288.796	24.7798
292.171	53.6823
295.546	80.7265
298.921	143.554
302.295	228.88
305.67	348.701
309.045	607.156
312.42	1030.19
315.795	1563.03
319.169	2263.29
322.544	3251.07
325.919	4071.99
329.294	3605.71
332.669	2455.13
336.043	1515.18
339.418	904.23
342.793	581.148
346.168	350.614
349.543	233.427
352.918	163.794
356.292	107.488
359.667	66.8515
363.042	57.8304
366.417	17.4321
369.792	15.5468
373.166	19.1705
376.541	28.3281
379.916	90.6164
383.291	238.222
386.666	409.303
390.041	630.87
393.415	1019.03
396.79	1473.95
400.165	1114.83
403.54	460.941
406.915	207.443
410.289	100.923
413.664	71.344
417.039	29.5723
420.414	16.9093
423.789	5.20428
427.163	4.18829
430.538	5.34866
433.913	3.24503
437.288	2.41699
440.663	2.58279
444.038	10.8553
447.412	0.475159
450.787	13.0673
454.162	8.99397
457.537	5.82974
460.912	15.3364
464.286	7.90134
467.661	10.0508
471.036	8.58185
474.411	6.07974
477.786	5.97658
481.161	8.03799
484.535	9.757
487.91	1.88161
491.285	5.57805
494.66	3.57593
498.035	9.35066
501.409	7.56288
504.784	15.0356
508.159	34.1138
511.534	48.8551
514.909	60.8441
518.284	94.1668
521.658	135.09
525.033	212.929
528.408	297.41
531.783	456.943
535.158	602.224
538.533	817.477
541.907	945.775
545.282	947.452
548.657	786.707
552.032	544.39
555.407	354.453
558.781	226.194
562.156	149.433
565.531	99.9177
568.906	53.4939
572.281	38.0307
575.655	26.0041
579.03	19.5564
582.405	16.1023
585.78	2.97504
589.155	20.0534
592.529	7.59474
595.904	4.32854
599.279	15.4859
602.654	16.5288
606.029	6.74611
609.404	14.2257
612.778	12.7212
616.153	8.61215
619.528	5.85605
622.903	16.7331
626.278	2.41782
629.653	3.08998
633.027	9.57646
636.402	0.534698
639.777	8.93778
643.152	4.31821
646.527	18.4171
649.901	3.67114
653.276	13.7637
656.651	16.3408
660.026	46.4004
663.401	90.4771
666.775	111.285
670.15	162.787
673.525	227.429
676.9	344.287
680.275	501.592
683.649	709.682
687.024	997.631
690.399	1325.39
693.774	1608.96
697.149	1692.54
700.524	1449.42
703.898	1020.12
707.273	639.731
710.648	363.302
714.023	235.097
717.398	144.641
720.773	99.5331
724.147	61.1092
727.522	38.0903
730.897	30.6651
734.272	8.02396
737.647	2.13257
741.021	1.18134
744.396	8.66834
747.771	8.87546
751.146	39.6305
754.521	42.9929
757.895	62.279
761.27	92.5764
764.645	115.774
768.02	121.572
771.395	103.394
774.77	92.8365
778.144	105.683
781.519	77.9818
784.894	42.2592
788.269	29.515
791.644	5.02084
795.019	7.78738
798.393	1.92899
801.768	5.75095
805.143	0.705811
808.518	18.7316
811.893	3.89084
815.267	10.5932
818.642	22.1193
822.017	25.3652
825.392	48.7507
828.767	68.5079
832.141	88.9553
835.516	119.513
838.891	194.505
842.266	253.641
845.641	354.339
849.016	528.085
852.39	699.81
855.765	1011.42
859.14	1396
862.515	1994.7
865.89	2961.44
869.264	4609.33
872.639	7737.77
876.014	12604.9
879.389	18896.2
882.764	23824.3
886.139	20257.1
889.513	11367
892.888	5672.38
896.263	3051.52
899.638	1795.86
903.013	1117.98
906.388	736.316
909.762	492.554
913.137	343.31
916.512	243.875
919.887	164.831
923.261	108.042
926.636	78.2685
930.011	45.5791
933.386	20.6386
936.761	9.75348
940.136	10.3958
943.51	0.923523
946.885	10.4303
950.26	10.0133
953.635	5.9855
957.01	2.56424
960.385	6.69019
963.759	7.10022
967.134	7.79375
970.509	3.06764
973.884	6.66486
977.259	2.04201
980.633	0.774323
984.008	6.43729
987.383	4.98804
990.758	5.54428
994.133	5.72079
997.508	3.63492
1000.88	2.25212
1004.26	14.1238
1007.63	14.1538
1011.01	9.62132
1014.38	13.6027
1017.76	21.5956
1021.13	21.6152
1024.51	12.9877
1027.88	28.4351
1031.26	16.6935
1034.63	18.1063
1038.01	27.7537
1041.38	31.4922
1044.76	27.0505
1048.13	28.4709
1051.51	26.8564
1054.88	29.6868
1058.25	30.1286
1061.63	26.68
1065	22.2995
1068.38	24.1479
1071.75	24.3754
1075.13	28.2621
1078.5	25.4654
1081.88	18.2983
1085.25	7.39735
1088.63	14.8934
1092	12.9699
1095.38	8.82423
1098.75	17.0453
1102.13	25.5913
1105.5	9.71465
1108.88	13.8226
1112.25	10.9973
1115.63	18.2958
1119	7.3519
1122.38	7.28574
1125.75	4.92607
1129.12	6.61217
1132.5	1.30377
1135.88	6.63927
1139.25	10.2155
1142.62	0.730568
1146	1.32351
1149.37	3.16209
1152.75	0.803932
1156.12	10.4205
1159.5	7.54214
1162.87	7.20778
1166.25	10.5312
1169.62	6.46345
1173	5.84564
1176.37	6.50787
1179.75	12.6913
1183.12	15.4574
1186.5	0.940826
1189.87	2.86
1193.25	2.79436
1196.62	5.08547
1200	7.65951
1203.37	7.56753
1206.75	7.62807
1210.12	13.3407
1213.5	5.85754
1216.87	5.41518
1220.24	5.8276
1223.62	3.36916
1226.99	10.8367
1230.37	7.271
1233.74	14.6823
1237.12	4.89153
