Measurement: Raman, 780 nm, unoriented, Raman Data Processed
Mineral: Hubnerite
Rruff sample: R050139
Ideal chemistry: Mn^2+^WO_4_
Locality: Pasto Bueno District, Pallasca Province, Ancash Department, Peru
Source: Dave Bunk Minerals
Description: Black tabular crystals associated with quartz
Measured chemistry: (Mn^2+^_0.79_Fe^2+^_0.20_)W_1.00_O4
Raman shift (cm-1)	intensity
145.154	0
148.047	1.53616
150.939	0.628586
153.832	4.79707
156.725	1.33536
159.617	0.391052
162.51	0.132706
165.403	2.06659
168.296	6.91968
171.188	7.13394
174.081	10.4668
176.974	17.3939
179.866	28.5076
182.759	76.707
185.652	132.778
188.544	225.436
191.437	298.096
194.33	350.136
197.222	396.784
200.115	446.958
203.008	491.256
205.901	531.397
208.793	451.497
211.686	260.269
214.579	124.529
217.471	52.3532
220.364	19.7362
223.257	3.78038
226.149	2.24028
229.042	5.78056
231.935	7.26621
234.828	0.878113
237.72	17.3664
240.613	41.8442
243.506	62.52
246.398	98.6321
249.291	130.32
252.184	163.17
255.077	196.132
257.969	231.941
260.862	232.691
263.755	170.235
266.647	100.317
269.54	49.106
272.433	16.5699
275.325	2.72308
278.218	6.97571
281.111	0.567596
284.003	11.4715
286.896	25.8705
289.789	49.805
292.682	85.2269
295.574	144.461
298.467	226.046
301.36	363.11
304.252	573.524
307.145	887.211
310.038	1214.76
312.93	1517.75
315.823	1776.56
318.716	2014.76
321.609	2214.12
324.501	2314.71
327.394	2133.62
330.287	1651.32
333.179	1151.15
336.072	788.115
338.965	550.508
341.858	382.399
344.75	271.764
347.643	195.056
350.536	137.232
353.428	96.4825
356.321	65.0566
359.214	44.3532
362.106	24.4503
364.999	15.714
367.892	7.73651
370.784	9.47681
373.677	23.9093
376.57	58.0779
379.463	125.028
382.355	188.494
385.248	235.028
388.141	296.692
391.033	342.107
393.926	409.079
396.819	458.329
399.712	372.814
402.604	189.319
405.497	86.2293
408.39	41.1804
411.282	16.2745
414.175	6.01938
417.068	1.58601
419.96	5.38371
422.853	4.79758
425.746	4.75813
428.639	4.01121
431.531	4.73451
434.424	0.997421
437.317	0.662216
440.209	2.97322
443.102	5.5621
445.995	7.61098
448.887	8.30071
451.78	9.49178
454.673	10.5037
457.565	13.0382
460.458	13.3825
463.351	15.1056
466.243	15.1588
469.136	22.4092
472.029	17.8378
474.922	18.4378
477.814	16.6658
480.707	16.1634
483.6	15.5937
486.492	17.834
489.385	18.0156
492.278	21.5272
495.171	24.2117
498.063	32.8004
500.956	40.4739
503.849	48.3104
506.741	60.0985
509.634	77.7654
512.527	94.3762
515.419	114.103
518.312	139.155
521.205	177.767
524.097	221.122
526.99	271.572
529.883	319.847
532.776	360.674
535.668	396.112
538.561	418.742
541.454	420.838
544.346	395.197
547.239	335.381
550.132	259.498
553.024	190.24
555.917	133.815
558.81	91.8325
561.703	65.8023
564.595	44.6544
567.488	34.9022
570.381	18.7369
573.273	10.6125
576.166	5.76852
579.059	3.45514
581.952	0.479263
584.844	3.02853
587.737	2.76241
590.63	1.21581
593.522	2.43221
596.415	0.83223
599.308	1.92348
602.2	1.0423
605.093	0.102676
607.986	1.68965
610.879	0.122971
613.771	1.86101
616.664	0.877701
619.557	0.717316
622.449	0.116211
625.342	1.21988
628.235	0.756378
631.127	4.38553
634.02	6.366
636.913	8.09845
639.806	12.1694
642.698	21.0612
645.591	28.3468
648.484	40.0147
651.376	55.2734
654.269	71.2247
657.162	98.2929
660.054	124.629
662.947	161.631
665.84	215.531
668.732	277.391
671.625	357.61
674.518	449.169
677.411	553.138
680.303	656.458
683.196	749.474
686.089	832.729
688.981	871.911
691.874	882.882
694.767	859.673
697.659	776.651
700.552	633.822
703.445	464.742
706.338	322.808
709.23	222.43
712.123	156.167
715.016	112.309
717.908	82.4656
720.801	62.0434
723.694	43.8669
726.587	31.5001
729.479	22.815
732.372	13.4958
735.265	8.57895
738.157	3.26649
741.05	0.463409
743.943	1.00986
746.835	2.55217
749.728	1.40741
752.621	3.28804
755.514	7.341
758.406	10.7513
761.299	16.6075
764.192	23.6422
767.084	29.5055
769.977	32.5089
772.87	33.1722
775.763	28.8293
778.655	21.8943
781.548	25.9919
784.441	12.0955
787.333	6.63272
790.226	4.98758
793.119	2.05704
796.011	0.834991
798.904	3.99222
801.797	6.96725
804.689	6.2066
807.582	8.10339
810.475	5.90433
813.368	2.32458
816.26	6.13415
819.153	13.7426
822.046	27.3359
824.938	43.8004
827.831	65.5936
830.724	98.0462
833.616	138.15
836.509	187.381
839.402	259.957
842.294	354.527
845.187	482.65
848.08	662.205
850.973	906.947
853.865	1262.36
856.758	1767.69
859.651	2519.14
862.543	3635.77
865.436	5179.96
868.329	7096.59
871.221	9021.64
874.114	10422.5
877.007	11276.4
879.9	11569.8
882.792	11062.3
885.685	8850.65
888.578	5469.46
891.47	3124.83
894.363	1883.73
897.256	1226.27
900.149	833.656
903.041	587.753
905.934	425.512
908.827	313.173
911.719	232.002
914.612	171.267
917.505	126.265
920.397	92.1137
923.29	67.9262
926.183	46.1966
929.076	26.649
931.968	19.3428
934.861	10.8785
937.754	4.78711
940.646	1.46893
943.539	1.15854
946.432	3.71448
949.324	3.29767
952.217	4.26604
955.11	3.23422
958.003	2.36363
960.895	3.92328
963.788	4.0648
966.681	3.82985
969.573	1.35587
972.466	0.006973
975.359	0.885666
978.251	1.53302
981.144	3.74905
984.037	5.36491
986.929	4.95596
989.822	4.19861
992.715	3.39383
995.608	3.72609
998.5	4.84158
1001.39	6.19731
1004.29	7.85892
1007.18	9.1656
1010.07	10.1482
1012.96	12.3805
1015.86	12.7034
1018.75	12.7256
1021.64	12.7275
1024.54	15.4004
1027.43	15.3942
1030.32	17.2636
1033.21	17.7812
1036.11	19.4933
1039	20.1582
1041.89	21.1632
1044.78	22.3829
1047.68	24.8815
1050.57	22.6971
1053.46	28.0452
1056.35	25.4513
1059.25	25.7593
1062.14	24.7234
1065.03	26.5743
1067.92	25.161
1070.82	25.8674
1073.71	25.0583
1076.6	22.2997
1079.5	19.5367
1082.39	17.4398
1085.28	18.0641
1088.17	15.6402
1091.07	13.2884
1093.96	12.8565
1096.85	11.3427
1099.74	10.2563
1102.64	8.26057
1105.53	7.64281
1108.42	7.06746
1111.32	4.85873
1114.21	4.25797
1117.1	3.75354
1119.99	4.12793
1122.89	2.64445
1125.78	3.22255
1128.67	3.17459
1131.56	0.751251
1134.46	0.172211
1137.35	1.19405
1140.24	1.12224
1143.13	0.908569
1146.03	0.374863
1148.92	0.147812
1151.81	0.315247
1154.71	0.596619
1157.6	0.191605
1160.49	1.20683
1163.38	2.24519
1166.28	1.29021
1169.17	1.94922
1172.06	2.32237
1174.95	2.76289
1177.85	0.031113
1180.74	2.31387
1183.63	0.452682
1186.53	0.94915
1189.42	2.94477
1192.31	0.519073
1195.2	0.14537
1198.1	1.02912
1200.99	0.380966
1203.88	0.495796
1206.78	0.119812
1209.67	0.067589
1212.56	1.24295
1215.45	0.139343
1218.35	2.17939
1221.24	0.535446
1224.13	1.73156
1227.02	1.61744
1229.92	2.14631
1232.81	2.26596
1235.7	2.66975
1238.59	3.78355
1241.49	3.37989
1244.38	1.09023
1247.27	2.10194
1250.16	2.81799
1253.06	2.77125
1255.95	1.09564
1258.84	0.824913
1261.74	3.1488
1264.63	2.6889
1267.52	3.46371
1270.41	3.60445
1273.31	2.03275
1276.2	1.42511
1279.09	2.48949
1281.98	2.02182
1284.88	0.78212
