Measurement: Raman, 532 nm, unoriented, Raman Data Processed
Mineral: Hubnerite
Rruff sample: R060900
Ideal chemistry: Mn^2+^WO_4_
Locality: near Kara-Oba Deposit, Kazakhstan
Source: Michael Scott
Description: Very dark red single crystal
Raman shift (cm-1)	intensity
115.738	0
118.63	30.9368
121.523	159.793
124.416	365.286
127.308	513.348
130.201	871.07
133.094	273.726
135.987	56.6164
138.879	48.6538
141.772	33.0612
144.665	11.9822
147.557	3.30466
150.45	3.57402
153.343	5.23944
156.235	3.51292
159.128	3.34195
162.021	6.00326
164.913	17.5103
167.806	0.376312
170.699	1.5134
173.592	4.68927
176.484	5.33073
179.377	2.43799
182.27	20.0729
185.162	29.8655
188.055	56.0231
190.948	88.0683
193.84	167.778
196.733	294.809
199.626	503.713
202.519	718.072
205.411	939.566
208.304	915.201
211.197	468.181
214.089	230.026
216.982	123.973
219.875	72.8934
222.767	41.4176
225.66	20.0751
228.553	1.31485
231.446	4.03619
234.338	0.526779
237.231	1.48744
240.124	1.96501
243.016	5.18047
245.909	27.0786
248.802	62.8016
251.694	140.738
254.587	203.078
257.48	289.028
260.373	328.51
263.265	173.695
266.158	62.1092
269.051	10.4886
271.943	12.163
274.836	4.66223
277.729	5.76846
280.621	0.818466
283.514	1.92239
286.407	2.16386
289.3	12.1419
292.192	14.4608
295.085	9.4691
297.978	26.6166
300.87	43.7329
303.763	74.8899
306.656	109.324
309.548	186.33
312.441	313.54
315.334	517.104
318.226	822.556
321.119	1166.1
324.012	1500.77
326.904	1558.58
329.797	1306.05
332.69	886.832
335.583	559.357
338.475	387.532
341.368	234.716
344.261	159.658
347.153	107.415
350.046	81.7103
352.939	67.4887
355.832	54.5686
358.724	43.4114
361.617	22.968
364.51	24.6432
367.402	7.19463
370.295	4.15775
373.188	2.97479
376.08	7.23644
378.973	19.1139
381.866	38.885
384.759	82.0595
387.651	162.746
390.544	299.059
393.437	423.341
396.329	615.014
399.222	603.347
402.115	306.113
405.007	136.077
407.9	69.7361
410.793	37.7137
413.685	31.9486
416.578	13.5541
419.471	5.78868
422.364	0.423477
425.256	6.56841
428.149	3.64148
431.042	3.97102
433.934	0.15181
436.827	0.465851
439.72	8.45073
442.612	19.2923
445.505	20.8835
448.398	8.26195
451.291	7.20232
454.183	9.54309
457.076	15.6728
459.969	10.2825
462.861	19.3858
465.754	14.1795
468.647	11.7945
471.539	6.69869
474.432	15.2684
477.325	1.21755
480.217	16.1231
483.11	17.5198
486.003	7.00145
488.896	12.0397
491.788	4.52945
494.681	0.430847
497.574	9.68729
500.466	4.77847
503.359	14.073
506.252	24.8401
509.144	15.6958
512.037	20.4826
514.93	18.5477
517.823	26.2649
520.715	42.3712
523.608	51.273
526.501	72.8928
529.393	119.234
532.286	154.851
535.179	189.793
538.072	257.579
540.964	294.058
543.857	315.431
546.75	281.647
549.642	217.943
552.535	163.551
555.428	113.224
558.32	66.183
561.213	50.1165
564.106	38.8075
566.998	29.8205
569.891	16.7971
572.784	13.015
575.677	20.8953
578.569	7.18877
581.462	6.51236
584.355	4.42459
587.247	4.53407
590.14	8.22638
593.033	7.84077
595.925	5.36279
598.818	0.494186
601.711	7.16457
604.604	16.7069
607.496	17.4853
610.389	1.948
613.282	11.6566
616.174	4.66264
619.067	6.94815
621.96	8.62097
624.852	12.3878
627.745	6.63609
630.638	7.55193
633.53	10.9014
636.423	14.1565
639.316	13.4668
642.209	0.268692
645.101	1.14282
647.994	2.07233
650.887	10.6536
653.779	18.65
656.672	35.4334
659.565	19.7945
662.457	65.6658
665.35	65.3769
668.243	87.1743
671.135	126.985
674.028	180.425
676.921	250.838
679.814	333.464
682.706	464.769
685.599	648.803
688.492	859.224
691.384	1151.46
694.277	1351.7
697.17	1508.4
700.062	1424.73
702.955	1090.3
705.848	729.562
708.741	488.769
711.633	316.081
714.526	237.782
717.419	195.616
720.311	144.969
723.204	125.781
726.097	92.1122
728.99	58.0783
731.882	50.5418
734.775	38.1855
737.668	32.9826
740.56	29.6724
743.453	6.49355
746.346	10.2004
749.238	11.162
752.131	6.2775
755.024	4.68683
757.916	17.7592
760.809	9.15079
763.702	25.8429
766.595	22.2544
769.487	40.0672
772.38	22.7207
775.273	9.77643
778.165	16.9966
781.058	2.11783
783.951	14.2396
786.843	10.4944
789.736	11.5629
792.629	1.6571
795.521	14.3214
798.414	1.74609
801.307	11.6567
804.2	6.82886
807.092	2.03055
809.985	2.72794
812.878	8.54248
815.77	4.66894
818.663	0.021942
821.556	0.559265
824.448	6.72003
827.341	12.2386
830.234	36.0909
833.127	36.5836
836.019	57.2989
838.912	70.4584
841.805	104.766
844.697	150.511
847.59	207.007
850.483	262.286
853.375	374.219
856.268	490.791
859.161	695.051
862.053	995.493
864.946	1350.57
867.839	1945.74
870.732	2919.52
873.624	4436.32
876.517	6546.19
879.41	9412.67
882.302	12120.3
885.195	12709.5
888.088	8930.26
890.981	4782.47
893.873	2592.05
896.766	1549.86
899.659	973.55
902.551	653.591
905.444	431.813
908.337	328.808
911.229	217.993
914.122	163.417
917.015	117.959
919.908	105.916
922.8	71.9875
925.693	40.5078
928.586	19.25
931.478	31.3471
934.371	6.80222
937.264	15.2371
940.156	7.08453
943.049	8.47507
945.942	6.98553
948.835	4.23514
951.727	0.516205
954.62	2.45654
957.513	6.65888
960.405	0.178329
963.298	1.65529
966.191	13.6528
969.083	5.6013
971.976	8.27173
974.869	14.5584
977.761	10.7797
980.654	6.30243
983.547	20.7601
986.439	10.4846
989.332	11.5825
992.225	14.0231
995.118	2.99008
998.01	8.15593
1000.9	1.12827
1003.8	5.02336
1006.69	6.34302
1009.58	18.344
1012.47	17.2169
1015.37	23.1966
1018.26	14.7242
1021.15	14.5987
1024.05	11.7922
1026.94	16.5015
1029.83	30.334
1032.72	28.9306
1035.62	33.9443
1038.51	27.434
1041.4	31.6991
1044.29	30.4063
1047.19	27.3122
1050.08	15.6181
1052.97	29.1837
1055.86	24.9281
1058.76	35.2527
1061.65	12.7634
1064.54	15.3308
1067.43	29.4295
1070.33	24.1466
1073.22	37.2217
1076.11	23.4632
1079.01	22.9494
1081.9	17.8793
1084.79	14.9024
1087.68	4.29575
1090.58	2.88957
1093.47	9.96661
1096.36	16.4857
1099.26	19.4696
1102.15	11.8101
1105.04	14.1093
1107.93	8.14127
1110.83	8.26561
1113.72	20.991
1116.61	3.8306
1119.5	0.085266
1122.4	4.59578
1125.29	11.5586
1128.18	9.52759
1131.07	19.3112
1133.97	0.936066
1136.86	5.46538
1139.75	8.83316
1142.64	10.4268
1145.54	2.1337
1148.43	9.16336
1151.32	2.15214
1154.22	0.664719
1157.11	5.38408
1160	1.20656
1162.89	16.9628
1165.79	3.63559
1168.68	3.67577
1171.57	1.138
1174.46	1.03696
1177.36	4.36917
1180.25	2.72476
1183.14	1.82193
1186.04	14.182
1188.93	4.60841
1191.82	6.39569
1194.71	17.5479
1197.61	8.40993
1200.5	6.35696
1203.39	8.89825
1206.29	13.591
1209.18	14.2357
1212.07	19.6587
1214.96	14.2957
1217.86	17.9962
1220.75	10.7335
1223.64	11.4426
1226.53	5.21339
1229.43	11.4625
1232.32	15.2767
1235.21	6.35857
1238.1	15.6968
1241	34.1558
1243.89	15.5164
1246.78	9.01355
1249.67	9.37169
1252.57	3.47774
1255.46	18.7418
1258.35	1.18704
1261.25	17.246
1264.14	4.26164
