Measurement: Raman, 532 nm, unoriented, Raman Data Processed
Mineral: Hubnerite
Rruff sample: R050556
Ideal chemistry: Mn^2+^WO_4_
Locality: Pasto Bueno, Ancash Department, Peru
Source: Dave Bunk Minerals
Description: Blackish brown bladed crystal associated with quartz
Measured chemistry: Mn^2+^_0.98_W_1.00_O_4_
Raman shift (cm-1)	intensity
136.434	0
139.809	10.9742
143.184	2.90193
146.559	8.21988
149.934	6.28368
153.308	0.726608
156.683	0.0205
160.058	0.581802
163.433	3.53078
166.808	0.197899
170.183	8.87843
173.557	13.0306
176.932	30.2778
180.307	51.7534
183.682	108.974
187.057	266.856
190.431	444.823
193.806	552.329
197.181	748.248
200.556	1057.85
203.931	1675.32
207.305	1660.61
210.68	636.891
214.055	229.585
217.43	97.651
220.805	48.1251
224.18	17.2918
227.554	7.86319
230.929	20.1541
234.304	9.58237
237.679	55.623
241.054	182.561
244.429	262.025
247.803	343.161
251.178	487.059
254.553	829.136
257.928	1263.07
261.303	610.945
264.678	151.602
268.052	47.3488
271.427	8.13536
274.802	1.58325
278.177	8.10538
281.552	1.64577
284.926	10.7254
288.301	18.0084
291.676	44.5878
295.051	77.0759
298.426	128.213
301.8	212.614
305.175	402.544
308.55	713.565
311.925	1104.7
315.3	1514.81
318.675	2079.39
322.049	2912.53
325.424	3359.17
328.799	2603.86
332.174	1521.76
335.549	854.464
338.923	482.416
342.298	280.199
345.673	171.827
349.048	103.485
352.423	58.727
355.798	33.0472
359.173	15.7223
362.547	1.01633
365.922	1.80582
369.297	0.880753
372.672	19.1748
376.047	60.8638
379.421	213.301
382.796	443.968
386.171	617.139
389.546	886.074
392.921	1475.23
396.296	2184.51
399.67	1591.81
403.045	587.161
406.42	266.607
409.795	138.901
413.17	79.0218
416.544	51.7309
419.919	33.3747
423.294	19.7556
426.669	10.6877
430.044	5.18416
433.418	3.22106
436.793	0.942833
440.168	3.15786
443.543	1.47213
446.918	0.685028
450.293	3.13862
453.667	0.589973
457.042	2.02414
460.417	0.53479
463.792	0.06591
467.167	4.25612
470.541	2.27054
473.916	0.548477
477.291	2.3857
480.666	0.12146
484.041	8.14007
487.416	2.94144
490.791	10.0746
494.165	7.69034
497.54	14.8837
500.915	18.4268
504.29	18.4322
507.665	28.7852
511.039	36.3653
514.414	42.7276
517.789	71.2855
521.164	102.558
524.539	158.478
527.913	241.177
531.288	356.967
534.663	487.091
538.038	634.452
541.413	751.215
544.788	733.058
548.162	571.663
551.537	373.077
554.912	232.649
558.287	153.076
561.662	98.1206
565.037	65.4316
568.411	37.3264
571.786	27.9498
575.161	15.9498
578.536	12.6474
581.911	3.57968
585.285	4.14967
588.66	2.15924
592.035	2.09614
595.41	0.174263
598.785	5.89957
602.159	6.30661
605.534	8.93587
608.909	4.0832
612.284	12.1702
615.659	6.18897
619.034	1.93772
622.409	3.28776
625.783	0.270149
629.158	3.9005
632.533	1.68814
635.908	5.14381
639.283	2.1409
642.657	6.39195
646.032	12.9157
649.407	23.8397
652.782	39.8353
656.157	66.3522
659.532	85.4157
662.906	120.003
666.281	171.005
669.656	251.679
673.031	356.705
676.406	547.661
679.78	863.524
683.155	1392.86
686.53	2077.28
689.905	2929.47
693.28	3889.64
696.654	4373.16
700.029	3655.2
703.404	2326.18
706.779	1362.29
710.154	854.27
713.529	574.416
716.904	410.122
720.278	309.533
723.653	230.594
727.028	192.17
730.403	146.631
733.778	118.339
737.152	99.9157
740.527	80.5509
743.902	63.7052
747.277	56.0009
750.652	43.6576
754.027	36.3117
757.401	25.3353
760.776	15.0213
764.151	10.3954
767.526	7.99649
770.901	8.11908
774.275	4.50171
777.65	6.24155
781.025	2.28326
784.4	0.755005
787.775	1.83273
791.149	1.90965
794.524	7.33098
797.899	10.8416
801.274	9.68486
804.649	9.16122
808.024	3.52942
811.399	1.81583
814.773	2.75482
818.148	12.8703
821.523	21.1929
824.898	37.3435
828.273	55.1573
831.647	94.8256
835.022	127.994
838.397	195.962
841.772	282.39
845.147	416.581
848.521	613.728
851.896	862.14
855.271	1209.02
858.646	1693.33
862.021	2420.69
865.396	3680.42
868.77	6210.71
872.145	11017.6
875.52	16877.5
878.895	25342.9
882.27	36009.9
885.644	34226.3
889.019	17221.9
892.394	7784.98
895.769	4054.13
899.144	2357.63
902.519	1450
905.894	952.618
909.268	649.223
912.643	454.563
916.018	316.358
919.393	223.82
922.768	145.352
926.142	101.769
929.517	59.9535
932.892	27.7063
936.267	26.3396
939.642	10.4621
943.016	3.2132
946.391	1.64786
949.766	2.56753
953.141	2.56827
956.516	5.19168
959.891	10.8336
963.265	9.65042
966.64	5.54222
970.015	7.37834
973.39	2.92371
976.765	1.00156
980.139	12.328
983.514	7.67618
986.889	7.46162
990.264	4.45512
993.639	0.562683
997.014	0.691238
1000.39	2.1696
1003.76	7.10179
1007.14	13.078
1010.51	18.7174
1013.89	25.3886
1017.26	27.0598
1020.64	27.5768
1024.01	29.5012
1027.39	33.9871
1030.76	30.7707
1034.14	37.308
1037.51	40.2314
1040.89	47.1499
1044.26	49.5042
1047.64	54.5236
1051.01	54.1777
1054.39	52.1255
1057.76	48.9206
1061.13	46.025
1064.51	43.5426
1067.88	48.3063
1071.26	47.0342
1074.63	51.0768
1078.01	48.074
1081.38	46.3504
1084.76	44.7269
1088.13	35.4564
1091.51	36.5694
1094.88	31.237
1098.26	25.1134
1101.63	27.9517
1105.01	16.4947
1108.38	17.1132
1111.76	23.2885
1115.13	40.679
1118.51	16.197
1121.88	19.6378
1125.26	14.6105
1128.63	10.4722
1132.01	4.95857
1135.38	3.59175
1138.76	4.64297
1142.13	0.620495
1145.51	0.073032
1148.88	2.19502
1152.26	3.82593
1155.63	0.908566
1159.01	1.24916
1162.38	5.18996
1165.76	3.31668
1169.13	3.30679
1172.5	6.38834
1175.88	5.6932
1179.25	1.12498
1182.63	1.80027
1186	4.65279
1189.38	0.07436
1192.75	0.830105
1196.13	0.729702
1199.5	1.26913
1202.88	0.922012
1206.25	4.861
1209.63	0.827038
1213	0.374832
1216.38	2.97836
1219.75	4.16643
1223.13	3.039
1226.5	3.37683
1229.88	3.32313
1233.25	7.88064
1236.63	1.7834
1240	9.30467
1243.38	5.79023
1246.75	6.50779
1250.12	9.61889
1253.5	4.72044
1256.88	3.11557
1260.25	5.56284
1263.62	6.26717
1267	12.8105
1270.37	11.4354
1273.75	12.3341
1277.12	20.1442
1280.5	16.9131
1283.87	15.3736
1287.25	9.59668
1290.62	10.6915
1294	10.8799
1297.37	6.39114
1300.75	2.26594
