Measurement: Raman, 780 nm, unoriented, Raman Data Processed
Mineral: Hulsite
Rruff sample: R130016
Ideal chemistry: Fe^2+^_2_Fe^3+^O_2_(BO_3_)
Locality: Brooks Mountain, Seward Peninsula, Nome Borough, Alaska, USA
Source: Robert Lavinsky
Description: Blocky black crystals, associated with diopside, dolomite, pale yellow vesuvianite, and nordenski√∂ldine, R130017
Raman shift (cm-1)	intensity
111.931	0
115.305	1.79161
118.68	0.412613
122.055	2.09384
125.43	0.124542
128.805	1.51675
132.179	0.219955
135.554	1.47163
138.929	5.39652
142.304	4.87167
145.679	7.38069
149.054	6.42287
152.428	3.87499
155.803	1.7808
159.178	1.66131
162.553	0.425423
165.928	0.181557
169.302	1.84634
172.677	5.20209
176.052	9.74152
179.427	14.8478
182.802	18.3102
186.177	23.3012
189.551	27.8338
192.926	31.4677
196.301	35.9265
199.676	38.9579
203.051	43.0481
206.425	45.0224
209.8	46.1604
213.175	44.5271
216.55	41.3915
219.925	35.6423
223.299	31.4345
226.674	26.1608
230.049	23.3027
233.424	19.6981
236.799	18.8223
240.173	16.4918
243.548	13.9929
246.923	13.7967
250.298	9.41231
253.673	8.69382
257.048	5.66911
260.422	6.18634
263.797	4.75104
267.172	4.508
270.547	2.66332
273.922	2.0023
277.296	2.25793
280.671	1.38002
284.046	1.59478
287.421	0.732033
290.796	1.18795
294.171	0.678314
297.545	0.751518
300.92	0.33989
304.295	0.222687
307.67	0.00396
311.045	0.208771
314.42	0.48526
317.794	0.365417
321.169	0.127319
324.544	0.131115
327.919	0.308498
331.293	0.208317
334.668	0.405182
338.043	0.287357
341.418	0.288368
344.793	0.357357
348.168	0.4701
351.542	0.346951
354.917	1.49471
358.292	1.3453
361.667	1.19082
365.042	2.3307
368.416	1.41643
371.791	1.39556
375.166	1.14872
378.541	1.02276
381.916	1.15783
385.291	1.58341
388.665	1.54059
392.04	1.1913
395.415	0.328182
398.79	0.968361
402.165	0.142223
405.539	1.17246
408.914	1.12854
412.289	0.404846
415.664	0.439911
419.039	0.791199
422.413	0.467735
425.788	1.47649
429.163	0.892342
432.538	1.50136
435.913	1.02252
439.288	0.832069
442.662	1.91756
446.037	2.27611
449.412	1.99636
452.787	2.5817
456.162	2.38117
459.536	2.40561
462.911	2.2315
466.286	1.08553
469.661	1.14182
473.036	1.18819
476.411	0.338848
479.785	0.606602
483.16	0.171741
486.535	0.767914
489.91	0.770786
493.285	1.38469
496.659	2.04888
500.034	1.38002
503.409	1.453
506.784	0.40509
510.159	1.56896
513.534	0.984009
516.908	0.754238
520.283	0.53072
523.658	1.26776
527.033	0.490757
530.408	1.32228
533.782	0.269058
537.157	0.664772
540.532	0.145264
543.907	0.51251
547.282	0.130157
550.656	0.241447
554.031	0.186293
557.406	0.275183
560.781	0.915125
564.156	0.299212
567.53	0.368814
570.905	0.845751
574.28	0.982063
577.655	0.017328
581.03	1.00882
584.405	0.439972
587.779	1.22476
591.154	0.338974
594.529	0.344507
597.904	0.919521
601.279	0.917414
604.654	1.09375
608.028	0.964684
611.403	1.0045
614.778	0.287926
618.153	0.665201
621.528	1.04162
624.902	0.152197
628.277	0.448359
631.652	0.704121
635.027	0.724571
638.402	0.70899
641.776	0.488279
645.151	1.15704
648.526	0.867844
651.901	0.372059
655.276	0.444931
658.65	1.19588
662.025	0.828329
665.4	0.210358
668.775	0.241259
672.15	0.867731
675.525	0.484686
678.899	0.120571
682.274	0.55587
685.649	0.421207
689.024	0.034697
692.399	0.392859
695.774	0.158691
699.148	0.264578
702.523	0.438261
705.898	0.140265
709.273	0.593019
712.648	0.035257
716.022	0.217768
719.397	0.36702
722.772	0.63751
726.147	0.343781
729.522	0.55883
732.896	0.616497
736.271	0.139269
739.646	0.660231
743.021	0.918354
746.396	0.306072
749.77	0.823547
753.145	0.489262
756.52	0.5142
759.895	0.103491
763.27	0.293959
766.645	0.894936
770.019	0.937698
773.394	0.521122
776.769	0.929407
780.144	0.221909
783.519	1.29109
786.894	0.790073
790.268	0.584335
793.643	0.247854
797.018	0.149942
800.393	0.069757
803.768	0.59066
807.142	0.47365
810.517	0.532068
813.892	0.639082
817.267	0.17174
820.642	1.0614
824.016	0.129795
827.391	0.077873
830.766	0.760887
834.141	0.768913
837.516	0.562824
840.89	1.1062
844.265	0.526766
847.64	0.894728
851.015	0.764305
854.39	1.2175
857.765	0.385931
861.139	0.183666
864.514	0.467875
867.889	0.85972
871.264	0.288152
874.639	0.86726
878.013	0.245251
881.388	0.828303
884.763	0.050333
888.138	0.552045
891.513	0.25823
894.888	0.222584
898.262	0.061033
901.637	0.495911
905.012	0.920146
908.387	0.518883
911.762	1.1857
915.136	0.684418
918.511	0.4637
921.886	0.98308
925.261	0.518587
928.636	0.173687
932.01	0.462048
935.385	1.01106
938.76	0.995361
942.135	0.506284
945.51	0.692617
948.885	0.72433
952.259	0.376324
955.634	0.508803
959.009	0.712996
962.384	0.640042
965.759	0.634394
969.133	0.559641
972.508	0.321918
975.883	0.532166
979.258	0.516342
982.633	0.712635
986.008	0.0361
989.382	0.22079
992.757	0.914642
996.132	0.280657
999.507	0.349656
1002.88	0.04821
1006.26	0.925854
1009.63	0.13618
1013.01	0.192487
1016.38	0.547456
1019.76	0.233336
1023.13	0.751084
1026.51	0.815079
1029.88	0.872807
1033.26	0.494257
1036.63	0.298041
1040.01	0.265623
1043.38	0.703621
1046.75	0.255176
1050.13	1.24529
1053.5	0.921645
1056.88	0.740685
1060.25	0.858532
1063.63	0.434262
1067	0.684369
1070.38	0.719513
1073.75	0.56147
1077.13	0.230001
1080.5	0.334324
1083.88	0.249159
1087.25	0.537349
1090.63	0.296913
1094	0.799801
1097.38	0.461039
1100.75	0.883416
1104.13	0.339404
1107.5	0.669381
1110.88	0.205538
1114.25	0.082356
1117.62	0.139471
1121	0.224011
1124.38	0.466084
1127.75	0.804349
1131.12	0.472497
1134.5	0.046634
1137.87	0.69241
1141.25	0.52937
1144.62	0.356377
1148	0.798102
1151.37	0.818458
1154.75	0.041686
1158.12	0.595278
1161.5	0.696375
1164.87	0.014635
1168.25	0.63903
1171.62	0.528935
1175	0.64642
1178.37	0.525842
1181.75	0.563582
1185.12	0.921896
1188.5	0.74108
1191.87	1.03804
1195.25	0.587113
1198.62	0.755492
1202	0.218844
1205.37	0.493176
1208.74	0.959919
1212.12	0.544543
1215.49	0.363414
1218.87	0.810799
1222.24	0.636914
1225.62	0.532726
1228.99	0.513885
1232.37	0.271259
1235.74	0.216903
1239.12	0.254103
1242.49	0.667969
1245.87	0.060562
1249.24	0.493917
1252.62	0.818642
1255.99	0.817926
1259.37	0.484192
1262.74	1.41635
1266.12	0.466063
1269.49	0.378702
1272.87	0.188279
1276.24	0.616407
1279.62	0.021058
1282.99	0.178538
