Measurement: Raman, 532 nm, unoriented, Raman Data Processed
Mineral: Hulsite
Rruff sample: R130016
Ideal chemistry: Fe^2+^_2_Fe^3+^O_2_(BO_3_)
Locality: Brooks Mountain, Seward Peninsula, Nome Borough, Alaska, USA
Source: Robert Lavinsky
Description: Blocky black crystals, associated with diopside, dolomite, pale yellow vesuvianite, and nordenski√∂ldine, R130017
Raman shift (cm-1)	intensity
154.929	0
157.822	0.004379
160.715	2.85353
163.608	1.50128
166.5	4.45332
169.393	1.33567
172.286	0.116268
175.178	0.287052
178.071	2.46238
180.964	9.51976
183.857	12.9303
186.749	18.7215
189.642	25.2607
192.535	33.3581
195.427	46.9807
198.32	53.3925
201.213	59.6874
204.105	63.6245
206.998	66.5076
209.891	71.0209
212.784	69.3783
215.676	68.2373
218.569	63.4928
221.462	57.2728
224.354	49.8742
227.247	42.4717
230.14	34.9724
233.032	30.6407
235.925	25.4857
238.818	23.372
241.71	20.8502
244.603	17.2659
247.496	15.0015
250.389	12.6973
253.281	11.015
256.174	7.87517
259.067	7.16601
261.959	5.73957
264.852	3.62783
267.745	4.12719
270.637	3.07186
273.53	2.51242
276.423	2.41444
279.316	2.2816
282.208	2.05113
285.101	2.05888
287.994	0.942356
290.886	1.06769
293.779	1.12394
296.672	0.161942
299.565	0.405216
302.457	0.352852
305.35	0.285044
308.243	0.4491
311.135	0.546629
314.028	0.236179
316.921	0.364557
319.813	0.122595
322.706	0.076908
325.599	0.612635
328.491	0.64246
331.384	0.094522
334.277	0.195045
337.17	0.062494
340.062	0.304613
342.955	0.171993
345.848	0.10984
348.74	1.05117
351.633	0.403105
354.526	0.281193
357.418	0.688665
360.311	0.242619
363.204	0.700712
366.097	0.373156
368.989	1.18748
371.882	0.724154
374.775	1.21655
377.667	0.355818
380.56	1.53458
383.453	2.35595
386.346	2.04832
389.238	3.34168
392.131	4.05444
395.024	2.57936
397.916	5.08437
400.809	4.91814
403.702	5.1987
406.594	5.21472
409.487	4.95476
412.38	4.29405
415.272	3.7025
418.165	3.17916
421.058	2.41029
423.951	3.18394
426.843	2.85348
429.736	2.63375
432.629	3.47866
435.521	4.10639
438.414	4.42849
441.307	5.22943
444.2	6.35143
447.092	6.88884
449.985	7.26619
452.878	7.66369
455.77	7.58964
458.663	6.66036
461.556	5.2002
464.448	3.45867
467.341	2.12892
470.234	1.20437
473.127	0.934568
476.019	0.000605
478.912	0.303661
481.805	0.216549
484.697	0.614468
487.59	1.24276
490.483	1.43679
493.375	1.74208
496.268	2.97012
499.161	3.83382
502.053	5.04249
504.946	5.15396
507.839	4.2696
510.732	4.94611
513.624	4.62025
516.517	3.47116
519.41	4.38979
522.302	3.01917
525.195	3.27717
528.088	1.54134
530.981	1.9529
533.873	1.17886
536.766	0.810558
539.659	0.661581
542.551	0.504185
545.444	0.800726
548.337	0.603752
551.229	0.083136
554.122	0.121996
557.015	0.466791
559.908	0.083651
562.8	0.031275
565.693	0.183386
568.586	0.030151
571.478	0.52235
574.371	0.115671
577.264	0.292885
580.156	0.225384
583.049	0.418547
585.942	0.44133
588.835	1.08628
591.727	0.750937
594.62	0.742768
597.513	0.598575
600.405	2.03636
603.298	1.13908
606.191	1.42714
609.083	1.4313
611.976	0.874042
614.869	1.3795
617.761	1.64132
620.654	1.78781
623.547	1.71908
626.44	1.61858
629.332	2.11928
632.225	1.54286
635.118	1.86434
638.01	2.23424
640.903	2.0759
643.796	1.9958
646.688	2.89408
649.581	1.76991
652.474	1.3859
655.367	2.16331
658.259	1.96606
661.152	2.05276
664.045	2.03603
666.937	2.56911
669.83	1.48291
672.723	1.534
675.615	1.43225
678.508	0.975548
681.401	0.962536
684.294	1.05589
687.186	0.397634
690.079	0.595119
692.972	0.050001
695.864	0.399897
698.757	0.491878
701.65	0.49972
704.543	0.081137
707.435	0.632975
710.328	0.214609
713.221	0.224303
716.113	0.205919
719.006	0.525631
721.899	0.521042
724.791	0.252037
727.684	0.341887
730.577	0.504091
733.47	0.177574
736.362	0.476814
739.255	0.58573
742.148	0.460765
745.04	0.409985
747.933	0.553395
750.826	0.100673
753.718	0.384
756.611	0.294788
759.504	0.785172
762.396	0.286145
765.289	0.275233
768.182	0.341504
771.075	0.431218
773.967	0.724328
776.86	0.711598
779.753	0.164342
782.645	0.238477
785.538	0.093955
788.431	0.59582
791.323	0.552039
794.216	0.476939
797.109	0.438147
800.002	0.763259
802.894	0.065331
805.787	0.099966
808.68	0.72766
811.572	0.620763
814.465	0.459708
817.358	0.766454
820.25	0.134125
823.143	0.097964
826.036	0.384343
828.929	0.036427
831.821	0.873313
834.714	0.192465
837.607	0.486143
840.499	0.747353
843.392	0.286557
846.285	0.694728
849.178	0.429963
852.07	1.03682
854.963	0.756805
857.856	0.55636
860.748	1.34013
863.641	0.713531
866.534	0.393188
869.426	0.633871
872.319	0.866445
875.212	0.222715
878.105	0.098154
880.997	0.596698
883.89	0.204142
886.783	0.532597
889.675	0.252848
892.568	0.401439
895.461	0.063128
898.353	0.072203
901.246	0.235787
904.139	0.238416
907.032	0.286437
909.924	0.846044
912.817	0.687134
915.71	0.021042
918.602	0.445571
921.495	0.643808
924.388	0.678111
927.28	0.341875
930.173	1.11714
933.066	0.491159
935.958	0.880546
938.851	0.817522
941.744	1.0012
944.637	1.53556
947.529	1.52825
950.422	0.875414
953.315	0.471744
956.207	0.535828
959.1	1.09457
961.993	0.660833
964.885	0.146338
967.778	0.514983
970.671	0.542043
973.564	0.45321
976.456	0.746098
979.349	0.229287
982.242	0.084983
985.134	0.67399
988.027	0.796658
990.92	0.247445
993.812	0.337374
996.705	0.132346
999.598	0.164028
1002.49	0.827492
1005.38	0.684862
1008.28	0.184896
1011.17	0.661398
1014.06	0.16739
1016.95	0.556293
1019.85	0.123277
1022.74	0.668867
1025.63	0.520638
1028.53	0.606201
1031.42	0.530408
1034.31	0.43821
1037.2	0.523638
1040.1	0.462269
1042.99	0.182566
1045.88	1.72309
1048.77	0.846644
1051.67	0.449029
1054.56	0.798647
1057.45	0.574428
1060.35	0.170795
1063.24	0.460223
1066.13	0.754314
1069.02	1.20804
1071.91	0.834583
1074.81	0.461321
1077.7	0.675537
1080.59	0.443344
1083.49	0.487497
1086.38	0.43391
1089.27	0.28982
1092.16	0.461292
1095.06	0.758236
1097.95	0.025934
1100.84	0.619145
1103.73	0.740164
1106.63	0.569245
1109.52	0.360086
1112.41	0.654205
1115.31	0.548746
1118.2	0.339609
1121.09	0.875636
1123.98	0.647939
1126.88	0.23437
1129.77	0.219934
1132.66	0.413062
1135.56	0.42373
1138.45	0.425541
1141.34	0.148667
1144.23	0.354263
1147.13	0.089364
1150.02	0.229346
1152.91	0.447417
1155.8	0.697453
1158.7	0.118162
1161.59	0.427196
1164.48	0.54563
1167.38	0.736453
1170.27	0.121207
1173.16	0.466537
1176.05	0.747042
1178.94	0.693237
1181.84	0.24547
1184.73	0.320132
1187.62	0.628588
1190.52	0.359155
1193.41	0.303403
1196.3	0.528902
1199.19	0.439789
1202.09	0.784104
1204.98	1.08216
1207.87	1.06213
1210.77	0.422121
1213.66	0.994514
1216.55	0.456415
1219.44	0.328815
1222.34	0.460004
1225.23	0.747546
1228.12	0.626574
1231.01	0.12544
1233.91	1.13724
1236.8	0.624579
1239.69	0.597683
1242.59	0.933746
1245.48	0.419107
1248.37	0.44391
1251.26	0.69033
1254.16	1.19033
1257.05	0.357101
1259.94	0.510094
1262.83	0.215896
1265.73	0.332935
1268.62	0.169811
1271.51	0.343145
1274.4	0.770457
1277.3	0.671569
1280.19	0.912065
1283.08	0.336245
1285.97	0.249745
1288.87	0.48627
1291.76	0.472225
1294.65	0.813926
1297.55	0.065373
1300.44	0.599147
