Measurement: Raman, 785 nm, unoriented, Raman Data Processed
Mineral: Humberstonite
Rruff sample: R060718
Ideal chemistry: K_3_Na_7_Mg_2_(SO_4_)_6_(NO_3_)_2_6H_2_O
Locality: Officina Alemania, Antofagasta Province, Chile
Source: Bob Jenkins
Description: Mass of colorless grains
Raman shift (cm-1)	intensity
122.492	0
125.384	24.6853
128.277	69.7213
131.17	103.937
134.062	78.5523
136.955	55.4085
139.848	14.1498
142.741	24.4366
145.633	99.3932
148.526	189.29
151.419	180.38
154.311	140.993
157.204	102.806
160.097	128.503
162.99	161.542
165.882	208.881
168.775	234.493
171.668	296.95
174.56	355.734
177.453	428.842
180.346	519.531
183.238	602.261
186.131	590.157
189.024	534.738
191.917	422.334
194.809	346.637
197.702	273.05
200.595	217.612
203.487	190.492
206.38	203.031
209.273	189.096
212.165	277.78
215.058	296.882
217.951	312.048
220.844	237.842
223.736	168.144
226.629	105.719
229.522	37.6196
232.414	21.6237
235.307	7.87704
238.2	2.61377
241.092	17.4608
243.985	9.30051
246.878	34.0511
249.77	49.6185
252.663	67.9794
255.556	69.1399
258.449	93.0132
261.341	93.5315
264.234	102.429
267.127	115.365
270.019	123.714
272.912	137.736
275.805	113.419
278.698	72.8988
281.59	35.8487
284.483	8.37207
287.376	2.10977
290.268	15.1166
293.161	11.7367
296.054	15.1912
298.946	2.41074
301.839	3.54217
304.732	2.69989
307.625	20.9764
310.517	27.9622
313.41	12.5561
316.303	14.3749
319.195	19.8592
322.088	24.7926
324.981	28.3195
327.873	29.3436
330.766	25.8036
333.659	31.2639
336.552	22.336
339.444	13.1744
342.337	31.5956
345.23	27.4274
348.122	23.8901
351.015	13.603
353.908	15.2309
356.8	12.8413
359.693	13.4314
362.586	0.221985
365.478	12.1559
368.371	6.14981
371.264	7.04182
374.157	7.03038
377.049	9.12047
379.942	6.75949
382.835	4.41977
385.727	0.164703
388.62	0.306396
391.513	10.2511
394.405	19.8174
397.298	15.8635
400.191	33.8725
403.084	29.761
405.976	38.3462
408.869	38.2334
411.762	48.1481
414.654	25.8517
417.547	37.8723
420.44	25.3146
423.332	25.5158
426.225	16.7283
429.118	23.892
432.011	33.4058
434.903	39.3105
437.796	62.3117
440.689	121.153
443.581	226.669
446.474	373.403
449.367	575.18
452.259	758.4
455.152	946.101
458.045	1057.07
460.938	920.358
463.83	694.851
466.723	523.977
469.616	367.626
472.508	303.019
475.401	237.683
478.294	214.932
481.186	198.366
484.079	124.691
486.972	96.0377
489.865	49.1551
492.757	27.8606
495.65	9.78186
498.543	6.12079
501.435	1.76471
504.328	11.671
507.221	8.71256
510.114	5.51727
513.006	7.19403
515.899	10.1297
518.792	11.227
521.684	24.2099
524.577	36.3988
527.47	45.2506
530.362	46.4094
533.255	34.0024
536.148	52.6336
539.041	41.1911
541.933	49.0598
544.826	36.4276
547.719	19.3105
550.611	17.9519
553.504	5.48505
556.397	5.74243
559.289	6.67639
562.182	10.9962
565.075	7.41806
567.968	5.28796
570.86	2.25574
573.753	7.66894
576.646	13.7211
579.538	20.3246
582.431	31.1682
585.324	46.2701
588.216	48.5643
591.109	63.4539
594.002	75.6034
596.895	108.882
599.787	127.197
602.68	219.545
605.573	301.345
608.465	409.6
611.358	493.936
614.251	431.69
617.143	383.981
620.036	443.339
622.929	523.455
625.822	709.685
628.714	1065.97
631.607	1454.48
634.5	1094.82
637.392	538.532
640.285	314.306
643.178	254.689
646.07	217.117
648.963	169.705
651.856	109.029
654.749	80.9299
657.641	62.54
660.534	40.5752
663.427	18.2045
666.319	13.9506
669.212	7.56067
672.105	3.16815
674.997	2.45833
677.89	2.933
680.783	6.89247
683.676	0.72052
686.568	2.28928
689.461	7.062
692.354	13.3581
695.246	10.7136
698.139	1.84018
701.032	3.26372
703.924	14.1578
706.817	25.808
709.71	41.264
712.603	88.1127
715.495	235.335
718.388	510.044
721.281	852.931
724.173	750.121
727.066	249.345
729.959	70.0575
732.852	31.4798
735.744	23.3993
738.637	11.8624
741.53	9.23428
744.422	14.4205
747.315	7.72498
750.208	3.87196
753.1	3.99341
755.993	0.686234
758.886	1.67494
761.779	6.87756
764.671	0.93483
767.564	1.80722
770.457	9.84558
773.349	6.56476
776.242	6.7388
779.135	2.63475
782.027	0.085312
784.92	0.696136
787.813	2.12665
790.706	9.57968
793.598	9.19482
796.491	8.81865
799.384	2.50603
802.276	3.52386
805.169	10.6455
808.062	3.26566
810.954	15.7138
813.847	14.1708
816.74	16.2312
819.633	9.08107
822.525	20.4375
825.418	10.5572
828.311	33.6533
831.203	19.1527
834.096	19.4614
836.989	14.0799
839.881	11.5198
842.774	17.7681
845.667	7.83966
848.56	13.5512
851.452	9.43132
854.345	4.41908
857.238	11.6599
860.13	21.4314
863.023	13.7148
865.916	17.9022
868.808	5.46474
871.701	0.105728
874.594	5.69385
877.487	1.53471
880.379	2.95555
883.272	2.79881
886.165	16.9464
889.057	8.53952
891.95	15.9542
894.843	14.4424
897.735	24.4095
900.628	19.5962
903.521	17.978
906.414	17.2988
909.306	16.3315
912.199	23.2869
915.092	7.29747
917.984	21.1269
920.877	6.73985
923.77	14.4262
926.662	12.5263
929.555	6.66518
932.448	21.0614
935.341	9.5641
938.233	7.4823
941.126	6.8855
944.019	2.07674
946.911	5.84175
949.804	5.36008
952.697	5.95023
955.589	0.085907
958.482	8.59259
961.375	1.89709
964.268	13.0994
967.16	8.52557
970.053	12.0921
972.946	30.1586
975.838	27.808
978.731	57.304
981.624	121.072
984.516	182.545
987.409	196.303
990.302	228.002
993.195	294.949
996.087	484.39
998.98	1094.89
1001.87	2253.51
1004.76	3985.37
1007.66	5018.23
1010.55	5265.06
1013.44	5403.05
1016.34	4786.49
1019.23	2367.69
1022.12	837.513
1025.01	367.64
1027.91	239.524
1030.8	134.602
1033.69	85.2558
1036.59	123.082
1039.48	329.708
1042.37	1399.35
1045.26	4021.86
1048.16	7608.88
1051.05	2936.14
1053.94	430.818
1056.83	175.896
1059.73	121.686
1062.62	245.287
1065.51	557.691
1068.4	706.528
1071.3	45.1834
1074.19	9.1492
1077.08	21.3064
1079.98	41.1126
1082.87	58.262
1085.76	32.2184
1088.65	20.3343
1091.55	6.65875
1094.44	15.3572
1097.33	3.06586
1100.22	6.60532
1103.12	5.06586
1106.01	15.1497
1108.9	2.16165
1111.8	0.975677
1114.69	0.346863
1117.58	26.5926
1120.47	46.8898
1123.37	56.105
1126.26	85.981
1129.15	67.8266
1132.04	42.275
1134.94	53.5331
1137.83	47.95
1140.72	64.197
1143.62	78.1661
1146.51	103.22
1149.4	113.142
1152.29	109.267
1155.19	98.5
1158.08	114.849
1160.97	139.437
1163.86	164.708
1166.76	173.28
1169.65	187.049
1172.54	191.148
1175.43	177.252
1178.33	116.594
1181.22	95.463
1184.11	80.8725
1187.01	78.6355
1189.9	124.199
1192.79	160.677
1195.68	170.824
1198.58	146.777
1201.47	107.019
1204.36	49.1638
1207.25	17.0502
1210.15	14.1145
1213.04	0.880569
1215.93	7.08517
1218.83	1.65999
1221.72	2.91472
1224.61	6.92175
1227.5	10.8029
1230.4	20.8452
1233.29	21.0392
1236.18	6.81454
1239.07	15.7571
1241.97	6.561
1244.86	7.13011
1247.75	4.56845
1250.64	13.3611
1253.54	13.4357
1256.43	5.50786
1259.32	18.0749
1262.22	17.2558
1265.11	0.089935
