Measurement: Raman, 532 nm, unoriented, Raman Data Processed
Mineral: Humberstonite
Rruff sample: R060718
Ideal chemistry: K_3_Na_7_Mg_2_(SO_4_)_6_(NO_3_)_2_6H_2_O
Locality: Officina Alemania, Antofagasta Province, Chile
Source: Bob Jenkins
Description: Mass of colorless grains
Raman shift (cm-1)	intensity
123.933	0
127.308	156.9
130.683	109.32
134.058	8.82471
137.433	108.447
140.807	108.693
144.182	65.7602
147.557	92.8835
150.932	59.5596
154.307	70.1785
157.682	168.798
161.056	357.151
164.431	507.583
167.806	680.26
171.181	914.562
174.555	1229.39
177.93	1642.44
181.305	2020.29
184.68	2108
188.055	2001.09
191.43	1660.95
194.804	1276.47
198.179	974.922
201.554	799.172
204.929	775.732
208.304	790.242
211.678	896.473
215.053	985.729
218.428	950.89
221.803	739.979
225.178	430.487
228.553	333.908
231.927	197.728
235.302	110.936
238.677	100.119
242.052	148.338
245.427	217.941
248.801	285.425
252.176	308.551
255.551	375.707
258.926	347.447
262.301	434.071
265.676	443.434
269.05	439.099
272.425	364.829
275.8	316.252
279.175	183.893
282.55	90.2869
285.924	62.0447
289.299	11.6108
292.674	35.2754
296.049	36.8955
299.424	23.052
302.798	28.5708
306.173	46.3955
309.548	62.9585
312.923	60.3777
316.298	23.5911
319.672	42.7207
323.047	102.721
326.422	64.4004
329.797	57.2734
333.172	65.3726
336.547	61.9585
339.921	44.3848
343.296	57.1523
346.671	2.89404
350.046	41.7685
353.421	32.6309
356.796	31.8931
360.17	14.0095
363.545	27.8091
366.92	0.263428
370.295	31.4753
373.67	21.0679
377.044	2.16553
380.419	16.8501
383.794	7.03735
387.169	47.4421
390.544	68.4036
393.918	89.9846
397.293	90.0466
400.668	156.037
404.043	152.667
407.418	176.418
410.793	204.942
414.167	197.146
417.542	153.285
420.917	142.227
424.292	135.52
427.667	137.641
431.041	174.924
434.416	262.198
437.791	403.817
441.166	638.43
444.541	1197.87
447.915	1980.67
451.29	2844.35
454.665	3445.58
458.04	3792.7
461.415	2954.17
464.79	2137.18
468.164	1440.68
471.539	1000.43
474.914	840.13
478.289	666.655
481.664	517.982
485.039	344.349
488.413	192.658
491.788	83.6113
495.163	39.8227
498.538	10.791
501.913	3.15625
505.287	9.70312
508.662	8.21924
512.037	52.5776
515.412	60.6562
518.787	161.12
522.161	167.77
525.536	210.189
528.911	191.812
532.286	197.883
535.661	176.375
539.036	157.348
542.41	202.737
545.785	134.023
549.16	108.829
552.535	25.583
555.909	28.1997
559.284	55.2036
562.659	42.689
566.034	19.1855
569.409	3.35547
572.784	13.6606
576.158	65.7925
579.533	90.7656
582.908	137.31
586.283	227.582
589.658	291.742
593.032	356.423
596.407	519.678
599.782	675.487
603.157	962.767
606.532	1400.63
609.907	1790.9
613.281	1757.81
616.656	1710.85
620.031	2098.55
623.406	2557.56
626.781	3340.75
630.156	4671.9
633.53	4414.47
636.905	1985.36
640.28	1122.33
643.655	847.768
647.029	643.181
650.404	496.468
653.779	289.225
657.154	168.084
660.529	135.982
663.904	33.6943
667.278	37.7344
670.653	62.5493
674.028	13.6738
677.403	29.273
680.778	18.0801
684.153	25.2583
687.527	10.5762
690.902	31.0786
694.277	14.688
697.652	42.6611
701.027	62.0649
704.401	91.6235
707.776	218.024
711.151	484.545
714.526	950.969
717.901	1739.14
721.276	2943.19
724.65	2124.33
728.025	459.964
731.4	162.284
734.775	120.847
738.149	29.4463
741.524	40.773
744.899	49.563
748.274	45.1167
751.649	6.98926
755.024	55.0269
758.398	43.3667
761.773	19.9907
765.148	1.38672
768.523	19.3638
771.898	27.5186
775.273	15.9395
778.647	4.32666
782.022	8.82275
785.397	9.73975
788.772	46.8906
792.146	28.6392
795.521	85.251
798.896	36.6172
802.271	76.9356
805.646	59.3667
809.021	63.0142
812.395	46.8677
815.77	73.5312
819.145	67.2163
822.52	89.9922
825.895	107.543
829.269	97.918
832.644	77.6851
836.019	52.1406
839.394	56.2236
842.769	50.564
846.144	30.7314
849.518	63.9951
852.893	45.2017
856.268	28.4458
859.643	13.5801
863.018	29.7676
866.393	15.8472
869.767	7.25732
873.142	30.7583
876.517	3.89014
879.892	57.6108
883.266	48.9795
886.641	75.6694
890.016	85.6846
893.391	134.975
896.766	138.581
900.141	136.408
903.515	113.012
906.89	77.5503
910.265	54.0205
913.64	48.4273
917.015	79.7485
920.39	86.7012
923.764	75.1577
927.139	50.2749
930.514	51.6484
933.889	66.8042
937.264	93.6724
940.638	24.604
944.013	15.2031
947.388	20.6299
950.763	17.2583
954.138	20.3032
957.513	14.2725
960.887	16.8501
964.262	9.71729
967.637	43.7578
971.012	2.2832
974.386	120.64
977.761	281.519
981.136	493.478
984.511	793.492
987.886	1013.16
991.261	1495.9
994.635	2741.39
998.01	5324.11
1001.38	10029.4
1004.76	16755.2
1008.13	19828.5
1011.51	19468.8
1014.88	18146.7
1018.26	10193.6
1021.63	3144.6
1025.01	1363.89
1028.38	834.438
1031.76	559.14
1035.13	1383.33
1038.51	4238.33
1041.88	8492.78
1045.26	17288.7
1048.63	29931.5
1052.01	5211.96
1055.38	1450.96
1058.76	1663.09
1062.13	2228.52
1065.51	3462.89
1068.88	2551.55
1072.26	51.6133
1075.63	37.2573
1079.01	118.123
1082.38	204.189
1085.76	118.352
1089.13	105.157
1092.51	23.7109
1095.88	2.93897
1099.26	4.50293
1102.63	55.1558
1106	55.0835
1109.38	17.9917
1112.75	12.8648
1116.13	164.747
1119.5	254.253
1122.88	406.192
1126.25	492.527
1129.63	454.935
1133	388.183
1136.38	393.33
1139.75	508.195
1143.13	500.449
1146.5	686.108
1149.88	706.905
1153.25	748.34
1156.63	859.376
1160	916.186
1163.38	1035.65
1166.75	1121.42
1170.13	1089.02
1173.5	1129.07
1176.88	875.787
1180.25	702.596
1183.62	615.65
1187	706.084
1190.38	911.438
1193.75	1028.01
1197.12	978.374
1200.5	632.419
1203.87	340.817
1207.25	116.946
1210.62	50.0952
1214	17.918
1217.37	10.5254
1220.75	11.2319
1224.12	2.78125
1227.5	4.00684
1230.87	42.4102
1234.25	31.0171
1237.62	21.7827
1241	64.1182
1244.37	91.2788
1247.75	63.75
1251.12	82.3667
1254.5	27.8428
1257.87	103.67
1261.25	57.8159
1264.62	24.3227
1267.99	41.606
1271.37	128.254
1274.74	115.516
1278.12	67.394
1281.49	8.6206
1284.87	5.24902
1288.24	2.28369
1291.62	35.1812
