Measurement: Raman, 532 nm, unoriented, Raman Data Processed
Mineral: Humite
Rruff sample: R050665
Ideal chemistry: Mg_7_(SiO_4_)_3_(F,OH)_2_
Locality: Tilly Foster mine, Brewster, Putnam County, New York, USA
Source: University of Arizona Mineral Museum
Description: Granular aggregate of reddish-orange crystals
Measured chemistry: (Mg_0.91_Fe^2+^_0.09_)_7_(Si_1.00_O_4_)_3_(F_0.56_(OH)_0.44_)_2_
Raman shift (cm-1)	intensity
142.332	0
145.707	0.107143
149.082	2.01763
152.457	6.20444
155.832	4.56523
159.207	3.61134
162.581	2.73266
165.956	0.168503
169.331	1.17772
172.706	2.61525
176.081	3.4798
179.455	4.54037
182.83	5.80391
186.205	7.348
189.58	9.21242
192.955	10.5397
196.329	8.30033
199.704	6.18883
203.079	4.30618
206.454	1.82353
209.829	1.49918
213.204	0.754089
216.578	2.02613
219.953	2.60075
223.328	1.79529
226.703	0.376217
230.078	0.012131
233.452	0.260056
236.827	0.028801
240.202	0.190952
243.577	0.377026
246.952	0.775558
250.327	0.660618
253.701	2.50103
257.076	2.70455
260.451	3.4756
263.826	3.1637
267.201	2.82599
270.576	1.70128
273.95	3.38763
277.325	4.06374
280.7	2.54163
284.075	1.95429
287.45	1.64618
290.825	1.4415
294.199	1.05632
297.574	0.768589
300.949	0.288673
304.324	0.216312
307.699	0.241211
311.073	0.345203
314.448	1.7744
317.823	1.90591
321.198	1.41898
324.573	1.25856
327.947	1.58726
331.322	1.72035
334.697	1.65337
338.072	2.90752
341.447	3.45567
344.822	5.64133
348.196	6.49872
351.571	8.46835
354.946	7.02796
358.321	6.2126
361.696	5.29342
365.071	4.63811
368.445	4.97163
371.82	6.25212
375.195	7.36341
378.57	7.79134
381.945	10.5184
385.32	10.3177
388.694	8.83919
392.069	6.29968
395.444	2.43872
398.819	0.304886
402.194	1.23934
405.568	0.633595
408.943	0.394062
412.318	2.01077
415.693	2.6169
419.068	3.50322
422.442	4.56743
425.817	2.99897
429.192	2.91964
432.567	0.759354
435.942	0.294697
439.317	0.63781
442.691	1.56021
446.066	2.54522
449.441	3.35487
452.816	4.44252
456.191	4.42299
459.566	5.34398
462.94	4.54994
466.315	4.53261
469.69	4.84835
473.065	6.09367
476.44	5.94051
479.815	8.1844
483.189	8.17257
486.564	8.66205
489.939	8.06203
493.314	6.11668
496.689	6.89835
500.063	5.32489
503.438	3.62517
506.813	3.93188
510.188	3.12242
513.563	4.71349
516.938	7.86776
520.312	12.1585
523.687	16.8751
527.062	20.8305
530.437	24.3578
533.812	23.8071
537.187	19.7287
540.561	15.3945
543.936	11.8209
547.311	7.81318
550.686	3.09334
554.061	0.528915
557.435	1.40998
560.81	1.46915
564.185	0.84444
567.56	2.17555
570.935	6.14789
574.309	8.41809
577.684	12.2752
581.059	15.3575
584.434	15.3201
587.809	12.4084
591.184	11.2505
594.558	13.167
597.933	16.4395
601.308	19.3585
604.683	18.7402
608.058	15.2558
611.433	10.5805
614.807	7.68079
618.182	5.27523
621.557	4.51324
624.932	2.70898
628.307	1.60751
631.682	0.118576
635.056	0.051716
638.431	0.310024
641.806	0.45779
645.181	0.168732
648.556	0.223824
651.93	0.481369
655.305	0.550117
658.68	0.107037
662.055	0.081478
665.43	0.341877
668.804	0.46349
672.179	0.296959
675.554	0.053837
678.929	0.673172
682.304	0.100468
685.679	0.289967
689.053	0.450062
692.428	1.29215
695.803	3.10182
699.178	4.4299
702.553	7.33811
705.928	10.0113
709.302	14.9991
712.677	19.795
716.052	25.2992
719.427	31.8934
722.802	39.7493
726.177	48.5516
729.551	61.0374
732.926	73.6679
736.301	90.8528
739.676	110.017
743.051	134.86
746.425	161.686
749.8	177.608
753.175	178.607
756.55	162.423
759.925	134.155
763.299	102.207
766.674	74.4606
770.049	55.7306
773.424	46.9645
776.799	44.8897
780.174	42.5029
783.548	34.9915
786.923	20.7053
790.298	8.26586
793.673	1.85869
797.048	2.3085
800.423	2.88293
803.797	0.109047
807.172	4.42939
810.547	14.3669
813.922	29.4969
817.297	56.0817
820.671	101.047
824.046	167.257
827.421	250.895
830.796	358.005
834.171	450.36
837.545	468.331
840.92	451.326
844.295	407.122
847.67	315.354
851.045	261.196
854.42	250.643
857.794	265.687
861.169	271.505
864.544	229.058
867.919	157.781
871.294	103.281
874.669	70.7191
878.043	48.1256
881.418	29.6024
884.793	17.0903
888.168	9.52245
891.543	5.17207
894.918	3.6335
898.292	1.43138
901.667	1.69369
905.042	2.45366
908.417	0.658493
911.792	2.18776
915.166	6.13808
918.541	11.6753
921.916	18.3046
925.291	26.8137
928.666	41.5105
932.04	53.7517
935.415	38.6933
938.79	18.5393
942.165	11.5405
945.54	11.9743
948.915	16.4799
952.289	26.2411
955.664	36.7899
959.039	45.0753
962.414	54.23
965.789	50.7278
969.164	29.6001
972.538	14.2441
975.913	6.40759
979.288	3.10431
982.663	0.051407
986.038	0.325981
989.413	0.117382
992.787	0.380852
996.162	0.512657
999.537	2.72428
1002.91	1.6455
1006.29	2.53084
1009.66	3.08446
1013.04	2.61317
1016.41	3.01756
1019.79	3.00027
1023.16	2.3488
1026.54	2.10356
1029.91	1.82639
1033.29	1.67665
1036.66	2.5807
1040.04	2.33549
1043.41	1.51923
1046.78	0.852161
1050.16	0.467937
1053.53	0.440632
1056.91	0.578686
1060.28	0.707169
1063.66	0.457329
1067.03	0.173088
1070.41	0.379196
1073.78	0.536777
1077.16	0.732662
1080.53	0.740276
1083.91	0.365387
1087.28	0.033955
1090.66	1.55505
1094.03	1.43574
1097.41	1.39183
1100.78	1.32108
1104.16	1.87352
1107.53	2.05107
1110.91	1.95478
1114.28	1.76597
1117.66	1.61511
1121.03	1.48776
1124.4	1.49587
1127.78	1.50459
1131.15	0.946678
1134.53	1.74255
1137.9	0.834461
1141.28	0.723976
1144.65	0.322369
1148.03	0.810822
1151.4	0.944965
1154.78	0.426079
1158.15	0.091862
1161.53	0.33918
1164.9	0.460281
1168.28	0.372868
1171.65	0.319317
1175.03	0.059898
1178.4	0.456623
1181.78	0.443462
1185.15	0.982925
1188.53	1.12813
1191.9	0.825638
1195.28	1.35472
1198.65	2.3074
1202.03	2.30647
1205.4	2.16413
1208.78	3.0348
1212.15	3.45998
1215.53	2.64008
1218.9	3.18985
1222.28	3.42773
1225.65	3.68858
1229.03	3.12678
1232.4	4.4555
1235.77	3.6085
1239.15	3.28589
1242.52	3.90688
1245.9	3.61608
1249.27	2.67113
1252.65	3.42806
1256.02	3.51491
1259.4	3.21091
1262.77	2.68924
1266.15	2.91987
1269.52	2.45359
1272.9	2.56208
1276.27	2.48503
1279.65	2.77888
1283.02	2.33295
1286.4	2.34854
1289.77	1.50484
1293.15	1.2301
1296.52	0.196472
1299.9	0.313599
