Measurement: Raman, 785 nm, unoriented, Raman Data Processed
Mineral: Humite
Rruff sample: R040071
Ideal chemistry: Mg_7_(SiO_4_)_3_(F,OH)_2_
Locality: Tilly Foster mine, Brewster, Putnam County, New York, USA
Source: University of Arizona Mineral Museum
Description: Red crystals
Measured chemistry: (Mg_0.91_Fe_0.09_)_7_(Si_0.99_Ti_0.01_O_4_)_3_(F_0.76_(OH)_0.24_)_2_
Raman shift (cm-1)	intensity
152.003	0
154.895	93.3648
157.788	43.2659
160.681	121.318
163.573	123.969
166.466	61.3329
169.359	111.848
172.252	74.7976
175.144	92.9128
178.037	51.5293
180.93	5.07715
183.822	11.6317
186.715	69.0823
189.608	42.8491
192.5	137.49
195.393	192.18
198.286	142.938
201.179	72.9045
204.071	83.6305
206.964	73.5294
209.857	62.6161
212.749	76.3232
215.642	97.3635
218.535	163.597
221.428	172.712
224.32	220.437
227.213	185.628
230.106	238.87
232.998	204.729
235.891	191.858
238.784	175.576
241.676	163.075
244.569	203.098
247.462	174.242
250.355	110.342
253.247	135.448
256.14	64.2529
259.033	82.5527
261.925	29.1213
264.818	53.4438
267.711	21.9439
270.603	1.85877
273.496	22.4318
276.389	35.0422
279.281	15.546
282.174	31.8508
285.067	12.5566
287.96	14.5669
290.852	4.52661
293.745	29.4844
296.638	36.9683
299.53	36.3706
302.423	87.8221
305.316	145.361
308.209	143.101
311.101	175.338
313.994	185.672
316.887	257.568
319.779	218.741
322.672	228.534
325.565	245.948
328.457	219.238
331.35	207.879
334.243	177.045
337.135	153.878
340.028	152.07
342.921	147.915
345.814	183.486
348.706	142.56
351.599	113.628
354.492	106.014
357.384	107.291
360.277	54.8569
363.17	31.7533
366.062	34.1775
368.955	2.91406
371.848	2.20166
374.741	6.62256
377.633	62.172
380.526	101.018
383.419	134.449
386.311	146.863
389.204	109.849
392.097	50.2097
394.99	41.0196
397.882	13.1013
400.775	4.64539
403.668	1.12231
406.56	1.20398
409.453	29.059
412.346	58.2723
415.238	114.509
418.131	160.154
421.024	259.679
423.916	355.597
426.809	354.907
429.702	280.533
432.595	177.394
435.487	105.591
438.38	76.1887
441.273	111.42
444.165	135.31
447.058	130.555
449.951	130.747
452.844	102.938
455.736	108.961
458.629	106.726
461.522	86.4286
464.414	66.5614
467.307	63.8605
470.2	83.2316
473.092	35.4522
475.985	57.8154
478.878	34.1025
481.771	15.2489
484.663	29.4376
487.556	23.3107
490.449	14.4166
493.341	5.23682
496.234	11.3562
499.127	1.91724
502.019	9.72632
504.912	0.234375
507.805	25.7129
510.697	26.5902
513.59	22.4739
516.483	7.66406
519.376	27.5206
522.268	40.7329
525.161	36.564
528.054	69.5915
530.946	107.165
533.839	143.938
536.732	219.542
539.625	332.77
542.517	395.913
545.41	479.114
548.303	447.896
551.195	315.744
554.088	271.583
556.981	278.889
559.873	282.287
562.766	303.078
565.659	259.175
568.552	249.083
571.444	320.626
574.337	384.93
577.23	518.348
580.122	606.959
583.015	633.925
585.908	581.83
588.8	562.264
591.693	627.082
594.586	807.097
597.479	1025.89
600.371	1232.72
603.264	1332.75
606.157	1178.06
609.049	869.429
611.942	614.92
614.835	429.41
617.727	286.981
620.62	208.086
623.513	178.112
626.405	135.817
629.298	63.1299
632.191	69.7854
635.084	58.7778
637.976	37.0282
640.869	41.9719
643.762	59.3057
646.654	19.4371
649.547	29.0911
652.44	12.605
655.332	34.2405
658.225	0.502319
661.118	20.7496
664.011	14.8129
666.903	8.91815
669.796	14.8575
672.689	3.74603
675.581	4.50061
678.474	12.7183
681.367	2.67151
684.26	21.2759
687.152	3.00568
690.045	2.01135
692.938	3.1048
695.83	14.5495
698.723	7.80945
701.616	13.6846
704.508	16.6068
707.401	6.01599
710.294	5.96655
713.187	42.1327
716.079	54.0126
718.972	56.6672
721.865	74.2275
724.757	124.231
727.65	185.112
730.543	204.159
733.435	272.348
736.328	362.192
739.221	399.97
742.114	516.313
745.006	601.692
747.899	793.15
750.792	899.731
753.684	944.489
756.577	884.795
759.47	760.949
762.362	612.018
765.255	426.537
768.148	297.842
771.04	310.486
773.933	309.939
776.826	379.591
779.719	530.304
782.611	555.503
785.504	450.501
788.397	214.341
791.289	101.79
794.182	15.5271
797.075	45.3946
799.967	33.2059
802.86	32.8424
805.753	86.0352
808.646	245.843
811.538	372.17
814.431	598.736
817.324	990.006
820.216	1569.55
823.109	2563.39
826.002	4062.82
828.894	6414.06
831.787	9445.84
834.68	11786.7
837.573	11695.5
840.465	10841
843.358	9937.35
846.251	7511.4
849.143	5184.35
852.036	3999.44
854.929	3600.71
857.822	3889.39
860.714	4212.58
863.607	3889.41
866.5	2931.21
869.392	2103.99
872.285	1436.5
875.178	991.134
878.07	677.985
880.963	385.911
883.856	216.81
886.749	114.406
889.641	35.7616
892.534	23.6086
895.427	51.9076
898.319	49.6989
901.212	4.15649
904.105	69.1987
906.997	23.3015
909.89	65.3014
912.783	158.43
915.675	241.981
918.568	166.449
921.461	78.5726
924.354	75.8903
927.246	179.575
930.139	396.436
933.032	476.524
935.924	292.622
938.817	144.069
941.71	86.0316
944.602	109.294
947.495	154.28
950.388	241.986
953.28	344.519
956.173	406.622
959.066	615.464
961.959	895.405
964.851	1150.4
967.744	1013.07
970.637	643.75
973.529	372.815
976.422	242.699
979.315	166.535
982.207	70.1004
985.1	55.4272
987.993	20.3981
990.886	3.87219
993.778	6.3927
996.671	29.6227
999.564	30.3738
1002.46	4.51575
1005.35	8.47479
1008.24	8.49701
1011.13	10.5183
1014.03	18.974
1016.92	17.4004
1019.81	17.8945
1022.71	14.7905
1025.6	32.0576
1028.49	39.3633
1031.38	36.8273
1034.28	29.9677
1037.17	20.5432
1040.06	31.7311
1042.95	58.7065
1045.85	57.9175
1048.74	29.4566
1051.63	23.6168
1054.53	44.455
1057.42	29.3856
1060.31	9.21033
1063.2	15.6914
1066.1	34.0281
1068.99	14.7372
1071.88	20.9121
1074.77	6.96356
1077.67	19.5064
1080.56	22.8728
1083.45	6.45618
1086.35	7.56226
1089.24	27.0439
1092.13	17.9997
1095.02	29.1259
1097.92	17.2341
1100.81	32.3096
1103.7	22.0485
1106.59	29.3107
1109.49	12.5018
1112.38	10.396
1115.27	25.3894
1118.16	35.2682
1121.06	25.5952
1123.95	0.814697
1126.84	10.5173
1129.73	17.6517
1132.63	36.2965
1135.52	32.9789
1138.41	16.9456
1141.31	4.21625
1144.2	10.364
1147.09	20.1508
1149.98	12.6857
1152.88	11.6987
1155.77	17.7919
1158.66	16.9421
1161.56	11.4732
1164.45	20.1052
1167.34	22.0382
1170.23	16.2946
1173.13	11.103
1176.02	14.1688
1178.91	8.88879
1181.8	31.5252
1184.7	10.6383
1187.59	11.5991
1190.48	24.7725
1193.38	22.6547
1196.27	31.9959
1199.16	11.9048
1202.05	24.6776
1204.94	14.9389
1207.84	22.9346
1210.73	29.1878
1213.62	30.9716
1216.52	29.4318
1219.41	28.279
1222.3	58.6892
1225.19	18.037
1228.09	24.9617
1230.98	38.5863
1233.87	22.6261
1236.77	2.67773
1239.66	1.67584
1242.55	24.1814
1245.44	27.1237
1248.34	40.9384
1251.23	1.28955
1254.12	30.1635
1257.01	10.7495
1259.91	2.12341
