Measurement: Raman, 780 nm, unoriented, Raman Data Processed
Mineral: Humite
Rruff sample: R050665
Ideal chemistry: Mg_7_(SiO_4_)_3_(F,OH)_2_
Locality: Tilly Foster mine, Brewster, Putnam County, New York, USA
Source: University of Arizona Mineral Museum
Description: Granular aggregate of reddish-orange crystals
Measured chemistry: (Mg_0.91_Fe^2+^_0.09_)_7_(Si_1.00_O_4_)_3_(F_0.56_(OH)_0.44_)_2_
Raman shift (cm-1)	intensity
142.166	0
145.058	0.58744
147.951	1.09409
150.844	1.49834
153.736	2.84666
156.629	2.01224
159.522	0.67308
162.414	1.50855
165.307	2.47487
168.2	1.1723
171.093	1.47572
173.985	1.75008
176.878	1.53967
179.771	1.40252
182.663	1.93012
185.556	2.42078
188.449	4.07408
191.341	6.29564
194.234	6.78527
197.127	8.24635
200.019	5.62891
202.912	6.00386
205.805	2.97759
208.697	5.2591
211.59	7.35776
214.483	5.65653
217.376	6.20314
220.268	9.24192
223.161	9.9347
226.054	10.0546
228.946	9.34602
231.839	10.1289
234.732	9.62632
237.625	9.99008
240.517	10.6987
243.41	10.8622
246.303	12.154
249.195	8.01998
252.088	3.49197
254.981	3.96832
257.873	6.30796
260.766	2.40019
263.659	2.03638
266.551	1.05641
269.444	0.086349
272.337	0.675621
275.23	0.118591
278.122	0.238934
281.015	0.322777
283.908	0.16573
286.8	0.83633
289.693	0.342587
292.586	0.801125
295.478	1.00039
298.371	3.44444
301.264	5.46774
304.157	7.55153
307.049	6.38224
309.942	7.03656
312.835	5.11424
315.727	7.09007
318.62	7.10727
321.513	9.17483
324.406	8.29971
327.298	7.58416
330.191	7.07191
333.084	6.51115
335.976	7.79342
338.869	4.96421
341.762	5.32825
344.654	6.90039
347.547	6.89315
350.44	6.32191
353.332	4.90231
356.225	3.38206
359.118	2.81521
362.01	1.05225
364.903	2.50391
367.796	0.12566
370.689	1.92948
373.581	2.26732
376.474	2.34194
379.367	4.2001
382.259	6.4826
385.152	8.79097
388.045	7.76345
390.938	5.21012
393.83	3.55406
396.723	1.22769
399.616	1.26131
402.508	0.094276
405.401	0.680973
408.294	0.579353
411.186	0.428509
414.079	2.56376
416.972	4.43425
419.865	6.52036
422.757	8.63371
425.65	9.31243
428.543	5.915
431.435	5.3775
434.328	2.19769
437.221	1.24821
440.113	0.236397
443.006	2.66745
445.899	1.8854
448.791	2.75025
451.684	3.01313
454.577	3.52826
457.47	1.50788
460.362	2.69169
463.255	2.91964
466.148	2.11363
469.04	0.282986
471.933	1.58611
474.826	1.81888
477.719	1.2867
480.611	1.39732
483.504	0.923061
486.397	0.894455
489.289	1.56393
492.182	0.636925
495.075	0.192379
497.967	0.916729
500.86	0.091858
503.753	0.162254
506.645	0.91481
509.538	0.243267
512.431	0.279621
515.323	1.96421
518.216	0.065037
521.109	2.35207
524.002	3.27618
526.894	5.99048
529.787	7.51458
532.68	10.8824
535.572	11.5506
538.465	15.9753
541.358	19.3635
544.25	23.9596
547.143	23.1481
550.036	16.7158
552.929	12.4858
555.821	10.8918
558.714	13.2887
561.607	11.2134
564.499	11.016
567.392	11.1687
570.285	13.9969
573.178	15.9904
576.07	17.5291
578.963	22.0028
581.856	24.3343
584.748	24.7005
587.641	23.4721
590.534	23.5085
593.426	25.8583
596.319	31.1442
599.212	34.7756
602.105	38.3137
604.997	36.0083
607.89	29.093
610.783	20.7642
613.675	14.6209
616.568	8.70601
619.461	6.39374
622.353	5.60128
625.246	2.51514
628.139	2.49557
631.031	1.71048
633.924	0.849625
636.817	1.68397
639.71	0.356819
642.602	1.05329
645.495	0.950518
648.388	1.94457
651.28	0.268408
654.173	1.83169
657.066	1.61358
659.958	0.341072
662.851	2.39764
665.744	1.80757
668.636	1.01635
671.529	0.494169
674.422	1.80679
677.315	0.617153
680.207	0.184483
683.1	0.013687
685.993	0.793358
688.885	1.09939
691.778	0.05632
694.671	0.000996
697.563	0.811531
700.456	0.733864
703.349	0.969723
706.242	2.4906
709.134	0.066601
712.027	1.86247
714.92	1.80156
717.812	2.59316
720.705	3.30944
723.598	4.33762
726.49	4.80409
729.383	9.42377
732.276	9.97281
735.169	13.5198
738.061	13.2081
740.954	18.5027
743.847	23.277
746.739	27.759
749.632	32.0188
752.525	33.1159
755.418	32.7288
758.31	29.1807
761.203	22.8344
764.096	16.7829
766.988	15.7515
769.881	10.5599
772.774	9.87665
775.666	9.34105
778.559	10.3206
781.452	13.1163
784.345	12.5658
787.237	6.16498
790.13	1.52087
793.023	1.42527
795.915	1.75612
798.808	0.792076
801.701	1.05276
804.593	4.23149
807.486	9.94604
810.379	17.9124
813.271	27.5084
816.164	44.1071
819.057	71.839
821.949	112.456
824.842	161.512
827.735	230.604
830.628	323.495
833.52	418.555
836.413	448.395
839.306	415.438
842.198	386.94
845.091	323.521
847.984	230.59
850.876	173.76
853.769	146.987
856.662	144.236
859.555	151.495
862.447	147.769
865.34	122.73
868.233	89.146
871.125	60.8456
874.018	42.2854
876.911	29.9945
879.803	21.9102
882.696	13.5205
885.589	7.79256
888.482	4.17113
891.374	1.15698
894.267	2.10038
897.16	1.23062
900.052	0.026382
902.945	0.770809
905.838	1.35854
908.731	0.397041
911.623	1.57151
914.516	4.66715
917.409	6.53152
920.301	7.39522
923.194	8.23684
926.087	11.9115
928.979	20.407
931.872	31.3485
934.765	24.9064
937.658	15.0788
940.55	8.76251
943.443	8.19087
946.336	8.8282
949.228	12.6846
952.121	16.5276
955.014	19.7524
957.906	23.4131
960.799	34.8267
963.692	44.8364
966.584	43.0662
969.477	31.1209
972.37	18.9331
975.263	11.5501
978.155	6.11738
981.048	5.09291
983.941	2.46099
986.833	1.48435
989.726	2.93431
992.619	2.62704
995.511	0.762384
998.404	2.71932
1001.3	0.114567
1004.19	0.110432
1007.08	1.04229
1009.98	1.33322
1012.87	0.292277
1015.76	1.37856
1018.65	0.477999
1021.55	0.203672
1024.44	0.572561
1027.33	0.897532
1030.22	1.33732
1033.12	0.821844
1036.01	1.82181
1038.9	3.00445
1041.8	1.45003
1044.69	3.45763
1047.58	2.54333
1050.47	2.40182
1053.37	3.26458
1056.26	2.51796
1059.15	3.5063
1062.04	1.58457
1064.94	0.571386
1067.83	2.89701
1070.72	0.18112
1073.61	0.980585
1076.51	0.416203
1079.4	0.513386
1082.29	0.270378
1085.18	0.758411
1088.08	0.551168
1090.97	3.5905
1093.86	2.03813
1096.76	1.75914
1099.65	0.975597
1102.54	0.250088
1105.43	1.22738
1108.33	2.04351
1111.22	1.56379
1114.11	1.84492
1117.01	0.921545
1119.9	0.557287
1122.79	0.78039
1125.68	2.26896
1128.58	0.032713
1131.47	1.12461
1134.36	0.851175
1137.25	1.87997
1140.15	1.11989
1143.04	0.320173
1145.93	0.935646
1148.82	1.17015
1151.72	1.14227
1154.61	1.08009
1157.5	0.057489
1160.39	2.31989
1163.29	0.322939
1166.18	0.918617
1169.07	0.110468
1171.97	1.61661
1174.86	1.72076
1177.75	1.20785
1180.64	2.82598
1183.54	0.847477
1186.43	1.50505
1189.32	2.37065
1192.21	1.78926
1195.11	1.91941
1198	0.314024
1200.89	1.87251
1203.79	0.373537
1206.68	2.75563
1209.57	2.73863
1212.46	1.56807
1215.36	3.0161
1218.25	1.65863
1221.14	1.65349
1224.04	1.02201
1226.93	1.46571
1229.82	1.61216
1232.71	2.52317
1235.61	1.12496
1238.5	0.961456
1241.39	0.865776
1244.28	1.47317
1247.18	2.42064
1250.07	0.102161
1252.96	1.6355
1255.85	0.440495
1258.75	3.95667
1261.64	2.68852
1264.53	0.792637
1267.42	1.46152
1270.32	1.15909
1273.21	0.054127
1276.1	1.89809
1279	1.11925
1281.89	0.416628
1284.78	0.151144
