Measurement: Raman, 532 nm, unoriented, Raman Data Processed
Mineral: Humite
Rruff sample: R040071
Ideal chemistry: Mg_7_(SiO_4_)_3_(F,OH)_2_
Locality: Tilly Foster mine, Brewster, Putnam County, New York, USA
Source: University of Arizona Mineral Museum
Description: Red crystals
Measured chemistry: (Mg_0.91_Fe_0.09_)_7_(Si_0.99_Ti_0.01_O_4_)_3_(F_0.76_(OH)_0.24_)_2_
Raman shift (cm-1)	intensity
144.706	0
147.599	22.2434
150.492	46.0586
153.384	104.842
156.277	42.3025
159.17	38.4929
162.062	99.9141
164.955	178.256
167.848	0.790283
170.74	20.958
173.633	7.42065
176.526	4.63745
179.418	30.8096
182.311	42.2881
185.204	76.2307
188.097	149.525
190.989	219.231
193.882	242.748
196.775	201.784
199.667	146.142
202.56	109.404
205.453	77.3887
208.345	83.5984
211.238	23.7827
214.131	19.5325
217.024	39.1899
219.916	34.4497
222.809	27.4988
225.702	105.48
228.594	74.0396
231.487	158.156
234.38	106.415
237.272	134.264
240.165	129.202
243.058	140.629
245.951	133.504
248.843	143.044
251.736	135.236
254.629	115.729
257.521	116.865
260.414	105.298
263.307	49.9607
266.199	40.3259
269.092	67.6343
271.985	60.8428
274.877	80.0674
277.77	82.7314
280.663	111.256
283.556	75.9675
286.448	29.1968
289.341	8.06714
292.234	16.9297
295.126	18.4971
298.019	10.8394
300.912	54.6645
303.805	75.385
306.697	117.273
309.59	232.355
312.483	300.88
315.375	357
318.268	402.018
321.161	466.546
324.053	410.165
326.946	324.712
329.839	284.787
332.731	251.09
335.624	220.665
338.517	242.746
341.41	268.354
344.302	356.74
347.195	404.112
350.088	402.304
352.98	401.962
355.873	392.823
358.766	351.783
361.659	336.688
364.551	300.534
367.444	218.44
370.337	258.276
373.229	204.43
376.122	249.211
379.015	218.738
381.907	255.54
384.8	298.635
387.693	235.905
390.586	164.076
393.478	65.5432
396.371	27.1916
399.264	3.05981
402.156	82.063
405.049	1.13452
407.942	42.6948
410.834	128.855
413.727	233.211
416.62	343.426
419.512	497.492
422.405	611.609
425.298	703.99
428.191	590.264
431.083	472.327
433.976	310.594
436.869	184.613
439.761	259.231
442.654	237.832
445.547	300.612
448.44	292.416
451.332	281.985
454.225	237.49
457.118	212.822
460.01	114.162
462.903	65.6987
465.796	49.1792
468.688	107.115
471.581	45.3413
474.474	118.806
477.366	133.481
480.259	159.755
483.152	237.798
486.045	208.14
488.937	228.004
491.83	145.387
494.723	182.312
497.615	157.953
500.508	137.036
503.401	122.613
506.293	0.741699
509.186	5.66894
512.079	64.9565
514.971	60.8081
517.864	158.987
520.757	326.828
523.65	530.637
526.542	641.785
529.435	844.981
532.328	821.726
535.22	747.395
538.113	604.587
541.006	505.03
543.899	457.036
546.791	359.037
549.684	225.013
552.577	166.424
555.469	227.988
558.362	218.158
561.255	277.142
564.147	252.883
567.04	193.229
569.933	228.567
572.826	426.823
575.718	597.605
578.611	708.326
581.504	938.631
584.396	953.561
587.289	947.415
590.182	1087.42
593.074	1401.68
595.967	1727.05
598.86	2146.72
601.753	2399
604.645	2252.08
607.538	1819.38
610.431	1279.29
613.323	934.688
616.216	684.373
619.109	556.609
622.001	385.605
624.894	318.234
627.787	255.339
630.679	235.003
633.572	78.4778
636.465	34.5337
639.357	11.4373
642.25	11.4648
645.143	17.4912
648.036	26.3618
650.928	33.0901
653.821	1.14551
656.714	33.0547
659.606	26.4082
662.499	16.3677
665.392	7.40576
668.284	22.0376
671.177	6.4751
674.07	13.3086
676.963	8.48291
679.855	7.69141
682.748	4.68555
685.641	29.2866
688.533	29.875
691.426	35.605
694.319	82.9604
697.212	147.589
700.104	229.88
702.997	294.966
705.89	431.49
708.782	535.609
711.675	698.28
714.568	851.977
717.46	1126.24
720.353	1389.15
723.246	1739.49
726.139	2142.25
729.031	2527.77
731.924	2934.05
734.817	3371.91
737.709	3938.05
740.602	4639.4
743.495	5617.77
746.388	6697.2
749.28	7482.36
752.173	7762.8
755.066	7505.97
757.958	6656.86
760.851	5599.01
763.744	4397
766.636	3352.18
769.529	2652.37
772.422	2308.98
775.314	2201.4
778.207	2361.95
781.1	2382.28
783.992	1943.25
786.885	1259.38
789.778	653.062
792.671	286.666
795.563	35.8188
798.456	121.471
801.349	170.546
804.241	19.9014
807.134	126.336
810.027	416.636
812.919	892.319
815.812	1606.31
818.705	2845.72
821.598	4817.21
824.49	7595.7
827.383	11368.7
830.276	15946
833.168	20331
836.061	21703.7
838.954	20313.2
841.846	19195.1
844.739	16319
847.632	11920.4
850.525	9326.52
853.417	8364.54
856.31	8699.71
859.203	9667.5
862.095	9159.22
864.988	7574.95
867.881	5451.56
870.774	3809.12
873.666	2568.81
876.559	1690.02
879.452	1047.38
882.344	589.343
885.237	303.899
888.13	139.804
891.022	3.36084
893.915	8.44092
896.808	41.2559
899.7	37.6728
902.593	62.8115
905.486	16.1553
908.379	160.831
911.271	542.388
914.164	844.752
917.057	854.009
919.949	466.241
922.842	292.039
925.735	284.022
928.627	556.648
931.52	810.281
934.413	599.244
937.306	114.361
940.198	1.65186
943.091	32.6133
945.984	54.9336
948.876	269.119
951.769	473.877
954.662	639.22
957.554	871.466
960.447	1240.56
963.34	1697.61
966.232	1685.99
969.125	1257.39
972.018	785.823
974.911	494.537
977.803	203.487
980.696	186.586
983.589	52.9238
986.481	18.689
989.374	11.8032
992.267	53.2144
995.159	130.519
998.052	121.948
1000.95	169.736
1003.84	187.741
1006.73	189.873
1009.62	216.956
1012.52	240.679
1015.41	240.165
1018.3	166.11
1021.19	219.812
1024.09	236.77
1026.98	191.669
1029.87	182.63
1032.77	114.158
1035.66	104.574
1038.55	129.323
1041.44	162.569
1044.34	110.853
1047.23	89.5791
1050.12	16.4058
1053.01	68.7671
1055.91	0.30127
1058.8	49.439
1061.69	24.7988
1064.58	11.4683
1067.48	40.645
1070.37	14.5537
1073.26	6.57519
1076.15	44.9653
1079.05	4.95361
1081.94	98.7539
1084.83	29.1992
1087.73	5.08447
1090.62	98.312
1093.51	119.947
1096.4	107.915
1099.3	106.297
1102.19	122.114
1105.08	78.4072
1107.97	153.294
1110.87	118.294
1113.76	193.034
1116.65	191.214
1119.55	149.48
1122.44	116.459
1125.33	100.841
1128.22	85.3584
1131.12	57.356
1134.01	134.378
1136.9	119.337
1139.79	130.788
1142.69	100.948
1145.58	68.1167
1148.47	50.4092
1151.37	38.251
1154.26	51.3467
1157.15	69.3008
1160.04	32.3442
1162.94	45.061
1165.83	16.6811
1168.72	15.8911
1171.61	12.6396
1174.51	30.9468
1177.4	50.1841
1180.29	33.0288
1183.18	32.9746
1186.08	85.4429
1188.97	22.3467
1191.86	43.6982
1194.76	67.1699
1197.65	55.5005
1200.54	25.5938
1203.43	102.874
1206.33	106.811
1209.22	137.066
1212.11	120.254
1215.01	104.273
1217.9	95.856
1220.79	67.6728
1223.68	118.129
1226.58	112.576
1229.47	193.464
1232.36	176.06
1235.25	131.164
1238.15	116.564
1241.04	67.4736
1243.93	108.356
1246.82	121.586
1249.72	72.0991
1252.61	44.54
1255.5	169.194
1258.39	32.248
1261.29	28.7246
1264.18	22.3867
1267.07	62.3613
1269.97	40.8467
1272.86	47.7607
1275.75	40.9395
1278.64	27.8281
