Measurement: Raman, 532 nm, unoriented, Raman Data Processed
Mineral: Hummerite
Rruff sample: R070450
Ideal chemistry: KMgV^5+^_5_O_14_8H_2_O
Locality: Hummer mine, Jo Dandy mine (Paradox D; Hummer; C; Blackburn; Yellow Bird No. 1; Oversight; Broker), Paradox Valley, Uravan District, Montrose County, Colorado, USA
Source: Michael Scott
Description: Bright orange coarse grains, some showing tabular crystal forms
Raman shift (cm-1)	intensity
135.459	0
138.352	23.8123
141.245	324.578
144.137	660.887
147.03	897.723
149.923	683.611
152.815	339.406
155.708	266.86
158.601	454.587
161.494	778.276
164.386	1176.17
167.279	1734.05
170.172	2629.09
173.064	3816.97
175.957	5292.95
178.85	6948.08
181.743	8010.3
184.635	8201.74
187.528	7698.75
190.421	6445.05
193.313	4509.51
196.206	2884.2
199.099	1702.99
201.991	963.311
204.884	603.66
207.777	337.014
210.669	132.002
213.562	104.082
216.455	47.4902
219.348	117.849
222.24	135.102
225.133	385.007
228.026	637.29
230.918	1014.62
233.811	1326.75
236.704	1509.72
239.596	1664.46
242.489	1828.24
245.382	2010.73
248.275	2268.17
251.167	2399.89
254.06	2294.67
256.953	1945.84
259.846	1493.54
262.738	1020.4
265.631	688.177
268.524	383.247
271.416	177.198
274.309	22.1914
277.202	9.47217
280.094	35.0698
282.987	97.1011
285.88	60.4658
288.772	49.2822
291.665	150.273
294.558	284.772
297.451	627.243
300.343	1035.48
303.236	1690.76
306.129	2532.23
309.021	3464.52
311.914	4376.4
314.807	5033.29
317.7	4936.96
320.592	4232.38
323.485	3363.24
326.378	2508.04
329.27	1920.99
332.163	1440.16
335.056	1013.74
337.948	704.663
340.841	492.601
343.734	282.989
346.627	167.229
349.519	117.952
352.412	121.543
355.305	139.469
358.197	135.178
361.09	144.846
363.983	205.574
366.875	189.906
369.768	228.201
372.661	163.832
375.553	135.148
378.446	107.89
381.339	7.56787
384.232	27.6352
387.124	13.5059
390.017	19.0176
392.91	75.3023
395.802	141.03
398.695	121.858
401.588	200.938
404.481	308.209
407.373	326.347
410.266	416.446
413.159	506.213
416.051	587.886
418.944	736.341
421.837	785.686
424.729	980.178
427.622	998.492
430.515	1117.79
433.408	1166.79
436.3	1274.22
439.193	1357.1
442.086	1364.37
444.978	1239.65
447.871	1177.29
450.764	1033.7
453.656	876.392
456.549	688.831
459.442	502.524
462.334	366.638
465.227	269.722
468.12	148.48
471.013	35.5732
473.905	46.9395
476.798	2.34082
479.691	107.381
482.584	54.0913
485.476	62.7002
488.369	61.4893
491.262	21.5132
494.154	45.8125
497.047	32.4702
499.94	142.373
502.832	168.823
505.725	189.596
508.618	168.5
511.51	221.841
514.403	247.991
517.296	347.912
520.189	411.661
523.081	383.92
525.974	448.484
528.867	463.198
531.759	436.965
534.652	422.63
537.545	353.091
540.438	324.417
543.33	392.156
546.223	413.987
549.116	548.337
552.008	607.13
554.901	775.314
557.794	993.303
560.686	1144.2
563.579	1342.41
566.472	1545.46
569.365	1795.44
572.257	2088.36
575.15	2457.88
578.043	2788.29
580.935	3083.02
583.828	3333.06
586.721	3469.62
589.613	3524.76
592.506	3385.45
595.399	3213.2
598.292	2921.01
601.184	2525.92
604.077	2135.03
606.97	1727.21
609.862	1526.95
612.755	1182.61
615.648	958.529
618.54	832.408
621.433	625.027
624.326	528.49
627.218	388.602
630.111	316.929
633.004	316.54
635.897	238.547
638.789	130.42
641.682	151.623
644.575	116.57
647.467	61.0063
650.36	5.52686
653.253	89.0898
656.145	6.03125
659.038	30.3555
661.931	52.4482
664.824	4.354
667.716	27.2944
670.609	12.7251
673.502	27.0352
676.394	33.686
679.287	23.1514
682.18	27.4316
685.073	15.9224
687.965	13.6846
690.858	25.9297
693.751	38.3574
696.643	30.4023
699.536	45.4502
702.429	8.29639
705.322	24.7734
708.214	21.5342
711.107	44.311
714	63.2334
716.892	12.7778
719.785	47.1768
722.678	42.1626
725.57	2.27539
728.463	57.1719
731.356	89.2139
734.249	143.735
737.141	171.672
740.034	166.519
742.927	208.442
745.819	262.107
748.712	267.834
751.605	299.599
754.497	332.127
757.39	364.168
760.283	340.991
763.176	370.625
766.068	345.522
768.961	267.777
771.854	336.461
774.746	367.123
777.639	409.476
780.532	471.984
783.424	483.668
786.317	543.773
789.21	733.691
792.102	882.12
794.995	970.887
797.888	1234.46
800.781	1592.68
803.673	1694.46
806.566	1827.56
809.459	2016.69
812.351	2149.62
815.244	2186.22
818.137	2313.99
821.029	2484.62
823.922	2550.53
826.815	2772.42
829.708	2787.91
832.6	2680.9
835.493	2271.43
838.386	1891.08
841.278	1434.9
844.171	1091.81
847.064	752.016
849.957	532.1
852.849	365.743
855.742	313.207
858.635	190.372
861.527	145.184
864.42	91.2109
867.313	47.8735
870.205	71.4853
873.098	9.65918
875.991	11.8213
878.884	11.1855
881.776	4.61523
884.669	3.28125
887.562	33.8208
890.454	12.269
893.347	39.124
896.24	26.7275
899.132	29.8413
902.025	45.1221
904.918	21.2769
907.811	11.7139
910.703	65.6372
913.596	32.1812
916.489	115.261
919.381	152.531
922.274	93.3472
925.167	210.629
928.059	222.197
930.952	434.068
933.845	521.559
936.737	666.856
939.63	884.954
942.523	1101.04
945.416	1330.52
948.308	1886.75
951.201	2773.57
954.094	3973.95
956.986	5319.78
959.879	5981.14
962.772	4813.47
965.665	2739.28
968.557	1598.06
971.45	1029.25
974.343	821.103
977.235	786.546
980.128	875.324
983.021	1274.7
985.913	2230.47
988.806	3908.2
991.699	6083.73
994.592	8524.78
997.484	8838.88
1000.38	4875.8
1003.27	2052.86
1006.16	911.627
1009.05	518.714
1011.95	288.309
1014.84	186.966
1017.73	172.789
1020.63	130.205
1023.52	34.3789
1026.41	5.82324
1029.3	6.0835
1032.2	25.7378
1035.09	67.3403
1037.98	9.20947
1040.88	2.21533
1043.77	38.7168
1046.66	12.561
1049.55	39.1855
1052.45	27.229
1055.34	49.9282
1058.23	16.9009
1061.12	20.1987
1064.02	28.71
1066.91	24.8765
1069.8	20.6553
1072.69	33.376
1075.59	25.7285
1078.48	35.6807
1081.37	61.2002
1084.27	52.5478
1087.16	100.425
1090.05	75.0205
1092.94	64.4927
1095.84	32.7329
1098.73	92.4463
1101.62	47.2168
1104.51	54.5977
1107.41	51.5483
1110.3	48.2617
1113.19	26.5151
1116.09	39.4546
1118.98	51.7524
1121.87	30.7935
1124.76	76.6523
1127.66	63.2105
1130.55	50.6914
1133.44	122.937
1136.33	29.5083
1139.23	45.8096
1142.12	73.1045
1145.01	52.2568
1147.9	10.7754
1150.8	63.4453
1153.69	119.808
1156.58	66.6201
1159.48	33.0073
1162.37	63.3237
1165.26	62.6152
1168.15	55.0234
1171.05	100.566
1173.94	123.865
1176.83	87.6631
1179.72	87.7798
1182.62	67.6821
1185.51	68.3208
1188.4	81.2324
1191.3	0.551758
1194.19	33.7798
1197.08	92.6401
1199.97	80.9536
1202.87	39.7192
1205.76	95.2319
1208.65	84.2451
1211.54	6.56348
1214.44	37.9145
1217.33	25.0986
1220.22	54.957
1223.12	22.084
1226.01	17.8267
1228.9	16.6997
1231.79	20.085
