Measurement: Raman, 785 nm, unoriented, Raman Data Processed
Mineral: Hummerite
Rruff sample: R070450
Ideal chemistry: KMgV^5+^_5_O_14_8H_2_O
Locality: Hummer mine, Jo Dandy mine (Paradox D; Hummer; C; Blackburn; Yellow Bird No. 1; Oversight; Broker), Paradox Valley, Uravan District, Montrose County, Colorado, USA
Source: Michael Scott
Description: Bright orange coarse grains, some showing tabular crystal forms
Raman shift (cm-1)	intensity
111.869	0
114.762	271.479
117.654	551.01
120.547	686.813
123.44	142.812
126.332	136.759
129.225	131.313
132.118	119.215
135.011	504.779
137.903	764.806
140.796	1334.65
143.689	2879.38
146.581	5304.25
149.474	7120.14
152.367	6866.29
155.26	5833.72
158.152	5532.74
161.045	6442.18
163.938	8666.98
166.83	12133
169.723	16484.2
172.616	22048.4
175.508	29108
178.401	38319.8
181.294	45824.9
184.186	47445.5
187.079	44652.9
189.972	39000.4
192.864	29616.6
195.757	20777.3
198.65	14956.8
201.543	11794.8
204.435	10143.6
207.328	8993.63
210.221	7925.1
213.113	7091.41
216.006	6591.69
218.899	6396.41
221.792	6378.74
224.684	6645.99
227.577	7496.98
230.47	8445.32
233.362	8911.44
236.255	9335.18
239.148	9174.83
242.041	8898.15
244.933	8375.7
247.826	7726.7
250.719	6771.35
253.611	5935.01
256.504	5141.81
259.397	4416.33
262.289	3926.89
265.182	3090.17
268.075	2338.18
270.967	1352.1
273.86	396.687
276.753	150.158
279.646	395.995
282.538	526.573
285.431	550.918
288.324	389.56
291.216	50.1533
294.109	641.325
297.002	1742.4
299.894	3709.6
302.787	6177.78
305.68	9777.35
308.572	14449.2
311.465	19697.5
314.358	24805.7
317.251	26959.1
320.143	25053.9
323.036	20451.6
325.929	15987.5
328.821	12520.6
331.714	9638.06
334.607	7445.56
337.5	5690.35
340.392	4192.76
343.285	3169.4
346.178	2480.45
349.07	1980.58
351.963	1836.66
354.856	1793.19
357.748	1725.01
360.641	1829.93
363.534	1803.33
366.426	1690.98
369.319	1507.96
372.212	1432.69
375.105	1128.71
377.997	654.157
380.89	242.57
383.783	42.6592
386.675	42.332
389.568	83.3418
392.461	9.48438
395.353	8.64258
398.246	133.346
401.139	277.22
404.032	400.092
406.924	540.666
409.817	760.085
412.71	993.462
415.602	1280.05
418.495	1603.66
421.388	1783.55
424.281	2045.56
427.173	2184.34
430.066	2270.31
432.959	2506.96
435.851	2756.62
438.744	2930.09
441.637	3009.87
444.529	2969.22
447.422	2843.39
450.315	2379.05
453.208	1935.39
456.1	1384.57
458.993	986.215
461.886	674.996
464.778	391.084
467.671	126.33
470.564	79.561
473.457	134.055
476.349	92.7622
479.242	194.151
482.135	191.004
485.027	105.827
487.92	16.9424
490.813	145.835
493.705	304.571
496.598	430.245
499.491	584.138
502.384	600.274
505.276	573.306
508.169	579.57
511.062	633.169
513.954	609.233
516.847	883.024
519.74	1061.11
522.632	1228.31
525.525	1426.11
528.418	1664.14
531.311	1648.17
534.203	1712.8
537.096	1759.79
539.989	1602.78
542.881	1644.81
545.774	1719
548.667	1912.64
551.559	2007.68
554.452	2248.65
557.345	2507.14
560.237	2843.7
563.13	2990.25
566.023	3279.85
568.915	3557
571.808	3990.87
574.701	4389.12
577.594	4960.35
580.486	5522.01
583.379	5851.45
586.272	5948.91
589.164	6050.61
592.057	5832.05
594.95	5507.51
597.842	5008.43
600.735	4494.87
603.628	3979.23
606.521	3384.91
609.413	3030.72
612.306	2457.14
615.199	2076.36
618.091	1832.62
620.984	1585.13
623.877	1283.76
626.769	1145.72
629.662	1005.31
632.555	773.528
635.448	667.227
638.34	489.199
641.233	368.565
644.126	247.203
647.018	190.768
649.911	76.3291
652.804	30.4253
655.697	84.5869
658.589	58.5786
661.482	29.772
664.375	98.8926
667.267	104.844
670.16	115.422
673.053	85.6802
675.945	24.6587
678.838	32.2744
681.731	53.0132
684.624	46.2388
687.516	51.0923
690.409	68.2427
693.302	53.4863
696.194	122.087
699.087	88.3023
701.98	148.792
704.872	131.378
707.765	122.7
710.658	121.223
713.551	72.8242
716.443	105.034
719.336	146.032
722.229	108.705
725.121	103.013
728.014	163.61
730.907	135.417
733.799	78.3296
736.692	142.849
739.585	127.591
742.477	206.89
745.37	256.183
748.263	249.241
751.156	253.425
754.048	247.629
756.941	316.744
759.834	323.845
762.726	340.471
765.619	278.869
768.512	290.779
771.404	315.992
774.297	270.819
777.19	307.071
780.083	296.056
782.975	351.165
785.868	414.438
788.761	558.45
791.653	599.411
794.546	740.792
797.439	919.356
800.332	1080.31
803.224	1217.1
806.117	1328.39
809.01	1452.91
811.902	1511.88
814.795	1582.33
817.688	1604.88
820.58	1715.19
823.473	1865.01
826.366	2024.19
829.259	2176.61
832.151	2206.91
835.044	2004.29
837.937	1670.18
840.829	1280.2
843.722	986.293
846.615	692.789
849.507	505.441
852.4	390.161
855.293	253.541
858.186	163.028
861.078	128.08
863.971	73.8242
866.864	27.5806
869.756	1.50977
872.649	16.9136
875.542	41.9634
878.434	4.25
881.327	43.7554
884.22	61.1533
887.112	24.2295
890.005	28.3115
892.898	5.28809
895.791	28.2236
898.683	25.3643
901.576	40.2173
904.469	38.2378
907.361	133.089
910.254	138.713
913.147	239.411
916.04	327.272
918.932	395.938
921.825	495.871
924.718	701.604
927.61	904.89
930.503	1340.69
933.396	1813.16
936.288	2471.42
939.181	3403.13
942.074	4493.03
944.967	5745.27
947.859	7635.39
950.752	11565.1
953.645	17560.8
956.537	25573.1
959.43	33466.8
962.323	30307.3
965.216	17759
968.108	8938.32
971.001	4927.52
973.894	3243.67
976.786	2537.11
979.679	2473.68
982.572	3276.47
985.464	5589.12
988.357	10309.9
991.25	17369
994.143	29356.5
997.035	37576.7
999.928	23779.3
1002.82	9840.2
1005.71	4391.1
1008.61	2299.64
1011.5	1365.33
1014.39	856.689
1017.28	575.125
1020.18	373.047
1023.07	219.225
1025.96	107.568
1028.86	95.0107
1031.75	3.60791
1034.64	68.5847
1037.53	34.3272
1040.43	12.9358
1043.32	13.5322
1046.21	29.1338
1049.1	86.8411
1052	31.2632
1054.89	9.58081
1057.78	20.0337
1060.67	30.4675
1063.57	31.4983
1066.46	27.4812
1069.35	28.022
1072.24	26.9775
1075.14	78.0498
1078.03	84.9868
1080.92	57.6545
1083.82	77.1826
1086.71	98.3418
1089.6	123.474
1092.49	96.186
1095.39	115.801
1098.28	124.408
1101.17	106.525
1104.07	138.833
1106.96	55.9595
1109.85	117.658
1112.74	86.458
1115.64	72.0178
1118.53	93.0957
1121.42	43.8477
1124.31	96.9707
1127.21	75.8528
1130.1	65.4211
1132.99	93.9475
1135.88	112.421
1138.78	75.4785
1141.67	100.87
1144.56	84.6384
1147.46	78.0193
1150.35	64.9238
1153.24	62.457
1156.13	63.7795
1159.03	69.6499
1161.92	77.385
1164.81	67.7153
1167.7	45.9243
1170.6	67.0981
1173.49	66.4526
1176.38	43.1846
1179.28	58.7996
1182.17	51.282
1185.06	42.8391
1187.95	40.7659
1190.85	82.0774
1193.74	87.8701
1196.63	87.2854
1199.52	87.22
1202.42	33.7346
1205.31	47.7346
1208.2	90.6108
1211.1	42.9187
1213.99	38.8701
1216.88	48.4385
1219.77	55.7251
1222.67	51.1948
1225.56	20.6562
1228.45	39.6274
1231.34	35.0727
1234.24	16.8377
1237.13	57.3103
1240.02	1.99292
1242.91	25.5398
