Measurement: Raman, 780 nm, unoriented, Raman Data Processed
Mineral: Huntite
Rruff sample: R040126
Ideal chemistry: CaMg_3_(CO_3_)_4_
Locality: Crestmore Quarry, Riverside County, California, USA
Source: University of Arizona Mineral Museum
Description: White fine-grained massive
Measured chemistry: Ca_0.97_Mg_3.02_(CO_3_)_4_
Raman shift (cm-1)	intensity
165.325	0
168.217	5.60156
171.11	49.377
174.003	73.4961
176.895	22.9355
179.788	76.6602
182.681	17.6562
185.573	73.4512
188.466	37.2012
191.359	147.033
194.251	35.3027
197.144	81.6914
200.037	67.4766
202.93	2.58008
205.822	30.4688
208.715	28.3906
211.608	79.4316
214.5	251.103
217.393	218.178
220.286	236.477
223.179	334.287
226.071	546.209
228.964	884.111
231.857	1033.07
234.749	1205.42
237.642	1330.31
240.535	1777.27
243.427	2540.9
246.32	2737.97
249.213	2456.92
252.106	2537.56
254.998	2610.64
257.891	2036.71
260.784	1305.88
263.676	1394.67
266.569	1566.36
269.462	2230.5
272.354	3306.59
275.247	2561.03
278.14	1923.47
281.033	1579.85
283.925	1049.94
286.818	532.346
289.711	400.203
292.603	126.482
295.496	85.4414
298.389	98.3281
301.281	206.969
304.174	324.869
307.067	588.357
309.959	836.617
312.852	1246.21
315.745	1659.1
318.638	1509.07
321.53	877.559
324.423	420.188
327.316	182.254
330.208	167.072
333.101	21.9199
335.994	36.2383
338.887	11.6406
341.779	62.9902
344.672	23.6191
347.565	104.264
350.457	49.0957
353.35	464.324
356.243	144.369
359.135	104.777
362.028	261.707
364.921	184.023
367.813	218.303
370.706	201.588
373.599	90.5664
376.492	258.699
379.384	219.074
382.277	291.242
385.17	324.719
388.062	314.277
390.955	341.535
393.848	322.113
396.74	149.728
399.633	341.809
402.526	140.178
405.419	130.834
408.311	21.1426
411.204	146.572
414.097	77.9629
416.989	15.3223
419.882	3.74023
422.775	62.9609
425.668	39.1172
428.56	141.133
431.453	23.5879
434.346	143.883
437.238	68.7422
440.131	140.797
443.024	81.7734
445.916	111.297
448.809	102.748
451.702	56.7695
454.594	46.3203
457.487	79.1738
460.38	6.68359
463.273	45.1035
466.165	74.9121
469.058	139.934
471.951	119.109
474.843	100.09
477.736	115.916
480.629	5.82422
483.522	49.8066
486.414	90.2402
489.307	127.656
492.2	171.535
495.092	36.1875
497.985	54.3633
500.878	175.4
503.77	136.85
506.663	94.0176
509.556	125.234
512.448	181.037
515.341	196.609
518.234	119.266
521.127	120.592
524.019	163.168
526.912	155.219
529.805	175.199
532.697	58.4707
535.59	35.4648
538.483	26.6719
541.375	108.244
544.268	29.9766
547.161	14.6504
550.054	55.9277
552.946	74.2129
555.839	137.15
558.732	99.3965
561.624	26.0312
564.517	62.0449
567.41	118.883
570.303	70.9356
573.195	44.9648
576.088	19.6836
578.981	121.227
581.873	111.707
584.766	66.4922
587.659	88.3691
590.551	124.607
593.444	55.3066
596.337	142.32
599.23	108.035
602.122	100.033
605.015	152.801
607.908	88.3594
610.8	1.75
613.693	162.996
616.586	21.3203
619.478	7.60156
622.371	22.4775
625.264	182.138
628.157	216.6
631.049	68.8731
633.942	48.3857
636.835	24.9473
639.727	78.8721
642.62	25.166
645.513	98.3994
648.405	102.562
651.298	87.5576
654.191	50.1826
657.083	121.894
659.976	31.9395
662.869	42.9434
665.762	77.8106
668.654	92.2607
671.547	196.191
674.44	67.7227
677.332	81.8164
680.225	109.546
683.118	65.1436
686.01	68.6533
688.903	203.951
691.796	142.095
694.689	152.62
697.581	302.59
700.474	229.239
703.367	213.21
706.259	307.931
709.152	261.853
712.045	283.077
714.938	373.139
717.83	378.615
720.723	409.792
723.616	467.827
726.508	416.103
729.401	239.65
732.294	234.299
735.186	261.565
738.079	226.508
740.972	124.969
743.865	251.593
746.757	117.152
749.65	191.061
752.543	8.73926
755.435	76.7383
758.328	88.167
761.221	27.2432
764.113	66.6953
767.006	6.67285
769.899	31.3057
772.792	37.1084
775.684	6.50977
778.577	26.748
781.47	2.33398
784.362	67.0303
787.255	49.6982
790.148	40.6357
793.04	98.9717
795.933	4.13672
798.826	42.6172
801.718	87.3144
804.611	35.5986
807.504	117.432
810.397	101.708
813.289	58.8418
816.182	69.5117
819.075	95.0762
821.967	110.295
824.86	64.666
827.753	120.383
830.645	25.3418
833.538	54.5693
836.431	30.8936
839.323	78.9785
842.216	71.7695
845.109	23.624
848.002	88.3027
850.894	84.4639
853.787	110.931
856.68	70.542
859.572	18.2744
862.465	60.4853
865.358	123.503
868.25	127.155
871.143	135.269
874.036	309.443
876.929	359.622
879.821	406.507
882.714	168.494
885.607	62.3076
888.5	65.3818
891.392	58.1445
894.285	56.0674
897.178	132.55
900.07	81.54
902.963	100.692
905.856	45.1631
908.748	54.2676
911.641	88.3623
914.534	119.984
917.427	106.686
920.319	61.2647
923.212	30.5225
926.105	63.5996
928.997	55.6123
931.89	80.5352
934.783	82.5059
937.675	72.4404
940.568	31.9795
943.461	82.9639
946.354	42.1103
949.246	73.3652
952.139	77.7353
955.032	38.6211
957.924	154.755
960.817	115.934
963.71	134.89
966.602	24.709
969.495	49.5205
972.388	24.3711
975.28	85.8984
978.173	74.5859
981.066	84.8027
983.959	31.9014
986.851	0.359375
989.744	19.4258
992.637	87.6055
995.529	20.4756
998.422	95.9394
1001.32	32.8301
1004.21	64.3916
1007.1	87.5166
1009.99	36.9756
1012.89	97.46
1015.78	16.3916
1018.67	24.5449
1021.56	38.998
1024.46	79.6758
1027.35	7.23438
1030.24	38.3857
1033.13	85.7647
1036.03	79.2344
1038.92	132.464
1041.81	102.152
1044.7	34.3984
1047.6	81.5068
1050.49	43.333
1053.38	86.3906
1056.28	78.3818
1059.17	54.5156
1062.06	22.0635
1064.95	45.8535
1067.85	24.6406
1070.74	50.2139
1073.63	46.9688
1076.53	39.5703
1079.42	28.6709
1082.31	67.4756
1085.2	79.8613
1088.1	95.0674
1090.99	109.87
1093.88	56.8125
1096.77	139.591
1099.67	153.566
1102.56	222.977
1105.45	331.485
1108.35	537.562
1111.24	1011.74
1114.13	1961.47
1117.02	3836.16
1119.91	6584.01
1122.81	8229.62
1125.7	4936.82
1128.59	1949.1
1131.49	695.099
1134.38	316.208
1137.27	119.858
1140.16	64.3438
1143.06	17.7217
1145.95	27.585
1148.84	23.459
1151.73	52.1943
1154.63	20.6436
1157.52	110.136
1160.41	30.749
1163.31	35.7978
1166.2	3.24902
1169.09	10.166
1171.98	1.22754
1174.88	64.8789
1177.77	74.6914
1180.66	74.9228
1183.56	48.8359
1186.45	27.4785
1189.34	3.74121
1192.23	71.4463
1195.13	19.0371
1198.02	70.6894
1200.91	28.8242
1203.8	77.0732
1206.7	9.93066
1209.59	77.3027
1212.48	74.3506
1215.38	84.3262
1218.27	32.8203
1221.16	146.466
1224.05	8.34082
1226.94	73.9746
1229.84	55.7812
1232.73	105.409
1235.62	49.8897
1238.52	77.8564
1241.41	33.9023
1244.3	102.796
1247.19	106.468
1250.09	43.8682
1252.98	31.2139
1255.87	59.3691
1258.77	37.8145
1261.66	47.79
1264.55	5.09473
1267.44	88.2812
1270.34	75.9053
1273.23	74.9238
1276.12	39.2139
1279.01	17.0479
1281.91	0.165039
