Measurement: Raman, 785 nm, unoriented, Raman Data Processed
Mineral: Hureaulite
Rruff sample: R070452
Ideal chemistry: Mn^2+^_5_(PO_4_)_2_(PO_3_OH)_2_4H_2_O
Locality: Tip Top mine, Fourmile, Custer District, Custer County, South Dakota, USA
Source: Michael Scott
Description: Massive coarse pink granular
Measured chemistry: (Mn^2+^_3.83_Fe^2+^_0.62_Mg_0.33_Ca_0.22_)_Σ=5_(P_1.00_O_4_)_2_(P_1.00_O_3_OH)_2_·11H_2_O; H_2_O estimated by difference; OH by charge balance
Raman shift (cm-1)	intensity
132.006	0
134.899	55.7919
137.792	4.46326
140.684	5.47766
143.577	72.2993
146.47	356.345
149.362	572.475
152.255	625.098
155.148	565.962
158.041	602.689
160.933	704.644
163.826	807.186
166.719	742.619
169.611	705.993
172.504	501.427
175.397	356.654
178.289	280.942
181.182	238.785
184.075	113.993
186.968	199.001
189.86	239.065
192.753	296.825
195.646	306.463
198.538	315.28
201.431	380.158
204.324	530.032
207.216	854.837
210.109	1159.44
213.002	1511.18
215.894	2248.55
218.787	2383.23
221.68	2419.34
224.573	2138.19
227.465	1840.56
230.358	1760.17
233.251	1662.56
236.143	1558.87
239.036	1374.84
241.929	1173.17
244.821	946.203
247.714	833.059
250.607	803.275
253.5	852.003
256.392	903.878
259.285	993.076
262.178	1053.39
265.07	1129.65
267.963	975.138
270.856	734.388
273.748	433.483
276.641	206.422
279.534	61.0754
282.427	6.6792
285.319	33.8733
288.212	1.49622
291.105	0.130127
293.997	136.665
296.89	247.962
299.783	303.799
302.675	348.468
305.568	356.062
308.461	303.922
311.354	175.243
314.246	123.028
317.139	61.5072
320.032	58.535
322.924	26.333
325.817	4.04895
328.71	24.7736
331.603	43.1909
334.495	19.3834
337.388	31.6454
340.281	30.5576
343.173	15.3483
346.066	2.34216
348.959	10.3066
351.851	21.1617
354.744	8.75989
357.637	0.77356
360.529	9.17969
363.422	59.6317
366.315	107.3
369.208	180.881
372.1	294.328
374.993	354.197
377.886	427.217
380.778	469.61
383.671	455.435
386.564	379.416
389.457	391.175
392.349	441.184
395.242	562.447
398.135	780.121
401.027	1085.04
403.92	1529.12
406.813	2089.05
409.705	2774.57
412.598	3368.99
415.491	3411.2
418.384	2658.17
421.276	1865.64
424.169	1431.36
427.062	1291.44
429.954	1343.12
432.847	1534.6
435.74	1913.83
438.632	2457.17
441.525	3153.41
444.418	3962.76
447.31	4748.45
450.203	5511.77
453.096	5783.42
455.989	5435.41
458.881	4505.81
461.774	3494.04
464.667	2666.84
467.559	2037.46
470.452	1523.19
473.345	1086.65
476.238	755.395
479.13	490.104
482.023	324.543
484.916	220.646
487.808	123.611
490.701	72.574
493.594	12.4064
496.486	17.7885
499.379	40.6575
502.272	49.5557
505.164	31.0181
508.057	17.0409
510.95	33.4199
513.843	84.0938
516.735	178.145
519.628	322.132
522.521	549.829
525.413	856.715
528.306	1314.99
531.199	1696.49
534.092	1954.34
536.984	2105.54
539.877	2187.95
542.77	2064.47
545.662	1630.83
548.555	1227.73
551.448	740.907
554.341	592.611
557.233	570.779
560.126	666.148
563.019	795.41
565.911	824.846
568.804	825.438
571.697	996.942
574.589	1257.68
577.482	1540.92
580.375	1710.66
583.268	1653.23
586.16	1298.47
589.053	941.082
591.946	778.386
594.838	659.398
597.731	483.671
600.624	330.958
603.516	235.501
606.409	178.238
609.302	124.596
612.194	103.253
615.087	55.5151
617.98	6.2019
620.872	20.035
623.765	18.87
626.658	15.7944
629.551	25.1497
632.443	25.4154
635.336	11.684
638.229	26.5503
641.121	8.78845
644.014	16.6831
646.907	13.4454
649.799	25.4872
652.692	7.58533
655.585	6.83862
658.478	36.4398
661.37	14.1985
664.263	20.4811
667.156	40.2878
670.048	57.1505
672.941	54.3627
675.834	63.4252
678.726	51.4093
681.619	82.6614
684.512	68.5098
687.405	54.4054
690.297	84.1202
693.19	77.8754
696.083	110.968
698.975	82.281
701.868	139.631
704.761	207.224
707.654	237.284
710.546	263.148
713.439	369.128
716.332	406.913
719.224	413.014
722.117	485.984
725.01	453.799
727.902	442.955
730.795	392.469
733.688	322.075
736.581	258.071
739.473	180.806
742.366	148.695
745.259	134.007
748.151	93.7439
751.044	78.6279
753.937	45.7546
756.829	64.3264
759.722	45.9039
762.615	56.121
765.508	54.8601
768.4	49.475
771.293	10.0703
774.186	28.8178
777.078	26.3854
779.971	51.6208
782.864	25.374
785.756	0.583618
788.649	0.561523
791.542	36.9264
794.434	20.8411
797.327	64.2365
800.22	17.0008
803.113	30.2573
806.005	13.0416
808.898	34.5627
811.791	2.86523
814.683	14.0498
817.576	15.5112
820.469	47.3267
823.361	32.9755
826.254	48.7246
829.147	68.5229
832.04	70.0071
834.932	97.21
837.825	68.3041
840.718	71.4879
843.61	56.9077
846.503	76.2051
849.396	77.4066
852.288	57.3004
855.181	44.3358
858.074	13.8779
860.967	52.4898
863.859	13.2988
866.752	35.6941
869.645	34.9299
872.537	8.50671
875.43	7.17676
878.323	16.3839
881.216	10.9701
884.108	1.52942
887.001	8.0282
889.894	13.4462
892.786	16.8854
895.679	45.0089
898.572	5.35608
901.464	19.4666
904.357	32.0677
907.25	61.0079
910.143	103.489
913.035	154.621
915.928	220.959
918.821	422.481
921.713	684.152
924.606	1027.29
927.499	1591.02
930.391	2390.93
933.284	3532.95
936.177	5462.86
939.069	9029.46
941.962	14460.6
944.855	21772.8
947.748	28489.8
950.64	26837.6
953.533	17069.3
956.426	8419.4
959.318	4051.3
962.211	2158.86
965.104	1118.87
967.996	646.079
970.889	423.091
973.782	319.88
976.675	465.403
979.567	733.371
982.46	1116.6
985.353	1488.5
988.245	1641.53
991.138	1454.66
994.031	967.763
996.923	551.218
999.816	180.902
1002.71	58.2163
1005.6	67.8286
1008.49	27.1648
1011.39	0.350342
1014.28	166.836
1017.17	383.798
1020.07	724.195
1022.96	888.194
1025.85	730.627
1028.74	493.582
1031.64	533.921
1034.53	854.986
1037.42	1661.69
1040.31	2984.63
1043.21	4455.02
1046.1	5015.35
1048.99	3567.44
1051.88	1706.58
1054.78	657.765
1057.67	177.583
1060.56	53.3284
1063.46	101.195
1066.35	20.6256
1069.24	274.064
1072.13	776.908
1075.03	1470.89
1077.92	2405.3
1080.81	3158.6
1083.7	3098.63
1086.6	2226.51
1089.49	1329.1
1092.38	763.974
1095.28	466.551
1098.17	296.638
1101.06	155.044
1103.95	130.83
1106.85	112.572
1109.74	140.034
1112.63	140.806
1115.52	78.2758
1118.42	36.9205
1121.31	20.8528
1124.2	5.4447
1127.1	13.8988
1129.99	1.56738
1132.88	12.7752
1135.77	27.6623
1138.67	32.7966
1141.56	59.8478
1144.45	79.2097
1147.34	91.5042
1150.24	107.94
1153.13	113.085
1156.02	153.021
1158.91	153.824
1161.81	140.026
1164.7	169.829
1167.59	162.81
1170.48	178.838
1173.38	179.447
1176.27	172.168
1179.16	173.71
1182.06	193.111
1184.95	143.91
1187.84	144.458
1190.73	128.45
1193.63	123.703
1196.52	107.188
1199.41	114.596
1202.31	96.7679
1205.2	86.0324
1208.09	85.3505
1210.98	79.1278
1213.88	61.7756
1216.77	64.4768
1219.66	45.9633
1222.55	48.2336
1225.45	38.4389
1228.34	28.769
1231.23	35.1127
1234.12	27.5575
1237.02	22.9255
1239.91	18.5855
1242.8	9.14612
1245.7	22.7054
1248.59	5.98773
1251.48	1.27881
1254.37	6.43872
1257.27	12.2101
