Measurement: Raman, 780 nm, unoriented, Raman Data Processed
Mineral: Hureaulite
Rruff sample: R090070
Ideal chemistry: Mn^2+^_5_(PO_4_)_2_(PO_3_OH)_2_4H_2_O
Locality: Cigana Mine (ex-Jocão Mine), Galiléia, Minas Gerais  Brazil
Source: Royal Ontario Museum
Description: Cluster of pink prismatic crystals on reddingite, R090069, associated with colorless ludlamite, R090071
Raman shift (cm-1)	intensity
91.8272	0
95.202	5.93866
98.5768	53.4359
101.952	101.917
105.326	52.1325
108.701	8.27939
112.076	26.891
115.451	97.0144
118.826	176.519
122.201	120.455
125.575	85.1386
128.95	16.8693
132.325	23.4264
135.7	53.1703
139.075	39.9485
142.449	20.3221
145.824	26.9742
149.199	58.2312
152.574	104.443
155.949	68.6622
159.323	13.1114
162.698	0.800308
166.073	6.52763
169.448	8.10113
172.823	0.65554
176.198	10.1148
179.572	15.243
182.947	8.5011
186.322	11.5114
189.697	24.8043
193.072	35.0172
196.446	31.9754
199.821	28.033
203.196	40.1173
206.571	56.298
209.946	87.8458
213.321	141.787
216.695	207.844
220.07	219.466
223.445	176.344
226.82	119.296
230.195	85.3994
233.569	75.942
236.944	70.8715
240.319	62.8462
243.694	52.6535
247.069	41.4451
250.444	42.94
253.818	45.4923
257.193	59.6374
260.568	76.7384
263.943	94.0138
267.318	95.0438
270.692	70.1061
274.067	41.3357
277.442	20.1001
280.817	6.5877
284.192	4.11859
287.567	1.16353
290.941	3.96726
294.316	9.90509
297.691	12.7181
301.066	19.2626
304.441	16.5004
307.815	8.96576
311.19	3.85398
314.565	1.90615
317.94	0.423477
321.315	0.169136
324.69	0.382141
328.064	1.69139
331.439	3.11485
334.814	0.289192
338.189	0.723
341.564	2.31602
344.938	1.88715
348.313	0.27523
351.688	2.42622
355.063	2.47789
358.438	0.48468
361.812	2.67684
365.187	8.51779
368.562	10.7271
371.937	18.7903
375.312	29.5607
378.687	38.1305
382.061	43.5398
385.436	45.1843
388.811	53.293
392.186	66.1547
395.561	92.6353
398.935	126.838
402.31	169.942
405.685	239.714
409.06	327.987
412.435	366.243
415.81	277.804
419.184	159.884
422.559	93.1438
425.934	61.468
429.309	56.8627
432.684	66.5738
436.058	85.0597
439.433	114.445
442.808	156.373
446.183	210.048
449.558	260.283
452.933	286.862
456.307	268.161
459.682	215.089
463.057	163.15
466.432	126.415
469.807	94.644
473.181	70.3004
476.556	44.5885
479.931	25.2936
483.306	16.0576
486.681	4.02237
490.055	1.04363
493.43	3.81638
496.805	2.22739
500.18	4.50215
503.555	0.270859
506.93	4.15463
510.304	16.1703
513.679	32.604
517.054	57.1621
520.429	89.8308
523.804	150.394
527.178	248.609
530.553	282.804
533.928	173.289
537.303	92.5637
540.678	61.4413
544.053	43.1094
547.427	25.5085
550.802	12.8556
554.177	13.9993
557.552	20.9631
560.927	35.5816
564.302	35.5574
567.676	40.3531
571.051	52.2025
574.426	81.7827
577.801	119.895
581.176	133.754
584.55	107.027
587.925	84.3345
591.3	88.0213
594.675	99.7346
598.05	91.4295
601.424	58.6004
604.799	34.8535
608.174	20.1773
611.549	13.2092
614.924	7.21278
618.298	1.73093
621.673	1.11357
625.048	1.26493
628.423	0.419483
631.798	1.43043
635.173	0.054298
638.547	0.996044
641.922	0.494205
645.297	0.064648
648.672	0.204327
652.047	0.515148
655.422	0.108925
658.796	0.812038
662.171	0.445763
665.546	0.465469
668.921	0.84623
672.296	1.371
675.67	0.080799
679.045	0.836868
682.42	2.64257
685.795	3.05857
689.17	0.019203
692.544	2.14729
695.919	2.84629
699.294	3.90923
702.669	3.23701
706.044	3.59754
709.419	6.42896
712.793	9.23805
716.168	12.2877
719.543	15.1289
722.918	17.5833
726.293	16.6656
729.668	16.7415
733.042	14.8363
736.417	10.9716
739.792	8.38787
743.167	6.88547
746.542	6.58196
749.916	5.90736
753.291	3.81501
756.666	4.21598
760.041	5.01344
763.416	6.4459
766.79	6.2994
770.165	5.41754
773.54	6.48486
776.915	7.36149
780.29	8.87101
783.665	7.63011
787.039	7.92324
790.414	7.23555
793.789	9.56932
797.164	6.62194
800.539	8.14409
803.913	9.72822
807.288	8.38934
810.663	12.0398
814.038	10.0351
817.413	8.70005
820.788	11.7904
824.162	11.3594
827.537	11.5376
830.912	11.0685
834.287	10.6689
837.662	10.0589
841.036	9.53359
844.411	9.33807
847.786	8.35419
851.161	7.03279
854.536	5.39704
857.91	4.18488
861.285	2.63618
864.66	2.85303
868.035	1.57421
871.41	0.081394
874.784	1.18858
878.159	1.14765
881.534	1.8886
884.909	2.34314
888.284	1.75935
891.659	1.90475
895.033	1.55347
898.408	0.519981
901.783	2.0058
905.158	2.75035
908.533	6.45418
911.908	15.4076
915.282	26.9256
918.657	43.9377
922.032	70.8633
925.407	111.872
928.782	183.008
932.156	298.371
935.531	490.548
938.906	786.808
942.281	1274.77
945.656	2098.55
949.03	2567.18
952.405	1572.95
955.78	686.646
959.155	322.01
962.53	174.094
965.905	107.213
969.279	84.2786
972.654	86.968
976.029	108.921
979.404	152.222
982.779	210.632
986.154	263.05
989.528	262.056
992.903	198.805
996.278	131.161
999.653	95.5785
1003.03	83.7717
1006.4	75.8208
1009.78	47.5378
1013.15	21.6778
1016.53	21.1271
1019.9	31.4287
1023.28	34.3204
1026.65	14.3503
1030.03	3.77216
1033.4	10.1195
1036.78	32.0661
1040.15	78.7869
1043.53	161.697
1046.9	165.249
1050.28	67.5934
1053.65	12.6536
1057.03	4.54089
1060.4	11.7352
1063.77	5.62144
1067.15	4.87176
1070.52	24.4497
1073.9	53.2719
1077.27	102.829
1080.65	153.718
1084.02	137.476
1087.4	75.6697
1090.77	34.5758
1094.15	17.7956
1097.52	11.9624
1100.9	11.7971
1104.27	13.2971
1107.65	22.3605
1111.02	29.9143
1114.4	17.9164
1117.77	8.63493
1121.15	1.72295
1124.52	1.59441
1127.9	0.64325
1131.27	2.43977
1134.64	0.310514
1138.02	1.94741
1141.39	3.80245
1144.77	2.82108
1148.14	6.19852
1151.52	6.39419
1154.89	8.92001
1158.27	8.0372
1161.64	8.24363
1165.02	9.74442
1168.39	9.39462
1171.77	9.36534
1175.14	10.5114
1178.52	9.54845
1181.89	8.58255
1185.27	8.96025
1188.64	7.38629
1192.02	6.71448
1195.39	5.84909
1198.77	6.02607
1202.14	5.72157
1205.52	2.92548
1208.89	4.8915
1212.27	3.49725
1215.64	4.0678
1219.02	3.94198
1222.39	3.10461
1225.77	2.89412
1229.14	2.33058
1232.52	1.82778
1235.89	1.39838
1239.27	1.50923
1242.64	0.048399
1246.01	1.81925
1249.39	0.302345
1252.76	1.59503
1256.14	1.13192
1259.51	0.718353
1262.89	0.337566
1266.26	0.590696
1269.64	0.307945
1273.01	0.231398
1276.39	0.99547
1279.76	0.087381
1283.14	1.19032
