Measurement: Raman, 532 nm, unoriented, Raman Data Processed
Mineral: Hureaulite
Rruff sample: R070452
Ideal chemistry: Mn^2+^_5_(PO_4_)_2_(PO_3_OH)_2_4H_2_O
Locality: Tip Top mine, Fourmile, Custer District, Custer County, South Dakota, USA
Source: Michael Scott
Description: Massive coarse pink granular
Measured chemistry: (Mn^2+^_3.83_Fe^2+^_0.62_Mg_0.33_Ca_0.22_)_Σ=5_(P_1.00_O_4_)_2_(P_1.00_O_3_OH)_2_·11H_2_O; H_2_O estimated by difference; OH by charge balance
Raman shift (cm-1)	intensity
132.799	0
135.692	17.4225
138.584	57.0198
141.477	118.368
144.37	143.37
147.263	97.9145
150.155	68.8305
153.048	126.603
155.941	225.74
158.833	275.826
161.726	356.947
164.619	502.503
167.512	470.182
170.404	507.737
173.297	558.655
176.19	444.618
179.082	291.027
181.975	203.018
184.868	153.131
187.761	163.308
190.653	186.264
193.546	200.144
196.439	118.978
199.331	85.5483
202.224	145.037
205.117	211.018
208.009	371.225
210.902	580.422
213.795	803.991
216.688	1017.1
219.58	1052.75
222.473	946.343
225.366	762.929
228.258	744.053
231.151	712.129
234.044	687.277
236.936	592.613
239.829	513.431
242.722	472.403
245.614	464.829
248.507	487.341
251.4	534.741
254.293	613.515
257.185	695.094
260.078	752.926
262.971	805.732
265.863	754.196
268.756	589.191
271.649	332.431
274.541	172.677
277.434	35.3971
280.327	21.7488
283.22	67.7272
286.112	33.784
289.005	4.64801
291.898	41.986
294.79	124.602
297.683	196.21
300.576	227.994
303.469	240.451
306.361	251.834
309.254	161.809
312.147	129.407
315.039	112.826
317.932	84.9479
320.825	45.1313
323.717	67.161
326.61	40.1032
329.503	20.549
332.396	29.7989
335.288	40.8637
338.181	35.3347
341.074	22.141
343.966	0.219238
346.859	0.613525
349.752	4.90576
352.644	41.3174
355.537	6.42926
358.43	32.4414
361.322	9.40289
364.215	11.791
367.108	64.1235
370.001	108.841
372.893	138.043
375.786	230.055
378.679	278.379
381.572	283.845
384.464	233.173
387.357	211.697
390.25	188.418
393.142	218.591
396.035	313.01
398.928	491.985
401.82	680.588
404.713	1000.01
407.606	1388.97
410.498	1764.23
413.391	1936.45
416.284	1642.56
419.177	1088.27
422.069	721.624
424.962	582.076
427.855	575.149
430.747	654.246
433.64	774.743
436.533	1008.81
439.425	1295.53
442.318	1670.8
445.211	2110.46
448.104	2514.43
450.996	2868.61
453.889	2890.98
456.782	2641.13
459.674	2125.95
462.567	1759.21
465.46	1343.94
468.353	1057.43
471.245	733.234
474.138	549.187
477.031	353.654
479.923	212.784
482.816	143.289
485.709	68.73
488.601	31.5173
491.494	40.9359
494.387	9.27814
497.279	46.9065
500.172	30.7924
503.065	32.9428
505.958	14.2324
508.85	20.1621
511.743	77.989
514.636	172.685
517.528	303.915
520.421	470.526
523.314	749.065
526.207	1091.6
529.099	1486.01
531.992	1682.27
534.885	1777.05
537.777	1861.25
540.67	1916.34
543.563	1678.84
546.455	1232.12
549.348	810.427
552.241	606.309
555.134	543.42
558.026	578.549
560.919	671.641
563.812	874.108
566.704	701.58
569.597	722.541
572.49	864.661
575.382	1037.05
578.275	1215.22
581.168	1216.08
584.061	1055.34
586.953	904.055
589.846	808.067
592.739	756.551
595.631	668.204
598.524	541.541
601.417	369.794
604.309	260.916
607.202	195.086
610.095	175.68
612.987	128.946
615.88	62.8287
618.773	38.1637
621.666	7.50244
624.558	37.7835
627.451	22.0246
630.344	25.3473
633.236	10.4488
636.129	14.1102
639.022	10.0521
641.915	4.0152
644.807	2.3346
647.7	33.9574
650.593	13.6285
653.485	11.1603
656.378	14.9413
659.271	27.8833
662.163	20.894
665.056	27.9363
667.949	3.20752
670.842	30.1257
673.734	55.3019
676.627	78.2499
679.52	90.261
682.412	70.4959
685.305	72.9534
688.198	64.8968
691.091	57.117
693.983	32.0159
696.876	59.712
699.769	46.654
702.661	74.7372
705.554	86.8831
708.447	95.9677
711.339	95.8353
714.232	127.405
717.125	153.497
720.018	189.887
722.91	175.25
725.803	189.386
728.696	178.475
731.588	134.611
734.481	107.45
737.374	80.3513
740.266	99.2683
743.159	67.3538
746.052	54.3065
748.944	54.7239
751.837	56.279
754.73	54.1906
757.623	54.4614
760.515	47.9993
763.408	60.8308
766.301	83.0197
769.193	65.761
772.086	51.8723
774.979	76.2725
777.871	66.3485
780.764	64.7893
783.657	58.2357
786.55	61.8321
789.442	69.2121
792.335	56.5914
795.228	54.7613
798.12	54.0386
801.013	52.1238
803.906	39.1403
806.798	71.3563
809.691	72.6927
812.584	64.8052
815.477	60.5442
818.369	71.5004
821.262	56.53
824.155	70.8354
827.047	76.5227
829.94	85.6829
832.833	61.609
835.726	46.6035
838.618	55.1565
841.511	48.658
844.404	45.2123
847.296	40.1397
850.189	51.0281
853.082	17.8041
855.975	17.0911
858.867	15.1394
861.76	19.193
864.653	27.1309
867.545	16.1013
870.438	1.23865
873.331	23.8622
876.223	15.3019
879.116	20.9789
882.009	10.6971
884.902	16.8468
887.794	36.7684
890.687	12.5956
893.58	1.11133
896.472	1.87305
899.365	14.2024
902.258	1.28333
905.15	28.4467
908.043	58.0248
910.936	140.892
913.828	173.451
916.721	278.012
919.614	445.118
922.507	694.091
925.399	1149.42
928.292	1779.82
931.185	2667.25
934.077	3985.84
936.97	6489.52
939.863	10752.9
942.755	16953.9
945.648	23510.2
948.541	26640.5
951.434	20929.4
954.326	11429.5
957.219	5425.48
960.112	2702.02
963.004	1337.96
965.897	660.208
968.79	314.106
971.683	92.7744
974.575	52.2117
977.468	96.5708
980.361	300.138
983.253	504.112
986.146	637.907
989.039	675.158
991.931	480.481
994.824	207.144
997.717	25.7297
1000.61	8.64062
1003.5	83.5505
1006.39	189.464
1009.29	183.94
1012.18	283.258
1015.07	472.883
1017.97	815.925
1020.86	1123.48
1023.75	1125.88
1026.64	804.849
1029.54	555.884
1032.43	638.667
1035.32	1073.73
1038.21	2016.01
1041.11	3132.14
1044	4025.83
1046.89	3741.37
1049.79	2088.56
1052.68	873.367
1055.57	242.846
1058.46	2.16394
1061.36	72.7058
1064.25	30.9734
1067.14	199.818
1070.03	567.887
1072.93	1208.89
1075.82	2138.1
1078.71	3070.18
1081.61	3478.25
1084.5	2987.58
1087.39	1981.63
1090.28	1145.61
1093.18	692.834
1096.07	470.359
1098.96	364.544
1101.85	333.325
1104.75	329.403
1107.64	399.96
1110.53	406.872
1113.42	324.317
1116.32	161.246
1119.21	58.2217
1122.1	7.72559
1125	10.8257
1127.89	30.1503
1130.78	0.132019
1133.67	10.1848
1136.57	18.6022
1139.46	24.2696
1142.35	48.0435
1145.24	52.3053
1148.14	55.7361
1151.03	92.8665
1153.92	86.7805
1156.82	116.834
1159.71	125.379
1162.6	117.609
1165.49	128.271
1168.39	147.57
1171.28	138.283
1174.17	162.474
1177.06	143.728
1179.96	164.164
1182.85	159.683
1185.74	168.187
1188.63	125.85
1191.53	116.503
1194.42	117.213
1197.31	109.196
1200.21	93.8298
1203.1	119.254
1205.99	94.7912
1208.88	89.0237
1211.78	75.5037
1214.67	116.556
1217.56	77.2405
1220.45	57.8357
1223.35	52.1318
1226.24	60.2505
1229.13	53.8809
1232.03	23.2604
1234.92	27.7927
1237.81	9.11591
1240.7	3.35382
1243.6	18.7108
1246.49	29.3862
1249.38	32.7285
1252.28	3.56183
1255.17	20.7953
1258.06	6.80865
1260.95	3.46442
1263.85	21.2062
1266.74	10.4394
