Measurement: Raman, 532 nm, unoriented, Raman Data Processed
Mineral: Hureaulite
Rruff sample: R090070
Ideal chemistry: Mn^2+^_5_(PO_4_)_2_(PO_3_OH)_2_4H_2_O
Locality: Cigana Mine (ex-Jocão Mine), Galiléia, Minas Gerais  Brazil
Source: Royal Ontario Museum
Description: Cluster of pink prismatic crystals on reddingite, R090069, associated with colorless ludlamite, R090071
Raman shift (cm-1)	intensity
92.0781	0
95.4529	4.8739
98.8278	11.3954
102.203	21.852
105.577	31.6207
108.952	38.2049
112.327	23.202
115.702	10.1222
119.077	7.68537
122.451	3.07249
125.826	3.64691
129.201	33.0606
132.576	52.1713
135.951	86.6815
139.326	151.384
142.7	178.52
146.075	199.452
149.45	244.604
152.825	349.542
156.2	402.173
159.574	257.262
162.949	180.923
166.324	160.178
169.699	144.634
173.074	147.194
176.448	154.22
179.823	153.545
183.198	114.76
186.573	105.963
189.948	136.228
193.323	189.584
196.697	181.447
200.072	110.797
203.447	82.4563
206.822	97.5655
210.197	142.116
213.571	222.973
216.946	333.834
220.321	398.703
223.696	333.552
227.071	247.55
230.446	199.124
233.82	180.197
237.195	169.936
240.57	153.787
243.945	127.924
247.32	115.263
250.695	129.953
254.069	149.29
257.444	188.041
260.819	216.578
264.194	227.497
267.568	206.617
270.943	134.759
274.318	64.0007
277.693	13.5765
281.068	11.0198
284.443	14.4736
287.817	10.5427
291.192	7.41022
294.567	31.852
297.942	43.3954
301.317	54.9687
304.692	56.3854
308.066	39.7983
311.441	26.65
314.816	21.0129
318.191	19.1072
321.566	16.8341
324.94	10.0977
328.315	0.808624
331.69	2.85451
335.065	1.71733
338.44	0.764404
341.815	5.58644
345.189	1.6151
348.564	2.4451
351.939	4.2645
355.314	3.55917
358.689	1.90399
362.063	8.44487
365.438	24.1431
368.813	42.1326
372.188	69.6573
375.563	107.281
378.938	142.555
382.312	155.175
385.687	132.423
389.062	114.222
392.437	112.503
395.812	132.175
399.186	173.763
402.561	240.669
405.936	336.647
409.311	471.27
412.686	581.312
416.06	518.59
419.435	319.229
422.81	177.401
426.185	118.483
429.56	108.715
432.935	129.774
436.309	180.051
439.684	262.918
443.059	376.262
446.434	527.277
449.809	685.798
453.183	804.767
456.558	817.001
459.933	734.011
463.308	614.02
466.683	507.681
470.058	400.965
473.432	293.718
476.807	193.763
480.182	119.251
483.557	70.186
486.932	31.6995
490.306	14.0984
493.681	0.542603
497.056	8.61993
500.431	11.7179
503.806	8.67221
507.18	2.59853
510.555	13.7178
513.93	42.3168
517.305	92.0797
520.68	170.222
524.055	299.635
527.429	481.314
530.804	658.697
534.179	562.704
537.554	368.57
540.929	283.854
544.303	216.107
547.678	146.268
551.053	96.8423
554.428	93.2961
557.803	124.643
561.178	171.562
564.552	184.907
567.927	165.112
571.302	191.545
574.677	273.969
578.052	400.529
581.427	485.539
584.801	442.569
588.176	349.2
591.551	320.104
594.926	319.535
598.301	284.291
601.675	206.397
605.05	133.218
608.425	94.5393
611.8	73.3751
615.175	49.0884
618.549	25.7053
621.924	10.1676
625.299	1.78749
628.674	3.53023
632.049	3.76373
635.423	2.73039
638.798	2.07933
642.173	1.96983
645.548	0.760284
648.923	0.262115
652.298	1.19652
655.672	0.473618
659.047	1.68715
662.422	0.099945
665.797	0.037827
669.172	0.260406
672.546	1.26662
675.921	4.12441
679.296	4.13771
682.671	9.05856
686.046	14.636
689.42	18.239
692.795	15.893
696.17	16.4292
699.545	19.1754
702.92	21.6579
706.295	20.2745
709.669	26.7485
713.044	34.469
716.419	47.5255
719.794	59.335
723.169	67.4249
726.543	69.5872
729.918	69.1564
733.293	59.2689
736.668	50.6765
740.043	37.9199
743.418	32.0992
746.792	27.582
750.167	23.6717
753.542	22.1764
756.917	21.4394
760.292	21.0435
763.667	20.9791
767.041	23.3082
770.416	22.8028
773.791	25.0985
777.166	25.4588
780.541	26.5834
783.915	28.6952
787.29	28.7249
790.665	27.8595
794.04	27.7517
797.415	29.2891
800.789	27.1469
804.164	26.9679
807.539	28.4826
810.914	29.0996
814.289	30.4808
817.663	34.2029
821.038	31.6508
824.413	32.5381
827.788	34.8327
831.163	28.9407
834.538	26.0992
837.912	23.6228
841.287	22.3499
844.662	18.4379
848.037	13.4432
851.412	9.22537
854.787	6.88681
858.161	5.87161
861.536	3.92795
864.911	0.182434
868.286	2.59035
871.661	6.27055
875.035	5.66685
878.41	6.5927
881.785	6.4957
885.16	5.91487
888.535	3.48766
891.909	1.1781
895.284	4.84988
898.659	6.94714
902.034	7.55234
905.409	16.7455
908.784	21.8227
912.158	38.5021
915.533	62.5449
918.908	106.383
922.283	181.515
925.658	290.174
929.033	478.639
932.407	769.092
935.782	1233.93
939.157	2095.18
942.532	3637.89
945.907	6106.75
949.281	8327.74
952.656	6559.55
956.031	3069.54
959.406	1372.15
962.781	675.203
966.155	361.513
969.53	207.751
972.905	135.706
976.28	125.973
979.655	172.719
983.029	267.589
986.404	369.043
989.779	411.716
993.154	337.229
996.529	216.653
999.904	139.58
1003.28	132.693
1006.65	148.585
1010.03	96.915
1013.4	27.4459
1016.78	25.3545
1020.15	70.2571
1023.53	103.743
1026.9	63.8663
1030.28	6.79782
1033.65	11.3692
1037.03	95.0069
1040.4	275.826
1043.78	570.219
1047.15	729.34
1050.53	424.136
1053.9	134.927
1057.28	20.6787
1060.65	22.0956
1064.03	27.8527
1067.4	4.60535
1070.78	69.888
1074.15	197.583
1077.52	411.013
1080.9	654.869
1084.27	694.373
1087.65	462.127
1091.02	244.023
1094.4	126.818
1097.77	88.7668
1101.15	92.4969
1104.52	131.842
1107.9	233.69
1111.27	335.186
1114.65	232.443
1118.02	103.553
1121.4	43.3367
1124.77	12.246
1128.15	3.95458
1131.52	1.67897
1134.9	1.64327
1138.27	1.0244
1141.65	1.70543
1145.02	7.58983
1148.4	9.19748
1151.77	15.1233
1155.14	19.4278
1158.52	21.1114
1161.89	23.1772
1165.27	23.5148
1168.64	27.3425
1172.02	25.8866
1175.39	26.5629
1178.77	29.2777
1182.14	33.4545
1185.52	30.2749
1188.89	30.1814
1192.27	27.0007
1195.64	22.5979
1199.02	20.0433
1202.39	20.7229
1205.77	15.8326
1209.14	17.6848
1212.52	16.4731
1215.89	14.2991
1219.27	13.9251
1222.64	9.29237
1226.02	8.0138
1229.39	5.59787
1232.77	5.54614
1236.14	3.94827
1239.52	2.92503
1242.89	3.18558
1246.27	1.97092
1249.64	2.51125
1253.02	0.232841
1256.39	1.98508
1259.76	0.298973
1263.14	1.13177
1266.51	2.92995
1269.89	1.91905
1273.26	1.06808
1276.64	1.90469
1280.01	1.37701
1283.39	0.496338
1286.76	1.52441
1290.14	1.62504
1293.51	0.14325
1296.89	0.539894
1300.26	2.95319
1303.64	0.663979
