Measurement: Raman, 780 nm, unoriented, Raman Data Processed
Mineral: Hurlbutite
Rruff sample: R070612
Ideal chemistry: CaBe_2_P_2_O_8_
Locality: Viitaniemi, Erajarvi, Orivesi, Etela-Suomen Laani, Finland
Source: James Shigley
Description: Light brown, massive, associated with beryllonite, hydroxylherderite, and apatite. The hurlbutite is very fine-grained holding the other coarser mineral fragments in place.
Raman shift (cm-1)	intensity
150.816	0
153.709	20.7466
156.601	73.3955
159.494	401.043
162.387	567.386
165.279	82.1191
168.172	51.1113
171.065	82.5474
173.958	437.47
176.85	208.161
179.743	382.579
182.636	363.787
185.528	594.607
188.421	499.728
191.314	437.405
194.206	584.566
197.099	620.329
199.992	711.99
202.885	534.788
205.777	1015.61
208.67	1106.49
211.563	841.471
214.455	416.622
217.348	107.135
220.241	29.9453
223.133	17.1982
226.026	64.5205
228.919	8.15088
231.811	4.84473
234.704	90.0591
237.597	221.474
240.49	333.828
243.382	510.217
246.275	634.343
249.168	802.654
252.06	1136.59
254.953	908.546
257.846	537.039
260.738	408.963
263.631	348.771
266.524	357.372
269.416	278.655
272.309	291.413
275.202	332.676
278.095	331.293
280.987	400.902
283.88	524.977
286.773	616.026
289.665	661.835
292.558	431.828
295.451	250.068
298.344	184.011
301.236	99.7803
304.129	86.8735
307.022	23.6411
309.914	41.0107
312.807	9.23584
315.7	18.7061
318.592	18.9331
321.485	120.191
324.378	173.134
327.271	247.277
330.163	284.856
333.056	434.19
335.949	707.253
338.841	966.677
341.734	1132.21
344.627	1200.27
347.519	1484.24
350.412	1905.63
353.305	1763.11
356.197	1060.72
359.09	467.038
361.983	235.755
364.876	119.78
367.768	1.74316
370.661	1.43311
373.554	15.9146
376.446	78.7837
379.339	7.44775
382.232	18.5664
385.125	70.4683
388.017	135.837
390.91	232.833
393.803	212.502
396.695	79.8491
399.588	12.2383
402.481	28.2441
405.373	29.8916
408.266	22.4731
411.159	57.1103
414.051	123.122
416.944	171.44
419.837	325.947
422.73	487.337
425.622	722.915
428.515	1158.39
431.408	1568.49
434.3	1377.26
437.193	1425.76
440.086	1790.7
442.978	2422.22
445.871	1943.67
448.764	1485.09
451.656	571.377
454.549	311.106
457.442	283.402
460.335	396.945
463.227	463.442
466.12	689.719
469.013	997.975
471.905	1445.23
474.798	1457.08
477.691	903.385
480.584	579.107
483.476	549.245
486.369	668.8
489.262	796.55
492.154	1156.83
495.047	1124.73
497.94	448.582
500.832	155.248
503.725	21.7744
506.618	51.5879
509.51	33.6909
512.403	36.4448
515.296	16.9971
518.189	7.68506
521.081	3.73096
523.974	12.5249
526.867	114.575
529.759	332.543
532.652	367.924
535.545	386.577
538.437	505.461
541.33	631.094
544.223	887.733
547.115	1096.84
550.008	1480.97
552.901	1913.29
555.794	2342.36
558.686	2338.63
561.579	1688.08
564.472	1224.62
567.364	1482.05
570.257	1834.83
573.15	1857
576.043	2061.33
578.935	2566.55
581.828	3072.48
584.721	2328.21
587.613	1562.97
590.506	1499.73
593.399	1706.28
596.291	1383.65
599.184	759.846
602.077	444.14
604.97	357.531
607.862	553.286
610.755	413.268
613.648	232.212
616.54	154.714
619.433	125.659
622.326	233.067
625.218	287.225
628.111	265.462
631.004	158.602
633.896	88.9961
636.789	55.4111
639.682	14.3755
642.575	33.29
645.467	21.5317
648.36	1.3457
651.253	4.20752
654.145	8.89697
657.038	25.7925
659.931	25.835
662.823	48.5991
665.716	17.9502
668.609	57.0977
671.502	39.7715
674.394	84.728
677.287	165.788
680.18	191.344
683.072	166.43
685.965	269.915
688.858	323.332
691.75	350.612
694.643	383.899
697.536	459.744
700.428	453.918
703.321	379.942
706.214	312.839
709.107	368.07
711.999	173.227
714.892	105.732
717.785	142.757
720.677	111.564
723.57	106.465
726.463	86.0586
729.356	118.966
732.248	89.0483
735.141	111.422
738.034	103.4
740.926	199.736
743.819	184.803
746.712	155.231
749.604	147.248
752.497	238.917
755.39	127.874
758.283	31.0488
761.175	31.7124
764.068	86.4326
766.961	36.3296
769.853	37.8872
772.746	76.4189
775.639	61.6343
778.531	86.7534
781.424	19.2881
784.317	2.15283
787.21	26.273
790.102	26.5254
792.995	24.5259
795.888	32.8462
798.78	135.918
801.673	48.4624
804.566	120.939
807.458	112.38
810.351	99.29
813.244	121.913
816.136	86.6001
819.029	40.9556
821.922	39.5645
824.815	53.4995
827.707	9.60156
830.6	54.5566
833.493	46.4287
836.385	53.6699
839.278	34.3779
842.171	60.7178
845.063	90.7271
847.956	24.4434
850.849	67.7402
853.742	32.4019
856.634	0.713867
859.527	35.4751
862.42	65.3213
865.312	33.9878
868.205	67.0474
871.098	53.4624
873.99	94.1069
876.883	8.2876
879.776	64.6982
882.668	119.418
885.561	141.263
888.454	138.63
891.347	102.869
894.239	32.2261
897.132	114.975
900.025	42.2563
902.917	118.164
905.81	66.9805
908.703	7.17236
911.596	52.8179
914.488	52.5435
917.381	43.5669
920.274	12.0102
923.166	23.3159
926.059	65.8003
928.952	7.99854
931.844	52.8433
934.737	44.645
937.63	15.9976
940.523	11.3691
943.415	4.25684
946.308	99.0464
949.201	9.5376
952.093	32.4609
954.986	76.5596
957.879	121.017
960.771	52.0356
963.664	185.018
966.557	49.7129
969.449	113.599
972.342	136.941
975.235	204.833
978.128	286.507
981.02	426.385
983.913	574.677
986.806	791.472
989.698	986.79
992.591	1312.65
995.484	1749.24
998.376	2605.28
1001.27	3635.03
1004.16	5119.93
1007.05	6854.11
1009.95	8749.75
1012.84	10532.2
1015.73	11692.4
1018.62	10961.1
1021.52	8859.6
1024.41	6921.72
1027.3	5698.14
1030.2	4722.9
1033.09	3636.63
1035.98	2809.26
1038.87	2126.35
1041.77	1483.41
1044.66	1027.26
1047.55	719.294
1050.44	479.308
1053.34	322.807
1056.23	163.431
1059.12	92.5381
1062.02	63.294
1064.91	39.7315
1067.8	20.2324
1070.69	64.2412
1073.59	102.091
1076.48	72.0811
1079.37	109.268
1082.27	208.668
1085.16	307.133
1088.05	377.612
1090.94	343.79
1093.84	123.915
1096.73	113.54
1099.62	76.7861
1102.51	126.934
1105.41	1.58301
1108.3	107.641
1111.19	50.1367
1114.08	54.6836
1116.98	15.919
1119.87	32.1826
1122.76	16.1787
1125.65	71.6221
1128.55	9.97461
1131.44	97.3359
1134.33	295.265
1137.23	249.966
1140.12	392.019
1143.01	305.241
1145.9	72.1914
1148.8	12.1377
1151.69	38.3945
1154.58	79.3447
1157.47	32.084
1160.37	92.7959
1163.26	174.551
1166.15	187.298
1169.05	358.465
1171.94	449.606
1174.83	497.578
1177.72	585.427
1180.62	508.653
1183.51	378.248
1186.4	249.665
1189.3	91.3213
1192.19	72.5176
1195.08	55.6728
1197.97	53.3535
1200.87	39.7549
1203.76	44.8984
1206.65	4.2334
1209.54	19.8662
1212.44	53.7891
1215.33	73.4609
1218.22	85.0752
1221.11	15.7197
1224.01	31.417
1226.9	51.0176
1229.79	49.709
1232.68	1.02441
1235.58	7.83398
1238.47	90.0117
1241.36	78.3086
1244.26	18.0527
1247.15	74.5684
1250.04	68.957
1252.93	26.748
1255.83	53.9463
1258.72	41.7295
1261.61	78.5205
1264.51	51.3115
1267.4	71.5342
1270.29	119.105
1273.18	30.7324
1276.08	52.3975
1278.97	41.0654
1281.86	50.0977
1284.75	56.7832
1287.65	87.5986
1290.54	20.2832
1293.43	46.2822
1296.32	41.2949
