Measurement: Raman, 532 nm, unoriented, Raman Data Processed
Mineral: Hurlbutite
Rruff sample: R070612
Ideal chemistry: CaBe_2_P_2_O_8_
Locality: Viitaniemi, Erajarvi, Orivesi, Etela-Suomen Laani, Finland
Source: James Shigley
Description: Light brown, massive, associated with beryllonite, hydroxylherderite, and apatite. The hurlbutite is very fine-grained holding the other coarser mineral fragments in place.
Raman shift (cm-1)	intensity
136.623	0
139.515	31.7787
142.408	144.111
145.301	455.654
148.193	266.092
151.086	90.515
153.979	147.063
156.871	292.318
159.764	549.175
162.657	730.632
165.549	332.861
168.442	43.9808
171.335	19.0901
174.228	53.5617
177.12	234.343
180.013	333.911
182.906	340.804
185.798	592.358
188.691	472.178
191.584	270.905
194.476	310.279
197.369	384.445
200.262	446.788
203.155	435.58
206.047	505.238
208.94	888.256
211.833	740.478
214.725	358.531
217.618	113.493
220.511	12.2342
223.404	30.4292
226.296	1.28473
229.189	23.3494
232.082	15.9583
234.974	75.7434
237.867	121.46
240.76	249.366
243.652	396.329
246.545	540.986
249.438	761.275
252.331	1049.61
255.223	859.581
258.116	559.654
261.009	300.513
263.901	249.521
266.794	211.872
269.687	183.374
272.579	195.771
275.472	174.53
278.365	200.771
281.257	185.28
284.15	178.297
287.043	241.6
289.936	292.207
292.828	168.416
295.721	123.632
298.614	69.9173
301.506	78.0762
304.399	45.8241
307.292	20.3586
310.185	40.0912
313.077	8.25848
315.97	12.6476
318.863	36.4146
321.755	49.5258
324.648	54.6802
327.541	51.7064
330.433	132.482
333.326	166.432
336.219	275.17
339.111	389.354
342.004	487.14
344.897	553.616
347.79	750.548
350.682	895.449
353.575	927.711
356.468	557.103
359.36	316.508
362.253	144
365.146	97.9248
368.038	3.59842
370.931	28.835
373.824	9.79849
376.717	4.47659
379.609	24.7159
382.502	0.719757
385.395	22.4666
388.287	47.3574
391.18	80.1433
394.073	138.44
396.966	90.0736
399.858	26.1745
402.751	26.2016
405.644	2.87369
408.536	30.8193
411.429	63.0779
414.322	50.4505
417.214	103.023
420.107	223.749
423	291.279
425.892	455.94
428.785	769.411
431.678	1006.28
434.571	882.612
437.463	862.264
440.356	1198.48
443.249	1344.28
446.141	1230.93
449.034	843.505
451.927	435.597
454.82	210.572
457.712	102.723
460.605	164.13
463.498	260.9
466.39	314.195
469.283	505.963
472.176	709.547
475.068	834.45
477.961	500.327
480.854	270.026
483.747	248.367
486.639	253.773
489.532	436.713
492.425	612.273
495.317	637.357
498.21	296.431
501.103	113.924
503.995	5.07971
506.888	32.637
509.781	12.6481
512.673	2.00861
515.566	29.3335
518.459	30.9475
521.352	10.7117
524.244	2.6283
527.137	34.7777
530.03	78.0403
532.922	174.971
535.815	179.325
538.708	208.753
541.601	291.62
544.493	348.103
547.386	582.281
550.279	742.931
553.171	1058.79
556.064	1432.62
558.957	1442.79
561.849	1025.37
564.742	751.764
567.635	772.058
570.528	957.07
573.42	964.566
576.313	861.68
579.206	1105.67
582.098	1220.63
584.991	1006.05
587.884	762.954
590.777	813.414
593.669	960.471
596.562	800.416
599.455	451.964
602.347	240.267
605.24	184.285
608.133	194.967
611.025	184.514
613.918	123.442
616.811	36.5616
619.703	73.7352
622.596	102.166
625.489	87.8092
628.382	103.751
631.274	81.8123
634.167	44.4903
637.06	52.3675
639.952	27.6512
642.845	4.60483
645.738	5.22827
648.63	5.28336
651.523	7.77942
654.416	19.9231
657.309	1.42062
660.201	13.5478
663.094	8.95749
665.987	18.044
668.879	36.8288
671.772	0.147339
674.665	47.4052
677.558	31.3346
680.45	69.1569
683.343	80.1742
686.236	50.3344
689.128	101.253
692.021	104.81
694.914	186.684
697.806	238.81
700.699	188.162
703.592	184.078
706.485	127.706
709.377	57.1395
712.27	38.6735
715.163	31.766
718.055	79.8224
720.948	62.0277
723.841	65.0367
726.733	73.1771
729.626	66.3133
732.519	50.885
735.412	73.5258
738.304	24.4928
741.197	71.3268
744.09	79.6297
746.982	115.179
749.875	132.39
752.768	106.696
755.66	107.822
758.553	26.2396
761.446	53.8125
764.338	22.5775
767.231	71.5257
770.124	50.6101
773.017	44.6787
775.909	70.3094
778.802	42.7898
781.695	11.5671
784.587	23.8638
787.48	28.1605
790.373	58.2248
793.265	12.653
796.158	12.8328
799.051	28.0864
801.944	34.6807
804.836	29.8711
807.729	50.9387
810.622	33.1288
813.514	88.7586
816.407	32.9517
819.3	8.59909
822.192	25.0171
825.085	28.6268
827.978	52.7828
830.871	54.0261
833.763	7.92557
836.656	19.2241
839.549	18.2676
842.441	17.8128
845.334	7.61667
848.227	44.3359
851.12	13.4007
854.012	40.5946
856.905	25.9153
859.798	6.73273
862.69	28.3242
865.583	24.6018
868.476	21.4673
871.368	30.2748
874.261	16.7748
877.154	35.712
880.047	51.8569
882.939	38.533
885.832	33.7339
888.725	41.6526
891.617	48.3911
894.51	22.2894
897.403	57.9425
900.295	63.1411
903.188	50.4599
906.081	40.0389
908.973	38.6268
911.866	18.0468
914.759	35.7007
917.652	10.5589
920.544	28.672
923.437	16.8405
926.33	10.8594
929.222	22.6876
932.115	16.7271
935.008	25.1951
937.9	13.9208
940.793	30.9418
943.686	20.807
946.579	11.2815
949.471	14.9609
952.364	26.1825
955.257	1.66315
958.149	32.9871
961.042	49.1577
963.935	50.4305
966.827	63.7728
969.72	50.8744
972.613	94.3729
975.506	108.489
978.398	198.859
981.291	246.563
984.184	307.844
987.076	383.321
989.969	500.397
992.862	565.88
995.755	796.284
998.647	1137.91
1001.54	1555.3
1004.43	2171.79
1007.33	2947.24
1010.22	3850.24
1013.11	4934.94
1016	5435.37
1018.9	5005.55
1021.79	4001.1
1024.68	3003.35
1027.57	2300.39
1030.47	1822.38
1033.36	1438.83
1036.25	1142.33
1039.14	882.607
1042.04	662.602
1044.93	529.244
1047.82	426.76
1050.72	284.471
1053.61	154.539
1056.5	94.7226
1059.39	68.739
1062.29	72.1993
1065.18	23.5312
1068.07	45.2726
1070.96	47.7068
1073.86	58.4977
1076.75	19.0613
1079.64	39.1582
1082.54	9.43854
1085.43	113.533
1088.32	93.6552
1091.21	70.2466
1094.11	5.21881
1097	2.76593
1099.89	14.9067
1102.78	48.4835
1105.68	13.5151
1108.57	39.2885
1111.46	32.3627
1114.36	67.0362
1117.25	42.1119
1120.14	4.43591
1123.03	17.1879
1125.93	12.2188
1128.82	33.2303
1131.71	38.9659
1134.6	101.643
1137.5	148.354
1140.39	162.406
1143.28	118.017
1146.17	62.3622
1149.07	20.3227
1151.96	2.42783
1154.85	44.7638
1157.75	21.493
1160.64	25.5245
1163.53	25.7062
1166.42	97.3655
1169.32	125.587
1172.21	165.887
1175.1	206.484
1177.99	286.372
1180.89	249.486
1183.78	194.524
1186.67	128.157
1189.57	72.1813
1192.46	50.4814
1195.35	22.5203
1198.24	7.34772
1201.14	42.147
1204.03	13.6403
1206.92	18.4099
1209.81	27.0495
1212.71	29.3498
1215.6	21.4117
1218.49	36.7915
1221.38	34.8269
1224.28	2.74057
1227.17	29.5833
1230.06	16.0285
1232.96	32.9011
1235.85	46.1045
1238.74	58.0514
1241.63	24.4311
1244.53	32.0922
1247.42	41.1192
1250.31	20.5054
1253.2	29.4246
1256.1	32.6666
1258.99	31.4774
1261.88	26.7578
1264.78	52.3384
1267.67	2.37363
1270.56	24.1857
1273.45	8.68573
1276.35	39.2301
1279.24	24.9428
1282.13	45.844
1285.03	1.84467
1287.92	0
