Measurement: Raman, 532 nm, unoriented, Raman Data Processed
Mineral: Hurlbutite
Rruff sample: R090048
Ideal chemistry: CaBe_2_P_2_O_8_
Locality: Smith mine, Chandler's Mill, Newport, New Hampshire
Source: University of Arizona Mineral Museum 1636
Description: Colorless glassy grains in matrix, associated with, and hard to visually distinguish from quartz
Raman shift (cm-1)	intensity
139.44	0
142.815	96.8074
146.189	354.232
149.564	44.9569
152.939	128.936
156.314	211.191
159.689	385.274
163.063	346.545
166.438	153.024
169.813	228.706
173.188	317.295
176.563	550.855
179.938	545.256
183.312	579.633
186.687	763.015
190.062	430.553
193.437	778.449
196.812	1151.85
200.186	1154.82
203.561	1064.13
206.936	1778.15
210.311	2411.14
213.686	379.103
217.06	82.3423
220.435	9.68665
223.81	15.9832
227.185	22.7544
230.56	12.3572
233.935	13.3571
237.309	78.5796
240.684	138.207
244.059	193.84
247.434	308.943
250.809	494.863
254.184	501.834
257.558	228.739
260.933	148.735
264.308	138.255
267.683	153.587
271.058	171.435
274.433	55.7205
277.807	30.9311
281.182	34.9054
284.557	36.9406
287.932	65.9407
291.307	40.3698
294.681	1.60644
298.056	2.80493
301.431	2.47803
304.806	4.56116
308.181	0.141846
311.555	3.55969
314.93	7.13159
318.305	19.8254
321.68	22.1451
325.055	32.5405
328.43	51.7856
331.804	91.4269
335.179	159.329
338.554	237.827
341.929	291.065
345.304	382.654
348.678	536.308
352.053	609.12
355.428	307.664
358.803	115.969
362.178	41.8708
365.553	21.1333
368.928	4.20593
372.302	9.75403
375.677	2.05432
379.052	2.0708
382.427	13.2692
385.802	16.9514
389.176	29.7274
392.551	56.0416
395.926	18.4777
399.301	5.01562
402.676	6.79968
406.05	2.47363
409.425	9.30518
412.8	35.2978
416.175	99.2258
419.55	153.968
422.925	253.911
426.299	468.788
429.674	720.199
433.049	602.1
436.424	557.667
439.799	766.259
443.173	694.486
446.548	220.424
449.923	66.8943
453.298	25.5703
456.673	24.8811
460.048	77.4236
463.423	124.136
466.797	209.135
470.172	357.548
473.547	529.016
476.922	306.77
480.297	208.208
483.671	248.704
487.046	359.094
490.421	598.618
493.796	830.436
497.171	229.557
500.546	45.7351
503.92	3.0813
507.295	7.16333
510.67	1.38184
514.045	24.022
517.42	36.5017
520.794	9.68188
524.169	10.5676
527.544	27.7412
530.919	70.1184
534.294	96.3821
537.668	123.421
541.043	187.704
544.418	174.297
547.793	232.798
551.168	338.344
554.543	488.602
557.917	555.696
561.292	368.531
564.667	345.285
568.042	572.024
571.417	785.408
574.792	827.847
578.166	1138.95
581.541	1461.96
584.916	697.533
588.291	243.053
591.666	164.837
595.04	128.126
598.415	56.2874
601.79	33.3933
605.165	44.9077
608.54	78.5789
611.915	72.7783
615.289	86.0154
618.664	128.215
622.039	204.674
625.414	252.775
628.789	181.124
632.163	81.9143
635.538	36.7161
638.913	12.7886
642.288	2.72339
645.663	2.50342
649.038	7.32227
652.412	5.50903
655.787	9.7002
659.162	1.76172
662.537	1.94971
665.912	1.68384
669.287	2.30933
672.661	5.45312
676.036	3.70679
679.411	2.40454
682.786	15.1951
686.161	22.781
689.535	35.0442
692.91	48.7156
696.285	55.8015
699.66	53.5942
703.035	45.1025
706.409	26.0623
709.784	13.5308
713.159	11.0496
716.534	2.44482
719.909	14.0376
723.284	11.5364
726.659	15.2466
730.033	20.2554
733.408	28.6863
736.783	23.0559
740.158	28.5745
743.533	31.7395
746.907	35.8584
750.282	33.1043
753.657	24.0564
757.032	22.8477
760.407	17.3201
763.782	25.1074
767.156	28.0449
770.531	32.1497
773.906	52.916
777.281	44.6609
780.656	35.7341
784.03	22.4226
787.405	6.54858
790.78	0.797119
794.155	0.994141
797.53	0.266113
800.904	3.22754
804.279	4.58521
807.654	11.3543
811.029	4.80298
814.404	4.573
817.779	0.526611
821.154	2.05591
824.528	3.14868
827.903	8.11523
831.278	13.4456
834.653	9.27271
838.028	8.71143
841.402	9.90918
844.777	8.75464
848.152	0.904297
851.527	6.81128
854.902	17.2593
858.277	0.837158
861.651	5.72852
865.026	0.893311
868.401	8.37573
871.776	8.02222
875.151	8.81226
878.525	12.4309
881.9	8.79443
885.275	6.68189
888.65	13.4304
892.025	6.11865
895.399	12.6448
898.774	14.3967
902.149	15.9021
905.524	20.5427
908.899	22.8389
912.274	16.2612
915.649	15.5068
919.023	16.1277
922.398	6.56104
925.773	5.93652
929.148	0.224365
932.523	1.63184
935.897	1.0603
939.272	3.17993
942.647	1.91846
946.022	0.399658
949.397	3.09497
952.771	5.89966
956.146	7.76831
959.521	3.76733
962.896	9.46338
966.271	3.46631
969.646	27.0027
973.02	43.9834
976.395	79.0571
979.77	117.388
983.145	171.882
986.52	246.407
989.894	360.843
993.269	558.29
996.644	894.428
1000.02	1390.13
1003.39	2158.96
1006.77	2903.19
1010.14	3355.38
1013.52	4205.47
1016.89	4366.4
1020.27	3253.52
1023.64	2167.76
1027.02	1633.62
1030.39	1339.55
1033.77	1143.54
1037.14	1088.46
1040.52	719.102
1043.89	420.519
1047.27	263.357
1050.64	143.063
1054.02	68.072
1057.39	30.3679
1060.77	31.0708
1064.14	60.8804
1067.52	109.025
1070.89	173.741
1074.27	83.4839
1077.64	23.3044
1081.02	24.3909
1084.39	74.8699
1087.76	119.192
1091.14	63.9556
1094.51	25.604
1097.89	15.2717
1101.26	26.8755
1104.64	2.44409
1108.01	2.40112
1111.39	15.9016
1114.76	28.1851
1118.14	2.28638
1121.51	10.1895
1124.89	14.457
1128.26	1.89087
1131.64	12.1633
1135.01	32.6511
1138.39	43.02
1141.76	40.2136
1145.14	16.8084
1148.51	23.9334
1151.89	24.103
1155.26	15.8989
1158.64	30.7522
1162.01	37.158
1165.38	59.4473
1168.76	90.1436
1172.13	140.911
1175.51	178.219
1178.88	165.704
1182.26	98.6626
1185.63	52.0574
1189.01	31.8459
1192.38	29.8955
1195.76	19.2593
1199.13	13.4253
1202.51	16.7324
1205.88	18.8225
1209.26	8.18262
1212.63	3.1936
1216.01	14.1467
1219.38	7.31714
1222.76	11.6751
1226.13	10.3662
1229.51	4.94678
1232.88	11.7302
1236.26	3.69385
1239.63	2.55957
1243.01	1.40772
1246.38	7.21533
1249.76	8.40845
1253.13	1.50073
1256.51	5.08814
1259.88	6.40039
1263.26	5.13257
1266.63	14.3093
1270.01	23.2024
1273.38	16.3389
1276.75	14.3227
1280.13	5.82617
1283.5	2.80371
1286.88	2.73682
1290.25	15.4915
1293.63	8.38867
1297	3.54224
1300.38	5.82617
