Measurement: Raman, 785 nm, unoriented, Raman Data Processed
Mineral: Hutchinsonite
Rruff sample: R060789
Ideal chemistry: PbTlAs_5_S_9_
Locality: Peru
Source: Michael Scott
Description: Deep red acicular crystals
Raman shift (cm-1)	intensity
95.4934	0
98.3861	3.36816
101.279	42.055
104.171	88.8098
107.064	92.1419
109.957	115.269
112.85	28.7995
115.742	19.6383
118.635	57.3493
121.528	5.42333
124.42	23.2174
127.313	75.7439
130.206	213.845
133.099	281.511
135.991	239.201
138.884	163.164
141.777	211.984
144.669	393.213
147.562	611.95
150.455	707.642
153.347	845.216
156.24	707.859
159.133	455.403
162.025	395.695
164.918	510.507
167.811	454.848
170.704	476.906
173.596	425.34
176.489	404.692
179.382	396.813
182.274	378.041
185.167	243.172
188.06	234.547
190.952	229.353
193.845	172.477
196.738	316.627
199.631	381.188
202.523	515.775
205.416	307.057
208.309	140.059
211.201	115.929
214.094	152.17
216.987	99.4216
219.88	120.684
222.772	112.602
225.665	91.5494
228.558	38.5743
231.45	13.2675
234.343	44.7208
237.236	72.9436
240.128	19.4728
243.021	24.5109
245.914	47.2783
248.806	53.526
251.699	11.1901
254.592	26.7853
257.485	77.675
260.377	100.276
263.27	55.8298
266.163	55.8524
269.055	58.5591
271.948	64.8075
274.841	88.8287
277.733	55.3092
280.626	203.77
283.519	298.307
286.412	350.732
289.304	542.989
292.197	820.988
295.09	613.935
297.982	353.947
300.875	393.927
303.768	563.563
306.661	730.705
309.553	1064.18
312.446	1021.9
315.339	471.472
318.231	187.165
321.124	147.115
324.017	160.237
326.909	198.303
329.802	182.813
332.695	253.358
335.587	297.792
338.48	230.125
341.373	359.806
344.266	460.556
347.158	739.376
350.051	1127.23
352.944	1725.59
355.836	1710.04
358.729	1400.3
361.622	1201.98
364.514	762.265
367.407	541.791
370.3	376.604
373.193	325.442
376.085	298.482
378.978	385.985
381.871	396.207
384.763	396.996
387.656	242.662
390.549	213.72
393.442	44.6691
396.334	25.0337
399.227	49.0173
402.12	49.081
405.012	64.771
407.905	20.6654
410.798	67.0008
413.69	13.6528
416.583	61.9033
419.476	26.0917
422.368	113.325
425.261	81.2331
428.154	94.6558
431.047	97.9366
433.939	61.8907
436.832	67.6024
439.725	112.795
442.617	137.546
445.51	104.214
448.403	46.801
451.296	77.2093
454.188	120.507
457.081	128.55
459.974	36.4714
462.866	226.508
465.759	228.949
468.652	182.845
471.544	149.535
474.437	159.49
477.33	112.889
480.223	125.524
483.115	76.9116
486.008	141.94
488.901	88.3433
491.793	13.6472
494.686	66.8214
497.579	136.594
500.471	55.3711
503.364	90.665
506.257	99.3626
509.149	85.7897
512.042	89.001
514.935	74.0075
517.828	113.318
520.72	63.6123
523.613	81.3688
526.506	17.3646
529.398	10.8702
532.291	9.79865
535.184	74.8029
538.077	45.0972
540.969	67.0977
543.862	43.1388
546.755	99.3639
549.647	70.1577
552.54	33.9556
555.433	111.294
558.325	80.9071
561.218	39.6211
564.111	93.4362
567.004	118.996
569.896	39.5853
572.789	41.6915
575.682	85.9915
578.574	27.8496
581.467	1.35138
584.36	71.3115
587.252	100.111
590.145	109.924
593.038	156.923
595.931	93.4183
598.823	120.107
601.716	115.411
604.609	137.341
607.501	33.7936
610.394	128.739
613.287	47.9777
616.179	10.5712
619.072	80.478
621.965	55.1092
624.857	107.399
627.75	16.8317
630.643	128.255
633.536	68.1807
636.428	100.716
639.321	122.593
642.214	116.345
645.106	159.419
647.999	15.5041
650.892	86.9427
653.784	102.606
656.677	126.225
659.57	14.4798
662.463	113.487
665.355	83.7888
668.248	113.88
671.141	80.3531
674.033	153.253
676.926	139.38
679.819	174.241
682.712	121.053
685.604	109.092
688.497	76.1439
691.39	14.5593
694.282	53.0466
697.175	46.3129
700.068	81.3469
702.96	69.3346
705.853	42.4518
708.746	61.8844
711.639	65.3072
714.531	34.477
717.424	138.736
720.317	118.453
723.209	120.471
726.102	86.5735
728.995	52.6749
731.887	152.849
734.78	21.0831
737.673	132.89
740.566	156.599
743.458	90.4241
746.351	61.493
749.244	4.32538
752.136	74.8282
755.029	66.8622
757.922	123.121
760.814	109.513
763.707	104.854
766.6	43.2656
769.492	6.01648
772.385	0.799011
775.278	32.9048
778.171	44.2053
781.063	1.61914
783.956	90.4011
786.849	24.0104
789.741	81.3638
792.634	56.6607
795.527	47.4465
798.419	41.1282
801.312	23.9015
804.205	64.9522
807.098	45.5795
809.99	49.0076
812.883	49.072
815.776	49.1112
818.668	14.967
821.561	16.8903
824.454	33.0685
827.346	0.728699
830.239	48.3423
833.132	108.073
836.024	73.7667
838.917	5.48804
841.81	144.28
844.703	87.5304
847.595	10.0219
850.488	116.851
853.381	54.3334
856.273	81.3059
859.166	9.13208
862.059	79.5985
864.952	26.844
867.844	134.369
870.737	55.1716
873.63	160.604
876.522	45.276
879.415	86.9819
882.308	75.0782
885.2	15.8185
888.093	87.9655
890.986	13.0108
893.879	64.9343
896.771	144.58
899.664	81.0333
902.557	3.68256
905.449	42.8162
908.342	71.2122
911.235	106.713
914.127	83.223
917.02	82.2067
919.913	88.9146
922.806	93.9731
925.698	177.742
928.591	79.7536
931.484	62.0871
934.376	61.7618
937.269	153.841
940.162	58.5195
943.054	47.8417
945.947	70.0179
948.84	93.0118
951.732	95.4467
954.625	92.8701
957.518	87.3364
960.411	6.46497
963.303	49.9943
966.196	45.5726
969.089	117.286
971.981	84.2293
974.874	43.4058
977.767	32.2776
980.659	74.0652
983.552	23.1307
986.445	169.395
989.338	73.4695
992.23	55.6857
995.123	42.3561
998.016	147.295
1000.91	26.942
1003.8	98.397
1006.69	100.392
1009.59	170.987
1012.48	72.1837
1015.37	103.493
1018.26	78.3355
1021.16	0.018677
1024.05	68.558
1026.94	87.8613
1029.84	1.2218
1032.73	163.447
1035.62	120.112
1038.51	79.8362
1041.41	25.0453
1044.3	152.418
1047.19	96.0422
1050.08	161.683
1052.98	119.142
1055.87	101.757
1058.76	95.4021
1061.65	95.7319
1064.55	57.1812
1067.44	165.093
1070.33	142.405
1073.23	141.567
1076.12	83.6017
1079.01	129.669
1081.9	120.401
1084.8	19.0895
1087.69	163.491
1090.58	125.488
1093.47	54.0508
1096.37	102.926
1099.26	93.9019
1102.15	113.716
1105.05	116.633
1107.94	46.2071
1110.83	133.164
1113.72	129.635
1116.62	40.0401
1119.51	5.08881
1122.4	63.0063
1125.3	139.637
1128.19	92.3554
1131.08	175.839
1133.97	123.018
1136.87	21.307
1139.76	59.559
1142.65	146.867
1145.54	57.2764
1148.44	38.6887
1151.33	38.6168
1154.22	29.3698
1157.11	87.2237
1160.01	55.8562
1162.9	46.6752
1165.79	103.91
1168.68	54.9873
1171.58	31.4921
1174.47	27.1658
1177.36	59.385
1180.26	24.0545
1183.15	74.8186
