Measurement: Raman, 532 nm, unoriented, Raman Data Processed
Mineral: Hutchinsonite
Rruff sample: R060789
Ideal chemistry: PbTlAs_5_S_9_
Locality: Peru
Source: Michael Scott
Description: Deep red acicular crystals
Raman shift (cm-1)	intensity
131.165	0
134.54	32.2549
137.915	315.972
141.29	570.943
144.665	740.277
148.039	525.102
151.414	297.213
154.789	113.309
158.164	0.211182
161.539	60.9194
164.913	79.8248
168.288	165.28
171.663	192.455
175.038	186.742
178.413	152.72
181.788	33.4794
185.162	12.6285
188.537	48.1559
191.912	70.1316
195.287	52.9076
198.662	89.4285
202.036	30.5592
205.411	25.1975
208.786	48.7208
212.161	115.95
215.536	202.318
218.911	252.983
222.285	191.044
225.66	143.959
229.035	54.0032
232.41	31.6495
235.785	15.2405
239.159	15.3344
242.534	19.6218
245.909	15.3351
249.284	5.08215
252.659	1.16992
256.033	51.9542
259.408	105.209
262.783	140.821
266.158	254.466
269.533	423.076
272.908	592.855
276.282	778.998
279.657	934.666
283.032	837.536
286.407	833.011
289.782	734.581
293.156	627.444
296.531	495.815
299.906	273.815
303.281	154.302
306.656	191.396
310.031	256.125
313.405	322.063
316.78	389.177
320.155	472.342
323.53	559.682
326.904	563.59
330.279	662.37
333.654	648.785
337.029	632.247
340.404	632.983
343.779	837.915
347.153	914.718
350.528	890.966
353.903	813.242
357.278	793.875
360.653	1324.17
364.027	1909.37
367.402	2046.27
370.777	1629.56
374.152	1164.86
377.527	970.408
380.902	1041.49
384.276	1182.81
387.651	1342.09
391.026	1076.58
394.401	284.298
397.776	43.9456
401.151	52.4119
404.525	2.2616
407.9	17.78
411.275	28.4858
414.65	14.9153
418.024	41.5447
421.399	42.2304
424.774	34.1632
428.149	26.5017
431.524	40.7742
434.899	103.633
438.273	19.1352
441.648	62.6242
445.023	90.4476
448.398	49.8361
451.773	44.1171
455.147	87.9583
458.522	61.3778
461.897	122.987
465.272	172.268
468.647	107.066
472.022	55.427
475.396	83.4674
478.771	69.6139
482.146	101.291
485.521	98.2507
488.896	41.7018
492.27	20.6504
495.645	36.6519
499.02	38.3752
502.395	2.70703
505.77	29.0444
509.144	61.5369
512.519	81.1088
515.894	49.2709
519.269	66.0391
522.644	30.3848
526.019	38.5524
529.393	2.78137
532.768	42.6923
536.143	78.3381
539.518	44.6934
542.893	60.4248
546.268	27.5576
549.642	50.9672
553.017	47.3976
556.392	78.2216
559.767	110.332
563.141	47.8726
566.516	80.6023
569.891	102.035
573.266	83.6429
576.641	52.2675
580.016	75.5714
583.39	23.5945
586.765	41.8417
590.14	61.5475
593.515	54.9045
596.89	102.711
600.264	51.8705
603.639	58.4657
607.014	7.73682
610.389	8.21191
613.764	68.0815
617.139	9.62012
620.513	36.0746
623.888	61.6873
627.263	27.3535
630.638	42.4496
634.013	68.5487
637.387	53.6178
640.762	73.4561
644.137	82.924
647.512	103.342
650.887	128.981
654.261	95.7433
657.636	68.5034
661.011	118.059
664.386	39.5874
667.761	82.7821
671.135	67.6346
674.51	86.4778
677.885	68.4045
681.26	97.6509
684.635	99.0427
688.01	104.29
691.384	83.084
694.759	67.3398
698.134	100.962
701.509	70.681
704.884	40.4665
708.259	58.9607
711.633	52.6313
715.008	54.7147
718.383	7.11939
721.758	58.118
725.133	66.3639
728.507	99.4104
731.882	98.9761
735.257	64.2788
738.632	88.2567
742.007	22.8615
745.381	57.5508
748.756	78.7042
752.131	42.5618
755.506	26.2275
758.881	9.79462
762.255	57.9363
765.63	91.2255
769.005	42.8717
772.38	39.0851
775.755	87.721
779.13	16.5152
782.504	8.52832
785.879	14.2872
789.254	30.983
792.629	35.838
796.004	17.9523
799.378	0.675232
802.753	36.4912
806.128	87.3628
809.503	42.7013
812.878	38.0045
816.253	49.7863
819.627	23.6956
823.002	69.2118
826.377	22.2289
829.752	64.9884
833.127	48.9586
836.501	31.1423
839.876	49.7495
843.251	83.9098
846.626	40.3499
850.001	12.9652
853.375	39.9523
856.75	52.3716
860.125	87.0242
863.5	62.3195
866.875	46.4519
870.25	23.2792
873.624	46.9334
876.999	35.7257
880.374	59.4124
883.749	67.4244
887.124	33.3073
890.498	60.1523
893.873	118.767
897.248	53.201
900.623	56.8035
903.998	48.1759
907.372	69.9167
910.747	18.2296
914.122	4.44806
917.497	30.0709
920.872	32.4896
924.246	59.1545
927.621	50.9894
930.996	44.4379
934.371	51.4294
937.746	76.237
941.121	88.2096
944.495	54.7317
947.87	75.4181
951.245	43.2812
954.62	8.38489
957.995	37.8622
961.37	29.4288
964.744	40.3054
968.119	75.1202
971.494	39.4124
974.869	22.4861
978.244	51.1617
981.618	9.74579
984.993	37.2964
988.368	19.7325
991.743	51.3218
995.118	4.53351
998.492	84.5505
1001.87	65.9561
1005.24	52.9338
1008.62	33.3503
1011.99	56.317
1015.37	41.8676
1018.74	40.6288
1022.12	69.7319
1025.49	40.0458
1028.87	7.27911
1032.24	53.9252
1035.62	27.9028
1038.99	31.5953
1042.37	38.094
1045.74	13.487
1049.12	66.7769
1052.49	59.2586
1055.86	59.3569
1059.24	39.5615
1062.61	97.576
1065.99	67.9283
1069.36	26.9843
1072.74	35.0442
1076.11	1.52234
1079.49	6.15088
1082.86	29.2382
1086.24	108.934
1089.61	65.7325
1092.99	44.522
1096.36	61.7809
1099.74	92.6412
1103.11	14.2722
1106.49	113.621
1109.86	15.4302
1113.24	14.5972
1116.61	88.3126
1119.99	73.2438
1123.36	41.2144
1126.73	45.8444
1130.11	69.0591
1133.48	59.7243
1136.86	14.6741
1140.23	1.09613
1143.61	27.102
1146.98	62.1318
1150.36	21.1621
1153.73	9.96045
1157.11	2.56262
1160.48	67.653
1163.86	63.4661
1167.23	6.81683
1170.61	8.38129
1173.98	49.4404
1177.36	85.7825
1180.73	53.1139
1184.11	32.0313
1187.48	1.44702
1190.86	53.7218
1194.23	21.1804
1197.61	28.2381
1200.98	44.3766
1204.36	82.0768
1207.73	5.80261
1211.11	72.3795
1214.48	93.2719
1217.86	95.5492
1221.23	27.7349
1224.61	85.4558
1227.98	29.8908
1231.36	10.6172
1234.73	57.9063
1238.1	43.007
1241.48	39.7812
1244.85	42.4194
1248.23	108.822
1251.6	14.4209
1254.98	80.153
1258.35	65.8337
1261.73	47.8083
1265.1	19.3968
1268.48	38.7753
1271.85	53.1933
1275.23	55.554
1278.6	63.6664
1281.98	135.457
1285.35	53.7949
1288.73	80.524
1292.1	61.3638
1295.48	54.0344
1298.85	1.05597
