Measurement: Raman, 780 nm, unoriented, Raman Data Processed
Mineral: Hydroromarchite
Rruff sample: R090060
Ideal chemistry: Sn^2+^_3_O_2_(OH)_2_
Locality: Hooggenoeg Fm., Barberton Greenstone Belt, South Africa
Source: Joe Zullo
Description: Pale tan tetragonal single crystal
Raman shift (cm-1)	intensity
91.8272	0
95.202	42.2871
98.5768	53.8972
101.952	110.072
105.326	265.853
108.701	473.311
112.076	739.872
115.451	1008.55
118.826	1263.59
122.201	1494.24
125.575	1609.35
128.95	1507.59
132.325	1326.26
135.7	792.547
139.075	297.62
142.449	107.848
145.824	31.0923
149.199	7.03223
152.574	22.3054
155.949	24.4407
159.323	12.2999
162.698	5.02393
166.073	30.2534
169.448	54.4441
172.823	85.2865
176.198	132.429
179.572	185.821
182.947	241.21
186.322	239.047
189.697	206.84
193.072	199.679
196.446	231.768
199.821	332.333
203.196	530.231
206.571	854.008
209.946	1256.81
213.321	1588.34
216.695	1940.72
220.07	2359.81
223.445	2787.99
226.82	3002.3
230.195	2353.39
233.569	1289.43
236.944	673.808
240.319	434.168
243.694	324.887
247.069	223.556
250.444	163.111
253.818	137.618
257.193	149.983
260.568	160.024
263.943	159.141
267.318	110.761
270.692	87.5011
274.067	52.8181
277.442	32.8332
280.817	19.0002
284.192	0.616577
287.567	2.47827
290.941	0.437866
294.316	3.68823
297.691	1.82947
301.066	0.550293
304.441	0.393799
307.815	0.954346
311.19	3.77095
314.565	5.922
317.94	6.32996
321.315	11.0739
324.69	0.502197
328.064	12.316
331.439	15.9629
334.814	16.6877
338.189	13.536
341.564	14.2367
344.938	10.889
348.313	25.0826
351.688	22.8458
355.063	23.9839
358.438	18.7704
361.812	22.1432
365.187	23.2858
368.562	15.5436
371.937	24.8396
375.312	20.0013
378.687	14.0961
382.061	15.6967
385.436	18.3481
388.811	28.8778
392.186	40.9683
395.561	38.8499
398.935	60.9922
402.31	74.0356
405.685	82.6644
409.06	92.9243
412.435	77.8068
415.81	60.9329
419.184	49.3716
422.559	34.9053
425.934	24.9929
429.309	23.6897
432.684	23.4769
436.058	12.1617
439.433	5.36621
442.808	10.385
446.183	5.06665
449.558	8.02178
452.933	1.5719
456.307	0.054688
459.682	5.72229
463.057	0.665527
466.432	0.575806
469.807	1.81616
473.181	5.15832
476.556	5.83435
479.931	5.46936
483.306	2.89624
486.681	1.36316
490.055	5.37244
493.43	0.202393
496.805	4.84021
500.18	3.75232
503.555	4.68445
506.93	2.81213
510.304	5.47302
513.679	7.8811
517.054	11.3544
520.429	13.9121
523.804	11.0957
527.178	16.6061
530.553	16.7004
533.928	20.8135
537.303	18.7179
540.678	21.9294
544.053	27.3529
547.427	11.0316
550.802	10.1001
554.177	7.83447
557.552	4.20532
560.927	6.9762
564.302	1.99487
567.676	3.11841
571.051	5.64502
574.426	3.5542
577.801	4.97607
581.176	4.03296
584.55	0.118774
587.925	1.0293
591.3	4.4436
594.675	3.78943
598.05	5.18823
601.424	2.39111
604.799	3.21423
608.174	6.95837
611.549	8.53687
614.924	4.9259
618.298	4.49573
621.673	4.19922
625.048	6.58411
628.423	5.32849
631.798	4.26917
635.173	12.8815
638.547	12.8453
641.922	5.59131
645.297	7.12787
648.672	9.16144
652.047	8.99048
655.422	0.111145
658.796	9.61682
662.171	7.47534
665.546	11.2404
668.921	7.28534
672.296	8.34882
675.67	6.57318
679.045	11.8111
682.42	7.37836
685.795	7.26294
689.17	1.80133
692.544	10.9098
695.919	6.22174
699.294	4.23694
702.669	0.147156
706.044	0.097717
709.419	9.20953
712.793	9.28778
716.168	0.827454
719.543	7.51245
722.918	7.39288
726.293	3.59412
729.668	8.25232
733.042	7.4624
736.417	5.11255
739.792	6.65253
743.167	8.39349
746.542	7.11585
749.916	7.32361
753.291	9.65906
756.666	2.76324
760.041	0.461121
763.416	4.86694
766.79	3.16254
770.165	2.07593
773.54	3.42261
776.915	1.11786
780.29	0.193054
783.665	2.48926
787.039	2.96277
790.414	0.668152
793.789	8.28601
797.164	5.69904
800.539	5.82025
803.913	6.9043
807.288	1.703
810.663	11.4353
814.038	10.6764
817.413	5.97241
820.788	8.1059
824.162	6.03534
827.537	8.63422
830.912	3.7027
834.287	7.06793
837.662	3.27484
841.036	5.69208
844.411	3.01294
847.786	4.88098
851.161	4.20508
854.536	2.24695
857.91	5.86755
861.285	0.097778
864.66	9.43359
868.035	5.11945
871.41	7.0025
874.784	1.34686
878.159	4.58221
881.534	2.74451
884.909	4.70508
888.284	5.37939
891.659	1.8385
895.033	1.5553
898.408	2.42896
901.783	3.94867
905.158	0.331604
908.533	4.01642
911.908	6.27564
915.282	3.40338
918.657	5.68311
922.032	6.36267
925.407	6.40601
928.782	0.821289
932.156	6.36121
935.531	6.70764
938.906	7.21484
942.281	9.10553
945.656	6.91785
949.03	3.62866
952.405	10.8521
955.78	11.8539
959.155	11.8506
962.53	6.09393
965.905	2.13757
969.279	2.8363
972.654	6.46258
976.029	1.96149
979.404	4.08179
982.779	2.79889
986.154	4.66968
989.528	10.7377
992.903	10.0843
996.278	11.4919
999.653	6.46979
1003.03	8.50977
1006.4	9.75415
1009.78	6.789
1013.15	3.80566
1016.53	13.276
1019.9	2.89459
1023.28	6.3479
1026.65	5.49841
1030.03	9.88898
1033.4	7.04059
1036.78	4.91022
1040.15	9.90546
1043.53	11.2158
1046.9	7.065
1050.28	8.625
1053.65	8.13739
1057.03	8.00146
1060.4	4.14795
1063.77	2.65625
1067.15	7.91711
1070.52	2.75134
1073.9	6.22333
1077.27	4.6593
1080.65	12.4501
1084.02	4.10712
1087.4	5.59576
1090.77	0.696289
1094.15	4.04016
1097.52	5.16132
1100.9	3.45898
1104.27	2.89606
1107.65	4.7832
1111.02	1.64294
1114.4	1.99103
1117.77	0.021362
1121.15	1.88031
1124.52	3.6156
1127.9	1.35138
1131.27	5.30176
1134.64	0.001648
1138.02	5.41565
1141.39	4.13196
1144.77	10.3928
1148.14	7.77582
1151.52	10.858
1154.89	4.61774
1158.27	0.509766
1161.64	8.56116
1165.02	9.29669
1168.39	8.61719
1171.77	0.176208
1175.14	7.18866
1178.52	5.2901
1181.89	11.2555
1185.27	3.26642
1188.64	12.4373
1192.02	11.3044
1195.39	7.83356
1198.77	8.09363
1202.14	8.2536
1205.52	10.0298
1208.89	4.73096
1212.27	11.3602
1215.64	7.90393
1219.02	7.23468
1222.39	6.11981
1225.77	4.6532
1229.14	0.722656
1232.52	3.4436
1235.89	4.90784
1239.27	8.06317
1242.64	4.11127
1246.01	4.35144
1249.39	8.01013
1252.76	0.654419
1256.14	4.88104
1259.51	3.48285
1262.89	4.47662
1266.26	6.0404
1269.64	6.61743
1273.01	2.09692
1276.39	6.45215
1279.76	0.33844
1283.14	4.04523
