Measurement: Raman, 780 nm, unoriented, Raman Data Processed
Mineral: Hydroxylapatite
Rruff sample: R060180
Ideal chemistry: Ca_5_(PO_4_)_3_OH
Locality: Holly Springs, Georgia, USA
Source: Julian Gray
Description: Tan colored nodule in talc schist associated with serpentinite
Measured chemistry: Ca_5.00_(P_1.00_O_4_)_3_((OH)_0.98_Cl_0.02_)
Raman shift (cm-1)	intensity
150.362	0
153.254	0.007214
156.147	0.988644
159.04	1.44354
161.932	0.763966
164.825	0.407551
167.718	1.50825
170.61	2.23149
173.503	2.75513
176.396	2.51197
179.288	2.51809
182.181	3.66698
185.074	5.84401
187.966	7.46377
190.859	8.5105
193.752	8.85688
196.645	10.6415
199.537	12.7191
202.43	18.1352
205.323	20.9001
208.215	22.2201
211.108	16.8593
214.001	9.3706
216.893	6.38947
219.786	3.90508
222.679	4.53223
225.572	5.11265
228.464	5.77522
231.357	8.25253
234.25	11.6928
237.142	14.1035
240.035	19.442
242.928	21.2122
245.821	24.215
248.713	27.4894
251.606	29.2417
254.499	25.7462
257.391	19.6303
260.284	11.521
263.177	3.59036
266.069	1.15678
268.962	3.28033
271.855	3.72972
274.748	0.841522
277.64	5.03746
280.533	13.8872
283.426	25.6026
286.318	42.1079
289.211	59.405
292.104	77.6071
294.996	98.6123
297.889	116.146
300.782	131.482
303.675	150.794
306.567	162.905
309.46	174.708
312.353	182.58
315.245	194.244
318.138	203.138
321.031	203.8
323.923	195.995
326.816	185.003
329.709	156.649
332.601	130.406
335.494	106.273
338.387	80.3758
341.279	57.7511
344.172	39.5113
347.065	23.1348
349.958	11.0073
352.85	2.09314
355.743	1.82556
358.636	2.95255
361.528	2.50244
364.421	1.61823
367.314	6.63577
370.207	12.4505
373.099	15.0225
375.992	18.6651
378.885	17.6705
381.777	13.0091
384.67	9.69907
387.563	5.89688
390.455	0.40097
393.348	0.48526
396.241	2.18628
399.134	5.43552
402.026	9.85175
404.919	17.4685
407.812	27.3657
410.704	34.5695
413.597	46.143
416.49	56.5515
419.382	69.8786
422.275	88.7929
425.168	106.098
428.06	124.911
430.953	132.845
433.846	124.49
436.739	116.134
439.631	111.742
442.524	107.594
445.417	107.571
448.309	103.455
451.202	98.2963
454.095	88.5208
456.988	78.7094
459.88	66.5266
462.773	56.7289
465.666	48.5267
468.558	39.8312
471.451	34.3752
474.344	29.6259
477.236	24.5388
480.129	18.764
483.022	16.237
485.914	12.8045
488.807	9.8844
491.7	10.448
494.592	7.05969
497.485	6.39767
500.378	4.22534
503.271	2.02086
506.163	0.809601
509.056	0.417221
511.949	0.567917
514.841	0.11467
517.734	0.696991
520.627	1.7362
523.519	1.35316
526.412	0.582298
529.305	0.563599
532.198	0.31588
535.09	0.095787
537.983	0.295128
540.876	1.03026
543.768	0.220238
546.661	0.729813
549.554	0.49408
552.447	0.62957
555.339	2.08704
558.232	3.79603
561.125	3.82434
564.017	6.02154
566.91	8.54873
569.803	11.7671
572.695	16.5251
575.588	23.8361
578.481	33.5474
581.374	39.221
584.266	52.7289
587.159	77.0819
590.052	92.0183
592.944	78.3053
595.837	44.2415
598.73	29.3771
601.622	28.5577
604.515	35.4986
607.408	42.0361
610.301	29.7671
613.193	17.3368
616.086	14.8289
618.979	10.4744
621.871	9.97765
624.764	9.31824
627.657	8.9418
630.549	8.77153
633.442	10.1818
636.335	11.05
639.227	12.9874
642.12	13.4017
645.013	14.8141
647.905	15.7504
650.798	16.2914
653.691	15.9889
656.584	13.6453
659.476	14.0294
662.369	13.2564
665.262	13.1456
668.154	11.4747
671.047	9.51134
673.94	7.39706
676.832	4.08569
679.725	5.16615
682.618	5.4695
685.511	2.09396
688.403	2.25763
691.296	1.42133
694.189	3.01219
697.081	0.039452
699.974	0.491287
702.867	0.623016
705.76	0.543129
708.652	0.798538
711.545	0.182205
714.438	1.83933
717.33	3.23687
720.223	4.12858
723.116	7.14625
726.008	10.188
728.901	12.7032
731.794	14.8716
734.687	15.5156
737.579	16.0042
740.472	15.435
743.365	15.8288
746.257	14.2795
749.15	13.4518
752.043	12.3543
754.935	10.2809
757.828	8.10517
760.721	7.83049
763.614	6.49185
766.506	5.66669
769.399	4.5712
772.292	3.82707
775.184	2.86597
778.077	1.94708
780.97	2.10152
783.862	1.6924
786.755	1.16158
789.648	1.12406
792.54	1.3634
795.433	-0.284911
798.326	0.084898
801.218	0.215641
804.111	0.273025
807.004	0.612306
809.897	0.294849
812.789	0.421562
815.682	0.537151
818.575	0.539772
821.467	0.625404
824.36	0.247517
827.253	1.06536
830.145	1.46769
833.038	1.34598
835.931	3.02692
838.824	1.98962
841.716	1.77709
844.609	3.78939
847.502	4.34393
850.394	4.57663
853.287	4.53834
856.18	4.28939
859.072	4.30673
861.965	4.7899
864.858	4.56391
867.751	4.59169
870.643	4.0892
873.536	4.9385
876.429	3.26072
879.321	2.99722
882.214	3.86356
885.107	1.32197
888	2.64161
890.892	1.32577
893.785	2.55159
896.678	1.17817
899.57	1.6264
902.463	2.30658
905.356	1.26999
908.248	2.54948
911.141	1.04749
914.034	2.63508
916.927	1.88153
919.819	1.98399
922.712	2.85341
925.605	3.27436
928.497	2.37014
931.39	3.72749
934.283	4.49913
937.175	5.9009
940.068	9.49134
942.961	14.6041
945.854	23.5232
948.746	46.3564
951.639	84.0812
954.532	122.727
957.424	222.092
960.317	459.295
963.21	684.249
966.102	323.503
968.995	99.3175
971.888	42.4277
974.78	17.8689
977.673	8.91255
980.566	5.93194
983.458	3.38835
986.351	1.91662
989.244	1.69599
992.137	0.076256
995.029	0.180805
997.922	0.209465
1000.82	0.411591
1003.71	0.997349
1006.6	0.161999
1009.49	0.611671
1012.38	0.088871
1015.28	0.129333
1018.17	1.84345
1021.06	1.8417
1023.96	3.93609
1026.85	8.91299
1029.74	11.1263
1032.63	13.1464
1035.53	19.0355
1038.42	30.8623
1041.31	45.0809
1044.2	60.0859
1047.1	87.6191
1049.99	87.9442
1052.88	40.2196
1055.78	25.6053
1058.67	19.612
1061.56	18.4111
1064.45	18.4798
1067.35	21.3213
1070.24	25.1753
1073.13	34.4509
1076.03	58.2015
1078.92	54.1311
1081.81	27.4081
1084.7	17.728
1087.6	12.5933
1090.49	12.1325
1093.38	12.3313
1096.27	8.56422
1099.17	8.54521
1102.06	5.74467
1104.95	5.7365
1107.84	3.65634
1110.74	1.46979
1113.63	1.26881
1116.52	0.410339
1119.41	0.03093
1122.31	0.467148
1125.2	1.29579
1128.09	2.52029
1130.99	4.80957
1133.88	5.8365
1136.77	9.01128
1139.66	7.67395
1142.56	6.7518
1145.45	4.74506
1148.34	5.48563
1151.23	2.74692
1154.13	6.25153
1157.02	4.94775
1159.91	5.04697
1162.81	8.87219
1165.7	9.16989
1168.59	5.15927
1171.48	2.67056
1174.38	4.65854
1177.27	3.05978
1180.16	2.05337
1183.06	2.62033
1185.95	0.69577
1188.84	0
