Measurement: Raman, 532 nm, unoriented, Raman Data Processed
Mineral: Hydroxykenomicrolite
Rruff sample: R061058
Ideal chemistry: ([box],Na,Sb^3+^)_2_Ta_2_O_6_(OH)
Locality: Mt. Vasin-Myl'k, Voron'ya Tundra, Russia
Source: Michael Scott
Description: Grayish adamantine grains (orange under long wave ultraviolet light) intimately associated with simpsonite (bluish white in SW UV).
Raman shift (cm-1)	intensity
133.79	0
137.165	2455.17
140.539	6077.77
143.914	8723.95
147.289	11606.5
150.664	14317
154.039	14273.5
157.413	12266.1
160.788	9864.42
164.163	8251.84
167.538	7717.94
170.913	7766.16
174.287	8874.24
177.662	10001.5
181.037	9568.56
184.412	8844.24
187.787	7819.12
191.162	6592.28
194.536	4786.43
197.911	3268.56
201.286	1635.86
204.661	561.703
208.036	107.484
211.411	17.4499
214.785	96.241
218.16	76.2554
221.535	104.164
224.91	1085.89
228.285	1885.68
231.659	2719.41
235.034	3289
238.409	3806.26
241.784	4404.71
245.159	4609.5
248.534	4947.53
251.908	5522.17
255.283	6017.7
258.658	7153.11
262.033	8384.1
265.408	10201.9
268.782	11636.4
272.157	12721.8
275.532	13267.2
278.907	13640.1
282.282	14006.2
285.656	12920.2
289.031	11838.6
292.406	9846.48
295.781	7669.47
299.156	5294.07
302.531	3453.36
305.905	1776.09
309.28	591.902
312.655	30.55
316.03	58.9597
319.405	102.547
322.779	979.445
326.154	2846.52
329.529	4864.24
332.904	7215.95
336.279	9232.31
339.654	10812.2
343.028	11990.3
346.403	11951.5
349.778	12014.4
353.153	11897.5
356.528	11605.7
359.902	11013
363.277	10659.1
366.652	9829.52
370.027	9151.74
373.402	8242.58
376.777	7314.26
380.151	6413.04
383.526	5535.15
386.901	4726.38
390.276	3699.08
393.651	3080.39
397.026	2190.26
400.4	1584.88
403.775	1075.65
407.15	314.18
410.525	123.754
413.9	51.2188
417.274	123.262
420.649	44.1836
424.024	213.453
427.399	6.78516
430.774	163.125
434.149	307.379
437.523	562.883
440.898	732.984
444.273	1066.42
447.648	1398.25
451.023	2562.48
454.397	3665.65
457.772	4578.5
461.147	6045.3
464.522	7442.48
467.897	8854.01
471.272	10796.7
474.646	12936.2
478.021	16501.2
481.396	21051.2
484.771	25462
488.146	28454.7
491.52	28530.6
494.895	25537.8
498.27	21396.1
501.645	17869.9
505.02	14581.8
508.394	12411.1
511.769	10567.2
515.144	8344.48
518.519	6356.15
521.894	4466.52
525.269	2699.3
528.643	1365.75
532.018	581.945
535.393	-29.1025
538.768	55.4046
542.143	138.568
545.518	26.2577
548.892	103.785
552.267	589.516
555.642	1254.62
559.017	2106.66
562.392	3170.59
565.766	4709.66
569.141	5704.78
572.516	7069.02
575.891	8652.06
579.266	10314.5
582.64	11793.7
586.015	13188.3
589.39	14112.8
592.765	14430.5
596.14	14936
599.515	14826.9
602.889	14475.5
606.264	14218.4
609.639	13876
613.014	13085.2
616.389	12130.5
619.764	11034.2
623.138	9704.56
626.513	8455.84
629.888	7656.09
633.263	7443.56
636.638	7118.88
640.013	7240.56
643.387	7667.09
646.762	8115.72
650.137	8820.95
653.512	9655.71
656.886	10174.8
660.261	10760
663.636	11258.6
667.011	11420
670.386	11329.8
673.761	10822.5
677.135	9974.56
680.51	8765.35
683.885	7126.8
687.26	5518.02
690.635	3829.32
694.01	2442.43
697.384	1685.01
700.759	1045.5
704.134	748.91
707.509	484.125
710.884	83.332
714.258	102.535
717.633	162.254
721.008	196.508
724.383	216.234
727.758	232.281
731.133	92.5898
734.507	173.148
737.882	166.797
741.257	146.879
744.632	58.5
748.007	80.2461
751.381	103.215
754.756	34.375
758.131	87.4258
761.506	332.113
764.881	556.031
768.256	976.398
771.63	1330.41
775.005	1523.83
778.38	1924.5
781.755	2188.76
785.13	2304.9
788.505	2330.34
791.879	2098.39
795.254	1895.69
798.629	1794.42
802.004	1719.13
805.379	1354.26
808.753	1314.09
812.128	1066.58
815.503	784.644
818.878	820.57
822.253	778.953
825.627	842.043
829.002	1015.4
832.377	1292.02
835.752	1381.5
839.127	1335.82
842.501	1428.29
845.876	1586.91
849.251	1438.51
852.626	1432.41
856.001	1256.22
859.376	1143.99
862.75	863.012
866.125	965.188
869.5	1094.44
872.875	858.262
876.25	930.027
879.625	847.234
882.999	918.051
886.374	1085.54
889.749	1320.21
893.124	1499.79
896.499	1723
899.874	1592.45
903.248	1660.59
906.623	1546.57
909.998	1508.29
913.373	1471.65
916.748	1093.61
920.122	1078.57
923.497	927.148
926.872	658.356
930.247	688.57
933.622	805.453
936.996	731.422
940.371	711.922
943.746	632.035
947.121	861.379
950.496	903.25
953.87	807.016
957.245	790.828
960.62	721.438
963.995	775.59
967.37	559.352
970.745	325.016
974.119	134.328
977.494	100.43
980.869	158
984.244	180.555
987.619	8.85938
990.994	75.418
994.368	188.039
997.743	29.1055
1001.12	24.7305
1004.49	27.7383
1007.87	95.1719
1011.24	66.1914
1014.62	222.953
1017.99	491.047
1021.37	358.57
1024.74	510.449
1028.12	777.176
1031.49	474.266
1034.87	688.746
1038.24	612.504
1041.62	809.797
1044.99	788.5
1048.37	753.273
1051.74	581.125
1055.12	682.68
1058.49	477.133
1061.87	725.559
1065.24	398.699
1068.61	365.137
1071.99	487.394
1075.36	416.746
1078.74	297.238
1082.11	579.215
1085.49	269.008
1088.86	395.621
1092.24	434.492
1095.61	260.168
1098.99	332.41
1102.36	324.359
1105.74	171.953
1109.11	300.883
1112.49	273.566
1115.86	308.863
1119.24	240.836
1122.61	150.766
1125.99	327.07
1129.36	178.051
1132.74	300.117
1136.11	253.82
1139.49	302.211
1142.86	208.308
1146.23	265.789
1149.61	150.961
1152.98	90.293
1156.36	175.133
1159.73	320.441
1163.11	118.184
1166.48	267.984
1169.86	142.242
1173.23	105.621
1176.61	127.594
1179.98	160.676
1183.36	77.5391
1186.73	17.9375
1190.11	29.4062
1193.48	125.516
1196.86	21.9883
1200.23	11.7773
1203.61	3.24609
1206.98	45.8672
1210.36	17.6445
1213.73	5.23047
1217.11	144.856
1220.48	297.977
1223.86	20.4297
1227.23	197.113
1230.61	144.672
1233.98	123.461
1237.36	61.832
1240.73	91.2266
1244.11	164.422
1247.48	146.738
1250.86	277.711
1254.23	252.422
1257.6	4.62891
1260.98	251.465
1264.35	75.1328
1267.73	140.769
1271.1	68.4336
1274.48	13.5391
1277.85	132.617
1281.23	210.562
1284.6	169.199
1287.98	188.453
1291.35	145.879
1294.73	181.164
1298.1	61.7109
1301.48	198.254
1304.85	8.10938
1308.23	0
