Measurement: Raman, 785 nm, unoriented, Raman Data Processed
Mineral: Hydroxykenomicrolite
Rruff sample: R061058
Ideal chemistry: ([box],Na,Sb^3+^)_2_Ta_2_O_6_(OH)
Locality: Mt. Vasin-Myl'k, Voron'ya Tundra, Russia
Source: Michael Scott
Description: Grayish adamantine grains (orange under long wave ultraviolet light) intimately associated with simpsonite (bluish white in SW UV).
Raman shift (cm-1)	intensity
143.706	0
146.598	947.188
149.491	1845.64
152.384	1649.98
155.276	716.782
158.169	192.73
161.062	124.118
163.954	447.248
166.847	733.041
169.74	938.687
172.632	1002.77
175.525	1058.3
178.418	1258.43
181.311	1438.13
184.203	1402.67
187.096	1299.18
189.989	1083.66
192.881	911.069
195.774	716.471
198.667	483.191
201.56	361.603
204.452	187.216
207.345	37.6743
210.238	48.4551
213.13	158.636
216.023	165.17
218.916	93.8926
221.808	85.6289
224.701	131.848
227.594	173.619
230.487	262.352
233.379	348.705
236.272	384.167
239.165	471.162
242.057	513.408
244.95	501.407
247.843	495.498
250.735	562.539
253.628	619.763
256.521	691.275
259.413	798.842
262.306	1038.89
265.199	1222.55
268.092	1357.04
270.984	1418.07
273.877	1482.82
276.77	1526.95
279.662	1636.23
282.555	1667.52
285.448	1599.89
288.341	1431.44
291.233	1283.6
294.126	989.159
297.019	771.153
299.911	555.05
302.804	405.498
305.697	298.049
308.589	162.046
311.482	105.417
314.375	13.7422
317.267	21.7119
320.16	50.6992
323.053	246.261
325.946	548.131
328.838	792.882
331.731	1151.38
334.624	1422.83
337.516	1693.36
340.409	1857.12
343.302	2057.26
346.195	2163.84
349.087	2138.95
351.98	2045.76
354.873	1961.38
357.765	1875.46
360.658	1682.91
363.551	1545.4
366.443	1415.79
369.336	1315.98
372.229	1249.26
375.122	1138.35
378.014	1013.73
380.907	841.441
383.8	648.089
386.692	549.148
389.585	503.035
392.478	444.987
395.37	360.943
398.263	336.339
401.156	237.791
404.048	120.62
406.941	108.789
409.834	11.4868
412.727	13.6963
415.619	76.2529
418.512	2.38379
421.405	25.0991
424.297	35.8037
427.19	64.7412
430.083	18.0771
432.976	27.1802
435.868	30.0977
438.761	72.0054
441.654	120.36
444.546	252.975
447.439	266.255
450.332	337.038
453.224	444.42
456.117	533.529
459.01	683.679
461.902	778.844
464.795	845.799
467.688	1020.4
470.581	1188.21
473.473	1350.58
476.366	1629.74
479.259	2139.18
482.151	2711.06
485.044	3346
487.937	3878.77
490.829	4011.14
493.722	3719.33
496.615	3227.08
499.508	2635.02
502.4	2180.28
505.293	1786.58
508.186	1555
511.078	1315.26
513.971	1061.85
516.864	838.347
519.756	622.144
522.649	481.791
525.542	286.286
528.435	178.64
531.327	81.8564
534.22	33.1704
537.113	51.9898
540.005	20.7212
542.898	57.7368
545.791	62.4736
548.683	71.9043
551.576	28.8286
554.469	159.153
557.362	229.029
560.254	277.035
563.147	392.009
566.04	413.757
568.932	561.837
571.825	697.19
574.718	774.886
577.611	985.465
580.503	1086.56
583.396	1244.78
586.289	1398.91
589.181	1482.12
592.074	1635.09
594.967	1740.92
597.859	1751.74
600.752	1832.45
603.645	1844.12
606.538	1883.74
609.43	1920.01
612.323	1936.82
615.216	1815.84
618.108	1704.52
621.001	1595.96
623.894	1425.67
626.786	1249.22
629.679	1094.42
632.572	1003.61
635.465	972.136
638.357	854.716
641.25	809.54
644.143	737.044
647.035	751.172
649.928	744.91
652.821	824.021
655.713	878.18
658.606	931.208
661.499	981.898
664.391	995.021
667.284	1027.95
670.177	1050.36
673.07	1019.04
675.962	938.569
678.855	840.304
681.748	776.967
684.64	652.196
687.533	520.419
690.426	419.163
693.318	237.797
696.211	163.979
699.104	93.8081
701.997	57.7356
704.889	29.2336
707.782	6.76807
710.675	12.6362
713.567	10.553
716.46	45.3818
719.353	10.0442
722.245	14.1753
725.138	20.325
728.031	39.9104
730.924	21.3686
733.816	3.95898
736.709	11.6836
739.602	50.8081
742.494	11.9526
745.387	0.420898
748.28	41.178
751.173	33.938
754.065	40.8162
756.958	23.271
759.851	74.3894
762.743	61.9375
765.636	80.3572
768.529	142.865
771.421	213.335
774.314	217.346
777.207	260.731
780.1	262.123
782.992	262.285
785.885	257.219
788.778	244.034
791.67	242.52
794.563	213.124
797.456	179.016
800.348	158.752
803.241	131.525
806.134	158.237
809.027	155.461
811.919	153.364
814.812	123.53
817.705	144.597
820.597	81.8201
823.49	88.6084
826.383	81.5915
829.275	84.5046
832.168	73.2476
835.061	81.2141
837.953	70.6397
840.846	70.1477
843.739	114.794
846.631	124.367
849.524	146.588
852.417	205.444
855.31	233.024
858.202	209.216
861.095	188.88
863.988	165.204
866.88	112.41
869.773	97.4004
872.666	75.1499
875.558	38.5513
878.451	31.8804
881.344	66.1021
884.237	20.1143
887.129	26.7295
890.022	59.4287
892.915	64.0681
895.807	74.5164
898.7	76.5654
901.593	73.5454
904.486	63.0955
907.378	84.6704
910.271	95.572
913.164	32.2353
916.056	32.8643
918.949	44.3469
921.842	50.3518
924.734	20.1113
927.627	10.3225
930.52	15.9841
933.413	27.9211
936.305	32.8457
939.198	57.6089
942.091	76.0928
944.983	42.1433
947.876	64.72
950.769	69.5122
953.661	55.072
956.554	92.0156
959.447	64.7578
962.34	77.5137
965.232	89.8242
968.125	91.8269
971.018	57.7112
973.91	50.1643
976.803	27.7873
979.696	44.3105
982.588	32.6794
985.481	12.2376
988.374	15.5862
991.266	23.0754
994.159	6.1604
997.052	21.8423
999.945	56.1638
1002.84	17.427
1005.73	47.1724
1008.62	73.7134
1011.51	43.898
1014.41	67.2258
1017.3	116.142
1020.19	58.6125
1023.09	89.0366
1025.98	84.6074
1028.87	98.8813
1031.76	104.532
1034.66	105.212
1037.55	114.521
1040.44	167.781
1043.34	105.334
1046.23	74.7219
1049.12	97.2534
1052.01	51.3345
1054.91	28.8975
1057.8	68.6304
1060.69	65.676
1063.58	79.3579
1066.48	62.8591
1069.37	32.7295
1072.26	83.2063
1075.15	88.3401
1078.05	41.2244
1080.94	52.2263
1083.83	72.968
1086.73	87.9031
1089.62	89.8315
1092.51	62.7952
1095.4	85.3191
1098.3	92.9551
1101.19	73.4512
1104.08	82.0742
1106.97	95.3547
1109.87	77.4863
1112.76	100.272
1115.65	138.625
1118.55	75.8054
1121.44	36.0999
1124.33	44.3359
1127.22	36.9387
1130.12	43.385
1133.01	6.19019
1135.9	8.24341
1138.79	29.1653
1141.69	53.9351
1144.58	25.751
1147.47	15.7202
1150.37	4.32471
1153.26	46.4695
1156.15	59.9236
1159.04	64.1135
1161.94	80.3831
1164.83	49.5686
1167.72	56.7978
1170.61	56.469
1173.51	37.2002
1176.4	64.3101
1179.29	49.511
1182.18	33.4819
1185.08	19.439
1187.97	52.2778
1190.86	35.5457
1193.76	40.5637
1196.65	9.42822
1199.54	74.8276
1202.43	101.534
1205.33	25.2095
1208.22	63.6926
1211.11	37.4285
1214	38.7422
1216.9	85.8774
1219.79	25.926
1222.68	42.4302
1225.58	12.9412
1228.47	78.9827
1231.36	45.2334
1234.25	26.9995
1237.15	31.6387
1240.04	6.76929
1242.93	116.017
1245.82	8.75415
1248.72	65.9551
1251.61	41.0303
1254.5	25.6148
1257.39	34.5254
1260.29	26.644
1263.18	6.42505
1266.07	29.7039
1268.97	35.9038
1271.86	0
