Measurement: Raman, 780 nm, unoriented, Raman Data Processed
Mineral: Hydroniumjarosite
Rruff sample: R060402
Ideal chemistry: (H_3_O)Fe^3+^_3_(SO_4_)_2_(OH)_6_
Locality: Cyprus, Greece
Source: American Museum of Natural History
Description: Tan colored consolidated powder
Raman shift (cm-1)	intensity
166.298	0
169.19	0.236664
172.083	2.12579
174.976	0.322174
177.869	2.56647
180.761	5.61441
183.654	3.56146
186.547	9.55386
189.439	12.4584
192.332	16.9085
195.225	28.0655
198.117	44.0963
201.01	68.9394
203.903	88.6481
206.796	117.916
209.688	135.717
212.581	168.518
215.474	196.78
218.366	227.143
221.259	230.423
224.152	183.645
227.044	115.885
229.937	70.42
232.83	42.0937
235.722	27.9475
238.615	20.5896
241.508	11.5024
244.401	8.40213
247.293	5.5997
250.186	0.804688
253.079	0.099396
255.971	1.73352
258.864	0.35379
261.757	0.298615
264.649	2.76498
267.542	3.93893
270.435	7.07364
273.328	8.909
276.22	16.845
279.113	20.594
282.006	29.7353
284.898	37.6538
287.791	45.7626
290.684	50.4759
293.576	63.5748
296.469	58.2078
299.362	53.6624
302.255	36.9113
305.147	23.7291
308.04	11.9139
310.933	8.83749
313.825	2.90002
316.718	0.761078
319.611	0.796844
322.503	0.069641
325.396	0.244049
328.289	0.889709
331.182	0.247345
334.074	1.35031
336.967	7.48328
339.86	15.5007
342.752	18.8819
345.645	25.0927
348.538	29.6143
351.43	32.1007
354.323	35.2598
357.216	32.8613
360.108	27.6727
363.001	19.9757
365.894	13.6837
368.787	7.51169
371.679	3.49811
374.572	1.13986
377.465	1.5365
380.357	0.076904
383.25	1.64926
386.143	3.5256
389.036	3.1658
391.928	2.31131
394.821	2.4071
397.714	4.13019
400.606	5.76544
403.499	5.08273
406.392	9.9855
409.284	12.3192
412.177	20.607
415.07	29.6516
417.962	40.5483
420.855	57.9427
423.748	76.4106
426.641	93.7852
429.533	113.48
432.426	137.354
435.319	150.335
438.211	151.69
441.104	141.446
443.997	126.735
446.889	114.366
449.782	107.418
452.675	92.9645
455.567	65.2324
458.46	37.7833
461.353	25.1484
464.246	15.3374
467.138	9.71935
470.031	9.5435
472.924	4.36227
475.816	5.49641
478.709	4.623
481.602	0.690247
484.495	0.469559
487.387	0.560852
490.28	1.83581
493.173	0.362808
496.065	1.6057
498.958	1.88997
501.851	1.22635
504.743	1.87904
507.636	1.76923
510.529	0.939575
513.422	3.03774
516.314	3.49005
519.207	2.99457
522.1	3.24812
524.992	6.97511
527.885	8.67154
530.778	9.14487
533.67	12.1551
536.563	14.2593
539.456	14.7816
542.348	19.5826
545.241	24.0052
548.134	30.526
551.027	31.5799
553.919	37.7649
556.812	36.767
559.705	40.3226
562.597	39.7452
565.49	37.5195
568.383	32.489
571.275	26.0182
574.168	19.8632
577.061	13.9174
579.954	10.1268
582.846	8.08463
585.739	5.64354
588.632	1.93669
591.524	1.74059
594.417	0.67952
597.31	0.219666
600.202	0.761139
603.095	4.42433
605.988	10.814
608.881	20.0778
611.773	26.1003
614.666	34.1327
617.559	46.5409
620.451	66.8102
623.344	68.4734
626.237	31.2812
629.129	15.0953
632.022	8.65944
634.915	7.81023
637.808	10.1142
640.7	11.6699
643.593	8.14487
646.486	7.85634
649.378	4.20952
652.271	4.70041
655.164	1.06589
658.056	0.615906
660.949	1.62559
663.842	2.41559
666.735	1.97476
669.627	0.473328
672.52	0.791428
675.413	0.553558
678.305	0.146439
681.198	0.948044
684.091	0.627899
686.983	2.58984
689.876	4.60976
692.769	0.35675
695.662	1.09929
698.554	2.82742
701.447	1.64717
704.34	1.85583
707.232	1.2126
710.125	2.59436
713.018	2.03526
715.91	0.848099
718.803	4.3076
721.696	1.37741
724.588	2.96358
727.481	1.13011
730.374	2.0706
733.266	2.34674
736.159	0.111603
739.052	2.11824
741.945	2.99171
744.837	1.89963
747.73	1.44469
750.623	2.25116
753.515	0.440018
756.408	0.109558
759.301	1.62102
762.193	0.031754
765.086	1.43141
767.979	3.07076
770.872	0.915863
773.764	0.457535
776.657	0.92485
779.55	1.0883
782.442	3.23517
785.335	2.09524
788.228	0.385315
791.12	0.463837
794.013	2.71175
796.906	0.27771
799.799	2.24985
802.691	2.05826
805.584	0.947983
808.477	0.120544
811.369	0.033112
814.262	0.261429
817.155	2.33485
820.048	0.970917
822.94	0.106934
825.833	1.4044
828.726	2.09817
831.618	1.02742
834.511	0.65004
837.404	1.3192
840.296	2.96672
843.189	1.45537
846.082	2.10602
848.975	0.940704
851.867	2.44803
854.76	2.07704
857.653	3.47707
860.545	3.72533
863.438	3.18504
866.331	4.07684
869.223	1.27702
872.116	0.977646
875.009	3.05502
877.901	1.84541
880.794	1.62407
883.687	2.57472
886.58	2.77684
889.472	0.581284
892.365	2.51183
895.258	3.70055
898.15	1.38022
901.043	0.666046
903.936	1.23857
906.828	2.56374
909.721	2.55211
912.614	2.65158
915.506	2.10754
918.399	2.85979
921.292	2.5181
924.185	1.8671
927.077	2.0143
929.97	2.44185
932.863	1.73018
935.755	2.37715
938.648	0.441986
941.541	0.159164
944.433	2.38019
947.326	2.46492
950.219	1.29459
953.112	0.077866
956.004	2.90286
958.897	0.483261
961.79	1.90173
964.682	1.24681
967.575	2.28828
970.468	1.59375
973.361	0.726105
976.253	4.28123
979.146	1.79704
982.039	4.90008
984.931	5.29852
987.824	7.90721
990.717	12.5598
993.609	24.1889
996.502	38.9692
999.395	55.7642
1002.29	77.2622
1005.18	107.586
1008.07	110.983
1010.97	74.5517
1013.86	33.7808
1016.75	21.8207
1019.64	14.4611
1022.54	9.38788
1025.43	8.66057
1028.32	6.13522
1031.21	4.05661
1034.11	3.18797
1037	1.57088
1039.89	1.15871
1042.79	0.439896
1045.68	0.086868
1048.57	0.266586
1051.46	0.759155
1054.36	0.990097
1057.25	1.06972
1060.14	1.71976
1063.03	1.34398
1065.93	0.486191
1068.82	3.10161
1071.71	3.2034
1074.61	2.28058
1077.5	7.06638
1080.39	11.3351
1083.28	17.5385
1086.18	26.048
1089.07	40.1204
1091.96	57.3793
1094.85	76.4213
1097.75	95.4977
1100.64	106.373
1103.53	104.912
1106.42	87.6359
1109.32	61.8841
1112.21	39.3382
1115.1	22.1364
1117.99	12.9849
1120.89	12.3704
1123.78	7.34239
1126.67	8.72376
1129.57	6.00183
1132.46	8.6142
1135.35	8.77071
1138.24	12.5717
1141.14	16.7122
1144.03	21.0991
1146.92	24.181
1149.82	27.8094
1152.71	27.2654
1155.6	25.3556
1158.49	18.5981
1161.39	15.3
1164.28	11.3485
1167.17	7.39288
1170.06	5.35372
1172.96	6.98733
1175.85	2.61877
1178.74	2.4227
1181.63	1.04817
1184.53	0.0121
1187.42	1.18845
1190.31	1.57791
1193.21	3.06599
1196.1	0.808189
1198.99	0.416405
1201.88	1.19659
1204.78	2.16502
1207.67	2.20691
1210.56	1.57006
1213.45	0.623268
1216.35	0.241951
1219.24	1.05972
1222.13	1.25131
1225.03	2.872
1227.92	1.17251
1230.81	0.580788
1233.7	1.215
1236.6	1.69663
1239.49	0.986313
1242.38	4.04042
1245.27	1.84677
1248.17	0.141129
1251.06	3.31756
1253.95	0.41201
1256.85	1.55022
1259.74	2.05087
1262.63	2.72671
1265.52	2.17767
1268.42	1.07032
1271.31	0.772102
1274.2	0.554924
1277.09	1.15481
1279.99	2.24372
1282.88	1.3742
