Measurement: Raman, 785 nm, unoriented, Raman Data Processed
Mineral: Hydroxylellestadite
Rruff sample: R060769
Ideal chemistry: Ca_5_(SiO_4_)_1.5_(SO_4_)_1.5_(OH)
Locality: Crestmore, Riverside County, California, USA
Source: Michael Scott
Description: Transparent tan-yellow prismatic crystals in blue calcite
Measured chemistry: Ca_5.00_((SiO_4_)_1.23_(SO_4_)_1.09_(PO_4_)_0.68_)_Σ=3_((OH)_0.89_Cl_0.11_)_Σ=1_; OH estimated by difference and stoichiometry
Raman shift (cm-1)	intensity
159.133	0
162.025	83.1248
164.918	59.1824
167.811	59.5842
170.704	100.243
173.596	86.5549
176.489	29.8008
179.382	1.32666
182.274	21.5466
185.167	72.7793
188.06	88.5657
190.952	131.413
193.845	121.415
196.738	150.951
199.631	181.168
202.523	162.044
205.416	172.693
208.309	105.691
211.201	62.9673
214.094	42.1572
216.987	48.8196
219.88	70.8652
222.772	29.054
225.665	41.8926
228.558	3.98071
231.45	9.72949
234.343	5.06763
237.236	23.9507
240.128	26.209
243.021	4.88452
245.914	14.5808
248.807	1.60327
251.699	49.134
254.592	112.266
257.485	141.185
260.377	179.141
263.27	249.986
266.163	300.869
269.055	370.144
271.948	387.781
274.841	465.476
277.733	527.401
280.626	579.087
283.519	671.146
286.412	727.967
289.304	773.671
292.197	784.498
295.09	864.886
297.982	922.218
300.875	1014.25
303.768	1114.67
306.66	1214.73
309.553	1190.03
312.446	1199.25
315.339	1164.97
318.231	1109.12
321.124	1072.89
324.017	1028.25
326.909	931.978
329.802	892.261
332.695	828.295
335.587	708.644
338.48	637.344
341.373	535.836
344.266	417.254
347.158	364.964
350.051	361.029
352.944	311.235
355.836	176.946
358.729	172.35
361.622	69.9482
364.514	24.6279
367.407	13.4534
370.3	30.6985
373.193	24.627
376.085	5.72266
378.978	18.5584
381.871	54.0576
384.763	15.0908
387.656	56.6582
390.549	238.184
393.441	386.961
396.334	554.352
399.227	696.26
402.12	803.741
405.012	722.842
407.905	695.959
410.798	686.064
413.69	667.304
416.583	708.672
419.476	736.017
422.368	748.54
425.261	702.361
428.154	770.934
431.047	746.192
433.939	721.585
436.832	685.49
439.725	677.328
442.617	717.705
445.51	703.049
448.403	822.125
451.296	1002.26
454.188	1388.77
457.081	1911.15
459.974	2368.7
462.866	2460.72
465.759	2283.4
468.652	1915.55
471.544	1597.76
474.437	1270.8
477.33	929.981
480.223	577.226
483.115	336.567
486.008	135.539
488.901	82.3428
491.793	13.5596
494.686	37.3672
497.579	53.1301
500.471	33.6826
503.364	21.7485
506.257	11.9507
509.15	88.9836
512.042	136.074
514.935	165.728
517.828	260.195
520.72	340.447
523.613	470.391
526.506	603.796
529.398	670.244
532.291	739.173
535.184	707.57
538.076	657.851
540.969	516.148
543.862	393.028
546.755	269.909
549.647	215.186
552.54	100.437
555.433	116.451
558.325	124.189
561.218	173.63
564.111	245.735
567.003	338.191
569.896	363.813
572.789	494.323
575.682	519.577
578.574	608.19
581.467	591.818
584.36	518.535
587.252	367.826
590.145	194.844
593.038	76.1865
595.93	50.1211
598.823	136.912
601.716	220.149
604.609	338.101
607.501	416.547
610.394	564.052
613.287	756.263
616.179	1168.13
619.072	1635.73
621.965	2110.87
624.857	2377.85
627.75	2241.11
630.643	1999.77
633.536	1712.45
636.428	1418.96
639.321	1516.08
642.214	1652.95
645.106	1508.63
647.999	1072.64
650.892	576.68
653.784	228.417
656.677	70.9595
659.57	25.7893
662.463	36.115
665.355	15.902
668.248	42.4733
671.141	7.99133
674.033	7.69543
676.926	5.7467
679.819	13.8543
682.711	43.1083
685.604	28.1888
688.497	56.7057
691.39	67.9038
694.282	92.6268
697.175	129.933
700.068	118.317
702.96	138.313
705.853	151.9
708.746	150.481
711.638	202.802
714.531	206.231
717.424	193.69
720.317	203.498
723.209	208.3
726.102	209.388
728.995	182.413
731.887	177.451
734.78	201.445
737.673	197.661
740.565	196.827
743.458	198.916
746.351	188.788
749.244	209.476
752.136	238.312
755.029	199.415
757.922	229.487
760.814	218.975
763.707	191.379
766.6	209.343
769.492	194.135
772.385	192.581
775.278	157.232
778.171	140.968
781.063	136.931
783.956	117.527
786.849	108.196
789.741	96.2467
792.634	56.4585
795.527	48.5543
798.419	1.62134
801.312	3.31067
804.205	14.8159
807.098	13.5396
809.99	19.1383
812.883	6.41101
815.776	0.86438
818.668	28.9191
821.561	31.0981
824.454	80.7369
827.346	144.328
830.239	285.839
833.132	459.523
836.024	747.836
838.917	1195.79
841.81	1810.3
844.703	2627.23
847.595	3605.7
850.488	4486
853.381	5099.42
856.273	5246.04
859.166	4752.6
862.059	3968.92
864.951	3029.46
867.844	2122.58
870.737	1377.18
873.63	808.856
876.522	493.729
879.415	246.544
882.308	159.596
885.2	85.6233
888.093	92.6442
890.986	60.0544
893.878	62.9137
896.771	60.8628
899.664	89.3312
902.557	143.792
905.449	32.2935
908.342	24.6419
911.235	12.0686
914.127	16.4214
917.02	32.3824
919.913	11.3932
922.805	17.9066
925.698	46.9866
928.591	50.5284
931.484	89.2882
934.376	102.171
937.269	184.527
940.162	383.849
943.054	723.857
945.947	1298.59
948.84	2197.01
951.732	3161.6
954.625	3955.83
957.518	4429.84
960.411	4183.73
963.303	3564.22
966.196	2509.65
969.089	1587.19
971.981	759.816
974.874	266.673
977.767	48.8501
980.659	24.2585
983.552	76.1812
986.445	455.133
989.338	1272.11
992.23	2946.2
995.123	5802.08
998.016	9762.39
1000.91	13519.7
1003.8	15067.1
1006.69	13525.9
1009.59	9665.45
1012.48	5748.44
1015.37	2921.54
1018.26	1419.01
1021.16	715.001
1024.05	458.191
1026.94	332.185
1029.84	283.271
1032.73	228.561
1035.62	192.145
1038.51	126.659
1041.41	142.381
1044.3	85.3342
1047.19	10.3689
1050.08	25.2573
1052.98	34.1135
1055.87	5.82886
1058.76	15.3049
1061.65	25.6958
1064.55	38.6392
1067.44	25.5947
1070.33	32.8164
1073.23	0.678223
1076.12	52.042
1079.01	56.7222
1081.9	109.924
1084.8	130.318
1087.69	200.964
1090.58	81.9443
1093.47	126.257
1096.37	259.44
1099.26	224.516
1102.15	378.249
1105.05	411.65
1107.94	313.632
1110.83	344.343
1113.72	289.568
1116.62	186.399
1119.51	94.6318
1122.4	62.5859
1125.3	3.48242
1128.19	5.97168
