Measurement: Raman, 780 nm, unoriented, Raman Data Processed
Mineral: Hydrocerussite
Rruff sample: R080104
Ideal chemistry: Pb_3_(CO_3_)_2_(OH)_2_
Locality: St. Anthony deposit, Tiger, Mammoth District, Pinal County, Arizona
Source: Evan Jones
Description: Colorless pyramidal crystals associated with diaboleite
Raman shift (cm-1)	intensity
148.449	0
151.342	6.10663
154.234	34.5601
157.127	68.8881
160.02	109.083
162.912	141.404
165.805	170.403
168.698	185.497
171.591	182.431
174.483	171.056
177.376	151.183
180.269	115.746
183.161	79.6692
186.054	53.7247
188.947	29.9078
191.839	15.044
194.732	5.59238
197.625	1.98285
200.518	4.84229
203.41	5.8887
206.303	6.89356
209.196	2.20572
212.088	10.6572
214.981	19.2652
217.874	26.032
220.766	35.0563
223.659	42.1354
226.552	50.7274
229.445	56.4302
232.337	62.2528
235.23	64.806
238.123	66.2565
241.015	68.7054
243.908	70.4991
246.801	69.6971
249.694	72.9871
252.586	77.2118
255.479	82.9666
258.372	88.9841
261.264	102.04
264.157	115.35
267.05	127.684
269.942	141.719
272.835	140.839
275.728	130.775
278.62	115.697
281.513	95.3484
284.406	79.274
287.299	62.7313
290.191	52.0001
293.084	43.3296
295.977	36.7359
298.869	32.8493
301.762	29.2453
304.655	26.6865
307.548	24.6574
310.44	22.1016
313.333	19.2937
316.226	15.8827
319.118	12.4078
322.011	9.24365
324.904	6.71542
327.796	4.17523
330.689	1.54511
333.582	1.08124
336.474	1.47677
339.367	1.78714
342.26	0.980415
345.152	1.70063
348.045	1.06194
350.938	1.28586
353.831	3.87154
356.723	6.5389
359.616	10.5957
362.509	15.8279
365.401	22.0083
368.294	29.0221
371.187	39.1957
374.079	49.9312
376.972	61.5555
379.865	76.2962
382.758	91.0769
385.65	105.249
388.543	117.201
391.436	125.813
394.328	128.309
397.221	125.782
400.114	120.576
403.007	111.511
405.899	103.953
408.792	93.8452
411.685	84.2037
414.577	73.5484
417.47	64.4984
420.363	55.0033
423.255	47.9415
426.148	40.5149
429.041	35.9257
431.933	34.8004
434.826	35.5836
437.719	40.8354
440.612	43.6547
443.504	32.2753
446.397	16.956
449.29	7.66047
452.182	2.36564
455.075	0.285107
457.968	0.968105
460.861	1.12638
463.753	1.25281
466.646	0.691772
469.539	0.168236
472.431	1.12057
475.324	1.37059
478.217	2.15177
481.109	2.57799
484.002	3.7542
486.895	4.67077
489.788	5.99296
492.68	6.48857
495.573	7.78505
498.466	8.19205
501.358	8.33565
504.251	9.65156
507.144	9.95564
510.036	9.80879
512.929	9.82721
515.822	8.85859
518.715	7.99263
521.607	6.828
524.5	5.9153
527.393	4.74377
530.285	4.55391
533.178	3.4361
536.071	3.29635
538.963	2.66945
541.856	2.45792
544.749	2.07625
547.641	1.7466
550.534	1.84956
553.427	1.83077
556.32	1.32054
559.212	1.4056
562.105	0.750088
564.998	0.97139
567.89	0.715378
570.783	0.752438
573.676	0.720238
576.568	0.378157
579.461	0.490143
582.354	0.313066
585.247	0.594852
588.139	1.25179
591.032	2.00548
593.925	2.67389
596.817	4.02516
599.71	6.05802
602.603	9.23168
605.495	12.1153
608.388	13.1586
611.281	10.6987
614.174	7.68858
617.066	7.73304
619.959	8.4944
622.852	5.28491
625.744	2.07048
628.637	0.984448
631.53	0.039445
634.423	0.113941
637.315	0.334388
640.208	0.033982
643.101	0.076283
645.993	0.329248
648.886	0.073849
651.779	0.267081
654.671	0.215884
657.564	0.12621
660.457	0.154325
663.35	0.442955
666.242	1.20907
669.135	3.09671
672.028	4.52668
674.92	8.27459
677.813	15.2061
680.706	19.3246
683.598	14.038
686.491	9.38867
689.384	8.36886
692.277	9.63019
695.169	12.1028
698.062	12.4496
700.955	9.33076
703.847	7.45188
706.74	9.25007
709.633	8.7175
712.525	3.13057
715.418	0.140916
718.311	0.113549
721.203	0.00052
724.096	0.400867
726.989	0.102613
729.882	0.412859
732.774	0.540971
735.667	0.894327
738.56	0.779745
741.452	0.878614
744.345	0.669683
747.238	1.61655
750.13	1.29286
753.023	1.06926
755.916	1.2195
758.809	1.42524
761.701	1.2066
764.594	1.39657
767.487	1.81269
770.379	2.14124
773.272	2.72446
776.165	2.65593
779.058	3.19471
781.95	3.62962
784.843	3.86401
787.736	4.12768
790.628	4.1029
793.521	4.66012
796.414	5.19273
799.306	4.96345
802.199	5.22279
805.092	5.26354
807.985	8.54724
810.877	4.01712
813.77	3.03551
816.663	2.38185
819.555	1.35143
822.448	1.80204
825.341	2.16456
828.233	4.17388
831.126	7.92025
834.019	12.0078
836.912	13.0287
839.804	8.31587
842.697	4.17375
845.59	3.4457
848.482	3.59591
851.375	4.91042
854.268	6.37223
857.16	7.07187
860.053	7.34913
862.946	6.97823
865.838	6.2647
868.731	3.85167
871.624	2.61518
874.517	1.69857
877.409	1.8873
880.302	1.15574
883.195	1.20506
886.087	1.01859
888.98	0.606927
891.873	0.416242
894.765	0.318173
897.658	0.093177
900.551	0.060056
903.444	0.069279
906.336	0.144424
909.229	0.184613
912.122	0.161223
915.014	0.201615
917.907	0.173538
920.8	0.124711
923.692	0.034267
926.585	0.081355
929.478	0.05954
932.37	0.173968
935.263	0.087662
938.156	0.044865
941.049	0.262048
943.941	1.00492
946.834	1.70776
949.727	5.95274
952.619	7.71925
955.512	15.6957
958.405	29.3401
961.298	49.1502
964.19	90.6696
967.083	176.185
969.976	241.365
972.868	121.021
975.761	34.7935
978.654	12.0922
981.546	5.70381
984.439	2.76472
987.332	1.40634
990.225	0.872811
993.117	0.059438
996.01	0.151728
998.903	0.376657
1001.79	0.052637
1004.69	0.033668
1007.58	0.005301
1010.47	0.220872
1013.37	0.108393
1016.26	0.700842
1019.15	1.54499
1022.04	3.52382
1024.94	6.06801
1027.83	9.34804
1030.72	12.6177
1033.62	27.8559
1036.51	64.7546
1039.4	141.874
1042.29	258.957
1045.19	514.635
1048.08	832.053
1050.97	1111.47
1053.86	521.956
1056.76	65.1043
1059.65	29.8047
1062.54	24.7586
1065.43	29.0305
1068.33	31.9892
1071.22	34.1365
1074.11	34.9824
1077.01	32.234
1079.9	28.8858
1082.79	25.4203
1085.68	20.254
1088.58	15.0885
1091.47	10.277
1094.36	6.87608
1097.25	4.50039
1100.15	3.1542
1103.04	2.06264
1105.93	1.54403
1108.83	0.831907
1111.72	0.77793
1114.61	0.373345
1117.5	0.4204
1120.4	0.370265
1123.29	0.085787
1126.18	0.141289
1129.07	0.169137
1131.97	0.060398
1134.86	0.178831
1137.75	0.356391
1140.64	0.077951
1143.54	0.042463
1146.43	0.080482
1149.32	0.106777
1152.22	0.044291
1155.11	0.160487
1158	0.160921
1160.89	0.662968
1163.79	0.260699
1166.68	0.540672
1169.57	0.510853
1172.46	0.608502
1175.36	0.687449
1178.25	0.678557
1181.14	0.679116
1184.04	0.978325
1186.93	0.537672
1189.82	0.624109
1192.71	0.522125
1195.61	0.640472
1198.5	0.377555
1201.39	0.796192
1204.28	0.856039
1207.18	0.925257
1210.07	0.772962
1212.96	1.02663
1215.86	1.00401
1218.75	1.06428
1221.64	0.48459
1224.53	0.482314
1227.43	0.622496
1230.32	0.520839
1233.21	0.144244
1236.1	0.706704
1239	0.408679
1241.89	0.452431
1244.78	0.050228
1247.67	0.232386
1250.57	0.06968
1253.46	0.275555
1256.35	0.463377
1259.25	0.050876
1262.14	0.415577
1265.03	0.422936
1267.92	0.064265
1270.82	0.298703
1273.71	0.343478
1276.6	0.165139
1279.49	0.504224
1282.39	0.071589
1285.28	0.001227
