Measurement: Raman, 532 nm, unoriented, Raman Data Processed
Mineral: Hydroxyapophyllite-(K)
Rruff sample: R110121
Ideal chemistry: KCa_4_Si_8_O_20_(OH)8H_2_O
Locality: Kandivali quarry, Malad (near Poona), Marashtra State, India
Source: Marcus Origlieri
Description: White to colorless prismatic crystals on a basalt matrix
Raman shift (cm-1)	intensity
147.382	0
150.275	1.81789
153.167	7.84509
156.06	36.9412
158.953	82.8815
161.845	123.96
164.738	143.657
167.631	155.693
170.524	154.299
173.416	174.115
176.309	212.575
179.202	258.849
182.094	320.262
184.987	358.219
187.88	324.089
190.773	310.382
193.665	343.71
196.558	402.344
199.451	483.408
202.343	561.906
205.236	625.488
208.129	661.35
211.021	607.007
213.914	488.316
216.807	401.839
219.699	340.322
222.592	304.911
225.485	283.1
228.377	243.987
231.27	176.358
234.163	106.86
237.056	51.2547
239.948	15.2019
242.841	6.66832
245.734	14.7189
248.626	12.806
251.519	3.53352
254.412	9.14642
257.305	26.3751
260.197	42.7312
263.09	65.0109
265.983	82.4048
268.875	80.1834
271.768	56.3791
274.661	35.4985
277.553	30.7503
280.446	43.5225
283.339	57.1281
286.232	86.8175
289.124	121.462
292.017	169.056
294.91	207.868
297.802	233.087
300.695	230.703
303.588	220.703
306.481	222.675
309.373	240.618
312.266	253.196
315.159	263.181
318.051	281.971
320.944	291.641
323.837	290.673
326.729	269.691
329.622	245.195
332.515	235.826
335.408	235.659
338.3	228.204
341.193	196.292
344.086	140.429
346.978	92.8427
349.871	60.5854
352.764	44.1477
355.656	27.2743
358.549	12.8595
361.442	1.92415
364.334	0.252151
367.227	2.7249
370.12	1.54268
373.012	2.48657
375.905	3.16182
378.798	11.6457
381.691	9.6848
384.583	1.69218
387.476	7.21913
390.369	20.1088
393.261	36.3666
396.154	47.268
399.047	58.0169
401.94	55.6798
404.832	54.6352
407.725	59.8008
410.618	75.4204
413.51	111.06
416.403	170.667
419.296	234.477
422.188	315.72
425.081	414.044
427.974	537.75
430.866	616.368
433.759	535.19
436.652	340.373
439.545	190.509
442.437	106.257
445.33	56.8422
448.223	33.5142
451.115	21.0656
454.008	17.8763
456.901	24.1159
459.793	30.8688
462.686	33.7893
465.579	31.2394
468.472	36.2451
471.364	50.3562
474.257	83.6734
477.15	126.952
480.042	187.068
482.935	237.974
485.828	221.642
488.721	156.823
491.613	95.6739
494.506	58.501
497.399	41.7103
500.291	35.0075
503.184	24.3086
506.077	12.3309
508.969	3.10388
511.862	9.22021
514.755	8.68973
517.648	3.01269
520.54	10.0195
523.433	26.4725
526.326	54.9155
529.218	76.1502
532.111	108.758
535.004	128.795
537.896	143.412
540.789	147.101
543.682	144.198
546.575	137.153
549.467	135.874
552.36	141.844
555.253	154.079
558.145	173.731
561.038	201.481
563.931	247.027
566.823	303.395
569.716	371.573
572.609	441.123
575.502	522.36
578.394	586.87
581.287	617.887
584.18	584.52
587.072	494.102
589.965	381.886
592.858	273.872
595.75	194.695
598.643	132.853
601.536	86.1885
604.428	55.3424
607.321	33.8487
610.214	16.7347
613.107	7.53955
615.999	4.15987
618.892	3.2096
621.785	1.88248
624.677	0.370956
627.57	0.955612
630.463	4.98445
633.356	6.43926
636.248	15.3398
639.141	24.707
642.034	35.0259
644.926	51.3421
647.819	65.3665
650.712	87.6081
653.604	106.432
656.497	127.551
659.39	139.26
662.283	140.829
665.175	130.175
668.068	112.72
670.961	89.638
673.853	67.8035
676.746	48.6084
679.639	34.4388
682.531	24.1249
685.424	15.5962
688.317	10.1463
691.21	3.64276
694.102	0.195175
696.995	0.15506
699.888	0.977249
702.78	1.46527
705.673	1.90564
708.566	0.576965
711.458	0.148438
714.351	1.78889
717.244	2.47028
720.136	0.38501
723.029	3.44792
725.922	1.33322
728.815	3.56021
731.707	4.77303
734.6	3.27216
737.493	6.44045
740.385	5.51712
743.278	8.60802
746.171	11.7296
749.063	11.3878
751.956	16.6012
754.849	20.0489
757.742	24.4403
760.634	27.6896
763.527	28.2237
766.42	28.4091
769.312	26.6423
772.205	23.2232
775.098	18.7678
777.99	21.7456
780.883	25.3455
783.776	29.0565
786.669	39.3315
789.561	41.7111
792.454	35.8372
795.347	25.3951
798.239	11.5762
801.132	7.12395
804.025	6.04852
806.918	2.4373
809.81	3.86273
812.703	1.10638
815.596	2.67082
818.488	4.17151
821.381	6.15495
824.274	6.58864
827.166	7.60548
830.059	7.66321
832.952	8.91327
835.845	12.2479
838.737	13.1473
841.63	14.5051
844.523	14.5514
847.415	13.4688
850.308	13.8081
853.201	14.3033
856.093	11.7265
858.986	9.3365
861.879	8.00214
864.771	7.64239
867.664	6.41171
870.557	5.21089
873.45	6.45036
876.342	5.58342
879.235	5.8002
882.128	6.73105
885.02	7.89162
887.913	7.88451
890.806	7.6434
893.698	7.77429
896.591	6.84915
899.484	6.63631
902.377	4.77803
905.269	6.64787
908.162	4.4807
911.055	2.62398
913.947	1.68019
916.84	0.843079
919.733	1.38481
922.625	0.390564
925.518	1.2802
928.411	0.849442
931.304	2.6521
934.196	1.76955
937.089	1.09552
939.982	2.3696
942.875	0.556717
945.767	1.09927
948.66	0.074646
951.553	0.209152
954.445	2.07985
957.338	0.430923
960.231	0.034821
963.123	1.90169
966.016	5.16531
968.909	4.09486
971.802	2.9133
974.694	1.76245
977.587	1.30615
980.48	0.839661
983.372	1.02878
986.265	0.741562
989.158	2.08905
992.05	5.95688
994.943	11.1061
997.836	16.4383
1000.73	24.7459
1003.62	29.1797
1006.51	32.5635
1009.41	28.4645
1012.3	15.9071
1015.19	6.07114
1018.09	4.34378
1020.98	3.83058
1023.87	6.3894
1026.76	13.236
1029.66	22.8689
1032.55	37.5401
1035.44	52.9382
1038.33	74.2047
1041.23	109.167
1044.12	155.963
1047.01	240.272
1049.9	365.743
1052.8	534.442
1055.69	728.815
1058.58	882.37
1061.47	829.255
1064.37	596.471
1067.26	378.53
1070.15	237.574
1073.05	154.835
1075.94	106.543
1078.83	81.9973
1081.72	70.0794
1084.62	64.5447
1087.51	63.3959
1090.4	53.0213
1093.3	34.6609
1096.19	23.9808
1099.08	16.5474
1101.97	13.0403
1104.87	12.43
1107.76	14.5458
1110.65	19.5767
1113.54	17.7854
1116.44	13.8102
1119.33	9.95837
1122.22	3.97729
1125.12	0.198685
1128.01	1.68742
1130.9	2.01315
1133.79	2.35632
1136.68	1.13441
1139.58	0.792404
1142.47	0.1241
1145.36	2.19952
1148.26	1.02144
1151.15	0.051788
1154.04	0.399628
1156.93	1.35075
1159.83	1.81208
1162.72	1.43892
1165.61	3.20794
1168.51	3.85147
1171.4	4.5785
1174.29	2.3229
1177.18	4.41582
1180.08	4.55243
1182.97	5.37395
1185.86	5.27663
1188.75	6.25148
1191.65	6.29852
1194.54	4.26012
1197.43	6.04378
1200.33	4.25317
1203.22	3.39664
1206.11	5.05361
1209	3.15943
1211.9	5.39014
1214.79	3.75581
1217.68	3.90383
1220.57	3.53699
1223.47	4.67747
1226.36	2.52623
1229.25	2.17121
1232.14	0.587219
1235.04	0.037712
1237.93	2.40939
1240.82	0.859558
1243.71	1.90669
1246.61	2.54037
1249.5	1.8479
1252.39	2.25746
1255.29	2.81973
1258.18	2.19188
1261.07	1.9508
1263.96	2.21549
1266.86	0.715561
1269.75	1.17568
1272.64	2.18648
1275.54	1.95387
1278.43	0.498169
1281.32	2.0404
1284.21	1.81489
1287.11	1.2127
1290	1.92223
1292.89	2.07699
1295.78	0.102852
1298.68	1.50118
1301.57	1.09277
