Measurement: Raman, 532 nm, unoriented, Raman Data Processed
Mineral: Hydrotalcite
Rruff sample: R050457
Ideal chemistry: Mg_6_Al_2_CO_3_(OH)_16_4H_2_O
Locality: Snarum, Norway
Source: University of Arizona Mineral Museum
Description: Pearly-white foliated mass
Measured chemistry: Mg_6.00_(Al_1.60_Fe^3+^_0.40_)_Σ=2_(CO_3_)(OH)_16_·4H_2_O
Raman shift (cm-1)	intensity
187.913	0
190.806	1.64035
193.699	0.482803
196.591	2.79686
199.484	2.83183
202.377	3.46907
205.269	1.96068
208.162	1.84364
211.055	0.800446
213.948	1.22798
216.84	1.10338
219.733	2.06004
222.626	1.22012
225.518	1.06517
228.411	0.616333
231.304	0.967834
234.196	0.507797
237.089	0.578308
239.982	1.0939
242.875	1.90178
245.767	0.062088
248.66	0.382629
251.553	1.13814
254.445	1.67033
257.338	0.78064
260.231	0.223343
263.123	1.81767
266.016	1.64209
268.909	2.02812
271.802	1.47664
274.694	1.53589
277.587	1.84386
280.48	3.93359
283.372	6.20877
286.265	4.57394
289.158	6.60644
292.05	5.6413
294.943	5.75769
297.836	6.06625
300.729	3.55158
303.621	4.53568
306.514	5.41513
309.407	3.41638
312.299	4.02862
315.192	3.87549
318.085	2.92694
320.978	3.19818
323.87	4.23343
326.763	3.49893
329.656	4.36679
332.548	2.59564
335.441	2.9653
338.334	2.70758
341.226	2.31662
344.119	3.38226
347.012	2.54416
349.904	4.02463
352.797	4.10269
355.69	5.86231
358.583	3.73657
361.475	2.45728
364.368	3.50415
367.261	1.35355
370.153	2.57147
373.046	2.92422
375.939	3.89908
378.832	3.70154
381.724	3.37811
384.617	2.68076
387.51	3.11768
390.402	3.3205
393.295	2.19861
396.188	0.311096
399.08	1.7384
401.973	0.342712
404.866	0.155457
407.759	0.645752
410.651	0.574158
413.544	0.474792
416.437	0.677765
419.329	0.164093
422.222	1.09796
425.115	0.568634
428.007	0.314301
430.9	1.51657
433.793	1.8399
436.685	3.45981
439.578	6.0343
442.471	7.44208
445.364	8.27042
448.256	9.89969
451.149	8.21112
454.042	8.5723
456.934	7.72565
459.827	7.53107
462.72	7.07227
465.613	9.76297
468.505	5.66757
471.398	6.14627
474.291	5.48718
477.183	3.30692
480.076	0.319336
482.969	1.57169
485.861	0.957611
488.754	0.685791
491.647	0.254425
494.539	0.152863
497.432	1.58316
500.325	3.7486
503.218	3.56473
506.11	5.08108
509.003	8.05658
511.896	11.5734
514.788	16.6998
517.681	21.2473
520.574	30.1878
523.466	36.6628
526.359	42.7753
529.252	51.8623
532.145	53.9521
535.037	57.486
537.93	61.5551
540.823	67.0804
543.715	68.6094
546.608	60.4118
549.501	48.8635
552.394	36.0888
555.286	24.992
558.179	16.6482
561.072	12.7349
563.964	7.15622
566.857	3.88995
569.75	3.32187
572.642	3.73425
575.535	0.335602
578.428	1.05533
581.321	0.132172
584.213	0.831299
587.106	1.38641
589.999	0.486694
592.891	1.6058
595.784	0.399689
598.677	0.327515
601.569	0.599426
604.462	2.36694
607.355	0.956604
610.247	2.97433
613.14	2.39127
616.033	2.51569
618.926	2.45139
621.818	1.11054
624.711	1.2532
627.604	2.93546
630.496	1.66507
633.389	1.97046
636.282	1.01514
639.174	1.10135
642.067	0.369598
644.96	1.12311
647.852	0.143311
650.745	0.619781
653.638	0.198059
656.531	0.903198
659.423	0.863525
662.316	2.06836
665.209	1.12488
668.101	2.99057
670.994	5.20325
673.887	4.20908
676.779	4.7558
679.672	4.97702
682.565	6.32776
685.458	5.3529
688.35	6.64893
691.243	5.57578
694.136	3.65503
697.028	3.73633
699.921	2.78299
702.814	2.76285
705.707	1.27032
708.599	1.25891
711.492	2.91559
714.385	2.22723
717.277	2.58521
720.17	1.20569
723.063	1.83585
725.955	0.248138
728.848	1.24927
731.741	0.678894
734.634	0.649017
737.526	2.37396
740.419	0.537048
743.312	1.15588
746.204	1.08087
749.097	0.007965
751.99	0.034485
754.882	1.53946
757.775	0.543945
760.668	0.507477
763.561	1.51907
766.453	1.89145
769.346	1.60635
772.239	1.01581
775.131	2.60718
778.024	1.05045
780.917	2.26099
783.809	2.66885
786.702	1.31085
789.595	0.048523
792.487	1.87219
795.38	1.22095
798.273	1.13788
801.166	0.090973
804.058	0.601929
806.951	4.02216
809.844	1.09357
812.736	1.36877
815.629	2.43985
818.522	0.732574
821.415	1.40869
824.307	1.41888
827.2	0.005798
830.093	1.10117
832.985	1.62528
835.878	2.14136
838.771	3.26926
841.663	1.06833
844.556	1.75867
847.449	1.88919
850.342	1.27917
853.234	1.53873
856.127	3.9393
859.02	2.15598
861.912	2.89655
864.805	1.55911
867.698	1.6807
870.591	1.12964
873.483	0.287079
876.376	2.46448
879.269	1.58722
882.161	1.54062
885.054	0.146606
887.947	2.14111
890.839	1.80167
893.732	0.3508
896.625	1.41238
899.518	1.92184
902.41	0.51889
905.303	1.90414
908.196	0.049072
911.088	0.384094
913.981	1.66833
916.874	1.96204
919.766	2.1666
922.659	1.75537
925.552	2.05743
928.444	0.609467
931.337	0.656799
934.23	1.61728
937.123	0.492828
940.015	1.80121
942.908	0.742767
945.801	0.070831
948.693	0.476868
951.586	0.316864
954.479	0.175049
957.371	0.076416
960.264	0.118927
963.157	1.56488
966.05	0.298218
968.942	0.437073
971.835	0.981689
974.728	4.16425
977.62	9.14725
980.513	17.6121
983.406	28.0533
986.298	42.5532
989.191	71.1873
992.084	99.9253
994.977	62.1244
997.869	19.1268
1000.76	7.93842
1003.65	3.47592
1006.55	2.03024
1009.44	2.76666
1012.33	0.437775
1015.23	0.12262
1018.12	1.40274
1021.01	1.87241
1023.9	1.40897
1026.8	1.25391
1029.69	0.020355
1032.58	0.190643
1035.47	1.15643
1038.37	1.64914
1041.26	2.54678
1044.15	4.11902
1047.05	8.91522
1049.94	14.5646
1052.83	20.2222
1055.72	30.77
1058.62	37.945
1061.51	38.7426
1064.4	26.7452
1067.29	12.4942
1070.19	5.91452
1073.08	3.72662
1075.97	1.94318
1078.87	1.99585
1081.76	1.41538
1084.65	1.82245
1087.54	1.38544
1090.44	0.479462
1093.33	1.76761
1096.22	4.71905
1099.11	5.18063
1102.01	6.3609
1104.9	6.69724
1107.79	3.38861
1110.68	4.42569
1113.58	3.63696
1116.47	2.64206
1119.36	5.29089
1122.26	1.63779
1125.15	1.27499
1128.04	1.37518
1130.93	1.73328
1133.83	2.13101
1136.72	3.32666
1139.61	1.12994
1142.5	0.942047
1145.4	0.835876
1148.29	0.366608
1151.18	1.17194
1154.08	1.78226
1156.97	0.332001
1159.86	0.278595
1162.75	0.26889
1165.65	0.792267
1168.54	1.1138
1171.43	0.324677
1174.32	1.22119
1177.22	1.38678
1180.11	1.52173
1183	0.725037
1185.89	1.22235
1188.79	0.371521
1191.68	1.60364
1194.57	2.59988
1197.47	1.7854
1200.36	2.49704
1203.25	2.65598
1206.14	3.48221
1209.04	1.1582
1211.93	4.22729
1214.82	4.09665
1217.71	3.11054
1220.61	1.94644
1223.5	2.52988
1226.39	2.45731
1229.29	1.9285
1232.18	2.23172
1235.07	2.6217
1237.96	1.21323
1240.86	1.36972
1243.75	1.63959
1246.64	1.59442
1249.53	2.44211
1252.43	2.00204
1255.32	0.730133
1258.21	3.20627
1261.11	1.99295
1264	0.151611
1266.89	1.56335
1269.78	1.22998
1272.68	1.40219
1275.57	4.10138
1278.46	1.22565
1281.35	0.775696
