Measurement: Raman, 785 nm, unoriented, Raman Data Processed
Mineral: Hydroxylherderite
Rruff sample: R060353
Ideal chemistry: CaBePO_4_(OH)
Locality: Shigar Valley, northeast of Skardu, Baltistan, Pakistan
Source: Herb Obodda
Description: Colorless equant crystal
Measured chemistry: (Ca_0.99_Mn_0.01_)_Σ=1_Be_1.00_P_1.00_O_4_((OH)_0.52_F_0.48_)_Σ=1_; trace amounts of Na; Be not measured but assumed by stoichiometry; OH estimated by charge balance
Raman shift (cm-1)	intensity
152.738	0
155.63	378.99
158.523	418.623
161.416	1021.9
164.308	1778.53
167.201	2902.77
170.094	2150.94
172.987	685.369
175.879	329.551
178.772	610.479
181.665	827.293
184.557	409.955
187.45	420
190.343	736.51
193.235	2031.11
196.128	2623.65
199.021	1292.18
201.913	352.539
204.806	123.68
207.699	10.7129
210.591	62.875
213.484	225.875
216.377	20.6973
219.27	382.053
222.162	549.104
225.055	560.648
227.948	175.312
230.84	25.5879
233.733	97.5469
236.626	25.2168
239.518	242.092
242.411	180.287
245.304	110.99
248.197	261.231
251.089	318.381
253.982	547.312
256.875	677.35
259.767	905.631
262.66	1122.27
265.553	1454.73
268.445	1925.51
271.338	2133.07
274.231	2086.84
277.124	1944.58
280.016	1905.95
282.909	1757.39
285.802	1642.56
288.694	1590.24
291.587	1490.07
294.48	1611.56
297.373	1595.36
300.265	1500.15
303.158	1358.2
306.051	1105.77
308.943	958.481
311.836	658.361
314.729	638.449
317.621	563.51
320.514	696.426
323.407	711.127
326.3	861.363
329.192	874.088
332.085	876.34
334.978	881.545
337.87	820.606
340.763	603.93
343.656	504.465
346.548	377.342
349.441	287.131
352.334	219.754
355.226	133.856
358.119	56.1172
361.012	2.88086
363.904	3.46289
366.797	11.623
369.69	47.1289
372.583	13.1074
375.475	126.557
378.368	223.662
381.261	191.348
384.153	158.842
387.046	142.957
389.939	208.967
392.832	36.4395
395.724	283.914
398.617	201.266
401.51	282.394
404.402	155.998
407.295	282.555
410.188	241.185
413.08	278.156
415.973	316.387
418.866	518.271
421.759	732.873
424.651	1036.43
427.544	1228.54
430.437	813.281
433.329	640.676
436.222	698.172
439.115	918.826
442.007	1286.29
444.9	2077.03
447.793	3032.18
450.685	3121.67
453.578	1959.48
456.471	939.291
459.364	384.043
462.256	235.469
465.149	110.697
468.042	26.7656
470.934	40.5254
473.827	12.6055
476.72	15.3105
479.613	132.633
482.505	41.8242
485.398	55.3789
488.291	20.9141
491.183	16.959
494.076	135.035
496.969	129.84
499.861	146.91
502.754	428.094
505.647	920.42
508.539	1528.4
511.432	2389.9
514.325	3887.61
517.218	6661.68
520.11	8657.2
523.003	4348.44
525.896	1803.5
528.788	1358.62
531.681	1722.95
534.574	2470.28
537.466	1661.8
540.359	767.342
543.252	526.449
546.144	526.143
549.037	635.861
551.93	716.377
554.823	771.332
557.715	716.451
560.608	748.359
563.501	676.857
566.393	987.314
569.286	1547.27
572.179	2565.48
575.072	4303.81
577.964	6406.84
580.857	8118
583.75	9731.5
586.642	11358.6
589.535	11091.2
592.428	8113.9
595.32	5416.23
598.213	3932.68
601.106	2634.15
603.999	1859.35
606.891	1426.9
609.784	1133.44
612.677	902.928
615.569	580.738
618.462	505.725
621.355	444.445
624.247	322.805
627.14	153.119
630.033	111.891
632.926	9.18164
635.818	118.394
638.711	139.852
641.604	58.7227
644.496	23.7598
647.389	70.0977
650.282	83.1914
653.174	20.623
656.067	55.3848
658.96	57.9844
661.852	40.8379
664.745	19.5996
667.638	79.0801
670.531	85.291
673.423	154.172
676.316	265.01
679.209	248.635
682.101	324.961
684.994	330.869
687.887	294.969
690.779	366.57
693.672	394.658
696.565	508.707
699.458	603.705
702.35	411.797
705.243	337.986
708.136	370.225
711.028	404.16
713.921	215.978
716.814	258.897
719.707	174.529
722.599	144.418
725.492	158.664
728.385	122.568
731.277	45.7422
734.17	236.982
737.063	197.377
739.955	201.887
742.848	188.717
745.741	209.152
748.633	134.9
751.526	195.047
754.419	257.719
757.312	361.15
760.204	421.334
763.097	584.562
765.99	425.277
768.882	300.752
771.775	290.594
774.668	297.096
777.56	307.068
780.453	226.291
783.346	165.949
786.239	181.117
789.131	135.258
792.024	115.045
794.917	134.137
797.809	73.793
800.702	108.049
803.595	10.1855
806.487	29.1924
809.38	95.0147
812.273	18.7832
815.165	76.7051
818.058	17.9102
820.951	93.3906
823.844	35.0459
826.736	17.6367
829.629	61.9219
832.522	89.75
835.414	44.8965
838.307	15.459
841.2	1.65625
844.092	105.601
846.985	67.1025
849.878	26.3662
852.771	102.394
855.663	15.2119
858.556	60.5684
861.449	6.22559
864.341	18.5586
867.234	144.261
870.127	49.166
873.019	72.2695
875.912	93.2754
878.805	116.327
881.698	136.181
884.59	190.322
887.483	244.432
890.376	259.187
893.268	433.571
896.161	434.393
899.054	449.233
901.947	528.481
904.839	525.585
907.732	479.297
910.625	531.112
913.517	520.314
916.41	353.478
919.303	281.716
922.195	199.981
925.088	58.7471
927.981	8.35156
930.873	16.2764
933.766	38.9228
936.659	1.60938
939.552	36.5
942.444	52.125
945.337	63.1397
948.23	13.6504
951.122	29.6016
954.015	67.583
956.908	279.467
959.8	320.991
962.693	588.015
965.586	1017.25
968.479	1607.36
971.371	2580.65
974.264	4055.27
977.157	6049.35
980.049	7760.12
982.942	8899.25
985.835	8682.88
988.727	7809.73
991.62	7100.21
994.513	6962.32
997.405	7655.11
1000.3	9238.18
1003.19	11208.1
1006.08	12990.9
1008.98	12445.4
1011.87	8873.03
1014.76	5556.97
1017.65	3742.76
1020.55	2867.68
1023.44	2408.15
1026.33	2085.77
1029.22	1719.28
1032.12	1254.18
1035.01	872.255
1037.9	604.59
1040.8	302.304
1043.69	221.49
1046.58	174.288
1049.47	127.197
1052.37	84.7246
1055.26	174.106
1058.15	68.1426
1061.05	66.8398
1063.94	116.182
1066.83	8.10254
1069.72	0.330078
1072.62	1.72559
1075.51	37.3555
1078.4	17.2734
1081.29	203.03
1084.19	549.646
1087.08	715.899
1089.97	502.08
1092.87	255.636
1095.76	56.8603
1098.65	39.4453
1101.54	45.1279
1104.43	6.32519
1107.33	93.6231
1110.22	37.2412
1113.11	17.5957
1116.01	111.908
1118.9	321.692
1121.79	970.298
1124.68	1744.54
1127.58	2832.28
1130.47	3922.52
1133.36	2950.28
1136.26	1810.03
1139.15	1625.84
1142.04	2412.2
1144.93	2390.4
1147.83	959.446
1150.72	41.3252
