Measurement: Raman, 532 nm, unoriented, Raman Data Processed
Mineral: Hydrotungstite
Rruff sample: R120058
Ideal chemistry: WO_2_(OH)_2_H_2_O
Locality: Mundo Nuevo, La Libertad, Peru
Source: Bob Jenkins
Description: Greenish yellow cubes, associated with ferberite
Raman shift (cm-1)	intensity
190.29	0
193.183	1.66687
196.076	42.6207
198.968	136.698
201.861	255.498
204.754	396.831
207.647	494.555
210.539	527.03
213.432	566.798
216.325	605.112
219.217	655.437
222.11	686.836
225.003	727.07
227.895	777.551
230.788	837.952
233.681	854.936
236.573	788.521
239.466	640.315
242.359	481.675
245.252	385.023
248.144	329.553
251.037	316.504
253.93	340.108
256.822	380.212
259.715	446.004
262.608	524.93
265.5	589.335
268.393	578.884
271.286	513.596
274.179	447.391
277.071	394.567
279.964	355.176
282.857	306.266
285.75	233.978
288.642	162.313
291.535	97.6915
294.428	50.2078
297.32	17.9992
300.213	2.94495
303.106	13.5847
305.998	9.66925
308.891	17.7509
311.784	13.7609
314.676	6.75207
317.569	1.65686
320.462	4.26852
323.355	14.5132
326.247	19.6014
329.14	31.3393
332.033	40.524
334.925	59.0943
337.818	76.9971
340.711	95.579
343.603	121.016
346.496	152.717
349.389	190.722
352.281	232.581
355.174	258.618
358.067	266.166
360.96	259.685
363.852	245.873
366.745	237.941
369.638	235.345
372.53	238.584
375.423	237.825
378.316	228.025
381.209	194.963
384.101	152.915
386.994	110.448
389.887	75.2061
392.779	50.3327
395.672	38.5967
398.565	29.2459
401.457	22.9079
404.35	11.6666
407.243	6.25949
410.135	4.55063
413.028	6.51114
415.921	7.38049
418.814	5.37933
421.706	3.741
424.599	6.10007
427.492	7.8605
430.384	7.31238
433.277	9.51016
436.17	11.8198
439.062	13.3947
441.955	18.6893
444.848	23.632
447.741	30.2889
450.633	35.4658
453.526	36.3466
456.419	35.6999
459.311	30.9489
462.204	27.2217
465.097	20.0467
467.99	16.7474
470.882	16.0613
473.775	14.0899
476.668	11.0885
479.56	11.2443
482.453	11.7753
485.346	12.6547
488.238	12.4135
491.131	11.9357
494.024	13.7048
496.916	16.4201
499.809	19.7463
502.702	25.4857
505.595	25.4568
508.487	32.2294
511.38	38.5498
514.273	42.8987
517.165	47.4584
520.058	48.5875
522.951	50.6149
525.844	47.9772
528.736	46.992
531.629	44.2926
534.522	38.5159
537.414	39.6766
540.307	36.5141
543.2	32.3856
546.092	26.3867
548.985	20.3548
551.878	11.2245
554.771	2.50018
557.663	4.51386
560.556	13.4199
563.449	17.6237
566.341	19.342
569.234	22.3923
572.127	20.764
575.019	17.0256
577.912	15.6005
580.805	4.39697
583.697	5.34851
586.59	15.0879
589.483	30.1817
592.376	42.7963
595.268	61.639
598.161	76.8312
601.054	91.5719
603.946	115.342
606.839	138.392
609.732	169.566
612.625	206.154
615.517	253.387
618.41	314.599
621.303	390.832
624.195	478.576
627.088	599.733
629.981	746.354
632.873	932.676
635.766	1164.9
638.659	1423.64
641.552	1719.48
644.444	2031.33
647.337	2348.11
650.23	2602.79
653.122	2784.02
656.015	2863.57
658.908	2833.41
661.8	2722.69
664.693	2600.89
667.586	2517.23
670.479	2488.55
673.371	2508.65
676.264	2552.35
679.157	2582.39
682.049	2551.99
684.942	2397.59
687.835	2152.35
690.727	1848.62
693.62	1516.89
696.513	1223.88
699.405	968.999
702.298	765.268
705.191	605.084
708.084	476.907
710.976	380.209
713.869	294.182
716.762	228.603
719.654	176.224
722.547	135.522
725.44	111.011
728.332	86.9428
731.225	61.9057
734.118	41.5565
737.011	23.9796
739.903	16.0042
742.796	6.72162
745.689	2.76215
748.581	13.2732
751.474	16.6439
754.367	19.7227
757.26	16.668
760.152	16.0809
763.045	16.2941
765.938	14.1908
768.83	9.47467
771.723	3.10992
774.616	1.67975
777.508	6.34076
780.401	12.9925
783.294	21.0741
786.187	29.2526
789.079	32.6202
791.972	39.779
794.865	48.1192
797.757	55.849
800.65	60.9467
803.543	65.3603
806.435	65.7382
809.328	69.2006
812.221	66.6773
815.114	66.7353
818.006	60.8864
820.899	54.2112
823.792	45.4221
826.684	36.4408
829.577	28.6419
832.47	25.1317
835.362	16.3189
838.255	11.9157
841.148	9.93832
844.04	7.02463
846.933	4.33829
849.826	3.63214
852.719	3.15076
855.611	3.95673
858.504	8.28464
861.397	9.95993
864.289	13.2726
867.182	19.1895
870.075	21.5992
872.967	26.4305
875.86	35.2564
878.753	34.7533
881.646	34.0683
884.538	29.2855
887.431	27.1154
890.324	24.0614
893.216	17.717
896.109	17.9312
899.002	14.6336
901.894	13.1383
904.787	15.9421
907.68	17.9368
910.573	17.5725
913.465	24.4911
916.358	32.4
919.251	40.984
922.143	52.5404
925.036	68.608
927.929	88.1726
930.822	115.373
933.714	151.629
936.607	203.23
939.5	293.032
942.392	459.566
945.285	765.841
948.178	1212.41
951.07	1804.84
953.963	2672.47
956.856	3374.53
959.749	2718.63
962.641	1412.74
965.534	703.216
968.427	388.279
971.319	237.362
974.212	155.952
977.105	109.592
979.997	86.436
982.89	65.2865
985.783	48.1954
988.676	30.3449
991.568	20.6124
994.461	10.2051
997.354	3.61694
1000.25	0.654083
1003.14	3.62399
1006.03	1.47626
1008.92	2.20311
1011.82	4.2142
1014.71	1.95509
1017.6	3.46803
1020.5	0.771477
1023.39	0.111977
1026.28	3.32521
1029.17	3.81194
1032.07	7.18817
1034.96	7.59589
1037.85	8.68201
1040.74	10.4184
1043.64	13.0596
1046.53	13.0076
1049.42	14.8258
1052.32	17.2643
1055.21	17.6611
1058.1	19.0725
1060.99	19.0762
1063.89	18.443
1066.78	17.5771
1069.67	17.1851
1072.56	16.238
1075.46	12.2665
1078.35	11.675
1081.24	9.91297
1084.13	9.40441
1087.03	7.70428
1089.92	7.88708
1092.81	6.55792
1095.7	6.09367
1098.6	6.56999
1101.49	5.98296
1104.38	6.01301
1107.28	4.82869
1110.17	4.15564
1113.06	2.97977
1115.95	3.45429
1118.85	2.7366
1121.74	2.00819
1124.63	1.92644
1127.53	2.72768
1130.42	0.631706
1133.31	0.247467
1136.2	1.147
1139.1	2.11883
1141.99	0.695488
1144.88	1.16524
1147.77	0.029831
1150.67	1.39454
1153.56	1.68887
1156.45	0.835869
1159.35	1.6835
1162.24	0.476784
1165.13	2.44466
1168.02	1.44567
1170.92	0.882057
1173.81	1.20031
1176.7	0.488342
1179.59	1.40218
1182.49	1.75816
1185.38	1.63261
1188.27	1.39613
1191.16	1.25738
1194.06	1.35162
1196.95	0.890221
1199.84	1.89253
1202.73	1.28675
1205.63	2.30257
1208.52	1.1139
1211.41	0.354843
1214.31	2.11702
1217.2	1.36136
1220.09	1.66737
1222.98	0.425636
1225.88	1.40329
1228.77	1.72497
1231.66	0.471954
1234.56	0.010239
1237.45	0.175613
1240.34	0.008194
1243.23	0.925354
1246.13	1.21873
1249.02	0.996185
1251.91	1.23259
1254.8	0.653404
1257.7	0.981842
1260.59	2.59422
1263.48	1.50947
1266.38	1.11952
1269.27	3.23234
1272.16	1.96001
1275.05	1.59403
1277.95	0.673233
1280.84	1.39948
1283.73	0.744019
1286.62	0.844276
1289.52	0.077316
1292.41	0.446922
1295.3	2.85232
1298.19	0.920242
1301.09	1.12399
