Measurement: Raman, 532 nm, unoriented, Raman Data Processed
Mineral: Hydropyrochlore
Rruff sample: R060980
Ideal chemistry: (H_2_O,[box])_2_Nb_2_(O,OH)_6_(H_2_O)
Locality: Lueshe mine, Kivu, Democratic Republic of the Congo
Source: Bob Jenkins
Description: Pale green octahedron
Measured chemistry: ((H_2_O)_0.61_K_0.11_Sr_0.07_Ba_0.02_Ca_0.01_[box]_0.18_)(Nb_1.84_Ti_0.16_)(O_4.15_(OH)_1.85_)(H_2_O)
Raman shift (cm-1)	intensity
123.933	0
127.308	1180.54
130.682	3184.85
134.057	4743.1
137.432	7099.6
140.807	10655.9
144.182	14297
147.556	16812.4
150.931	17572.3
154.306	18377.9
157.681	19835.8
161.056	21526.4
164.43	22386.7
167.805	22369.2
171.18	22154.2
174.555	21908.3
177.93	21595
181.305	20674.1
184.679	18662.4
188.054	16245.3
191.429	13083.3
194.804	9758.67
198.179	6949.62
201.554	4411.22
204.928	2852.22
208.303	1172.2
211.678	170.422
215.053	-7.8712
218.428	48.9279
221.802	104.428
225.177	-28.9574
228.552	21.0969
231.927	16.7969
235.302	288.477
238.676	367.727
242.051	731.387
245.426	1054.02
248.801	1290.33
252.176	1408.94
255.55	1656.82
258.925	2131.72
262.3	2780.53
265.675	3236.78
269.05	3494.27
272.425	3476.31
275.799	3452.48
279.174	3401.31
282.549	3304.17
285.924	2990.77
289.299	2750.04
292.673	2414.3
296.048	2144.7
299.423	1879.09
302.798	1795.28
306.173	1304.04
309.548	783.637
312.922	356.147
316.297	26.0271
319.672	34.2473
323.047	41.5679
326.422	123.998
329.796	454.549
333.171	914.008
336.546	1553.72
339.921	2164.65
343.296	2787.78
346.671	3381.89
350.045	3973.87
353.42	4383.16
356.795	4484.03
360.17	4499.86
363.545	4628.14
366.919	4483.53
370.294	4532.36
373.669	4365.73
377.044	4106
380.419	3814.78
383.793	3739.28
387.168	3862.9
390.543	3732.87
393.918	3531.95
397.293	3345.62
400.668	2987.25
404.042	2771.73
407.417	2421.64
410.792	2058
414.167	1867.88
417.542	1727.36
420.916	1561.38
424.291	1358.52
427.666	1204.38
431.041	1122.36
434.416	733.369
437.791	504.119
441.165	264.391
444.54	13.584
447.915	13.623
451.29	149.728
454.665	567.107
458.039	1226.26
461.414	2049.62
464.789	2966.76
468.164	4022.11
471.539	4886.42
474.913	5365.68
478.288	5478.56
481.663	5595.11
485.038	5441.49
488.413	5086.3
491.788	4550.4
495.162	3932.6
498.537	3183.88
501.912	2603.7
505.287	2112.36
508.662	1402.02
512.036	950.006
515.411	621.275
518.786	311.461
522.161	175.277
525.536	12.068
528.91	-59.9102
532.285	-138.399
535.66	-123.243
539.035	-138.29
542.41	-131.326
545.785	-58.1437
549.159	-7.65003
552.534	95.7717
555.909	297.699
559.284	663.633
562.659	1075.95
566.034	1832.22
569.408	2286.12
572.783	2823.46
576.158	3478.59
579.533	4200.38
582.908	4866.58
586.282	5632.73
589.657	6368.99
593.032	7145.94
596.407	8215.99
599.782	9315.58
603.156	10654.6
606.531	12326.4
609.906	13806
613.281	15314.6
616.656	16777.9
620.03	18445
623.405	20045.2
626.78	21178.5
630.155	22078.1
633.53	22879.4
636.905	23735
640.279	24457
643.654	24759.7
647.029	25296.9
650.404	25612.4
653.779	25060.5
657.154	24576.2
660.528	23438.3
663.903	22061.3
667.278	20753.3
670.653	19219.4
674.028	17235.5
677.402	15686
680.777	14113
684.152	12402
687.527	10721.7
690.902	9220.01
694.276	7736.34
697.651	6023.28
701.026	4661.33
704.401	3795.25
707.776	2619.3
711.15	1798.77
714.525	1169.87
717.9	705.648
721.275	204.56
724.65	5.40506
728.025	-25.1519
731.399	-101.754
734.774	-74.6979
738.149	-110.915
741.524	-89.1662
744.899	-68.756
748.274	-6.32094
751.648	97.716
755.023	172.83
758.398	280.832
761.773	455.834
765.148	863.215
768.522	1219.35
771.897	1725.88
775.272	2076.82
778.647	2485.53
782.022	2940.97
785.396	3373.92
788.771	3702.3
792.146	3989.26
795.521	4220.11
798.896	4330.9
802.27	4234.07
805.645	4461.5
809.02	4337.73
812.395	4331.73
815.77	4250.9
819.145	4172.87
822.519	4021.57
825.894	4027.78
829.269	3826.64
832.644	3639.1
836.019	3305.89
839.394	3079.98
842.768	2766.22
846.143	2406.17
849.518	2021.86
852.893	1639.38
856.268	1325.31
859.642	1298.53
863.017	1048.42
866.392	769.887
869.767	642.377
873.142	595.794
876.516	415.954
879.891	494.429
883.266	393.336
886.641	335.896
890.016	368.386
893.391	445.598
896.765	564.829
900.14	500.586
903.515	449.51
906.89	587.587
910.265	608.369
913.639	751.601
917.014	950.198
920.389	1039.79
923.764	1149.53
927.139	1316.15
930.514	1308
933.888	1282.12
937.263	1061.28
940.638	1010.44
944.013	777.959
947.388	649.206
950.762	470.786
954.137	278.238
957.512	95.3672
960.887	40.6611
964.262	55.9004
967.636	152.06
971.011	76.0478
974.386	72.0293
977.761	100.631
981.136	21.0879
984.511	61.6846
987.885	4.4707
991.26	9.12109
994.635	144.805
998.01	162.077
1001.38	265.103
1004.76	420.994
1008.13	388.777
1011.51	349.571
1014.88	404.704
1018.26	324.916
1021.63	411.142
1025.01	529.249
1028.38	474.615
1031.76	472.772
1035.13	472.871
1038.51	443.898
1041.88	383.779
1045.26	346.032
1048.63	290.305
1052.01	285.984
1055.38	313.624
1058.76	290.09
1062.13	189.707
1065.51	236.49
1068.88	171.199
1072.26	150.177
1075.63	206.709
1079.01	139.173
1082.38	104.498
1085.76	105.397
1089.13	121.752
1092.51	166.776
1095.88	118.519
1099.25	179.352
1102.63	49.0527
1106	94.3154
1109.38	106.787
1112.75	126.068
1116.13	58.8457
1119.5	28.7773
1122.88	27.0986
1126.25	3.82812
1129.63	114.878
1133	83.668
1136.38	79.333
1139.75	16.7256
1143.13	47.1006
1146.5	19.2129
1149.88	31.7529
1153.25	103.892
1156.63	107.628
1160	107.189
1163.38	30.7959
1166.75	6.58398
1170.12	20.6318
1173.5	70.1025
1176.88	9.89062
1180.25	91.1357
1183.62	84.9111
1187	71.0928
1190.37	79.2314
1193.75	40.7666
1197.12	56.4434
1200.5	48.4512
1203.87	76.9609
1207.25	40.3906
1210.62	59.8262
1214	23.5947
1217.37	27.6846
1220.75	15.3164
1224.12	9.04492
1227.5	87.4951
1230.87	8.22559
1234.25	50.6709
1237.62	58.5703
1241	32.6094
1244.37	46.5908
1247.75	53.6416
1251.12	46.6309
1254.5	126.734
1257.87	46.8906
1261.24	26.3398
1264.62	5.86523
1267.99	46.0137
1271.37	158.617
1274.74	125.044
1278.12	1.8584
1281.49	71.4424
1284.87	83.3789
1288.24	34.6123
1291.62	4.16504
