Measurement: Raman, 785 nm, unoriented, Raman Data Processed
Mineral: Hydromagnesite
Rruff sample: R060011
Ideal chemistry: Mg_5_(CO_3_)_4_(OH)_2_4H_2_O
Locality: Paradise Range, Nye County, Nevada, USA
Source: University of Arizona Mineral Museum
Description: Colorless bladed crystals
Measured chemistry: Mg_5.00_(CO_3_)_4_(OH)_2_Â·4H_2_O
Raman shift (cm-1)	intensity
159.599	0
162.491	64.832
165.384	140.775
168.277	567.519
171.169	375.524
174.062	199.614
176.955	135.964
179.847	160.878
182.74	242.913
185.633	247.645
188.525	337.438
191.418	457.58
194.311	641.383
197.204	946.243
200.096	1326.67
202.989	1266.35
205.882	760.155
208.774	318.766
211.667	105.959
214.56	61.592
217.452	0.600586
220.345	82.9817
223.238	236.173
226.131	316.075
229.023	308.192
231.916	286.717
234.809	277.895
237.701	326.476
240.594	493.142
243.487	663.029
246.38	619.562
249.272	449.198
252.165	358.576
255.058	346.562
257.95	343.877
260.843	458.869
263.736	571.262
266.628	649.052
269.521	528.882
272.414	410.816
275.307	212.317
278.199	86.2896
281.092	16.605
283.985	9.2229
286.877	18.853
289.77	8.60986
292.663	37.9522
295.555	102.847
298.448	16.0474
301.341	4.47974
304.233	45.3081
307.126	30.4639
310.019	46.9258
312.912	67.2241
315.804	52.9377
318.697	85.543
321.59	86.7331
324.482	138.445
327.375	151.986
330.268	197.397
333.161	224.714
336.053	195.587
338.946	185.954
341.839	141.403
344.731	160.309
347.624	108.629
350.517	152.367
353.409	123.326
356.302	224.618
359.195	171.209
362.087	239.973
364.98	204.858
367.873	264.978
370.766	222.496
373.658	227.358
376.551	201.166
379.444	181.385
382.336	74.4351
385.229	92.8709
388.122	89.3645
391.014	82.4807
393.907	83.9868
396.8	66.3042
399.693	99.0684
402.585	133.395
405.478	32.5027
408.371	67.2351
411.263	50.2353
414.156	41.075
417.049	37.0898
419.942	45.3274
422.834	45.2078
425.727	6.49439
428.62	10.5127
431.512	10.1043
434.405	44.5657
437.298	52.427
440.19	23.1372
443.083	3.3728
445.976	62.948
448.868	57.0645
451.761	96.4238
454.654	133.205
457.547	122.799
460.439	176.575
463.332	193.587
466.225	195.611
469.117	182.691
472.01	149.081
474.903	126.257
477.796	54.678
480.688	87.4165
483.581	21.208
486.474	9.90698
489.366	11.6777
492.259	17.2129
495.152	48.4077
498.044	25.7087
500.937	20.428
503.83	0.7229
506.723	10.4365
509.615	44.7034
512.508	15.6951
515.401	3.81763
518.293	27.675
521.186	21.7214
524.079	32.988
526.971	25.2918
529.864	52.9683
532.757	77.0342
535.649	93.1692
538.542	64.9031
541.435	107.616
544.328	94.1921
547.22	161.137
550.113	129.798
553.006	168.837
555.898	199.621
558.791	210.807
561.684	219.684
564.577	176.034
567.469	156.876
570.362	163.396
573.255	150.633
576.147	104.989
579.04	153.282
581.933	109.49
584.825	121.487
587.718	153.174
590.611	114.657
593.504	52.6929
596.396	109.145
599.289	73.344
602.182	67.1848
605.074	46.0942
607.967	32.5286
610.86	48.5356
613.752	23.3442
616.645	50.791
619.538	22.2144
622.431	13.5349
625.323	1.22974
628.216	11.8777
631.109	38.1228
634.001	26.5188
636.894	51.5706
639.787	10.2334
642.679	48.7346
645.572	79.9304
648.465	37.3799
651.357	82.9749
654.25	86.3804
657.143	100.783
660.036	103.492
662.928	61.9441
665.821	93.7832
668.714	61.4343
671.606	29.3171
674.499	18.0908
677.392	51.3169
680.284	33.3909
683.177	50.3953
686.07	27.5591
688.963	41.0706
691.855	13.4556
694.748	12.3293
697.641	59.0139
700.533	107.413
703.426	140.663
706.319	124.265
709.212	170.341
712.104	205.054
714.997	270.259
717.89	316.648
720.782	376.993
723.675	461.144
726.568	469.472
729.46	335.624
732.353	241.357
735.246	151.293
738.139	93.8401
741.031	143.769
743.924	116.809
746.817	135.644
749.709	207.172
752.602	290.924
755.495	274.981
758.387	211.389
761.28	153.086
764.173	74.1545
767.066	36.6863
769.958	0.894775
772.851	56.8477
775.744	61.1631
778.636	36.0454
781.529	29.9861
784.422	44.8679
787.314	28.0984
790.207	48.7234
793.1	23.2454
795.992	65.1262
798.885	20.8984
801.778	26.0352
804.671	19.4307
807.563	38.1985
810.456	4.28711
813.349	39.053
816.241	26.3755
819.134	38.7722
822.027	6.18042
824.919	1.08154
827.812	23.6433
830.705	7.13184
833.598	42.821
836.49	11.5093
839.383	31.1191
842.276	38.2373
845.168	42.8989
848.061	45.4966
850.954	53.1663
853.846	49.1804
856.739	33.7163
859.632	33.0493
862.525	26.3179
865.417	53.5991
868.31	55.2717
871.203	85.3215
874.095	10.8425
876.988	21.9121
879.881	24.3442
882.774	55.3245
885.666	43.2205
888.559	41.3918
891.452	3.00317
894.344	4.94043
897.237	3.08423
900.13	24.9788
903.022	1.95703
905.915	27.2725
908.808	8.32886
911.701	37.1125
914.593	67.5332
917.486	18.6528
920.379	6.56616
923.271	35.1282
926.164	46.4333
929.057	42.8784
931.949	37.072
934.842	55.312
937.735	43.1709
940.628	47.6238
943.52	97.979
946.413	57.5027
949.306	92.3567
952.198	17.5935
955.091	67.031
957.984	38.5857
960.876	7.67773
963.769	10.0911
966.662	13.1282
969.554	46.6621
972.447	4.54614
975.34	47.1345
978.233	46.096
981.125	54.1284
984.018	30.0676
986.911	20.3791
989.803	72.9441
992.696	39.7654
995.589	57.8879
998.481	64.1279
1001.37	36.2839
1004.27	43.9702
1007.16	36.1108
1010.05	20.2737
1012.95	43.0371
1015.84	31.0576
1018.73	70.8467
1021.62	26.0002
1024.52	70.323
1027.41	57.5864
1030.3	40.0002
1033.19	37.6829
1036.09	25.2388
1038.98	41.2788
1041.87	23.189
1044.77	18.5049
1047.66	21.5308
1050.55	22.0454
1053.44	16.7363
1056.34	18.521
1059.23	41.002
1062.12	4.00928
1065.01	47.6216
1067.91	23.3975
1070.8	3.37891
1073.69	24.519
1076.58	46.394
1079.48	62.0347
1082.37	141.312
1085.26	145.223
1088.15	191.105
1091.05	173.01
1093.94	270.066
1096.83	326.024
1099.73	483.383
1102.62	679.284
1105.51	1087.21
1108.4	2114.68
1111.3	3701.3
1114.19	6135.43
1117.08	9373.14
1119.97	7080.89
1122.87	2921.89
1125.76	1195.38
1128.65	594.976
1131.55	355.067
1134.44	173.132
1137.33	110.683
1140.22	29.5415
1143.12	52.7212
1146.01	44.8774
1148.9	32.5884
1151.8	70.6035
1154.69	38.5596
1157.58	24.3677
1160.47	11.6958
1163.37	69.8428
1166.26	54.3252
1169.15	19.7974
1172.04	63.6099
1174.94	37.3711
1177.83	25.8862
1180.72	86.7451
1183.61	55.7417
1186.51	35.2007
1189.4	76.5615
1192.29	96.8447
1195.18	1.23193
1198.08	149.536
1200.97	82.6768
1203.86	20.6084
1206.76	54.3086
1209.65	74.7026
1212.54	67.6543
1215.43	44.999
1218.33	34.9541
1221.22	65.1504
1224.11	66.4346
1227.01	45.8145
1229.9	28.3057
1232.79	92.4981
1235.68	30.4443
1238.58	68.2607
1241.47	72.2061
