Measurement: Raman, 532 nm, unoriented, Raman Data Processed
Mineral: Hydrocerussite
Rruff sample: R080104
Ideal chemistry: Pb_3_(CO_3_)_2_(OH)_2_
Locality: St. Anthony deposit, Tiger, Mammoth District, Pinal County, Arizona
Source: Evan Jones
Description: Colorless pyramidal crystals associated with diaboleite
Raman shift (cm-1)	intensity
147.797	0
150.69	37.4014
153.582	245.738
156.475	534.16
159.368	825.845
162.26	1118.95
165.153	1387.76
168.046	1570.9
170.939	1588.85
173.831	1484.85
176.724	1337.44
179.617	1124.93
182.509	859.477
185.402	626.229
188.295	435.627
191.187	287.797
194.08	174.539
196.973	92.3379
199.865	23.9624
202.758	21.6133
205.651	54.6995
208.544	41.0027
211.436	14.7942
214.329	11.6461
217.222	48.7978
220.114	78.6064
223.007	108.038
225.9	151.965
228.792	190.587
231.685	234.725
234.578	271.703
237.471	319.01
240.363	361.009
243.256	423.431
246.149	508.382
249.041	616.373
251.934	769.693
254.827	954.966
257.719	1163.09
260.612	1393.19
263.505	1607.37
266.398	1771.79
269.29	1862.92
272.183	1829.49
275.076	1667.13
277.968	1408.63
280.861	1140.84
283.754	894.095
286.647	682.897
289.539	538.59
292.432	434.072
295.325	352.273
298.217	301.512
301.11	263.615
304.003	239.869
306.895	211.124
309.788	185.728
312.681	154.445
315.574	128.05
318.466	99.189
321.359	68.5862
324.252	48.3384
327.144	22.2816
330.037	1.61414
332.93	8.09155
335.822	12.5153
338.715	15.7835
341.608	13.2107
344.5	5.35205
347.393	12.5399
350.286	32.932
353.179	58.8685
356.071	85.4519
358.964	125.07
361.857	173.238
364.75	237.5
367.642	317.325
370.535	431.096
373.428	557.357
376.32	718.974
379.213	889.969
382.106	1065.04
384.998	1235.24
387.891	1387.95
390.784	1478.25
393.676	1522.61
396.569	1501.03
399.462	1444.38
402.355	1367.67
405.247	1265.09
408.14	1161.88
411.033	1045.57
413.925	927.753
416.818	806.756
419.711	692.015
422.603	583.847
425.496	494.759
428.389	409.777
431.282	358.297
434.174	322.715
437.067	319.838
439.96	317.622
442.852	250.231
445.745	155.071
448.638	82.2187
451.531	44.5943
454.423	20.7167
457.316	6.57752
460.209	3.6958
463.101	8.80164
465.994	8.86887
468.887	5.23135
471.779	6.21143
474.672	4.20914
477.565	3.56052
480.457	8.87439
483.35	12.8506
486.243	19.9248
489.136	22.2491
492.028	32.1077
494.921	37.0754
497.814	42.2577
500.706	49.3197
503.599	60.3125
506.492	61.0402
509.385	62.6485
512.277	63.4172
515.17	63.9601
518.063	63.3165
520.955	61.0153
523.848	52.937
526.741	44.2797
529.633	43.1219
532.526	35.5042
535.419	30.2865
538.312	28.7362
541.204	25.7033
544.097	22.6877
546.99	22.5309
549.882	19.0909
552.775	20.0613
555.668	15.6235
558.56	13.7185
561.453	13.5878
564.346	11.9772
567.239	10.5224
570.131	8.45288
573.024	8.97351
575.917	8.40164
578.809	6.65469
581.702	6.61789
584.595	6.20987
587.487	6.20606
590.38	6.10104
593.273	10.6054
596.165	14.2566
599.058	20.5792
601.951	26.8599
604.844	36.1173
607.736	38.431
610.629	36.3426
613.522	23.686
616.414	22.1741
619.307	20.4594
622.2	11.3402
625.092	6.70599
627.985	3.31287
630.878	0.522827
633.771	1.34485
636.663	0.118622
639.556	0.08844
642.449	0.942291
645.341	0.962311
648.234	0.004761
651.127	1.6752
654.019	2.75122
656.912	2.36404
659.805	1.52924
662.698	0.765045
665.59	1.45932
668.483	3.7251
671.376	11.6711
674.268	20.5648
677.161	38.0902
680.054	67.8834
682.947	75.8646
685.839	83.6518
688.732	89.4196
691.625	103.375
694.517	115.233
697.41	110.591
700.303	66.3468
703.195	46.6313
706.088	44.923
708.981	38.8422
711.874	10.427
714.766	2.89227
717.659	4.83337
720.552	3.07321
723.444	2.8876
726.337	2.31165
729.23	4.10886
732.122	6.67767
735.015	12.3563
737.908	12.3742
740.801	16.3161
743.693	20.3497
746.586	22.1679
749.479	24.197
752.371	28.2899
755.264	33.0268
758.157	35.6382
761.049	39.2331
763.942	44.6763
766.835	48.3888
769.727	54.4782
772.62	56.3236
775.513	60.4868
778.406	64.3212
781.298	68.2679
784.191	68.7004
787.084	72.9527
789.976	76.5014
792.869	77.8683
795.762	78.1819
798.654	74.2192
801.547	68.9684
804.44	61.3368
807.333	51.6022
810.225	40.0246
813.118	26.9008
816.011	17.2893
818.903	17.7614
821.796	37.8152
824.689	65.7932
827.582	112.368
830.474	186.625
833.367	260.511
836.26	244.558
839.152	151.046
842.045	83.4255
844.938	68.4307
847.83	76.5471
850.723	94.0139
853.616	119.412
856.509	123.551
859.401	114.359
862.294	111.881
865.187	94.7014
868.079	53.6616
870.972	28.3377
873.865	18.0368
876.757	13.5427
879.65	8.9838
882.543	5.53097
885.436	4.41129
888.328	0.809387
891.221	0.344177
894.114	0.240662
897.006	1.05514
899.899	1.38773
902.792	1.1637
905.684	0.543793
908.577	3.31274
911.47	1.8446
914.362	0.82309
917.255	0.792877
920.148	1.12549
923.041	1.38464
925.933	1.33224
928.826	1.0145
931.719	2.07065
934.611	3.08624
937.504	5.77786
940.397	6.57376
943.289	14.2861
946.182	21.7204
949.075	41.6759
951.968	81.2422
954.86	181.177
957.753	382.161
960.646	613.25
963.538	958.867
966.431	1544.08
969.324	1865.92
972.216	971.991
975.109	328.258
978.002	107.448
980.895	48.221
983.787	20.3248
986.68	9.27109
989.573	6.32553
992.465	0.089447
995.358	1.0918
998.251	3.93442
1001.14	1.32956
1004.04	0.155884
1006.93	1.27191
1009.82	1.18198
1012.71	6.56491
1015.61	13.003
1018.5	19.3745
1021.39	33.6513
1024.29	56.8186
1027.18	80.6174
1030.07	112.266
1032.96	248.987
1035.86	610.16
1038.75	1468.4
1041.64	2690.93
1044.53	4346.13
1047.43	6470.62
1050.32	8394.09
1053.21	4251.76
1056.11	604.66
1059	251.319
1061.89	228.445
1064.78	252.77
1067.68	287.666
1070.57	319.212
1073.46	320.935
1076.35	304.381
1079.25	272.428
1082.14	232.59
1085.03	189.114
1087.92	146.843
1090.82	99.1858
1093.71	72.7258
1096.6	47.1395
1099.49	32.4779
1102.39	24.9211
1105.28	16.5255
1108.17	13.179
1111.07	8.84195
1113.96	7.02649
1116.85	5.74524
1119.74	2.86954
1122.64	1.6861
1125.53	1.14246
1128.42	0.387848
1131.32	0.294342
1134.21	0.090912
1137.1	0.505585
1139.99	0.793335
1142.89	0.627075
1145.78	1.24631
1148.67	1.03879
1151.56	0.094696
1154.46	0.282623
1157.35	0.366852
1160.24	3.49832
1163.13	2.44409
1166.03	4.71146
1168.92	5.19562
1171.81	9.83047
1174.71	6.35986
1177.6	9.1691
1180.49	7.68912
1183.38	10.1039
1186.28	8.24747
1189.17	10.9489
1192.06	9.30396
1194.95	12.6228
1197.85	11.5667
1200.74	11.8794
1203.63	12.7581
1206.53	12.6122
1209.42	13.9105
1212.31	11.4044
1215.2	10.9809
1218.1	10.8762
1220.99	9.38711
1223.88	8.14664
1226.77	9.50723
1229.67	7.48865
1232.56	7.47089
1235.45	8.4014
1238.35	5.28305
1241.24	3.70825
1244.13	1.8429
1247.02	2.00647
1249.92	0.571838
1252.81	3.0892
1255.7	0.309692
1258.59	0.414978
1261.49	0.615143
1264.38	2.36456
1267.27	2.37274
1270.16	1.75095
1273.06	2.46433
1275.95	3.62659
1278.84	1.6756
1281.73	2.95962
1284.63	2.6908
1287.52	2.35111
1290.41	0.891052
1293.31	2.48871
1296.2	1.0943
1299.09	1.36349
1301.98	2.14636
