Measurement: Raman, 780 nm, unoriented, Raman Data Processed
Mineral: Hydroxylherderite
Rruff sample: R060353
Ideal chemistry: CaBePO_4_(OH)
Locality: Shigar Valley, northeast of Skardu, Baltistan, Pakistan
Source: Herb Obodda
Description: Colorless equant crystal
Measured chemistry: (Ca_0.99_Mn_0.01_)_Σ=1_Be_1.00_P_1.00_O_4_((OH)_0.52_F_0.48_)_Σ=1_; trace amounts of Na; Be not measured but assumed by stoichiometry; OH estimated by charge balance
Raman shift (cm-1)	intensity
102.622	0
105.997	0.746094
109.371	3.36462
112.746	7.24048
116.121	9.401
119.496	4.13794
122.871	11.932
126.246	0.688599
129.62	11.6171
132.995	0.920288
136.37	2.89453
139.745	22.6897
143.12	27.6426
146.494	13.7078
149.869	10.8411
153.244	12.6364
156.619	28.1965
159.994	51.2053
163.369	146.393
166.743	303.593
170.118	232.033
173.493	60.4252
176.868	38.0101
180.243	50.3086
183.618	56.6863
186.992	45.8337
190.367	84.0594
193.742	204.803
197.117	224.004
200.492	66.8433
203.866	24.6909
207.241	8.98755
210.616	0.55188
213.991	3.53259
217.366	0.916626
220.74	5.98743
224.115	14.4558
227.49	8.01514
230.865	0.977905
234.24	6.89575
237.615	9.21399
240.989	6.76978
244.364	13.7566
247.739	26.4781
251.114	37.3424
254.489	47.9205
257.863	33.802
261.238	25.5387
264.613	16.3346
267.988	11.9033
271.363	9.17273
274.738	9.71387
278.112	3.41174
281.487	7.23438
284.862	2.50464
288.237	10.2242
291.612	21.7168
294.986	28.6863
298.361	35.3243
301.736	37.4584
305.111	29.2893
308.486	20.6461
311.861	11.5367
315.235	15.1572
318.61	19.719
321.985	29.7654
325.36	45.245
328.735	60.8304
332.109	90.646
335.484	140.517
338.859	136.438
342.234	86.5789
345.609	55.3878
348.984	45.7535
352.358	34.3054
355.733	22.4249
359.108	19.7953
362.483	6.2063
365.858	8.32019
369.233	6.60107
372.607	5.77014
375.982	4.22778
379.357	1.22839
382.732	0.484619
386.106	1.62268
389.481	1.38245
392.856	4.33118
396.231	5.13074
399.606	1.80591
402.981	8.15637
406.355	12.5005
409.73	7.33325
413.105	18.0325
416.48	28.5712
419.855	42.7788
423.229	82.5039
426.604	129.327
429.979	89.4313
433.354	54.5145
436.729	42.9836
440.104	49.0605
443.478	73.2462
446.853	124.607
450.228	144.146
453.603	86.4751
456.978	38.8076
460.353	20.8489
463.727	9.17432
467.102	5.73364
470.477	2.96826
473.852	7.17859
477.227	2.06311
480.601	1.37012
483.976	3.13647
487.351	2.03723
490.726	2.66809
494.101	0.778809
497.476	1.88
500.85	0.779907
504.225	5.9624
507.6	5.12061
510.975	14.489
514.35	37.6386
517.724	92.3542
521.099	103.484
524.474	25.6454
527.849	12.9106
531.224	7.90088
534.598	4.87866
537.973	4.65832
541.348	6.13086
544.723	5.8429
548.098	8.10938
551.472	7.52991
554.847	10.29
558.222	14.5479
561.597	21.9962
564.972	38.8655
568.347	53.0901
571.721	78.2862
575.096	140.709
578.471	216.999
581.846	233.423
585.221	264.358
588.596	279.159
591.97	195.169
595.345	120.394
598.72	88.6982
602.095	51.0995
605.47	34.1256
608.845	26.0732
612.219	20.7106
615.594	15.2532
618.969	9.63147
622.344	8.06067
625.719	2.49597
629.093	5.48352
632.468	6.87793
635.843	3.90131
639.218	5.32312
642.593	4.18341
645.967	2.06024
649.342	4.15381
652.717	0.273804
656.092	0.338013
659.467	0.080688
662.842	1.70679
666.216	2.27118
669.591	0.531677
672.966	2.45404
676.341	5.77447
679.716	9.67957
683.091	10.7543
686.465	8.07147
689.84	8.76257
693.215	10.2799
696.59	14.5112
699.965	16.9957
703.339	21.2375
706.714	16.2314
710.089	19.5203
713.464	11.3065
716.839	7.37518
720.213	5.28485
723.588	2.64526
726.963	4.15008
730.338	3.86627
733.713	3.51306
737.087	1.81879
740.462	0.940613
743.837	3.64282
747.212	3.8429
750.587	8.73358
753.962	10.9378
757.336	16.8676
760.711	22.2154
764.086	22.4716
767.461	30.3133
770.836	21.6616
774.211	20.0298
777.585	12.8571
780.96	12.927
784.335	4.4978
787.71	8.2052
791.085	5.81342
794.459	9.08044
797.834	8.32349
801.209	2.38452
804.584	2.92871
807.959	5.7019
811.333	4.28748
814.708	3.75861
818.083	2.63916
821.458	6.3606
824.833	4.76776
828.208	6.51746
831.582	3.0946
834.957	0.798584
838.332	1.55487
841.707	0.708252
845.082	0.603333
848.457	4.53748
851.831	1.44074
855.206	4.04358
858.581	2.75903
861.956	4.73035
865.331	4.08435
868.705	4.74316
872.08	2.12604
875.455	4.03931
878.83	1.93536
882.205	6.12952
885.58	7.71594
888.954	4.17413
892.329	1.38263
895.704	3.62152
899.079	5.47382
902.454	10.6301
905.828	3.55072
909.203	5.10455
912.578	5.43189
915.953	4.59326
919.328	4.98285
922.702	2.39398
926.077	0.406555
929.452	4.14874
932.827	0.915283
936.202	2.58069
939.577	0.70105
942.951	0.67688
946.326	0.564148
949.701	4.0415
953.076	6.74701
956.451	9.62689
959.825	10.4088
963.2	15.7313
966.575	25.3213
969.95	45.1326
973.325	71.8226
976.699	125.011
980.074	199.17
983.449	251.67
986.824	265.205
990.199	252.188
993.574	258.451
996.948	296.258
1000.32	381.724
1003.7	521.256
1007.07	673.369
1010.45	555.736
1013.82	328.602
1017.2	213.398
1020.57	154.272
1023.95	135.619
1027.32	120.376
1030.7	92.4601
1034.07	67.3347
1037.45	54.7722
1040.82	34.9108
1044.2	19.6346
1047.57	9.55414
1050.94	1.68317
1054.32	0.230408
1057.69	0.455566
1061.07	0.045166
1064.44	0.047058
1067.82	0.932617
1071.19	1.26361
1074.57	1.82861
1077.94	3.84479
1081.32	9.82227
1084.69	31.1575
1088.07	44.0626
1091.44	30.94
1094.82	14.2612
1098.19	5.45062
1101.57	0.081848
1104.94	8.69476
1108.32	4.89654
1111.69	8.33508
1115.07	2.72882
1118.44	12.449
1121.82	19.4106
1125.19	37.0422
1128.57	74.2568
1131.94	94.422
1135.32	42.6491
1138.69	31.7774
1142.07	46.7294
1145.44	45.7703
1148.82	20.3764
1152.19	9.33343
1155.57	7.91833
1158.94	0.29187
1162.31	0.082214
1165.69	1.83112
1169.06	1.51318
1172.44	1.38177
1175.81	0.400085
1179.19	4.15271
1182.56	5.04614
1185.94	7.04096
1189.31	7.89496
1192.69	9.86191
1196.06	17.0993
1199.44	14.2288
1202.81	13.6853
1206.19	14.1567
1209.56	17.2446
1212.94	12.7488
1216.31	10.0972
1219.69	15.7412
1223.06	11.6228
1226.44	10.9486
1229.81	0.948761
1233.19	2.0249
1236.56	0.455933
1239.93	1.58832
1243.31	1.67783
1246.68	0.757782
1250.06	0.557709
1253.43	3.01599
1256.81	5.56122
1260.18	7.1308
1263.56	10.2141
1266.93	6.1351
1270.31	2.8743
1273.68	4.16086
1277.06	3.08884
1280.43	6.03842
1283.81	3.12036
