Measurement: Raman, 514 nm, unoriented, Raman Data Processed
Mineral: Hydroxylclinohumite
Rruff sample: R060291
Ideal chemistry: Mg_9_Si_4_O_16_(OH)_2_
Locality: Koksha Valley, Badakshan Province, Afghanistan
Source: Herb Obodda
Description: Deep red tabular crystal
Raman shift (cm-1)	intensity
112.168	0
116.339	25.021
120.508	100.645
124.675	36.962
128.84	4.998
133.003	4.101
137.164	23.99
141.323	50.81
145.48	34.313
149.635	17.015
153.788	16.63
157.939	34.281
162.088	66.477
166.235	160.117
170.38	190.141
174.523	243.516
178.664	210.225
182.803	310.259
186.94	270.607
191.076	278.255
195.209	263.224
199.34	347.566
203.47	536.085
207.597	753.616
211.722	1051.22
215.846	433.924
219.967	170.738
224.087	126.68
228.204	99.766
232.32	166.019
236.434	145.456
240.545	216.091
244.655	285.927
248.763	377.956
252.869	581.168
256.973	783.549
261.075	878.085
265.175	761.765
269.273	576.574
273.369	471.731
277.463	557.552
281.556	624.184
285.646	656.286
289.734	741.884
293.821	791.394
297.905	726.976
301.988	683.866
306.069	710.918
310.147	540.115
314.224	384.449
318.299	344.923
322.372	243.549
326.443	205.381
330.512	160.436
334.579	116.602
338.645	153.003
342.708	230.732
346.769	265.644
350.829	204.82
354.887	208.227
358.942	184.878
362.996	179.761
367.048	149.808
371.098	127.967
375.146	119.195
379.192	132.501
383.236	130.843
387.279	79.214
391.319	73.606
395.358	3.016
399.394	26.439
403.429	8.871
407.462	83.306
411.493	120.739
415.522	115.166
419.549	96.581
423.575	74.982
427.598	53.363
431.619	5.719
435.639	10.489
439.657	21.706
443.673	52.519
447.687	28.547
451.699	10.581
455.709	56.309
459.717	101.588
463.724	124.562
467.728	172.505
471.731	183.479
475.732	227.38
479.731	324.003
483.728	421.08
487.723	404.007
491.716	345.072
495.708	257.213
499.697	275.325
503.685	271.659
507.671	231.273
511.655	201.61
515.637	214.874
519.617	217.807
523.596	255.447
527.572	329.067
531.547	409.881
535.52	467.411
539.491	532.744
543.46	411.119
547.427	411.071
551.393	419.865
555.356	293.5
559.318	249.975
563.278	284.29
567.236	261.445
571.192	321.439
575.147	338.272
579.099	364.945
583.05	438.456
586.999	579.808
590.946	724.775
594.891	601.673
598.834	551.515
602.776	625.171
606.715	723.429
610.653	636.539
614.589	436.804
618.523	284.921
622.456	216.89
626.386	179.715
630.315	57.396
634.242	55.921
638.167	22.265
642.09	18.637
646.012	21.917
649.931	39.395
653.849	67.306
657.765	64.624
661.679	48.468
665.592	34.307
669.502	57.488
673.411	68.689
677.318	79.37
681.223	13.498
685.126	4.086
689.028	23.52
692.927	29.701
696.825	4.2
700.721	107.81
704.616	115.755
708.508	147.639
712.399	232.158
716.288	367.25
720.175	521.988
724.06	750.688
727.944	1090.36
731.825	1434
735.705	1909.62
739.584	2299.23
743.46	2614.83
747.334	2808.42
751.207	3126.03
755.078	3598.67
758.947	3527.36
762.815	3244.11
766.68	2889.91
770.544	2892.76
774.406	3585.67
778.267	5604.67
782.125	9132.78
785.982	10739.7
789.837	7757.02
793.69	4419
797.542	2941.09
801.391	2683.5
805.239	2919.93
809.085	3099.76
812.93	2902.58
816.772	2773.09
820.613	3363.24
824.452	5001.4
828.29	7887.49
832.125	9835.02
835.959	8014.75
839.791	7143.51
843.621	9098.35
847.45	10295.9
851.277	8729.6
855.102	8863.87
858.925	13516.3
862.746	19254
866.566	14228.9
870.384	8040.08
874.2	4952.46
878.015	3430.07
881.828	2529.91
885.639	1944.25
889.448	1473.28
893.256	1173.81
897.061	1033.57
900.865	902.557
904.668	813.774
908.468	803.218
912.267	801.887
916.064	877.6
919.86	916.523
923.653	902.203
927.445	1077.42
931.236	1654.94
935.024	1927.4
938.811	1035.26
942.596	671.253
946.379	676.44
950.161	800.456
953.94	960.345
957.719	1387.35
961.495	2521.47
965.27	4194.59
969.043	5100.68
972.814	3083.48
976.583	1520.81
980.351	816.06
984.117	486.279
987.882	275.649
991.644	208.193
995.405	231.731
999.165	210.451
1002.92	229.761
1006.68	225.091
1010.43	247.711
1014.18	248.242
1017.93	214.01
1021.68	177.151
1025.43	235.621
1029.18	206.385
1032.92	150.577
1036.66	184.669
1040.4	148.717
1044.14	101.465
1047.88	84.156
1051.62	34.219
1055.35	75.078
1059.08	40.744
1062.81	47.705
1066.54	25.122
1070.27	15.733
1073.99	55.945
1077.72	32.198
1081.44	69.517
1085.16	19.963
1088.88	40.472
1092.59	73.115
1096.31	3.076
1100.02	21.832
1103.73	16.82
1107.44	8.516
1111.15	12.073
1114.86	3.692
1118.57	26.41
1122.27	11.932
1125.97	4.394
1129.67	12.999
1133.37	18.256
1137.07	59.396
1140.76	10.481
1144.45	13.437
1148.15	22.291
1151.84	62.021
1155.53	68.637
1159.21	62.143
1162.9	42.694
1166.58	61.074
1170.26	8.631
1173.94	60.646
1177.62	44.636
1181.3	26.189
1184.97	38.369
1188.65	61.635
1192.32	67.648
1195.99	78.152
1199.66	70.144
1203.33	117.679
1206.99	75.912
1210.65	130.619
1214.32	148.896
1217.98	173.057
1221.64	182.919
1225.29	163.423
1228.95	194.205
1232.6	161.602
1236.26	240.276
1239.91	204.492
1243.56	186.927
1247.2	201.876
1250.85	213.477
1254.49	203.052
1258.13	193.254
1261.78	247.905
1265.41	130.234
1269.05	177.694
1272.69	164.323
1276.32	199.609
1279.95	191.09
1283.59	175.679
1287.21	154.527
1290.84	165.33
1294.47	181.144
1298.09	196.249
1301.72	120.306
1305.34	132.438
1308.96	101.57
1312.58	94.583
1316.19	106.41
1319.81	79.984
1323.42	71.327
1327.03	80.43
1330.64	43.989
1334.25	42.617
1337.86	63.349
1341.46	11.153
1345.07	55.173
1348.67	60.483
1352.27	39.438
1355.87	8.266
1359.46	55.901
1363.06	51.307
1366.65	50.504
1370.25	54.536
1373.84	37.446
1377.43	35.265
1381.02	34.055
1384.6	57.977
1388.18	36.268
1391.77	40.438
1395.35	1.499
1398.93	16.373
1402.51	4.126
1406.08	18.839
1409.66	61.317
1413.23	40.625
1416.8	21.787
1420.37	15.432
1423.94	2.701
1427.51	35.464
1431.08	26.265
1434.64	50.942
1438.2	1.952
1441.76	9.082
1445.32	29.136
1448.88	11.718
1452.43	75.688
1455.99	21.468
1459.54	54.018
1463.09	43.751
1466.64	32.808
1470.19	99.156
1473.74	125.631
1477.28	156.291
1480.83	83.495
1484.37	104.37
1487.91	86.212
1491.45	136.028
1494.98	84.696
1498.52	52.267
1502.05	142.598
1505.59	112.616
1509.12	151.3
1512.65	130.299
1516.17	75.193
1519.7	52.76
1523.23	37.045
1526.75	38.455
