Measurement: Raman, 785 nm, unoriented, Raman Data Processed
Mineral: Hydrocerussite
Rruff sample: R070059
Ideal chemistry: Pb_3_(CO_3_)_2_(OH)_2_
Locality: Wanlockhead, Scotland
Source: William W. Pinch
Description: Aggregates of colorless thin hexagonal plates, likely a pseudomorph after plumbonacrite
Measured chemistry: Pb_3_(CO_3_)_2_(OH)_2_ ; Pb confirmed by EPMA, CO_2_ and H_2_O not analyzed but confirmed by Raman spectroscopy
Raman shift (cm-1)	intensity
193.145	0
196.038	32.8789
198.931	57.3418
201.823	182.856
204.716	153.009
207.609	49.8076
210.502	104.147
213.394	11.8574
216.287	108.823
219.18	159.477
222.072	348.736
224.965	384.078
227.858	302.139
230.75	304.394
233.643	227.711
236.536	202.065
239.429	165.686
242.321	100.869
245.214	212.72
248.107	78.0781
250.999	39.1699
253.892	133.879
256.785	135.674
259.678	118.1
262.57	128.091
265.463	88.7695
268.356	218.626
271.248	136.226
274.141	62.3398
277.034	180.722
279.926	8.52246
282.819	40.3848
285.712	35.5195
288.604	58.0478
291.497	47.3545
294.39	0.027344
297.283	95.1982
300.175	6.94629
303.068	65.3916
305.961	177.055
308.853	262.054
311.746	330.793
314.639	314.661
317.531	431.642
320.424	453.245
323.317	595.894
326.21	585.843
329.102	584.404
331.995	593.488
334.888	558.655
337.78	522.525
340.673	379.576
343.566	243.535
346.459	193.835
349.351	264.014
352.244	256.323
355.137	172.331
358.029	190.355
360.922	68.9287
363.815	17.1973
366.707	63.71
369.6	59.081
372.493	114.07
375.385	231.449
378.278	330.459
381.171	437.103
384.064	681.074
386.956	811.46
389.849	1017.31
392.742	1258.72
395.634	1484.65
398.527	1698.32
401.42	1843.47
404.312	2106.86
407.205	2337.44
410.098	2447.78
412.99	2603.38
415.883	2696.16
418.776	2782.36
421.669	2685.29
424.561	2509.09
427.454	2302.3
430.347	1968.21
433.239	1563.31
436.132	1357.62
439.025	1038.28
441.918	860.383
444.81	614.159
447.703	595.869
450.596	373.367
453.488	327.096
456.381	212.561
459.274	156.007
462.166	62.2891
465.059	27.2539
467.952	31.1816
470.844	35.2334
473.737	25.1455
476.63	41.0869
479.523	10.9883
482.415	45.8994
485.308	12.5928
488.201	68.4111
491.093	28.4453
493.986	39.1885
496.879	82.5049
499.772	3.95703
502.664	35.668
505.557	49.1318
508.45	66.5615
511.342	91.2246
514.235	48.4258
517.128	82.6484
520.02	203.343
522.913	59.75
525.806	122.587
528.698	106.375
531.591	105.655
534.484	158.781
537.377	92.5625
540.269	63.4473
543.162	141.953
546.055	88.5381
548.947	96.7969
551.84	128.004
554.733	164.18
557.625	55.4248
560.518	69.6562
563.411	138.803
566.304	156.19
569.196	93.7617
572.089	63.8818
574.982	86.3594
577.874	64.7129
580.767	93.8731
583.66	75.3574
586.553	75.9482
589.445	140.987
592.338	58.3818
595.231	10.085
598.123	12.8555
601.016	28.9229
603.909	24.7559
606.801	2.97559
609.694	60.6357
612.587	41.3799
615.48	18.1182
618.372	31.8916
621.265	9.43555
624.158	4.17285
627.05	8.82227
629.943	8.46582
632.836	82.7432
635.728	19.8584
638.621	76.6387
641.514	53.7012
644.407	26.71
647.299	57.3223
650.192	47.0478
653.085	67.0098
655.977	50.0469
658.87	73.3047
661.763	57.8486
664.655	25.9043
667.548	10.7578
670.441	53.7725
673.333	182.636
676.226	190.315
679.119	260.611
682.012	197.738
684.904	160.617
687.797	160.794
690.69	122.428
693.582	83.8301
696.475	174.164
699.368	164.627
702.26	111.701
705.153	208.407
708.046	71.6084
710.939	71.2295
713.831	84.5674
716.724	109.817
719.617	80.4902
722.509	100.823
725.402	59.9375
728.295	93.3535
731.188	106.409
734.08	80.3584
736.973	92.2178
739.866	95.8877
742.758	172.836
745.651	135.804
748.544	136.862
751.436	151.765
754.329	158.666
757.222	98.1797
760.114	126.181
763.007	63.7158
765.9	98.9902
768.793	77.8477
771.685	89.4004
774.578	86.2432
777.471	111.925
780.363	30.5518
783.256	26.4121
786.149	62.2085
789.041	58.6304
791.934	41.1943
794.827	14.4365
797.72	22.728
800.612	3.1875
803.505	42.8931
806.398	18.041
809.29	89.8394
812.183	1.49121
815.076	32.419
817.968	37.1953
820.861	26.4102
823.754	3.87793
826.646	60.852
829.539	10.9839
832.432	48.2573
835.325	1.5332
838.217	16.7207
841.11	49.5015
844.003	2.51856
846.895	72.5581
849.788	112.093
852.681	115.86
855.573	241.797
858.466	294.71
861.359	308.8
864.252	288.954
867.144	205.233
870.037	240.443
872.93	135.623
875.822	99.1543
878.715	25.4751
881.608	45.8833
884.5	22.4346
887.393	51.0142
890.286	57.6728
893.179	43.7803
896.071	14.3052
898.964	51.0181
901.857	43.7285
904.75	30.2041
907.642	49.7046
910.535	57.8081
913.428	48.1958
916.32	14.2124
919.213	46.3706
922.106	54.3477
924.998	28.9399
927.891	13.7998
930.784	87.9419
933.677	37.4717
936.569	31.3823
939.462	50.4277
942.355	27.686
945.247	12.6675
948.14	41.5547
951.033	74.6445
953.925	28.3296
956.818	9.41553
959.711	104.65
962.603	32.4858
965.496	1.06934
968.389	43.5625
971.282	43.4722
974.174	8.13135
977.067	49.7563
979.96	30.1719
982.852	66.0444
985.745	95.0112
988.638	20.148
991.53	59.1216
994.423	24.1274
997.316	93.3169
1000.21	24.0034
1003.1	128.44
1005.99	95.8823
1008.89	85.5366
1011.78	87.9302
1014.67	57.7353
1017.57	104.644
1020.46	115.877
1023.35	127.6
1026.24	144.936
1029.13	194.232
1032.03	219.854
1034.92	319.319
1037.81	694.803
1040.71	1992.44
1043.6	3811.24
1046.49	7114.54
1049.38	11076.2
1052.28	9251.77
1055.17	4838.02
1058.06	1242.27
1060.95	262.583
1063.85	73.4258
1066.74	26.4922
1069.63	11.3379
1072.53	15.5552
1075.42	28.5689
1078.31	19.1362
1081.2	45.7812
1084.1	62.8901
1086.99	50.9268
1089.88	53.4873
1092.78	100.715
1095.67	208.681
1098.56	172.03
1101.45	301.52
1104.35	315.176
1107.24	305.864
1110.13	435.286
1113.02	380.899
1115.92	419.174
1118.81	387.221
1121.7	275.931
1124.6	196.912
1127.49	122.811
1130.38	123.624
1133.27	106.958
1136.16	93.2715
1139.06	47.2881
1141.95	102.28
1144.84	3.06445
1147.74	59.7578
1150.63	87.0254
1153.52	10.9844
1156.41	35.0566
1159.31	42.5947
1162.2	43.2217
