Measurement: Raman, 532 nm, unoriented, Raman Data Processed
Mineral: Hydroxylherderite
Rruff sample: R050518
Ideal chemistry: CaBePO_4_(OH)
Locality: Mt. Apatite, Auburn, Maine, USA
Source: University of Arizona Mineral Museum
Description: Colorless prismatic crystals
Measured chemistry: Ca_1.00_Be_1.00_(P_1.00_O_4_)((OH)_0.75_F_0.25_)_Î£=1_
Raman shift (cm-1)	intensity
120.274	0
123.648	643.552
127.023	350.507
130.398	21.262
133.773	38.137
137.148	101.082
140.523	377.832
143.897	1428.65
147.272	681.666
150.647	96.816
154.022	76.042
157.397	335.691
160.771	1303.87
164.146	3427.73
167.521	7514.83
170.896	8863.41
174.271	2175.88
177.645	794.827
181.02	985.977
184.395	2233.04
187.77	1727.89
191.145	1332.82
194.52	2658.84
197.894	5926.68
201.269	3397.87
204.644	2040.89
208.019	651.104
211.394	42.27
214.768	113.368
218.143	47.387
221.518	206.86
224.893	839.184
228.268	749.19
231.643	360.37
235.017	103.023
238.392	45.354
241.767	129.794
245.142	292.715
248.517	293.152
251.891	528.894
255.266	1193.91
258.641	1291.76
262.016	979.695
265.391	991.76
268.766	1418.27
272.14	2010.34
275.515	1349.64
278.89	404.736
282.265	178.678
285.64	134.727
289.014	41.821
292.389	112.622
295.764	434.661
299.139	744.952
302.514	1143.03
305.889	1169.79
309.263	1071.89
312.638	793.416
316.013	634.112
319.388	701.898
322.763	969.492
326.138	1256.05
329.512	1263.87
332.887	1154.45
336.262	1484.63
339.637	1751.92
343.012	1512.82
346.386	1179.38
349.761	1131.69
353.136	998.745
356.511	699.136
359.886	257.341
363.26	148.567
366.635	21.474
370.01	42.057
373.385	75.139
376.76	50.944
380.135	11.14
383.509	8.219
386.884	67.988
390.259	78.479
393.634	39.984
397.009	129.959
400.384	115.495
403.758	222.934
407.133	305.431
410.508	576.337
413.883	1072.85
417.258	2060.14
420.632	3553.61
424.007	6947.98
427.382	9713.18
430.757	4528.69
434.132	2604.18
437.506	2718.24
440.881	3556.86
444.256	6235.86
447.631	10220.6
451.006	6082.07
454.38	2542.75
457.755	1210.36
461.13	679.192
464.505	422.756
467.88	280.322
471.255	152.126
474.629	101.009
478.004	80.806
481.379	32.651
484.754	18.905
488.129	35.328
491.504	115.979
494.878	116.412
498.253	69.264
501.628	23.656
505.003	222.218
508.378	1035.3
511.752	1536.29
515.127	3076.69
518.502	5132.39
521.877	4277.55
525.252	2316.78
528.627	4190.68
532.001	6614.86
535.376	3688.11
538.751	1927
542.126	1754.49
545.501	1862.68
548.875	1840.52
552.25	1823.04
555.625	1872.98
559	2080.74
562.375	2534.72
565.75	3346.67
569.124	4683.69
572.499	7054.43
575.874	9695.53
579.249	9707.05
582.624	10451.3
585.998	11192.5
589.373	9948.22
592.748	10546.3
596.123	13546.9
599.498	8911.61
602.872	4500.51
606.247	2698.71
609.622	2918.15
612.997	1355.35
616.372	1222.56
619.747	906.122
623.121	594.202
626.496	418.531
629.871	666.285
633.246	574.29
636.621	584.827
639.995	425.885
643.37	162.308
646.745	65.292
650.12	109.038
653.495	142.554
656.87	141.372
660.244	30.956
663.619	42.812
666.994	172.836
670.369	315.928
673.744	631.376
677.119	890.517
680.493	1089.18
683.868	1068.11
687.243	1103.54
690.618	1170.2
693.993	1343.58
697.367	1449.74
700.742	1621.35
704.117	1663.49
707.492	1538.24
710.867	1249.27
714.242	820.19
717.616	329.288
720.991	167.104
724.366	71.149
727.741	57.108
731.115	82.209
734.49	74.507
737.865	68.335
741.24	97.02
744.615	139.249
747.99	258.49
751.364	471.26
754.739	892.075
758.114	1225.23
761.489	1409.54
764.864	1372.68
768.239	1299.86
771.613	1271.89
774.988	1222.83
778.363	1057.97
781.738	1153.89
785.113	845.125
788.487	698.392
791.862	648.338
795.237	454.854
798.612	343.244
801.987	205.883
805.362	159.544
808.736	49.054
812.111	39.422
815.486	46.115
818.861	99.303
822.236	53.508
825.61	20.648
828.985	34.066
832.36	18.828
835.735	37.55
839.11	2.406
842.485	11.441
845.859	1.742
849.234	31.224
852.609	84.318
855.984	38.228
859.359	135.06
862.734	110.947
866.108	183.258
869.483	165.597
872.858	217.128
876.233	311.27
879.607	301.069
882.982	365.88
886.357	461.109
889.732	463.027
893.107	540.25
896.482	560.377
899.856	671.25
903.231	557.667
906.606	541.25
909.981	445.979
913.356	466.328
916.731	335.734
920.105	271.557
923.48	91.051
926.855	3.008
930.23	90.407
933.605	5.237
936.979	44.594
940.354	51.592
943.729	29.999
947.104	195.092
950.479	332.99
953.854	443.057
957.228	754.146
960.603	1183.52
963.978	1683.38
967.353	2562.33
970.728	4460.39
974.102	7968.56
977.477	13156.1
980.852	19350.4
984.227	23277
987.602	22112.8
990.977	20960.4
994.351	23844.2
997.726	30822.4
1001.1	40966.7
1004.48	44363.9
1007.85	31479.2
1011.23	18777.9
1014.6	12644
1017.98	9207.36
1021.35	7435.88
1024.72	6432.95
1028.1	5449.18
1031.47	4399.84
1034.85	2622.13
1038.22	1357.22
1041.6	641.702
1044.97	308.378
1048.35	214.241
1051.72	92.445
1055.1	54.674
1058.47	8.369
1061.85	43.665
1065.22	40.141
1068.6	63.396
1071.97	12.673
1075.35	154.71
1078.72	623.15
1082.1	1679.49
1085.47	2733.36
1088.85	1636.19
1092.22	728.959
1095.6	697.062
1098.97	329.929
1102.35	331.385
1105.72	245.163
1109.1	295.33
1112.47	421.322
1115.85	710.895
1119.22	1279.47
1122.59	2729.72
1125.97	5816.23
1129.34	8398.16
1132.72	3860.54
1136.09	3553.59
1139.47	6229.87
1142.84	5170.12
1146.22	1688.94
1149.59	701.127
1152.97	306.997
1156.34	192.747
1159.72	66.503
1163.09	75.168
1166.47	56.153
1169.84	28.957
1173.22	76.455
1176.59	26.813
1179.97	7.795
1183.34	7.646
1186.72	2.121
1190.09	68.167
1193.47	22.117
1196.84	45.93
1200.21	65.857
1203.59	47.659
1206.96	90.783
1210.34	68.146
1213.71	66.812
1217.09	101.188
1220.46	71.761
1223.84	132.043
1227.21	43.188
1230.59	89.87
1233.96	154.258
1237.34	156.743
1240.71	59.257
1244.09	107.251
1247.46	146.65
1250.84	129.428
1254.21	71.822
1257.59	66.231
1260.96	103.327
1264.34	72.88
1267.71	8.517
1271.09	70.315
1274.46	42.192
1277.84	102.845
1281.21	62.327
1284.59	85.881
1287.96	66.599
1291.34	0.497
1294.71	34.816
1298.09	0.057
