Measurement: Raman, 785 nm, unoriented, Raman Data Processed
Mineral: Hydropyrochlore
Rruff sample: R060980
Ideal chemistry: (H_2_O,[box])_2_Nb_2_(O,OH)_6_(H_2_O)
Locality: Lueshe mine, Kivu, Democratic Republic of the Congo
Source: Bob Jenkins
Description: Pale green octahedron
Measured chemistry: ((H_2_O)_0.61_K_0.11_Sr_0.07_Ba_0.02_Ca_0.01_[box]_0.18_)(Nb_1.84_Ti_0.16_)(O_4.15_(OH)_1.85_)(H_2_O)
Raman shift (cm-1)	intensity
157.205	0
160.097	368.967
162.99	2026.79
165.883	3888.75
168.775	5426.08
171.668	5998.54
174.561	6344.55
177.454	6197.98
180.346	6029.33
183.239	6000.72
186.132	6143.12
189.024	5954.98
191.917	5242.16
194.81	4363.12
197.702	3297.41
200.595	2338.77
203.488	1632.9
206.381	873.508
209.273	290.441
212.166	-4.57797
215.059	-59.3989
217.951	-26.5763
220.844	34.7161
223.737	243.678
226.629	376.508
229.522	595.953
232.415	885.199
235.308	1025.12
238.2	1322.06
241.093	1557.38
243.986	1624.39
246.878	1822.63
249.771	1900.71
252.664	2170.68
255.556	2363.06
258.449	2599.73
261.342	2764.98
264.235	3069.01
267.127	3086.74
270.02	3011.97
272.913	2813.12
275.805	2576.18
278.698	2416.24
281.591	2301.7
284.483	2179.72
287.376	1986.78
290.269	1757.23
293.161	1566.09
296.054	1415.3
298.947	1254.47
301.84	1176.59
304.732	1006.55
307.625	807.09
310.518	528.337
313.41	250.306
316.303	34.8701
319.196	8.94979
322.089	5.67005
324.981	18.6458
327.874	16.4287
330.767	163.246
333.659	178.394
336.552	325.19
339.445	514.839
342.337	636.412
345.23	974.986
348.123	1215.03
351.015	1367.88
353.908	1562.65
356.801	1611.6
359.693	1595.73
362.586	1608.55
365.479	1549.91
368.372	1693.02
371.264	1704.67
374.157	1724.58
377.05	1780.27
379.942	1709.85
382.835	1592.52
385.728	1527.12
388.62	1444.11
391.513	1575.29
394.406	1598.14
397.299	1647.06
400.191	1544.76
403.084	1324.44
405.977	1156.84
408.869	962.532
411.762	859.333
414.655	823.662
417.548	765.606
420.44	690.097
423.333	599.385
426.226	547.096
429.118	493.252
432.011	387.673
434.904	329.446
437.796	265.611
440.689	171.321
443.582	95.7656
446.474	4.22949
449.367	56.5596
452.26	1.62012
455.153	112.899
458.045	397.052
460.938	701.165
463.831	1152.94
466.723	1484.12
469.616	1907.86
472.509	2082.87
475.401	2304.39
478.294	2398.01
481.187	2466.48
484.08	2430.24
486.972	2374.34
489.865	2307.16
492.758	2127.59
495.65	1896.16
498.543	1685.71
501.436	1427.05
504.329	1135.3
507.221	926.609
510.114	751.004
513.006	555.318
515.899	359.655
518.792	211.858
521.685	166.244
524.577	100.504
527.47	26.9436
530.363	9.11624
533.255	9.47055
536.148	-3.44182
539.041	-10.4722
541.933	-8.85133
544.826	-1.88963
547.719	-2.35316
550.612	-8.40108
553.504	33.7988
556.397	104.114
559.29	377.946
562.182	449.174
565.075	597.352
567.968	656.297
570.861	859.202
573.753	1036.48
576.646	1239.98
579.539	1486.07
582.431	1744.56
585.324	2017.28
588.217	2327.07
591.109	2557.55
594.002	2684.63
596.895	2982.39
599.788	3437.98
602.68	3889.56
605.573	4300.78
608.466	4781.23
611.358	5223.23
614.251	5657.73
617.144	6233.99
620.036	6676.11
622.929	7128.19
625.822	7604.03
628.715	7978.52
631.607	8623.54
634.5	8847.87
637.393	9247.61
640.285	9539.53
643.178	9755.04
646.071	9868.74
648.963	9832.37
651.856	9893.47
654.749	9893.9
657.641	9757.11
660.534	9459.3
663.427	9031.48
666.32	8643.09
669.212	8131.82
672.105	7569.32
674.998	7104.3
677.89	6590.78
680.783	5967.35
683.676	5367.49
686.568	4664.23
689.461	4113.97
692.354	3611.03
695.246	3074.3
698.139	2521.24
701.032	2093.95
703.925	1622.29
706.817	1310.1
709.71	908.019
712.603	663.249
715.495	415.524
718.388	235.34
721.281	143.933
724.173	17.5226
727.066	8.89208
729.959	16.517
732.852	8.94899
735.744	5.33678
738.637	8.4496
741.53	14.977
744.422	12.153
747.315	1.81845
750.208	10.0732
753.101	16.0095
755.993	9.36878
758.886	113.161
761.779	240.256
764.671	258.9
767.564	408.727
770.457	501.344
773.349	654.039
776.242	721.784
779.135	813.793
782.028	1009.61
784.92	1169.64
787.813	1338.62
790.706	1424.37
793.598	1497.18
796.491	1494.51
799.384	1515.21
802.276	1510.28
805.169	1550.54
808.062	1561.51
810.955	1530.08
813.847	1547.57
816.74	1449.31
819.633	1458.42
822.525	1396.98
825.418	1348.19
828.311	1330.76
831.203	1170.89
834.096	1119.94
836.989	1090.17
839.881	977.426
842.774	882.491
845.667	845.913
848.56	782.802
851.452	596.954
854.345	614.006
857.238	559.885
860.13	415.082
863.023	346.216
865.916	355.993
868.808	276.579
871.701	164.225
874.594	207.039
877.486	196.215
880.379	168.583
883.272	150.114
886.165	86.8144
889.057	118.726
891.95	112.957
894.843	147.56
897.735	104.595
900.628	164.368
903.521	186.351
906.413	181.427
909.306	194.917
912.199	208.269
915.092	210.052
917.984	292.578
920.877	303.46
923.77	388.397
926.662	349.817
929.555	369.552
932.448	380.594
935.341	405.436
938.233	340.779
941.126	320.007
944.019	303.089
946.911	233.518
949.804	185.488
952.697	110.418
955.589	100.481
958.482	26.522
961.375	28.3838
964.268	2.84277
967.16	13.6284
970.053	34.1055
972.946	4.94311
975.838	69.749
978.731	10.5676
981.624	21.4819
984.516	29.0669
987.409	12.2092
990.302	6.0083
993.194	20.8728
996.087	47.7444
998.98	63.1423
1001.87	83.0239
1004.76	139.839
1007.66	102.967
1010.55	123.692
1013.44	99.0603
1016.34	124.351
1019.23	122.963
1022.12	125.125
1025.01	135.293
1027.91	114.257
1030.8	181.761
1033.69	146.504
1036.59	147.329
1039.48	182.175
1042.37	141.571
1045.26	95.689
1048.16	108.497
1051.05	97.6128
1053.94	79.8762
1056.83	102.375
1059.73	65.771
1062.62	92.3309
1065.51	83.9679
1068.4	100.242
1071.3	101.665
1074.19	74.8846
1077.08	97.4409
1079.97	83.9967
1082.87	71.7974
1085.76	47.5488
1088.65	24.7439
1091.55	39.2555
1094.44	53.4808
1097.33	31.0985
1100.22	57.734
1103.12	40.6486
1106.01	88.3916
1108.9	76.3512
1111.8	83.8013
1114.69	78.6646
1117.58	19.5064
1120.47	79.374
1123.37	95.4813
1126.26	113.951
1129.15	103.586
1132.04	151.506
1134.94	113.98
1137.83	139.004
1140.72	148.061
1143.62	160.028
1146.51	141.459
1149.4	105.031
1152.29	128.408
1155.19	149.071
1158.08	108.195
1160.97	125.017
1163.86	103.306
1166.76	68.5294
1169.65	83.3772
1172.54	55.0346
1175.43	27.6299
1178.33	29.2117
1181.22	17.8462
1184.11	23.762
1187.01	12.5796
1189.9	37.3168
1192.79	9.36084
1195.68	5.1355
1198.58	30.2327
1201.47	7.51685
1204.36	5.42358
1207.25	4.9895
1210.15	9.52588
1213.04	62.8074
1215.93	156.875
1218.83	92.8884
1221.72	106.053
1224.61	163.663
1227.5	184.652
1230.4	187.024
1233.29	160.408
1236.18	161.364
1239.07	180.006
1241.97	274.941
1244.86	285.998
1247.75	322.44
1250.64	311.66
1253.54	334.627
1256.43	310.04
1259.32	242.845
1262.21	137.51
1265.11	6.19849
