Measurement: Raman, 532 nm, unoriented, Raman Data Processed
Mineral: Hydroxylclinohumite
Rruff sample: R060291
Ideal chemistry: Mg_9_Si_4_O_16_(OH)_2_
Locality: Koksha Valley, Badakshan Province, Afghanistan
Source: Herb Obodda
Description: Deep red tabular crystal
Raman shift (cm-1)	intensity
157.024	0
159.917	2.29863
162.81	5.21277
165.702	10.6409
168.595	10.8446
171.488	14.0636
174.381	12.5538
177.273	16.9749
180.166	21.7929
183.059	31.7912
185.951	39.1664
188.844	34.3009
191.737	26.7993
194.629	29.7284
197.522	23.6693
200.415	21.9211
203.308	23.8961
206.2	16.0767
209.093	5.71329
211.986	1.21544
214.878	0.223953
217.771	4.69428
220.664	2.98993
223.556	2.72218
226.449	1.53523
229.342	0.318405
232.234	9.62355
235.127	13.8853
238.02	14.7701
240.913	9.14931
243.805	4.79506
246.698	3.18376
249.591	0.846008
252.483	2.50505
255.376	13.7256
258.269	17.1543
261.161	20.747
264.054	22.0249
266.947	23.4336
269.84	24.1982
272.732	16.2028
275.625	20.5406
278.518	18.1683
281.41	14.4784
284.303	13.4567
287.196	8.97705
290.089	9.27269
292.981	6.62587
295.874	2.97827
298.767	5.62709
301.659	9.8521
304.552	17.7966
307.445	17.3124
310.337	14.3383
313.23	26.5708
316.123	38.3537
319.015	50.1505
321.908	48.4369
324.801	46.4059
327.694	42.6826
330.586	40.1854
333.479	33.6902
336.372	30.9818
339.264	32.278
342.157	34.705
345.05	39.3921
347.942	44.6701
350.835	51.0076
353.728	56.663
356.621	53.585
359.513	55.9956
362.406	53.0725
365.299	49.3347
368.191	44.9934
371.084	41.9634
373.977	38.5788
376.87	33.1346
379.762	30.4556
382.655	24.8154
385.548	18.826
388.44	15.7332
391.333	10.795
394.226	4.30182
397.118	2.40909
400.011	5.77834
402.904	5.59428
405.796	5.10579
408.689	2.73416
411.582	0.868881
414.475	7.54385
417.367	9.92406
420.26	17.9114
423.153	19.0249
426.045	26.8308
428.938	31.4978
431.831	30.0379
434.724	22.8481
437.616	21.5944
440.509	23.8236
443.402	23.5963
446.294	23.3089
449.187	25.5959
452.08	25.8758
454.972	26.4127
457.865	29.6775
460.758	31.8544
463.651	30.0828
466.543	33.9945
469.436	33.9062
472.329	37.3463
475.221	48.2512
478.114	57.4254
481.007	68.6567
483.899	78.1409
486.792	91.184
489.685	95.9351
492.577	95.3774
495.47	94.226
498.363	91.2216
501.256	91.1019
504.148	88.5588
507.041	83.0064
509.934	72.4181
512.826	67.6422
515.719	69.4779
518.612	82.3945
521.505	97.5256
524.397	119.37
527.29	146.81
530.183	172.379
533.075	192.118
535.968	194.334
538.861	169.344
541.753	135.346
544.646	97.8097
547.539	75.0203
550.432	45.4564
553.324	21.4378
556.217	4.91917
559.11	4.0153
562.002	2.0154
564.895	1.50581
567.788	0.762878
570.68	0.938705
573.573	2.88275
576.466	3.54942
579.359	8.89325
582.251	18.3117
585.144	25.3034
588.037	40.5413
590.929	48.7148
593.822	58.9691
596.715	74.5868
599.607	90.6336
602.5	105.889
605.393	108.808
608.285	103.63
611.178	82.3882
614.071	64.6642
616.964	54.9221
619.856	42.1401
622.749	35.2518
625.642	31.7702
628.534	23.7005
631.427	22.5318
634.32	15.7776
637.212	12.145
640.105	7.78773
642.998	7.45465
645.891	4.88066
648.783	3.93242
651.676	3.85313
654.569	5.24146
657.461	5.67615
660.354	4.3347
663.247	1.63312
666.139	0.397873
669.032	2.27905
671.925	1.69125
674.818	1.61119
677.71	2.28801
680.603	1.74904
683.496	1.05618
686.388	3.91803
689.281	0.69191
692.174	2.65663
695.067	0.52478
697.959	1.03143
700.852	3.62506
703.745	4.97723
706.637	12.0524
709.53	21.3295
712.423	37.1349
715.315	52.5482
718.208	74.9035
721.101	105.047
723.994	147.748
726.886	206.646
729.779	272.489
732.672	347.757
735.564	426.79
738.457	511.123
741.35	596.036
744.242	699.046
747.135	824.122
750.028	950.265
752.92	1036.36
755.813	1028.16
758.706	920.126
761.599	748.013
764.491	566.736
767.384	419.621
770.277	340.025
773.169	332.529
776.062	383.29
778.955	466.211
781.847	531.175
784.74	487.679
787.633	332.851
790.526	174.474
793.418	68.1891
796.311	16.3266
799.204	9.64255
802.096	4.62723
804.989	2.04044
807.882	7.00085
810.774	21.588
813.667	47.458
816.56	95.2286
819.453	183.262
822.345	307.762
825.238	456.476
828.131	590.328
831.023	606.13
833.916	502.272
836.809	407.39
839.702	407.701
842.594	465.085
845.487	485.695
848.38	435.512
851.272	389.83
854.165	391.125
857.058	463.659
859.95	554.713
862.843	536.273
865.736	396.667
868.629	261.274
871.521	176.437
874.414	120.397
877.307	83.3909
880.199	53.257
883.092	28.3699
885.985	11.9128
888.877	4.70001
891.77	2.37436
894.663	7.50552
897.556	8.05441
900.448	6.08386
903.341	1.30826
906.234	8.07211
909.126	16.2341
912.019	27.4854
914.912	29.0723
917.804	29.2774
920.697	30.8961
923.59	35.8068
926.482	42.436
929.375	54.8089
932.268	63.5036
935.161	33.2562
938.053	13.343
940.946	8.20029
943.839	5.25234
946.731	13.4746
949.624	18.0972
952.517	27.1067
955.409	42.5048
958.302	64.0527
961.195	94.6028
964.088	116.243
966.98	124.304
969.873	95.7073
972.766	61.8125
975.658	40.4539
978.551	30.3552
981.444	21.9836
984.337	19.7534
987.229	19.2153
990.122	20.1682
993.015	20.8242
995.907	24.6707
998.8	26.479
1001.69	26.7023
1004.59	29.5533
1007.48	28.3827
1010.37	29.2565
1013.26	26.6033
1016.16	28.1021
1019.05	21.9199
1021.94	20.6614
1024.83	20.1697
1027.73	21.0189
1030.62	19.6014
1033.51	15.4131
1036.4	14.2516
1039.3	11.2279
1042.19	8.42816
1045.08	5.35025
1047.98	2.06902
1050.87	3.57446
1053.76	2.96146
1056.65	1.86456
1059.55	2.1349
1062.44	1.67683
1065.33	1.54253
1068.22	1.66821
1071.12	1.60605
1074.01	2.80757
1076.9	0.316696
1079.8	2.66644
1082.69	2.33498
1085.58	1.95152
1088.47	1.19643
1091.37	4.61658
1094.26	1.34711
1097.15	2.20288
1100.04	4.36739
1102.94	6.11058
1105.83	9.3876
1108.72	6.18516
1111.62	9.25467
1114.51	9.886
1117.4	8.84357
1120.29	10.5591
1123.19	5.87958
1126.08	9.78458
1128.97	6.66571
1131.86	6.76898
1134.76	3.60191
1137.65	4.59605
1140.54	1.58505
1143.43	3.36748
1146.33	1.00134
1149.22	2.31609
1152.11	0.089996
1155.01	2.31786
1157.9	1.36838
1160.79	2.92836
1163.68	1.2152
1166.58	0.524643
1169.47	0.00885
1172.36	1.77622
1175.26	1.13013
1178.15	3.80209
1181.04	3.39868
1183.93	0.752319
1186.83	3.08362
1189.72	2.47
1192.61	6.6432
1195.5	4.30824
1198.4	6.13599
1201.29	7.19972
1204.18	7.1683
1207.07	7.68961
1209.97	9.01444
1212.86	6.21567
1215.75	10.3786
1218.64	10.2942
1221.54	11.2078
1224.43	13.2522
1227.32	13.7901
1230.22	12.1862
1233.11	13.4067
1236	16.2744
1238.89	14.411
1241.79	16.9129
1244.68	15.6218
1247.57	14.8465
1250.46	12.6182
1253.36	12.2465
1256.25	11.3831
1259.14	9.96069
1262.04	7.95079
1264.93	5.98296
1267.82	8.11911
1270.71	1.6508
1273.61	3.41339
1276.5	4.9436
1279.39	2.69643
1282.29	2.15503
1285.18	1.50127
1288.07	0.488419
1290.96	0
