Measurement: Raman, 532 nm, unoriented, Raman Data Processed
Mineral: Hydroboracite
Rruff sample: R060866
Ideal chemistry: CaMg[B_3_O_4_(OH)_3_]_2_3H_2_O
Locality: Thompson mine, Death Valley, California, USA
Source: Michael Scott
Description: Tuft of colorless slender prismatic crystals
Measured chemistry: Ca_1.00_Mg_1.00_B_6_O_8_(OH)_6_Â·3H_2_O ; B and H not measured but assumed by stoichiometry and verified by Raman
Raman shift (cm-1)	intensity
119.112	0
122.487	4446.58
125.862	1223.48
129.237	42.5547
132.612	67.3936
135.987	857.312
139.361	1750.47
142.736	2412.69
146.111	3507.48
149.486	4762.84
152.861	5086.69
156.235	4580.53
159.61	2228.28
162.985	2127.38
166.36	2675.6
169.735	3962.79
173.109	4079.88
176.484	5747.67
179.859	5389
183.234	3392.81
186.609	2711.99
189.983	1406.34
193.358	1065.28
196.733	1313.19
200.108	474.471
203.483	121.598
206.858	166.992
210.232	481.238
213.607	1282.6
216.982	2149.86
220.357	1395.04
223.732	371.758
227.107	25.6133
230.481	285.562
233.856	943.856
237.231	2526.89
240.606	5762.27
243.981	7689.22
247.355	3225.93
250.73	1603.36
254.105	1631.75
257.48	3208.4
260.855	4978.05
264.229	1510.41
267.604	236.06
270.979	77.8887
274.354	227.469
277.729	36.4336
281.103	319.139
284.478	927.244
287.853	674.559
291.228	137.606
294.603	45.4746
297.978	76.0039
301.352	385.41
304.727	1004.3
308.102	826.879
311.477	845.939
314.852	1653.99
318.226	3015.04
321.601	3874.96
324.976	2278.45
328.351	1242.11
331.726	828.67
335.101	719.908
338.475	869.799
341.85	622.379
345.225	337.705
348.6	71.3496
351.975	2.61328
355.349	58.8281
358.724	17.0078
362.099	71.0078
365.474	51.082
368.849	52.0508
372.224	185.5
375.598	538.486
378.973	875.756
382.348	1344.44
385.723	1967.26
389.098	1923.96
392.472	1142.35
395.847	730.441
399.222	800.842
402.597	812.986
405.972	1174.42
409.346	1466.69
412.721	2319.83
416.096	2847.33
419.471	2756.77
422.846	3023
426.221	3921.97
429.595	3187.39
432.97	1448.38
436.345	700.195
439.72	490.76
443.094	371.523
446.469	402.662
449.844	675.254
453.219	1021.57
456.594	993.471
459.969	444.824
463.343	160.365
466.718	29.6602
470.093	166.16
473.468	363.451
476.843	520.465
480.217	994.58
483.592	1931.95
486.967	2080.74
490.342	862.967
493.717	244.484
497.092	16.8438
500.466	87.9922
503.841	104.883
507.216	48.6387
510.591	255.748
513.966	333.869
517.341	698.271
520.715	775.387
524.09	906.682
527.465	1266.17
530.84	992.465
534.215	1222.05
537.589	1087.64
540.964	1064.11
544.339	1890.42
547.714	3698.64
551.089	6167.29
554.463	3107.55
557.838	975.111
561.213	730.098
564.588	1174.59
567.963	1160.8
571.337	549.205
574.712	108.644
578.087	39.1445
581.462	80.2441
584.837	394.365
588.212	145.258
591.586	47.5195
594.961	228.043
598.336	389.324
601.711	960.592
605.086	1563.19
608.46	1894.13
611.835	1822.92
615.21	1350.21
618.585	825.971
621.96	671.264
625.335	561.68
628.709	627.777
632.084	813.031
635.459	1572.54
638.834	2469.85
642.209	1739.13
645.583	826.744
648.958	640.631
652.333	709.949
655.708	621.314
659.083	618.18
662.457	344.674
665.832	282.113
669.207	301.336
672.582	185.135
675.957	43.2812
679.332	27.3203
682.706	65.2734
686.081	1.49805
689.456	111.172
692.831	189.336
696.206	90.8672
699.58	1.76758
702.955	115.873
706.33	21.9883
709.705	0.853516
713.08	34.8477
716.455	106.029
719.829	431.66
723.204	349.012
726.579	533.615
729.954	567.709
733.328	753.812
736.703	1045.05
740.078	1636.97
743.453	2503.66
746.828	3944.23
750.203	6064.84
753.577	8786.75
756.952	9715.63
760.327	6181.9
763.702	2963.25
767.077	1671.05
770.452	1288.56
773.826	1037.31
777.201	573.031
780.576	533.043
783.951	345.106
787.326	366.844
790.7	453.441
794.075	553.613
797.45	535.945
800.825	322.195
804.2	296.742
807.574	98.9609
810.949	1.48828
814.324	153.281
817.699	121.469
821.074	17.1016
824.448	32.5391
827.823	273.258
831.198	358.305
834.573	409.633
837.948	692.977
841.323	966.918
844.697	974.988
848.072	567.668
851.447	499.578
854.822	300.184
858.197	259.117
861.571	385.758
864.946	324.336
868.321	468.156
871.696	633.66
875.071	656.641
878.446	757.785
881.82	740.856
885.195	867.57
888.57	846.914
891.945	911.164
895.32	808.644
898.694	511.602
902.069	202.938
905.444	207.836
908.819	106.703
912.194	130.789
915.568	7.47266
918.943	55.9609
922.318	155.109
925.693	373.965
929.068	412.668
932.442	471.672
935.817	535.215
939.192	944.191
942.567	1174.92
945.942	1120.64
949.317	973.66
952.691	732.258
956.066	536.941
959.441	306.137
962.816	300.039
966.191	286.312
969.566	657.445
972.94	206.231
976.315	136.144
979.69	104.359
983.065	78.9492
986.439	13.8594
989.814	6.12109
993.189	67.1406
996.564	3.36328
999.939	207.504
1003.31	200.012
1006.69	282.066
1010.06	346.484
1013.44	509.402
1016.81	385.801
1020.19	451.805
1023.56	597.41
1026.94	606.566
1030.31	745.363
1033.69	607.894
1037.06	772.289
1040.44	849.629
1043.81	759.891
1047.19	505.215
1050.56	523.379
1053.94	466.144
1057.31	404.094
1060.68	467.551
1064.06	66.625
1067.43	137.676
1070.81	3.37109
1074.18	167.609
1077.56	249.383
1080.93	88.1484
1084.31	369.785
1087.68	339.586
1091.06	467.516
1094.43	629.121
1097.81	571.758
1101.18	472.832
1104.56	552.883
1107.93	373.742
1111.31	51.4297
1114.68	94.4414
1118.06	160.188
1121.43	46.2695
1124.81	257.785
1128.18	421.473
1131.56	692.918
1134.93	811.562
1138.31	1012.64
1141.68	1035.29
1145.06	1031.54
1148.43	857.113
1151.81	768.164
1155.18	704.668
1158.56	707.004
1161.93	460.148
1165.31	187.168
1168.68	188.707
1172.05	41.5938
1175.43	194.152
1178.8	284.824
1182.18	319.715
1185.55	239.805
1188.93	233.062
1192.3	54.3555
1195.68	16.0234
1199.05	91.0117
1202.43	69.8086
1205.8	138.086
1209.18	250.473
1212.55	336.004
1215.93	280.789
1219.3	204.512
1222.68	354.273
1226.05	396.769
1229.43	529.305
1232.8	662.094
1236.18	637.602
1239.55	343.047
1242.92	290.981
1246.3	306.973
1249.67	338.32
1253.05	361.766
1256.42	321.418
1259.8	301.738
1263.17	87.9141
1266.55	40.5273
1269.92	235.91
1273.3	482.945
1276.67	516.68
1280.05	468.004
1283.42	343.559
1286.8	209.481
1290.17	238.195
1293.55	369.668
1296.92	137.223
1300.3	0.566406
