Measurement: Raman, 532 nm, unoriented, Raman Data Processed
Mineral: Hydroniumjarosite
Rruff sample: R060402
Ideal chemistry: (H_3_O)Fe^3+^_3_(SO_4_)_2_(OH)_6_
Locality: Cyprus, Greece
Source: American Museum of Natural History
Description: Tan colored consolidated powder
Raman shift (cm-1)	intensity
163.835	0
166.728	0.421715
169.62	5.98985
172.513	1.77998
175.406	8.15437
178.298	10.4109
181.191	5.37102
184.084	7.33108
186.976	11.6723
189.869	20.7449
192.762	20.521
195.655	26.1549
198.547	31.9054
201.44	46.2998
204.333	65.2875
207.225	105.747
210.118	140.828
213.011	191.83
215.904	257.012
218.796	337.476
221.689	432.166
224.582	445.704
227.474	326.366
230.367	188.475
233.26	110.286
236.152	68.7736
239.045	47.3965
241.938	36.9838
244.831	28.1948
247.723	20.0614
250.616	13.2446
253.509	8.3102
256.401	5.45871
259.294	0.124329
262.187	1.29463
265.079	1.20314
267.972	3.9106
270.865	0.262741
273.758	10.8473
276.65	19.3976
279.543	29.7489
282.436	46.6034
285.328	61.3599
288.221	76.4426
291.114	99.204
294.007	122.036
296.899	138.263
299.792	137.649
302.685	108.815
305.577	69.8996
308.47	36.2092
311.363	20.62
314.255	14.1581
317.148	5.34236
320.041	3.41211
322.933	2.45895
325.826	1.45622
328.719	4.06477
331.612	5.24811
334.504	3.74873
337.397	2.57043
340.29	3.34822
343.183	8.51077
346.075	16.0822
348.968	32.0047
351.861	45.3523
354.753	56.3058
357.646	61.3369
360.539	63.137
363.431	56.282
366.324	43.7015
369.217	39.4021
372.11	29.0848
375.002	28.1316
377.895	35.1903
380.788	35.6065
383.68	44.6258
386.573	44.008
389.466	44.1052
392.358	48.489
395.251	43.2463
398.144	38.4949
401.036	36.5702
403.929	34.7722
406.822	28.8193
409.715	26.0607
412.607	28.8393
415.5	39.1583
418.393	50.111
421.285	75.6363
424.178	115.207
427.071	161.315
429.964	222.564
432.856	292.747
435.749	353.899
438.642	383.339
441.534	382.676
444.427	333.859
447.32	285.686
450.212	245.153
453.105	221.079
455.998	149.53
458.891	84.9187
461.783	48.6639
464.676	33.1329
467.569	20.2274
470.461	14.5189
473.354	12.4625
476.247	7.65659
479.139	4.88321
482.032	3.17041
484.925	1.27686
487.818	3.02551
490.71	2.85465
493.603	2.83401
496.496	0.320175
499.388	0.898224
502.281	0.063324
505.174	1.51752
508.067	3.32111
510.959	2.22818
513.852	4.5726
516.745	2.54767
519.637	3.83876
522.53	5.43202
525.423	8.55653
528.316	13.4308
531.208	17.4737
534.101	21.2159
536.994	28.1641
539.886	38.0838
542.779	41.5509
545.672	56.6997
548.564	60.8051
551.457	67.3875
554.35	72.0712
557.242	81.8013
560.135	86.2436
563.028	89.2932
565.921	92.2003
568.813	87.7321
571.706	76.7421
574.599	62.2684
577.491	46.4574
580.384	36.6317
583.277	23.1205
586.17	16.609
589.062	6.91036
591.955	4.15115
594.848	4.53711
597.74	1.91431
600.633	0.477112
603.526	4.17271
606.418	6.42537
609.311	17.1381
612.204	41.6415
615.097	69.3978
617.989	118.711
620.882	167.417
623.775	215.028
626.667	124.722
629.56	44.5377
632.453	21.0726
635.346	15.6313
638.238	15.631
641.131	20.2339
644.024	26.4758
646.916	21.9243
649.809	14.9189
652.702	11.3257
655.594	8.3118
658.487	4.75467
661.38	5.31741
664.273	4.05011
667.165	1.29034
670.058	1.78036
672.951	1.12808
675.843	2.30838
678.736	3.54565
681.629	0.441772
684.521	5.40494
687.414	5.85364
690.307	4.46555
693.199	3.51172
696.092	0.851013
698.985	4.65616
701.878	3.30914
704.77	2.79276
707.663	9.10095
710.556	2.42111
713.448	2.72592
716.341	4.99753
719.234	3.86554
722.127	1.07156
725.019	1.46011
727.912	0.634308
730.805	1.5813
733.697	1.34808
736.59	1.83118
739.483	0.452118
742.375	0.082672
745.268	1.16623
748.161	1.45633
751.054	0.171295
753.946	0.24649
756.839	2.40762
759.732	0.301758
762.625	4.34308
765.517	2.2258
768.41	1.57224
771.303	2.16104
774.195	4.26382
777.088	2.63672
779.981	6.12888
782.873	4.71777
785.766	4.80078
788.659	3.10599
791.552	3.38095
794.444	5.86597
797.337	0.255707
800.23	4.62021
803.122	4.37289
806.015	4.29407
808.908	4.33215
811.8	4.42694
814.693	3.616
817.586	1.40006
820.479	8.12033
823.371	6.38446
826.264	1.91534
829.157	2.21735
832.049	1.10281
834.942	3.64008
837.835	1.55212
840.727	0.187866
843.62	8.23065
846.513	6.74207
849.405	5.09833
852.298	3.82358
855.191	2.25058
858.084	5.73004
860.976	1.11557
863.869	7.26996
866.762	6.3017
869.654	5.17255
872.547	3.19229
875.44	4.07687
878.333	3.07034
881.225	2.85754
884.118	6.98859
887.011	1.5246
889.903	0.702026
892.796	2.98563
895.689	0.73941
898.582	5.164
901.474	3.85455
904.367	4.81357
907.26	9.57565
910.152	0.290253
913.045	3.371
915.938	3.2449
918.83	5.55188
921.723	2.12369
924.616	3.88852
927.509	2.67212
930.401	0.728699
933.294	3.28986
936.187	2.7872
939.079	4.8129
941.972	4.12057
944.865	0.279785
947.757	4.02603
950.65	0.776367
953.543	0.22702
956.436	0.911682
959.328	1.20914
962.221	0.871552
965.114	6.04501
968.006	0.790955
970.899	0.767365
973.792	3.01035
976.684	2.05194
979.577	7.18362
982.47	6.21085
985.362	4.90655
988.255	8.50424
991.148	9.74304
994.041	19.9467
996.933	34.5589
999.826	71.3429
1002.72	130.848
1005.61	221.354
1008.5	308.259
1011.4	270.777
1014.29	135.82
1017.18	77.4626
1020.08	62.3584
1022.97	46.1421
1025.86	35.1204
1028.75	25.8515
1031.65	15.3388
1034.54	10.3821
1037.43	7.25507
1040.32	7.15408
1043.22	4.41028
1046.11	2.11221
1049	1.76224
1051.89	1.21252
1054.79	1.58404
1057.68	0.136139
1060.57	2.68243
1063.47	1.51422
1066.36	4.30142
1069.25	1.38052
1072.14	1.59232
1075.04	12.0549
1077.93	9.41702
1080.82	17.7237
1083.71	26.7535
1086.61	40.2066
1089.5	60.7923
1092.39	99.889
1095.29	153.526
1098.18	226.412
1101.07	322.768
1103.96	391.68
1106.86	411.923
1109.75	346.59
1112.64	230.549
1115.53	132.39
1118.43	81.3001
1121.32	58.1125
1124.21	43.7285
1127.11	39.4419
1130	37.9832
1132.89	35.5365
1135.78	39.7604
1138.68	51.062
1141.57	65.3444
1144.46	86.2599
1147.35	109.782
1150.25	131.626
1153.14	138.308
1156.03	128.136
1158.92	104.151
1161.82	75.3239
1164.71	54.5132
1167.6	36.7231
1170.5	26.6337
1173.39	20.7486
1176.28	17.6573
1179.17	12.5168
1182.07	12.1267
1184.96	6.01782
1187.85	1.47528
1190.74	3.10867
1193.64	0.420013
1196.53	2.67188
1199.42	0.543671
1202.32	0.794922
1205.21	4.25446
1208.1	0.22052
1210.99	1.50528
1213.89	0.319977
1216.78	3.77924
1219.67	2.88666
1222.56	1.6225
1225.46	1.71484
1228.35	0.358063
1231.24	0.0177
1234.13	0.683228
1237.03	0.534119
1239.92	2.31021
1242.81	3.80524
1245.71	3.47217
1248.6	6.54785
1251.49	10.2241
1254.38	5.10043
1257.28	3.13083
1260.17	5.85165
1263.06	7.00617
1265.95	4.94132
1268.85	5.81574
1271.74	5.91687
1274.63	4.32022
1277.53	6.13254
1280.42	4.99603
1283.31	6.43234
1286.2	8.92694
1289.1	8.95325
1291.99	6.93005
1294.88	7.03696
1297.78	3.33298
1300.67	2.32816
