Measurement: Raman, 780 nm, unoriented, Raman Data Processed
Mineral: Hydroxycalciomicrolite
Rruff sample: R130269
Ideal chemistry: Ca_1.5_Ta_2_O_6_(OH)
Locality: Volta Grande, Minas Gerais, Brazil
Source: Marcelo Andrade
Description: Yellow dodecahedra and octahedra
Measured chemistry: (Ca_1.48_Na_0.06_Mn_0.01_)_Σ1.55_(Ta_1.88_Nb_0.11_Sn_0.01_)_Σ2_O_6_[(OH)_0.76_F_0.20_O_0.04_]
Raman shift (cm-1)	intensity
91.6817	0
95.0565	34.9503
98.4313	91.8427
101.806	107.806
105.181	104.517
108.556	103.094
111.931	123.274
115.305	89.0446
118.68	26.7839
122.055	11.4152
125.43	15.9539
128.805	16.5126
132.179	14.9568
135.554	52.3901
138.929	143.188
142.304	253.459
145.679	174.313
149.054	87.176
152.428	57.5892
155.803	54.1121
159.178	47.5023
162.553	39.0054
165.928	24.8029
169.302	11.9076
172.677	2.42673
176.052	3.47458
179.427	2.54211
182.802	0.516876
186.177	6.70273
189.551	7.62863
192.926	5.92871
196.301	1.14224
199.676	2.46539
203.051	4.61749
206.425	2.41016
209.8	2.65097
213.175	1.94028
216.55	2.23096
219.925	5.93311
223.299	12.7996
226.674	26.7739
230.049	33.6974
233.424	26.5984
236.799	14.8931
240.173	9.37796
243.548	12.5172
246.923	10.2931
250.298	12.1809
253.673	15.4369
257.048	21.778
260.422	38.9498
263.797	65.1724
267.172	102.236
270.547	154.764
273.922	229.254
277.296	333.705
280.671	441.073
284.046	492.604
287.421	477.142
290.796	434.785
294.171	414.373
297.545	439.263
300.92	509.75
304.295	627.694
307.67	746.938
311.045	790.6
314.42	704.971
317.794	559.439
321.169	421.786
324.544	336.877
327.919	317.83
331.293	341.659
334.668	365.783
338.043	385.589
341.418	387.163
344.793	362.03
348.168	295.077
351.542	204.412
354.917	127.938
358.292	71.4893
361.667	34.9605
365.042	13.868
368.416	0.319977
371.791	5.21866
375.166	7.86261
378.541	8.27536
381.916	5.55441
385.291	0.950104
388.665	9.60861
392.04	18.1163
395.415	22.2578
398.79	24.5943
402.165	30.7099
405.539	40.6275
408.914	55.0099
412.289	73.8782
415.664	90.1082
419.039	96.8649
422.413	87.7169
425.788	68.115
429.163	50.9461
432.538	36.1955
435.913	28.6718
439.288	25.5684
442.662	24.6812
446.037	23.4529
449.412	22.4924
452.787	20.9133
456.162	19.4014
459.536	16.7165
462.911	11.6288
466.286	2.29024
469.661	2.37973
473.036	3.69945
476.411	3.84102
479.785	1.24132
483.16	5.00658
486.535	12.1392
489.91	23.6628
493.285	42.1649
496.659	73.7315
500.034	124.332
503.409	203.265
506.784	327.96
510.159	523.018
513.534	770.64
516.908	961.061
520.283	924.216
523.658	738.412
527.033	568.852
530.408	458.125
533.782	390.67
537.157	351.065
540.532	321.832
543.907	290.24
547.282	252.239
550.656	211.254
554.031	170.47
557.406	135.468
560.781	110.676
564.156	94.6578
567.53	83.3387
570.905	69.8983
574.28	57.6903
577.655	43.07
581.03	29.664
584.405	15.6725
587.779	7.05304
591.154	1.81082
594.529	4.50766
597.904	4.26184
601.279	3.19089
604.654	1.2587
608.028	7.86591
611.403	11.1535
614.778	16.0151
618.153	22.6812
621.528	28.9391
624.902	36.2257
628.277	40.7848
631.652	44.2187
635.027	43.7285
638.402	46.5301
641.776	49.0686
645.151	55.8767
648.526	67.7863
651.901	78.6637
655.276	89.594
658.65	93.1934
662.025	93.8125
665.4	91.4556
668.775	88.9652
672.15	85.8863
675.525	81.669
678.899	79.1048
682.274	74.7495
685.649	69.7906
689.024	66.6291
692.399	61.5074
695.774	57.5723
699.148	50.2723
702.523	45.3074
705.898	37.4289
709.273	30.1803
712.648	22.3134
716.022	14.9971
719.397	10.5301
722.772	6.57323
726.147	2.6078
729.522	0.047958
732.896	1.01822
736.271	1.4324
739.646	0.989685
743.021	1.93361
746.396	1.05109
749.77	0.96579
753.145	0.484802
756.52	2.61868
759.895	3.76685
763.27	6.79349
766.645	11.4201
770.019	14.5427
773.394	18.1555
776.769	21.9491
780.144	28.2566
783.519	32.4201
786.894	37.1305
790.268	43.7034
793.643	47.9337
797.018	50.4021
800.393	51.7709
803.768	51.9173
807.142	49.1067
810.517	43.7523
813.892	39.0009
817.267	32.5745
820.642	26.4148
824.016	21.9716
827.391	17.6957
830.766	14.5611
834.141	12.4922
837.516	8.5484
840.89	7.26685
844.265	4.01927
847.64	2.15187
851.015	1.95788
854.39	1.80293
857.765	2.32011
861.139	3.74073
864.514	4.77666
867.889	7.88251
871.264	11.2106
874.639	13.9283
878.013	18.7726
881.388	23.0978
884.763	25.7507
888.138	27.2434
891.513	28.6999
894.888	27.2135
898.262	25.494
901.637	24.0996
905.012	23.3035
908.387	23.4066
911.762	20.4788
915.136	20.1957
918.511	18.5943
921.886	14.8349
925.261	13.6858
928.636	12.4705
932.01	11.1082
935.385	7.7864
938.76	5.64027
942.135	3.8601
945.51	2.56702
948.885	0.976662
952.259	0.295555
955.634	0.411259
959.009	0.620693
962.384	0.360611
965.759	0.577423
969.133	0.961853
972.508	0.362083
975.883	0.40736
979.258	0.551476
982.633	0.131081
986.008	0.199993
989.382	1.83044
992.757	3.08456
996.132	3.8276
999.507	5.09529
1002.88	5.01257
1006.26	6.65974
1009.63	7.35762
1013.01	8.86937
1016.38	10.2898
1019.76	11.0098
1023.13	11.8834
1026.51	11.8423
1029.88	12.41
1033.26	11.4074
1036.63	10.8535
1040.01	11.5851
1043.38	11.2586
1046.75	9.41795
1050.13	8.87581
1053.5	7.97497
1056.88	8.52416
1060.25	8.77715
1063.63	8.17996
1067	7.41519
1070.38	7.58263
1073.75	6.69402
1077.13	6.67858
1080.5	6.6167
1083.88	6.91106
1087.25	5.91306
1090.63	4.58576
1094	3.97415
1097.38	3.81735
1100.75	2.5952
1104.13	2.07026
1107.5	1.70905
1110.88	1.40408
1114.25	0.012897
1117.62	0.749603
1121	0.304111
1124.38	0.658144
1127.75	0.217539
1131.12	0.112036
1134.5	0.181063
1137.87	0.100975
1141.25	0.098148
1144.62	0.261986
1148	0.056475
1151.37	0.714338
1154.75	1.12661
1158.12	0.977423
1161.5	0.77273
1164.87	0.480024
1168.25	0.936571
1171.62	0.334009
1175	0.619736
1178.37	0.729851
1181.75	0.567289
1185.12	0.322927
1188.5	0.368368
1191.87	1.0951
1195.25	0.697128
1198.62	0.815483
1202	0.544689
1205.37	4.02037
1208.74	1.55915
1212.12	2.35547
1215.49	1.78128
1218.87	1.57971
1222.24	1.79911
1225.62	1.41279
1228.99	1.51364
1232.37	1.51957
1235.74	1.42823
1239.12	1.3369
1242.49	1.63368
1245.87	1.39886
1249.24	0.822933
1252.62	1.04494
1255.99	0.634501
1259.37	0.669123
1262.74	1.00848
1266.12	0.265635
1269.49	0.532589
1272.87	1.00953
1276.24	0.76741
1279.62	0.038687
1282.99	0.149132
