Measurement: Raman, 532 nm, unoriented, Raman Data Processed
Mineral: Hydrocerussite
Rruff sample: R070059
Ideal chemistry: Pb_3_(CO_3_)_2_(OH)_2_
Locality: Wanlockhead, Scotland
Source: William W. Pinch
Description: Aggregates of colorless thin hexagonal plates, likely a pseudomorph after plumbonacrite
Measured chemistry: Pb_3_(CO_3_)_2_(OH)_2_ ; Pb confirmed by EPMA, CO_2_ and H_2_O not analyzed but confirmed by Raman spectroscopy
Raman shift (cm-1)	intensity
162.235	0
165.127	161.295
168.02	218.432
170.913	309.539
173.805	301.244
176.698	334.055
179.591	285.049
182.483	332.102
185.376	370.174
188.269	368.713
191.162	379.783
194.054	346.732
196.947	320.09
199.84	277.022
202.732	331.178
205.625	336.838
208.518	204.688
211.411	255.086
214.303	37.1621
217.196	127.406
220.089	7.44531
222.981	11.0332
225.874	95.6875
228.767	45.4492
231.659	96.7578
234.552	64.2207
237.445	100.963
240.338	133.635
243.23	123.922
246.123	159.469
249.016	139.066
251.908	250.482
254.801	243.418
257.694	228.477
260.586	309.053
263.479	493.867
266.372	509.394
269.264	484.184
272.157	576.117
275.05	563.307
277.943	452.066
280.835	409.398
283.728	447.58
286.621	330.477
289.514	238.121
292.406	197.109
295.299	402.975
298.192	398.965
301.084	347.816
303.977	611.658
306.87	722.356
309.762	844.879
312.655	956.606
315.548	1098.54
318.44	1223.44
321.333	1139.99
324.226	1126
327.119	1227.82
330.011	1157.99
332.904	789.896
335.797	710.766
338.689	578.689
341.582	424.928
344.475	270.801
347.368	9.12891
350.26	111.918
353.153	96.4023
356.046	30.2578
358.938	8.15234
361.831	67.8477
364.724	40.541
367.616	218.986
370.509	380.164
373.402	591.766
376.295	745.332
379.187	1244.26
382.08	1340.94
384.973	1894.24
387.865	2211.18
390.758	2614.13
393.651	2995.31
396.543	3271.64
399.436	3432.37
402.329	3892.98
405.221	4198.01
408.114	4342.21
411.007	4697.8
413.9	4833.73
416.792	4756.66
419.685	4691.86
422.578	4418.14
425.47	4046.3
428.363	3620.69
431.256	3164.62
434.149	2574.07
437.041	2049.29
439.934	1622.14
442.827	1234.18
445.719	956.518
448.612	714.049
451.505	521.451
454.397	404.266
457.29	365.518
460.183	218.957
463.075	172.098
465.968	205.951
468.861	93.5977
471.754	39.6445
474.646	65.2617
477.539	44.7188
480.432	125.965
483.324	32.793
486.217	23.0684
489.11	11.4531
492.003	100.814
494.895	64.2637
497.788	130.107
500.681	67.9043
503.573	157.391
506.466	42.2051
509.359	46.5449
512.251	28.1836
515.144	4.57031
518.037	2.69922
520.93	38.3711
523.822	31.7969
526.715	166.047
529.608	120.758
532.5	6.15234
535.393	242.055
538.286	135.816
541.178	170.84
544.071	177.816
546.964	72.2812
549.857	194.902
552.749	213.129
555.642	137.977
558.535	132.098
561.427	76.3789
564.32	148.332
567.213	270.086
570.106	67.3867
572.998	46.7109
575.891	109.305
578.784	58.332
581.676	43.2031
584.569	173.691
587.462	126.641
590.354	13.9102
593.247	123.82
596.14	152.379
599.033	5.90625
601.925	82.6523
604.818	14.3398
607.711	42.2227
610.603	51.7422
613.496	112.055
616.389	200.93
619.281	98.2812
622.174	72.832
625.067	141.797
627.96	156.406
630.852	46.0586
633.745	86.4922
636.638	131.668
639.53	16.5625
642.423	160.945
645.316	101.551
648.208	181.016
651.101	95.8789
653.994	76.6875
656.886	97.8125
659.779	232.527
662.672	138.809
665.565	142.5
668.457	110.688
671.35	143.703
674.243	170.781
677.135	383.16
680.028	184.176
682.921	256.793
685.813	294.758
688.706	191.367
691.599	345.039
694.492	330.832
697.384	237.469
700.277	15.6953
703.17	218.758
706.062	90.9922
708.955	126.086
711.848	20.7266
714.74	17.6602
717.633	62.2266
720.526	32.9805
723.419	104.234
726.311	62.0156
729.204	127.277
732.097	148.094
734.989	195.535
737.882	267.203
740.775	118.461
743.668	344.785
746.56	158.324
749.453	227.621
752.346	301.824
755.238	327.894
758.131	223.977
761.024	232.574
763.917	267.707
766.809	254.129
769.702	209.637
772.595	262.516
775.487	169.516
778.38	327.496
781.273	263.981
784.165	243.449
787.058	224.742
789.951	287.023
792.843	203.625
795.736	178.852
798.629	215.269
801.522	179.422
804.414	117.816
807.307	88.8555
810.2	128.84
813.092	130.309
815.985	115.141
818.878	5.66406
821.77	144.754
824.663	160.559
827.556	79.8438
830.449	104.769
833.341	13.5703
836.234	113.449
839.127	198.152
842.019	123.453
844.912	187.293
847.805	149.43
850.697	230.824
853.59	333.684
856.483	409.422
859.376	575.043
862.268	505.684
865.161	467.258
868.054	478.172
870.946	214.199
873.839	83.4961
876.732	174.848
879.625	196.734
882.517	82.2773
885.41	115.269
888.303	135.723
891.195	201.32
894.088	27.9414
896.981	175.727
899.874	41.168
902.766	219.41
905.659	111.555
908.552	86.7227
911.444	129.188
914.337	116.879
917.23	237.367
920.122	130.602
923.015	26.7578
925.908	109.473
928.801	142.223
931.693	214.871
934.586	45.3281
937.479	194.027
940.371	63.4961
943.264	162.086
946.157	85.8242
949.049	116.039
951.942	201.812
954.835	81.9297
957.727	70.0742
960.62	76.5742
963.513	100.516
966.406	12.8047
969.298	164.949
972.191	83.8711
975.084	179.066
977.976	204.523
980.869	31.8203
983.762	115.156
986.654	63.7617
989.547	38.8047
992.44	36.668
995.333	170.016
998.225	32.4922
1001.12	39.5898
1004.01	30.8945
1006.9	151.238
1009.8	3.77734
1012.69	88.8633
1015.58	146.555
1018.47	67.3398
1021.37	233.133
1024.26	352.434
1027.15	356.375
1030.05	348.82
1032.94	536.188
1035.83	1532.81
1038.72	4131.08
1041.62	11387
1044.51	21249.2
1047.4	31666.3
1050.29	34450.2
1053.19	22008.5
1056.08	7273.32
1058.97	1508.8
1061.87	569.301
1064.76	325.898
1067.65	209.965
1070.54	185.816
1073.44	69.4102
1076.33	171.902
1079.22	69.375
1082.11	125.859
1085.01	67.1016
1087.9	84.0117
1090.79	37.3477
1093.68	218.156
1096.58	217.434
1099.47	25.5234
1102.36	124.812
1105.26	43.2344
1108.15	24.0625
1111.04	34.668
1113.93	64.0898
1116.83	105.863
1119.72	58.4023
1122.61	163.555
1125.5	101.207
1128.4	214.297
1131.29	70.7773
1134.18	56.4844
1137.08	113.133
1139.97	96.3242
1142.86	200.762
1145.75	26.8281
1148.65	122.934
1151.54	183.539
1154.43	227.426
1157.32	29.0312
1160.22	85.5859
1163.11	263.742
1166	212.875
1168.89	308.008
1171.79	71.293
1174.68	146.762
1177.57	223.984
1180.46	22.0938
1183.36	235.641
1186.25	70.4297
1189.14	53.9609
1192.04	289.922
1194.93	222.074
1197.82	205.894
1200.71	26.8828
1203.61	248.266
1206.5	73.6172
1209.39	56.8281
1212.29	314.352
1215.18	9.91797
1218.07	114.582
1220.96	107.016
1223.86	179.074
1226.75	110.836
1229.64	201.688
1232.53	305.703
1235.43	134.945
1238.32	47.7812
1241.21	132.152
1244.11	82.1133
1247	150.309
1249.89	186.047
1252.78	60.5352
1255.68	129.055
1258.57	22.2695
1261.46	188.519
1264.35	148.957
1267.25	199.996
1270.14	181.641
1273.03	323.598
1275.92	197.871
1278.82	268.144
1281.71	132.156
1284.6	264.828
1287.49	167.519
1290.39	74.5703
1293.28	256.309
1296.17	187.668
1299.07	222.227
