Measurement: Raman, 532 nm, unoriented, Raman Data Processed
Mineral: Hydroxylherderite
Rruff sample: R060353
Ideal chemistry: CaBePO_4_(OH)
Locality: Shigar Valley, northeast of Skardu, Baltistan, Pakistan
Source: Herb Obodda
Description: Colorless equant crystal
Measured chemistry: (Ca_0.99_Mn_0.01_)_Σ=1_Be_1.00_P_1.00_O_4_((OH)_0.52_F_0.48_)_Σ=1_; trace amounts of Na; Be not measured but assumed by stoichiometry; OH estimated by charge balance
Raman shift (cm-1)	intensity
157.506	0
160.399	23.8245
163.292	127.821
166.185	256.385
169.077	301.613
171.97	126.023
174.863	52.7321
177.755	62.8302
180.648	88.6506
183.541	90.4938
186.433	71.635
189.326	101.184
192.219	167.407
195.112	229.785
198.004	156.664
200.897	53.7395
203.79	16.9731
206.682	1.53009
209.575	3.95636
212.468	4.42499
215.36	0.285645
218.253	7.51074
221.146	24.7026
224.038	30.8972
226.931	10.6914
229.824	4.80225
232.717	5.17841
235.609	6.02618
238.502	1.40442
241.395	4.65808
244.287	12.9424
247.18	24.7781
250.073	35.7161
252.965	58.3591
255.858	58.1323
258.751	34.2826
261.644	20.6145
264.536	10.6953
267.429	18.8973
270.322	16.3851
273.214	11.9959
276.107	11.9169
279	10.4489
281.892	21.0402
284.785	24.2092
287.678	37.4275
290.571	47.2036
293.463	58.679
296.356	71.8521
299.249	70.512
302.141	68.5369
305.034	58.7529
307.927	54.4299
310.82	41.3525
313.712	42.8715
316.605	46.4564
319.498	57.5205
322.39	73.9965
325.283	90.0697
328.176	102.451
331.068	122.384
333.961	149.743
336.854	163.202
339.747	127.728
342.639	89.8253
345.532	61.3522
348.425	41.9663
351.317	32.1906
354.21	21.1504
357.103	16.4288
359.995	6.12817
362.888	8.65881
365.781	1.5144
368.673	1.70398
371.566	2.42517
374.459	2.72424
377.352	2.38696
380.244	3.22949
383.137	4.25061
386.03	1.11841
388.922	0.893433
391.815	1.59387
394.708	1.09973
397.601	1.76941
400.493	8.94031
403.386	10.0011
406.279	22.0959
409.171	33.2531
412.064	47.1892
414.957	73.7291
417.849	95.894
420.742	137.312
423.635	184.8
426.527	222.979
429.42	187.579
432.313	126.208
435.206	126.128
438.098	156.935
440.991	192.449
443.884	260.972
446.776	346.331
449.669	364.551
452.562	252.194
455.454	128.413
458.347	64.234
461.24	36.7327
464.133	25.2615
467.025	17.4059
469.918	12.2933
472.811	8.10364
475.703	3.30444
478.596	0.158447
481.489	2.02576
484.382	0.598633
487.274	1.20544
490.167	7.86804
493.06	2.2688
495.952	4.25854
498.845	18.0813
501.738	31.5144
504.63	63.0185
507.523	101.175
510.416	164.606
513.308	265.612
516.201	424.293
519.094	558.798
521.987	371.724
524.879	123.116
527.772	50.929
530.665	27.4285
533.557	29.2764
536.45	27.4108
539.343	22.282
542.236	27.3568
545.128	39.2897
548.021	44.5159
550.914	50.1411
553.806	56.9904
556.699	61.2228
559.592	53.0415
562.484	60.6491
565.377	89.1656
568.27	126.685
571.163	181.185
574.055	267.614
576.948	367.588
579.841	456.255
582.733	501.137
585.626	560.449
588.519	553.745
591.411	416.887
594.304	270.205
597.197	183.776
600.09	136.884
602.982	81.8586
605.875	58.7539
608.768	52.2378
611.66	37.3419
614.553	30.2867
617.446	17.5951
620.338	11.0338
623.231	10.105
626.124	4.9613
629.016	1.01526
631.909	5.88367
634.802	3.04102
637.695	4.6366
640.587	6.21277
643.48	5.5166
646.373	3.46643
649.265	4.65906
652.158	5.3595
655.051	4.67969
657.943	2.79394
660.836	3.11951
663.729	2.68677
666.622	5.67383
669.514	11.8826
672.407	14.831
675.3	27.347
678.192	34.4768
681.085	35.8595
683.978	38.6065
686.87	38.1178
689.763	40.9849
692.656	44.0277
695.549	45.5195
698.441	46.6658
701.334	53.1669
704.227	52.4265
707.119	46.8127
710.012	41.9522
712.905	36.5714
715.798	26.4336
718.69	10.3512
721.583	5.14392
724.476	9.74219
727.368	9.08704
730.261	7.45252
733.154	10.1968
736.046	9.66443
738.939	14.5057
741.832	6.34631
744.725	15.8413
747.617	23.8833
750.51	23.0188
753.403	35.7986
756.295	49.0872
759.188	50.9707
762.081	65.2766
764.973	62.4479
767.866	51.9944
770.759	45.4504
773.652	46.627
776.544	33.7998
779.437	29.5802
782.33	24.1775
785.222	20.7572
788.115	22.6818
791.008	22.4615
793.9	15.7002
796.793	8.21582
799.686	6.8053
802.578	4.34998
805.471	7.12268
808.364	5.12
811.257	2.23047
814.149	3.21435
817.042	0.280273
819.935	2.97949
822.827	3.97339
825.72	0.457764
828.613	3.23535
831.505	1.83374
834.398	5.86304
837.291	0.242432
840.184	4.40381
843.076	1.37427
845.969	10.4565
848.862	0.05957
851.754	5.05103
854.647	0.854004
857.54	2.41943
860.433	2.7771
863.325	5.36865
866.218	6.29688
869.111	3.15356
872.003	2.51587
874.896	5.75415
877.789	7.84351
880.681	7.79492
883.574	4.33228
886.467	11.2539
889.36	15.9231
892.252	17.196
895.145	22.386
898.038	20.9375
900.93	28.5593
903.823	30.6267
906.716	20.7791
909.608	22.6931
912.501	20.616
915.394	24.5222
918.287	27.561
921.179	16.501
924.072	18.5483
926.965	16.8159
929.857	10.8296
932.75	2.07446
935.643	0.624512
938.535	5.81763
941.428	8.66016
944.321	5.76416
947.213	15.1016
950.106	19.5925
952.999	31.0222
955.892	44.332
958.784	62.4617
961.677	86.8716
964.57	117.131
967.462	180.225
970.355	275.469
973.248	450.742
976.14	670.849
979.033	930.87
981.926	1112.68
984.819	1169.71
987.711	1087.6
990.604	990.422
993.497	949.597
996.389	986.815
999.282	1129.27
1002.17	1351.54
1005.07	1582.95
1007.96	1603.19
1010.85	1220.55
1013.75	786.06
1016.64	547.542
1019.53	427.079
1022.42	365.809
1025.32	317.167
1028.21	279.582
1031.1	222.074
1033.99	163.801
1036.89	120.304
1039.78	67.321
1042.67	36.4768
1045.57	22.644
1048.46	16.1245
1051.35	16.4277
1054.24	15.8213
1057.14	11.8362
1060.03	4.74146
1062.92	2.29028
1065.81	5.2312
1068.71	13.252
1071.6	3.70312
1074.49	5.66992
1077.38	23.4058
1080.28	41.1397
1083.17	70.6458
1086.06	95.0857
1088.96	97.7122
1091.85	53.4363
1094.74	41.8396
1097.63	33.3176
1100.53	30.8459
1103.42	17.259
1106.31	34.3894
1109.2	29.2283
1112.1	36.6445
1114.99	45.676
1117.88	65.8254
1120.78	98.3035
1123.67	165.186
1126.56	228.617
1129.45	351.322
1132.35	321.033
1135.24	177.019
1138.13	105.878
1141.02	103.794
1143.92	111.275
1146.81	66.0005
1149.7	31.8735
1152.6	12.1982
1155.49	18.0771
1158.38	9.31763
1161.27	8.92285
1164.17	0.4375
1167.06	12.1331
1169.95	6.09644
1172.84	9.1333
1175.74	1.44263
1178.63	1.5813
1181.52	4.56738
1184.41	1.00781
1187.31	7.19092
1190.2	8.35645
1193.09	1.68091
1195.99	7.12451
1198.88	11.1116
1201.77	10.011
1204.66	5.53833
1207.56	9.59204
1210.45	13.7224
1213.34	21.812
1216.23	15.8218
1219.13	6.67481
1222.02	2.43603
1224.91	0.74292
1227.81	12.6787
1230.7	10.7793
1233.59	9.47827
1236.48	9.85718
1239.38	4.37671
1242.27	12.1138
1245.16	0.440186
1248.05	7.35669
1250.95	14.6543
1253.84	16.8623
1256.73	11.5979
1259.62	7.4104
1262.52	13.2871
1265.41	11.2742
1268.3	19.8057
1271.2	15.7434
1274.09	14.5557
1276.98	0.718018
1279.87	10.9331
1282.77	6.91284
1285.66	0.289063
1288.55	0.957031
1291.44	10.9521
1294.34	10.4819
1297.23	6.64893
1300.12	7.34766
1303.02	0
