Measurement: Raman, 532 nm, unoriented, Raman Data Processed
Mineral: Hydroxylherderite
Rruff sample: R070451
Ideal chemistry: CaBePO_4_(OH)
Locality: Fletcher mine, Groton, Grafton County, New Hampshire, USA
Source: Michael Scott
Description: Brownish green prismatic crystal
Measured chemistry: Ca_1.00_Be_1.00_P_1.00_O_4_((OH)_0.80_F_0.20_)_Î£=1_; trace amounts of Al; OH estimated by charge balance; BeO by difference
Raman shift (cm-1)	intensity
134.977	0
138.352	309.749
141.727	713.5
145.102	1019.86
148.476	213.655
151.851	320.548
155.226	796.505
158.601	1217.37
161.976	1880.01
165.351	3120.98
168.725	5486.45
172.1	2054.91
175.475	1103.34
178.85	1245.94
182.225	2116.22
185.6	2409.17
188.974	943.192
192.349	991.687
195.724	1518.76
199.099	2532.74
202.474	1329.58
205.848	260.941
209.223	73.208
212.598	36.8828
215.973	53.1348
219.348	15.6572
222.722	133.542
226.097	424.72
229.472	1147.67
232.847	1354.2
236.222	436.513
239.597	139.986
242.971	112.995
246.346	351.809
249.721	955.266
253.096	1703.62
256.471	1283.41
259.846	487.999
263.22	476.157
266.595	731.347
269.97	1303.19
273.345	394.113
276.719	41.6719
280.094	32.7324
283.469	120.198
286.844	106.992
290.219	36.1074
293.594	78.5606
296.969	35.2959
300.343	219.655
303.718	592.943
307.093	1237.23
310.468	1030.75
313.843	332.987
317.217	193.935
320.592	372.53
323.967	598.644
327.342	898.259
330.717	596.06
334.091	417.84
337.466	478.724
340.841	748.083
344.216	982.987
347.591	923.667
350.966	1084.93
354.34	1297.15
357.715	348.319
361.09	117.143
364.465	115.983
367.84	19.0322
371.214	17.6328
374.589	24.7031
377.964	10.9844
381.339	36.1709
384.714	63.4688
388.089	36.2295
391.463	9.81055
394.838	104.731
398.213	73.3662
401.588	94.8311
404.963	180.69
408.337	198.392
411.712	413.852
415.087	771.223
418.462	1423.38
421.837	2477.99
425.212	3807.73
428.586	1980.01
431.961	1074.66
435.336	1044.55
438.711	1415.4
442.086	2080.37
445.461	3208.85
448.835	2444.63
452.21	1072.9
455.585	574.456
458.96	294.079
462.335	276.183
465.709	149.841
469.084	65.0019
472.459	65.4922
475.834	20.7861
479.209	73.5195
482.584	3.15332
485.958	35.7959
489.333	49.498
492.708	134.808
496.083	113.939
499.458	2.89258
502.832	213.161
506.207	646.577
509.582	1405.07
512.957	2926.21
516.332	4662.52
519.707	2854.48
523.081	2542.33
526.456	3702.37
529.831	3183.57
533.206	1703.1
536.581	1140.3
539.955	1181.74
543.33	942.481
546.705	587.984
550.08	485.08
553.455	770.059
556.83	1419.09
560.204	2561.97
563.579	4262.76
566.954	4402.37
570.329	4572.29
573.704	6580.28
577.078	8732.32
580.453	6682.51
583.828	4903.05
587.203	5377.2
590.578	7688.38
593.952	12412
597.327	17793.6
600.702	12394.8
604.077	5106.55
607.452	2320.97
610.827	1406.62
614.201	1181.31
617.576	1011.34
620.951	390.906
624.326	342.34
627.701	546.258
631.076	942.934
634.45	966.027
637.825	875.516
641.2	503.789
644.575	147.602
647.95	107.379
651.324	115.16
654.699	84.3203
658.074	45.9219
661.449	150.566
664.824	293.769
668.198	728.461
671.573	1364.99
674.948	2225.1
678.323	2943.62
681.698	2330.03
685.073	1503.67
688.447	926.869
691.822	745.408
695.197	565.479
698.572	630.922
701.947	738.113
705.322	726.887
708.696	469.152
712.071	323.1
715.446	175.572
718.821	15.6328
722.196	18.7441
725.57	19.2266
728.945	62.3496
732.32	72.6016
735.695	2.11914
739.07	41.4492
742.444	89.1504
745.819	107.336
749.194	198.994
752.569	305.951
755.944	316.264
759.319	495.32
762.693	391.082
766.068	454.285
769.443	530.838
772.818	722.424
776.193	736.076
779.567	893.367
782.942	1264.03
786.317	1676.97
789.692	2083.35
793.067	1882.37
796.442	1186.12
799.816	761.826
803.191	346.121
806.566	245.912
809.941	240.897
813.316	214.066
816.691	144.938
820.065	194.092
823.44	40.3926
826.815	84.4492
830.19	42.8027
833.565	201.553
836.939	145.019
840.314	58.1484
843.689	56.0977
847.064	60.4512
850.439	91.1856
853.813	37.9824
857.188	95.9941
860.563	146.057
863.938	223.08
867.313	306.445
870.688	480.539
874.062	543.133
877.437	682.633
880.812	841.93
884.187	741.537
887.562	649.072
890.937	560.314
894.311	455.188
897.686	332.023
901.061	300.221
904.436	192.477
907.811	132.051
911.185	115.002
914.56	131.096
917.935	32.4375
921.31	17.4941
924.685	35.9609
928.059	20.7305
931.434	49.8438
934.809	79.9981
938.184	43.0273
941.559	75.3809
944.934	186.553
948.308	317.336
951.683	399.281
955.058	680.953
958.433	997.268
961.808	1219.87
965.183	1783.69
968.557	2486.83
971.932	3538.19
975.307	6134.56
978.682	10358.4
982.057	17176.6
985.431	23519.9
988.806	20431.7
992.181	21859.4
995.556	31313.3
998.931	39073.1
1002.3	30008.2
1005.68	20040.6
1009.05	15597.9
1012.43	12896
1015.8	7575.74
1019.18	4795.94
1022.55	3467.57
1025.93	2445.92
1029.3	1669.56
1032.68	1070.59
1036.05	616.592
1039.43	397.639
1042.8	104.109
1046.18	122.717
1049.55	69.5547
1052.93	38.2559
1056.3	84.1074
1059.68	23.8457
1063.05	66.8965
1066.43	28.584
1069.8	16.7617
1073.18	122.494
1076.55	203.023
1079.93	642.111
1083.3	1202.56
1086.68	1128.88
1090.05	609.826
1093.43	270.963
1096.8	263.529
1100.17	268.363
1103.55	113.676
1106.92	177.606
1110.3	313.516
1113.67	450.955
1117.05	700.002
1120.42	1431.05
1123.8	3204.9
1127.17	6535.76
1130.55	4654.43
1133.92	3858.55
1137.3	5680.93
1140.67	3828.91
1144.05	1407.72
1147.42	542.268
1150.8	344.697
1154.17	249.443
1157.55	60.8516
1160.92	140.781
1164.3	77.7129
1167.67	62.5645
1171.05	83.8144
1174.42	65.8516
1177.8	52.5508
1181.17	42.5742
1184.55	17.832
1187.92	22.5176
1191.3	61.6699
1194.67	5.7793
1198.05	61.2383
1201.42	13.6055
1204.8	59.4395
1208.17	53.1973
1211.54	103.529
1214.92	200.988
1218.29	7.42773
1221.67	96.8203
1225.04	61.6602
1228.42	68.7344
1231.79	114.914
1235.17	9.57031
1238.54	173.769
1241.92	76.5606
1245.29	60.7422
1248.67	31.7051
1252.04	116.072
1255.42	144.43
1258.79	133.133
1262.17	128.377
1265.54	1.74414
1268.92	86.5234
1272.29	102.098
1275.67	119.902
1279.04	104.822
1282.41	179.137
1285.79	25.2578
1289.16	0.728516
1292.54	48.9316
1295.91	0.271484
1299.29	81.0176
1302.66	107.857
1306.04	17.3379
1309.41	80.8535
1312.79	59.1641
1316.16	0.242188
