Measurement: Raman, 532 nm, unoriented, Raman Data Processed
Mineral: Hydroxycalciomicrolite
Rruff sample: R130269
Ideal chemistry: Ca_1.5_Ta_2_O_6_(OH)
Locality: Volta Grande, Minas Gerais, Brazil
Source: Marcelo Andrade
Description: Yellow dodecahedra and octahedra
Measured chemistry: (Ca_1.48_Na_0.06_Mn_0.01_)_Σ1.55_(Ta_1.88_Nb_0.11_Sn_0.01_)_Σ2_O_6_[(OH)_0.76_F_0.20_O_0.04_]
Raman shift (cm-1)	intensity
186.267	0
189.16	0.941849
192.053	14.5172
194.945	23.6496
197.838	16.7726
200.731	20.0421
203.623	43.8705
206.516	74.6736
209.409	103.355
212.301	105.55
215.194	87.9379
218.087	69.6937
220.98	68.0612
223.872	79.9683
226.765	96.3785
229.658	113.871
232.55	91.6879
235.443	63.2387
238.336	39.4436
241.228	32.3507
244.121	30.5251
247.014	24.337
249.906	12.6315
252.799	10.3826
255.692	6.32526
258.585	10.5596
261.477	16.5662
264.37	40.6345
267.263	69.9526
270.155	105.428
273.048	158.426
275.941	236.912
278.834	329.045
281.726	418.184
284.619	462.788
287.512	450.145
290.404	405.589
293.297	365.755
296.19	359.298
299.082	395.447
301.975	469.309
304.868	571.592
307.76	684.664
310.653	750.747
313.546	724.152
316.439	618.381
319.331	491.204
322.224	388.491
325.117	320.945
328.009	316.253
330.902	345.056
333.795	377.663
336.688	402.795
339.58	424.803
342.473	433.703
345.366	410.482
348.258	351.612
351.151	266.684
354.044	183.745
356.936	117.054
359.829	66.8245
362.722	32.6701
365.615	9.24759
368.507	2.3728
371.4	8.52032
374.293	8.31372
377.185	10.703
380.078	8.87955
382.971	5.05508
385.863	3.84622
388.756	11.1876
391.649	24.9013
394.541	31.0581
397.434	33.7468
400.327	40.3507
403.22	47.0543
406.112	58.8598
409.005	78.3649
411.898	95.1815
414.79	116.492
417.683	129.039
420.576	124.114
423.469	110.78
426.361	88.7737
429.254	69.6552
432.147	54.3416
435.039	44.3829
437.932	39.6999
440.825	35.8675
443.717	33.1793
446.61	31.8031
449.503	30.7671
452.396	29.8509
455.288	29.8877
458.181	22.199
461.074	16.5969
463.966	8.68219
466.859	0.933655
469.752	1.54962
472.644	3.48126
475.537	2.37494
478.43	2.0036
481.322	1.4118
484.215	7.81122
487.108	17.3692
490.001	30.1846
492.893	48.1755
495.786	78.1897
498.679	123.598
501.571	189.451
504.464	284.821
507.357	423.444
510.25	617.894
513.142	870.648
516.035	1120.34
518.928	1238.24
521.82	1127.93
524.713	915.854
527.606	738.902
530.498	595.118
533.391	515.877
536.284	464.891
539.177	432.577
542.069	393.243
544.962	356.343
547.855	312.784
550.747	267.4
553.64	224.12
556.533	189.877
559.425	158.904
562.318	132.664
565.211	117.355
568.104	108.725
570.996	98.9574
573.889	87.6655
576.782	69.2833
579.674	53.7518
582.567	34.7281
585.46	21.4663
588.352	8.99377
591.245	0.279938
594.138	6.1633
597.03	7.47824
599.923	4.21133
602.816	3.18866
605.709	0.326599
608.601	6.57532
611.494	9.72452
614.387	14.4899
617.279	21.6307
620.172	30.1303
623.065	36.6151
625.957	41.9034
628.85	43.0745
631.743	47.0653
634.636	46.4552
637.528	48.8222
640.421	49.9627
643.314	59.3954
646.206	68.0121
649.099	83.597
651.992	96.2584
654.885	109.943
657.777	118.827
660.67	122.857
663.563	125.05
666.455	125.515
669.348	123.859
672.241	120.567
675.133	118.094
678.026	112.566
680.919	107.527
683.812	102.288
686.704	96.2755
689.597	94.3741
692.49	91.4911
695.382	83.0628
698.275	79.9445
701.168	71.6137
704.06	64.737
706.953	58.2432
709.846	47.1924
712.739	38.1519
715.631	29.1212
718.524	20.7786
721.417	14.9756
724.309	12.0446
727.202	4.56015
730.095	2.37219
732.987	0.294189
735.88	0.195496
738.773	3.16873
741.665	3.21953
744.558	2.48703
747.451	2.93745
750.344	0.635925
753.236	1.93825
756.129	0.302475
759.022	2.53835
761.914	4.23856
764.807	9.61981
767.7	11.3276
770.592	16.4598
773.485	18.8304
776.378	25.0391
779.271	29.0816
782.163	33.827
785.056	40.0935
787.949	44.9555
790.841	51.8845
793.734	60.0395
796.627	66.2998
799.519	67.9485
802.412	72.7908
805.305	72.1965
808.198	77.4024
811.09	63.2678
813.983	63.7221
816.876	47.3904
819.768	41.2686
822.661	36.287
825.554	29.9198
828.447	24.2721
831.339	20.8751
834.232	17.6961
837.125	13.749
840.017	12.2913
842.91	8.63104
845.803	5.82144
848.695	4.03589
851.588	2.96768
854.481	3.93872
857.374	5.53943
860.266	8.35152
863.159	8.54181
866.052	12.1625
868.944	14.6249
871.837	17.8385
874.73	23.3183
877.622	29.0095
880.515	33.6517
883.408	36.7703
886.301	41.9427
889.193	42.931
892.086	43.8102
894.979	45.353
897.871	42.7127
900.764	41.8989
903.657	41.2055
906.549	38.0159
909.442	36.926
912.335	35.8485
915.227	33.557
918.12	31.507
921.013	28.9999
923.906	25.912
926.798	24.2367
929.691	20.105
932.584	18.9664
935.476	14.7046
938.369	10.9202
941.262	6.53525
944.154	3.70531
947.047	2.3168
949.94	2.22525
952.833	0.671127
955.725	0.438766
958.618	1.70831
961.511	0.972519
964.403	0.199417
967.296	0.582809
970.189	0.929092
973.082	0.780121
975.974	0.297531
978.867	0.482483
981.76	0.460236
984.652	0.837494
987.545	1.40451
990.438	1.27083
993.33	2.92999
996.223	3.66196
999.116	4.93944
1002.01	7.0386
1004.9	8.9888
1007.79	10.0505
1010.69	13.6618
1013.58	12.4475
1016.47	13.4988
1019.37	14.1063
1022.26	16.4016
1025.15	16.692
1028.04	17.3208
1030.94	16.027
1033.83	16.8253
1036.72	15.4808
1039.61	15.0998
1042.51	13.5487
1045.4	15.3927
1048.29	12.9844
1051.18	12.7133
1054.08	11.6047
1056.97	11.0563
1059.86	10.0183
1062.76	10.1694
1065.65	8.57249
1068.54	8.59412
1071.43	8.34322
1074.33	8.96943
1077.22	9.80306
1080.11	7.66669
1083	7.70998
1085.9	7.24345
1088.79	7.23808
1091.68	5.52696
1094.58	12.1582
1097.47	4.3311
1100.36	4.13795
1103.25	2.96377
1106.15	2.13819
1109.04	9.25966
1111.93	2.03628
1114.82	1.15899
1117.72	0.891823
1120.61	0.471992
1123.5	0.74527
1126.39	0.11689
1129.29	0.105301
1132.18	0.490181
1135.07	1.12808
1137.96	0.710098
1140.86	6.96293
1143.75	0.221184
1146.64	2.00905
1149.54	1.05029
1152.43	0.576408
1155.32	0.507545
1158.21	0.108116
1161.11	0.842766
1164	0.376266
1166.89	0.606209
1169.79	0.077843
1172.68	0.306511
1175.57	0.559868
1178.46	0.440323
1181.36	0.055565
1184.25	5.68815
1187.14	0.559372
1190.03	0.171951
1192.93	0.773148
1195.82	1.07932
1198.71	1.19782
1201.61	0.754822
1204.5	2.44818
1207.39	1.89706
1210.28	2.13606
1213.18	2.92952
1216.07	3.34605
1218.96	9.30648
1221.85	3.62783
1224.75	4.162
1227.64	3.13346
1230.53	3.51953
1233.42	3.61055
1236.32	4.5793
1239.21	4.77837
1242.1	4.04234
1244.99	3.31557
1247.89	4.05732
1250.78	2.65591
1253.67	2.08067
1256.57	2.41307
1259.46	2.8237
1262.35	2.60647
1265.24	2.10229
1268.14	3.04033
1271.03	3.02716
1273.92	1.62872
1276.82	2.65068
1279.71	1.67973
1282.6	1.1066
1285.49	2.11295
1288.39	0.964355
1291.28	1.35303
1294.17	1.51411
1297.06	0.201416
1299.96	0.097389
