Measurement: Raman, 780 nm, unoriented, Raman Data Processed
Mineral: Hydroxylclinohumite
Rruff sample: R060291
Ideal chemistry: Mg_9_Si_4_O_16_(OH)_2_
Locality: Koksha Valley, Badakshan Province, Afghanistan
Source: Herb Obodda
Description: Deep red tabular crystal
Raman shift (cm-1)	intensity
115.639	0
119.014	0.894562
122.389	13.6597
125.763	3.13849
129.138	1.58841
132.513	4.15897
135.888	7.28397
139.263	16.9705
142.638	19.7348
146.012	27.4733
149.387	27.9849
152.762	30.7223
156.137	32.0113
159.512	31.4261
162.887	23.5119
166.261	21.1493
169.636	16.9615
173.011	17.7067
176.386	26.4331
179.761	41.1467
183.135	61.2587
186.51	65.8687
189.885	52.1288
193.26	37.7211
196.635	44.3302
200.01	37.9196
203.384	31.0488
206.759	24.335
210.134	15.6344
213.509	6.12787
216.884	1.74411
220.258	5.38568
223.633	4.93393
227.008	0.013
230.383	1.14929
233.758	11.6254
237.132	13.9035
240.507	12.4144
243.882	5.40326
247.257	16.3015
250.632	20.1457
254.006	22.7314
257.381	41.8532
260.756	47.9975
264.131	51.2429
267.506	49.0097
270.881	55.7331
274.255	57.7294
277.63	57.1273
281.005	58.8066
284.38	50.017
287.755	46.6731
291.13	48.3399
294.504	46.6598
297.879	53.1124
301.254	64.0881
304.629	57.9549
308.004	48.6183
311.378	43.6473
314.753	61.4893
318.128	70.5909
321.503	66.4062
324.878	57.1915
328.252	50.2841
331.627	44.7058
335.002	44.8148
338.377	49.4064
341.752	58.0954
345.127	67.7652
348.501	66.8359
351.876	68.5186
355.251	68.2049
358.626	71.0765
362.001	69.9686
365.375	67.3297
368.75	66.2093
372.125	67.5122
375.5	56.329
378.875	50.0101
382.25	37.4512
385.624	28.6934
388.999	20.5115
392.374	12.5216
395.749	0.152924
399.124	5.59668
402.498	6.4845
405.873	4.26382
409.248	1.77664
412.623	14.6602
415.998	23.6838
419.373	39.3541
422.747	57.8808
426.122	73.9485
429.497	82.3834
432.872	62.2595
436.247	47.3156
439.622	38.8522
442.996	38.634
446.371	28.5255
449.746	17.8648
453.121	10.0591
456.496	10.1616
459.87	9.61685
463.245	3.04752
466.62	2.36679
469.995	2.68436
473.37	2.49619
476.745	7.14279
480.119	11.1054
483.494	14.0181
486.869	17.5996
490.244	15.4262
493.619	13.3061
496.993	10.7898
500.368	11.3714
503.743	3.50265
507.118	3.7963
510.493	1.92728
513.867	2.58609
517.242	2.65546
520.617	5.43884
523.992	14.4225
527.367	27.2438
530.741	46.6443
534.116	61.4722
537.491	73.1428
540.866	80.5695
544.241	95.9
547.616	108.905
550.99	74.6968
554.365	33.91
557.74	15.084
561.115	18.2686
564.49	11.9085
567.865	20.3677
571.239	31.0445
574.614	39.4954
577.989	52.6621
581.364	68.0108
584.739	79.3656
588.114	90.8342
591.488	92.2596
594.863	85.2201
598.238	85.6703
601.613	96.5103
604.987	93.678
608.362	73.9835
611.737	53.6998
615.112	36.0521
618.487	27.2696
621.862	18.549
625.236	15.8223
628.611	15.5952
631.986	9.18871
635.361	8.86107
638.736	7.08312
642.111	13.7739
645.485	7.28459
648.86	12.0543
652.235	13.5715
655.61	18.0441
658.985	17.2519
662.359	12.2736
665.734	12.0492
669.109	9.96927
672.484	6.52954
675.859	2.57057
679.234	1.96779
682.608	5.54402
685.983	1.76938
689.358	1.63121
692.733	1.36124
696.108	3.75552
699.482	4.85783
702.857	4.61923
706.232	9.68295
709.607	5.48219
712.982	3.99483
716.356	2.27389
719.731	21.0534
723.106	48.3615
726.481	85.529
729.856	132.286
733.231	196.363
736.605	261.24
739.98	316.415
743.355	349.105
746.73	362.433
750.105	379.271
753.48	382.615
756.854	348.26
760.229	276.051
763.604	212.985
766.979	189.248
770.354	223.19
773.728	308.944
777.103	455.834
780.478	599.413
783.853	576.131
787.228	351.363
790.602	141.639
793.977	36.0479
797.352	13.6343
800.727	20.0446
804.102	54.782
807.477	85.8554
810.851	129.728
814.226	221.957
817.601	377.019
820.976	606.38
824.351	916.963
827.726	1202.44
831.1	1177.76
834.475	870.026
837.85	739.535
841.225	783.356
844.6	794.915
847.974	648.945
851.349	542.492
854.724	551.04
858.099	666.133
861.474	688.61
864.848	485.57
868.223	299.758
871.598	185.379
874.973	115.12
878.348	75.1918
881.722	36.7282
885.097	12.9114
888.472	5.95854
891.847	14.7696
895.222	15.272
898.597	12.4189
901.971	2.53369
905.346	12.3175
908.721	24.5113
912.096	30.8901
915.471	32.9633
918.846	35.8815
922.22	43.5729
925.595	65.0593
928.97	109.161
932.345	118.854
935.72	51.3773
939.094	26.0907
942.469	23.5809
945.844	28.5298
949.219	42.0436
952.594	64.5104
955.968	99.8646
959.343	153.131
962.718	200.047
966.093	212.149
969.468	142.534
972.843	72.9406
976.217	43.3344
979.592	20.4721
982.967	14.4381
986.342	6.96464
989.717	7.41071
993.091	5.12422
996.466	4.42096
999.841	2.4763
1003.22	0.071442
1006.59	5.77196
1009.97	3.64821
1013.34	0.818008
1016.72	1.04257
1020.09	2.02332
1023.47	0.889404
1026.84	6.09253
1030.21	7.90294
1033.59	8.80586
1036.96	8.11783
1040.34	6.49782
1043.71	8.9863
1047.09	10.2864
1050.46	8.00704
1053.84	5.09471
1057.21	0.901443
1060.59	5.25826
1063.96	2.8786
1067.34	4.67972
1070.71	2.01829
1074.09	0.631577
1077.46	0.316818
1080.84	2.89458
1084.21	1.88419
1087.59	4.53932
1090.96	4.79851
1094.34	7.64368
1097.71	1.9965
1101.09	6.35915
1104.46	2.24093
1107.84	6.92838
1111.21	5.60141
1114.59	8.76417
1117.96	6.10099
1121.34	4.37556
1124.71	5.37885
1128.08	3.3549
1131.46	1.74012
1134.83	4.74872
1138.21	4.65031
1141.58	6.95669
1144.96	3.75969
1148.33	3.47996
1151.71	4.71191
1155.08	3.17533
1158.46	0.391281
1161.83	3.9167
1165.21	3.5406
1168.58	7.00499
1171.96	2.19961
1175.33	3.54033
1178.71	6.8031
1182.08	1.35173
1185.46	1.29529
1188.83	1.03364
1192.21	2.89413
1195.58	2.85756
1198.95	2.40573
1202.33	1.04983
1205.7	8.51437
1209.08	4.19592
1212.45	5.2203
1215.83	0.096809
1219.2	5.57752
1222.58	4.37318
1225.95	8.75532
1229.33	3.70072
1232.7	0.176231
1236.08	5.44041
1239.45	2.24767
1242.83	1.72364
1246.2	5.08958
1249.58	5.66327
1252.95	5.06683
1256.33	1.93835
1259.7	6.45313
1263.08	2.52805
1266.45	0.470535
1269.83	2.03485
1273.2	0.233978
1276.58	4.50256
1279.95	4.94827
1283.33	2.45041
