Measurement: Raman, 514 nm, unoriented, Raman Data Processed
Mineral: Hydroxyapophyllite-(K)
Rruff sample: R050169
Ideal chemistry: KCa_4_Si_8_O_20_(OH)8H_2_O
Locality: Christmas mine, Christmas, Gila County, Arizona, USA
Source: Marcus Origlieri
Description: Colorless prismatic crystals associated with kinoite, R050168
Measured chemistry: K_1.00_Ca_4.00_Si_8.00_O_20_((OH)_0.98_F_0.02_)_Σ=1_·8H_2_O
Raman shift (cm-1)	intensity
96.161	0
100.34	1043.63
104.516	5705.35
108.691	2345.64
112.864	165.322
117.034	583.492
121.203	1503.35
125.369	1336.07
129.534	1760.62
133.696	2402.36
137.857	2612.77
142.016	1414.1
146.172	556.604
150.327	257.074
154.48	884.871
158.63	1654.42
162.779	1777.7
166.926	804.086
171.07	81.283
175.213	165.867
179.354	1041.88
183.493	1820.61
187.63	1908.13
191.765	1646.72
195.898	2222.98
200.029	3852.22
204.158	5571.55
208.285	7031.8
212.41	5190.8
216.533	3234.49
220.654	2689.81
224.773	3162.74
228.891	3038.2
233.006	1694.22
237.119	620.365
241.231	277.977
245.34	23.545
249.448	127.512
253.553	151.166
257.657	112.455
261.758	246.068
265.858	534.801
269.956	457.211
274.052	157.906
278.146	247.492
282.237	192.531
286.327	565.504
290.416	1445.05
294.502	3126.05
298.586	3092.01
302.668	2065.84
306.749	1705.17
310.827	1379.69
314.903	1409.19
318.978	1661.56
323.051	1479.38
327.121	1642.61
331.19	1547.18
335.257	1943.38
339.322	1600.2
343.385	868.043
347.446	267.066
351.505	166.279
355.563	19.674
359.618	83.893
363.672	118.545
367.723	133.809
371.773	652.279
375.821	610.854
379.866	75.482
383.91	236.914
387.952	42.281
391.992	232.641
396.031	67.152
400.067	108.359
404.101	367.885
408.134	346.639
412.165	302.898
416.193	609.143
420.22	1222.37
424.245	2901.41
428.268	6354.88
432.289	6291.69
436.309	3158.82
440.326	1475.14
444.342	803.811
448.355	484.646
452.367	87.564
456.377	287.453
460.385	299.326
464.391	220.256
468.395	135.062
472.398	237.404
476.398	351.453
480.397	935.168
484.394	1437.79
488.389	1183.32
492.382	757.744
496.373	492.193
500.362	594.627
504.349	591.221
508.335	464.25
512.319	725.371
516.3	541.891
520.28	411.607
524.259	674.594
528.235	1059.13
532.209	1438.26
536.182	1536.74
540.152	1819.95
544.121	629.787
548.088	1094.24
552.053	1079.34
556.017	908.24
559.978	1297.13
563.938	1331.16
567.895	1642.13
571.851	2862.35
575.805	4563.7
579.758	6337.61
583.708	7317.83
587.657	5704.89
591.603	3769.4
595.548	2459.84
599.491	1672.74
603.432	1038.88
607.372	750.477
611.309	671.789
615.245	728.49
619.179	579.535
623.111	879.836
627.041	515.059
630.97	593.922
634.896	875.389
638.821	999.82
642.744	1355.96
646.665	1540.53
650.584	1967.17
654.502	2241.62
658.418	2946.18
662.331	3208.35
666.244	2601.76
670.154	2488.32
674.062	1811.71
677.969	1129.35
681.874	502.158
685.777	532.461
689.678	432.465
693.577	332.039
697.475	329.584
701.371	167.949
705.265	227.188
709.157	192.004
713.047	285.34
716.936	149.859
720.823	274.105
724.708	50.328
728.591	188.445
732.472	177.621
736.352	191.191
740.23	233.246
744.106	277.961
747.98	189.797
751.853	322.734
755.723	223.117
759.592	102.395
763.459	550.547
767.325	673.715
771.188	362.027
775.05	173.891
778.91	335.395
782.768	294.707
786.625	772.957
790.479	955.148
794.332	585.23
798.183	472.945
802.033	333.406
805.88	205.203
809.726	301.371
813.57	210.578
817.413	205.477
821.253	263.137
825.092	274.566
828.929	477.824
832.764	260.027
836.598	489.645
840.429	664.07
844.259	788.465
848.088	1083.77
851.914	948.715
855.739	944.125
859.562	343.539
863.383	299.973
867.203	787.344
871.02	402.062
874.836	535.457
878.65	707.668
882.463	405.035
886.274	583.934
890.083	222.852
893.89	322.25
897.695	304.484
901.499	336.453
905.301	75.008
909.102	335.879
912.9	514.414
916.697	467.191
920.492	437.684
924.285	433.852
928.077	465.512
931.867	660.934
935.655	905.945
939.442	398.402
943.226	497.59
947.009	227.539
950.791	520.68
954.57	105.852
958.348	717.113
962.124	486.941
965.899	358.586
969.671	530.562
973.442	576.117
977.211	535.383
980.979	375.363
984.745	30.57
988.509	111.91
992.271	531.098
996.032	775.855
999.791	293.012
1003.55	1016.99
1007.3	1402.08
1011.06	1305.61
1014.81	953.594
1018.56	1117.04
1022.31	1133.39
1026.06	925.715
1029.8	762.25
1033.55	944.809
1037.29	1495.74
1041.03	1943.2
1044.77	2824.27
1048.5	2876.48
1052.24	5830.14
1055.97	9889.59
1059.7	13887.7
1063.43	9728.12
1067.16	5200.91
1070.89	2787.99
1074.61	2083.16
1078.34	1621.29
1082.06	1757.81
1085.78	1285.9
1089.5	1228.95
1093.21	819.824
1096.93	379.984
1100.64	873.691
1104.35	563.395
1108.06	895.242
1111.77	929.297
1115.48	1153
1119.18	586.156
1122.89	602.352
1126.59	66.285
1130.29	351.957
1133.99	150.27
1137.68	417.895
1141.38	142.938
1145.07	175.207
1148.76	311.277
1152.45	322.27
1156.14	382.145
1159.83	331.941
1163.51	263.621
1167.19	465.957
1170.88	308.535
1174.56	421.887
1178.23	405.84
1181.91	306.027
1185.59	332.934
1189.26	425.211
1192.93	769.953
1196.6	501.309
1200.27	779.621
1203.94	100.043
1207.6	716.141
1211.27	575.914
1214.93	602.438
1218.59	709.809
1222.25	270.004
1225.9	658.672
1229.56	640.996
1233.21	181.109
1236.86	76.398
1240.51	482.5
1244.16	338.84
1247.81	760.566
1251.45	568.949
1255.1	470.047
1258.74	14.41
1262.38	141.438
1266.02	92.07
1269.66	221.586
1273.29	6.77
