Measurement: Raman, 780 nm, unoriented, Raman Data Processed
Mineral: Hydroxylapatite
Rruff sample: R050512
Ideal chemistry: Ca_5_(PO_4_)_3_OH
Locality: Moneta Island, Mayeguez, Puerto Rico, USA
Source: American Museum of Natural History
Description: Pale pink consolidated powder
Measured chemistry: Ca_5.00_(PO_4_)_3_((OH)_0.67_F_0.33_)
Raman shift (cm-1)	intensity
110.697	0
114.072	3.98657
117.447	2.31873
120.822	4.40106
124.197	3.34058
127.572	4.30713
130.946	8.56635
134.321	9.61633
137.696	9.31555
141.071	2.88425
144.446	2.54664
147.82	2.71155
151.195	1.2384
154.57	0.265015
157.945	1.6463
161.32	0.098938
164.694	2.20386
168.069	1.08533
171.444	1.55926
174.819	0.716187
178.194	3.44128
181.569	1.85278
184.943	3.76502
188.318	4.42487
191.693	6.54938
195.068	6.37579
198.443	5.06189
201.817	6.9024
205.192	6.4176
208.567	6.97174
211.942	4.72424
215.317	6.55426
218.691	3.64911
222.066	3.94104
225.441	4.33777
228.816	4.70441
232.191	3.34021
235.566	4.47522
238.94	2.33258
242.315	1.87073
245.69	0.157227
249.065	2.96686
252.44	2.12347
255.815	1.05109
259.189	0.497431
262.564	2.98602
265.939	2.44684
269.314	4.09338
272.689	2.87763
276.063	3.20581
279.438	4.3512
282.813	1.96643
286.188	2.90442
289.563	4.38415
292.938	7.02466
296.312	6.28644
299.687	2.2077
303.062	3.63794
306.437	2.68115
309.812	3.47705
313.186	3.66913
316.561	1.74921
319.936	1.46185
323.311	3.34671
326.686	2.01721
330.06	1.22324
333.435	1.20267
336.81	1.10281
340.185	2.93683
343.56	1.12286
346.935	1.29166
350.309	0.919769
353.684	0.863831
357.059	1.04834
360.434	0.048279
363.809	0.702637
367.183	1.8999
370.558	3.99499
373.933	2.74643
377.308	3.38296
380.683	3.30212
384.058	2.99802
387.432	3.12866
390.807	5.17096
394.182	6.7973
397.557	7.80609
400.932	11.0107
404.306	13.2764
407.681	17.6175
411.056	22.8591
414.431	27.0298
417.806	34.8996
421.18	38.3242
424.555	42.8503
427.93	45.0079
431.305	40.1362
434.68	35.8889
438.055	27.4935
441.429	28.8133
444.804	24.6471
448.179	22.3786
451.554	17.0868
454.929	16.5618
458.303	11.1914
461.678	7.54535
465.053	7.46845
468.428	3.35349
471.803	2.38431
475.178	1.2049
478.552	4.00674
481.927	4.11728
485.302	3.22659
488.677	1.77951
492.052	2.57452
495.426	0.578125
498.801	0.927002
502.176	0.619659
505.551	1.04919
508.926	0.227814
512.301	0.688843
515.675	0.936981
519.05	0.179077
522.425	1.27269
525.8	0.712433
529.175	1.31039
532.549	0.577728
535.924	1.4202
539.299	1.77579
542.674	0.087555
546.049	3.52551
549.423	2.06003
552.798	2.1351
556.173	3.22482
559.548	6.15146
562.923	8.10861
566.298	10.0945
569.672	15.2672
573.047	19.4373
576.422	24.3349
579.797	25.4489
583.172	28.5861
586.546	28.1427
589.921	26.0143
593.296	17.0423
596.671	11.6536
600.046	8.42972
603.42	9.63236
606.795	10.2212
610.17	8.6785
613.545	6.59711
616.92	5.34952
620.295	2.31787
623.669	2.80231
627.044	0.976624
630.419	1.90512
633.794	3.2009
637.169	5.03018
640.543	2.76752
643.918	0.036896
647.293	1.03278
650.668	0.508942
654.043	2.77484
657.418	0.111725
660.792	1.02704
664.167	1.11499
667.542	0.841095
670.917	2.53464
674.292	0.076935
677.667	1.51633
681.041	0.311615
684.416	1.3215
687.791	1.21066
691.166	1.94357
694.541	3.73834
697.915	1.50131
701.29	2.41473
704.665	0.017731
708.04	0.295135
711.415	2.31012
714.789	1.75446
718.164	1.93552
721.539	3.95621
724.914	1.34711
728.289	1.77716
731.664	3.74887
735.038	2.98035
738.413	3.52536
741.788	2.50076
745.163	2.72211
748.538	1.11182
751.913	2.22662
755.287	2.36883
758.662	1.83704
762.037	2.62826
765.412	2.06488
768.787	1.45728
772.161	0.0265048
775.536	0.211639
778.911	0.049927
782.286	1.07733
785.661	3.08026
789.035	0.997253
792.41	1.11224
795.785	1.92285
799.16	0.242798
802.535	4.10135
805.909	1.90259
809.284	3.88049
812.659	5.81424
816.034	5.26083
819.409	5.68527
822.784	3.95126
826.158	6.65753
829.533	3.57309
832.908	3.4762
836.283	4.1445
839.658	5.15008
843.033	6.81064
846.407	3.73895
849.782	4.8511
853.157	7.87552
856.532	5.23422
859.907	7.01697
863.281	6.84265
866.656	7.81689
870.031	6.91275
873.406	9.3978
876.781	6.2066
880.155	5.99933
883.53	5.30972
886.905	4.90332
890.28	2.29517
893.655	4.71967
897.03	0.985687
900.404	1.1922
903.779	0.509613
907.154	1.52516
910.529	0.899382
913.904	0.359741
917.278	0.636492
920.653	1.05005
924.028	1.07248
927.403	1.05731
930.778	6.57394
934.153	8.32156
937.527	16.4108
940.902	26.525
944.277	48.5107
947.652	86.9968
951.027	132.091
954.401	177.669
957.776	234.86
961.151	252.106
964.526	157.94
967.901	68.59
971.275	23.8882
974.65	5.53653
978.025	0.434052
981.4	0.023682
984.775	1.31586
988.15	1.02954
991.524	3.05316
994.899	6.16547
998.274	6.73251
1001.65	9.11212
1005.02	6.02008
1008.4	7.12222
1011.77	4.4053
1015.15	2.49619
1018.52	0.636566
1021.9	6.15396
1025.27	7.85504
1028.65	9.98901
1032.02	12.5619
1035.4	13.7783
1038.77	15.406
1042.15	15.6769
1045.52	16.2232
1048.9	10.8017
1052.27	7.61606
1055.65	7.08533
1059.02	5.53397
1062.4	7.08444
1065.77	8.49417
1069.14	3.96787
1072.52	6.36868
1075.89	5.70978
1079.27	4.69513
1082.64	3.84103
1086.02	3.88669
1089.39	2.54099
1092.77	3.02164
1096.14	0.888092
1099.52	1.36069
1102.89	1.65244
1106.27	1.03647
1109.64	1.42236
1113.02	1.03638
1116.39	0.306305
1119.77	0.699402
1123.14	1.4176
1126.52	3.48329
1129.89	0.265106
1133.27	1.59622
1136.64	2.1991
1140.02	0.299042
1143.39	3.07922
1146.77	2.74278
1150.14	0.562454
1153.52	2.53206
1156.89	3.56639
1160.27	3.0479
1163.64	2.97937
1167.02	2.67093
1170.39	2.58656
1173.77	4.52046
1177.14	3.14397
1180.51	3.61627
1183.89	0.672501
1187.26	3.8821
1190.64	3.47765
1194.01	1.7094
1197.39	2.90646
1200.76	0.800964
1204.14	2.67102
1207.51	3.81113
1210.89	1.10696
1214.26	0.860413
1217.64	0.359589
1221.01	1.45909
1224.39	0.295486
1227.76	1.03128
1231.14	3.03412
1234.51	1.30885
1237.89	1.66325
1241.26	1.04169
1244.64	1.38742
1248.01	3.14865
1251.38	2.45052
1254.76	0.408783
1258.13	0.308884
1261.51	1.87631
1264.88	3.2917
1268.26	2.9019
1271.63	1.14314
1275.01	3.25272
1278.38	2.47658
1281.76	1.12982
1285.13	0.124619
