Measurement: Raman, 532 nm, unoriented, Raman Data Processed
Mineral: Hydroromarchite
Rruff sample: R090060
Ideal chemistry: Sn^2+^_3_O_2_(OH)_2_
Locality: Hooggenoeg Fm., Barberton Greenstone Belt, South Africa
Source: Joe Zullo
Description: Pale tan tetragonal single crystal
Raman shift (cm-1)	intensity
132.094	0
135.469	4.10193
138.843	19.3369
142.218	103.096
145.593	154.655
148.968	219.83
152.343	394.358
155.718	546.654
159.092	557.562
162.467	531.322
165.842	498.859
169.217	528.363
172.592	552.033
175.966	615.199
179.341	710.892
182.716	799.767
186.091	829.116
189.466	751.754
192.84	620.542
196.215	546.06
199.59	564.416
202.965	712.068
206.34	1050.89
209.715	1627.7
213.089	2440.76
216.464	3268.44
219.839	4354.94
223.214	5839.7
226.589	7199.4
229.964	6631.97
233.338	3880.95
236.713	1932.85
240.088	1160.13
243.463	839.411
246.838	591.539
250.212	403.919
253.587	310.246
256.962	343.475
260.337	446.068
263.712	470.1
267.086	376.45
270.461	267.535
273.836	168.24
277.211	98.8274
280.586	38.1531
283.961	2.58179
287.335	26.9141
290.71	13.7165
294.085	34.3833
297.46	17.387
300.835	27.6023
304.209	22.1238
307.584	5.88257
310.959	2.92236
314.334	12.4866
317.709	16.5349
321.084	26.157
324.458	35.9097
327.833	23.4644
331.208	62.4368
334.583	82.54
337.958	74.5117
341.332	88.9177
344.707	80.1846
348.082	83.2961
351.457	88.5039
354.832	81.6504
358.207	81.6616
361.581	93.47
364.956	87.3757
368.331	79.9993
371.706	57.7991
375.08	73.6738
378.455	74.5706
381.83	54.2004
385.205	49.2085
388.58	50.3218
391.955	73.0049
395.329	78.1067
398.704	116.465
402.079	126.068
405.454	147.992
408.829	181.171
412.204	187.344
415.578	155.809
418.953	119.58
422.328	90.1196
425.703	72.6755
429.078	36.7859
432.452	10.8179
435.827	25.6162
439.202	8.06592
442.577	9.23023
445.952	26.4475
449.327	15.4072
452.701	7.74878
456.076	16.0981
459.451	5.87354
462.826	4.77783
466.201	3.26367
469.575	9.34912
472.95	9.44336
476.325	27.6645
479.7	17.1631
483.075	21.623
486.45	23.0918
489.824	31.1758
493.199	32.0781
496.574	22.6851
499.949	7.78125
503.324	28.8535
506.698	23.126
510.073	30.104
513.448	38.1411
516.823	48.584
520.198	39.959
523.572	42.2861
526.947	56.1636
530.322	56.8433
533.697	70.1885
537.072	88.5615
540.447	79.6367
543.821	80.9048
547.196	83.8301
550.571	68.7822
553.946	65.0547
557.321	41.8433
560.695	45.9228
564.07	40.4712
567.445	23.2739
570.82	9.03027
574.195	14.5845
577.569	0.798828
580.944	14.2383
584.319	11.3276
587.694	4.20752
591.069	4.62451
594.443	7.67481
597.818	3.25537
601.193	15.5703
604.568	21.8501
607.943	9.60352
611.318	11.689
614.692	0.085449
618.067	7.3457
621.442	1.88623
624.817	7.05176
628.192	7.50146
631.567	0.166016
634.941	14.7969
638.316	24.5845
641.691	7.58057
645.066	6.01856
648.441	13.3335
651.815	8.60547
655.19	28.5386
658.565	20.6362
661.94	20.7583
665.315	19.7227
668.689	25.3374
672.064	25.3115
675.439	29.8696
678.814	31.3877
682.189	4.03418
685.564	0.196289
688.938	11.7319
692.313	22.7144
695.688	6.51269
699.063	32.501
702.438	38.082
705.812	11.5474
709.187	5.58887
712.562	22.7598
715.937	33.0918
719.312	15.1777
722.687	25.6606
726.061	22.4761
729.436	36.5161
732.811	2.87451
736.186	4.91406
739.561	8.41602
742.936	22.6562
746.31	17.7734
749.685	16.9321
753.06	0.802893
756.435	24.9009
759.81	18.5864
763.184	16.999
766.559	15.3198
769.934	4.04736
773.309	8.33789
776.684	17.0664
780.058	27.0317
783.433	21.5791
786.808	34.4404
790.183	21.7227
793.558	26.0693
796.933	23.8189
800.307	30.6299
803.682	28.4341
807.057	30.7197
810.432	18.2764
813.807	13.1631
817.181	16.1064
820.556	18.6987
823.931	36.9028
827.306	29.0098
830.681	18.4951
834.056	13.146
837.43	15.0591
840.805	15.1934
844.18	9.86523
847.555	14.7412
850.93	4.86426
854.304	3.99072
857.679	3.49805
861.054	21.3438
864.429	35.3794
867.804	20.229
871.178	4.76416
874.553	3.33106
877.928	13.4023
881.303	3.72363
884.678	3.86279
888.053	10.8198
891.427	19.4707
894.802	0.333008
898.177	0.003418
901.552	13.9116
904.927	16.0024
908.302	6.91064
911.676	18.2446
915.051	8.40771
918.426	7.87793
921.801	18.6328
925.176	7.75
928.55	23.5454
931.925	23.1055
935.3	35.4204
938.675	10.5068
942.05	7.11621
945.424	17.0107
948.799	24.8013
952.174	1.18262
955.549	7.05908
958.924	3.39551
962.298	10.0996
965.673	9.71875
969.048	11.7358
972.423	10.0635
975.798	16.2202
979.173	10.0518
982.547	9.93555
985.922	4.21924
989.297	43.3115
992.672	18.1704
996.047	30.4902
999.421	15.3852
1002.8	4.16699
1006.17	14.8599
1009.55	18.0752
1012.92	10.959
1016.3	15.5376
1019.67	19.8257
1023.04	35.3696
1026.42	14.6909
1029.8	26.3066
1033.17	9.28857
1036.54	26.7871
1039.92	14.0142
1043.29	7.24414
1046.67	7.82373
1050.04	19.707
1053.42	34.291
1056.79	16.6162
1060.17	24.8745
1063.54	8.04932
1066.92	12.4648
1070.29	16.2461
1073.67	1.63672
1077.04	18.8711
1080.42	5.00488
1083.79	0.509766
1087.17	21.7773
1090.54	26.7422
1093.92	25.8433
1097.29	38.2202
1100.67	44.939
1104.04	8.72168
1107.42	32.834
1110.79	40.3994
1114.16	25.1157
1117.54	24.6958
1120.91	36.5679
1124.29	30.292
1127.66	17.4945
1131.04	26.2822
1134.41	29.9868
1137.79	27.312
1141.16	31.0024
1144.54	52.1953
1147.91	37.6299
1151.29	50.8193
1154.66	39.4556
1158.04	18.1929
1161.41	26.8052
1164.79	3.6084
1168.16	16.2866
1171.54	13.5625
1174.91	18.4565
1178.29	11.6357
1181.66	0.810059
1185.04	8.90479
1188.41	4.55637
1191.79	6.49268
1195.16	4.10449
1198.54	24.0195
1201.91	14.6582
1205.29	13.0791
1208.66	16.2275
1212.04	30.7881
1215.41	36.0898
1218.79	20.8809
1222.16	26.2539
1225.53	40.8286
1228.91	38.0981
1232.28	7.32422
1235.66	15.6525
1239.03	23.311
1242.41	17.2241
1245.78	29.729
1249.16	22.6333
1252.53	12.5503
1255.91	13.6426
1259.28	32.9434
1262.66	21.0523
1266.03	8.0376
1269.41	21.9517
1272.78	19.9277
1276.16	2.08643
1279.53	11.7085
1282.91	19.7651
1286.28	12.6885
1289.66	2.83398
1293.03	3.05322
1296.4	14.5898
1299.78	40.9165
1303.15	19.123
