Measurement: Raman, 532 nm, unoriented, Raman Data Processed
Mineral: Hydroxylbastnasite-(Ce)
Rruff sample: R060283
Ideal chemistry: CeCO_3_(OH)
Locality: Trimouns, Luzenac, France
Source: Herb Obodda
Description: Brown hexagonal tablet
Measured chemistry: (Ce_0.50_Nd_0.24_(La,Pr)_0.23_Y_0.03_)_Σ=1_CO_3_((OH)_0.65_F_0.35_)_Σ=1_
Raman shift (cm-1)	intensity
139.537	0
142.43	13.9717
145.323	0.380859
148.215	155.766
151.108	602.279
154.001	980.489
156.894	1097.06
159.786	625.153
162.679	267.115
165.572	173.141
168.464	486.241
171.357	1082.64
174.25	1562.48
177.143	2089.24
180.035	2365.41
182.928	2944.56
185.821	3440.86
188.713	3864.81
191.606	3664.05
194.499	2870.17
197.391	2007.27
200.284	1445.22
203.177	843.867
206.07	303.551
208.962	76.5664
211.855	185.721
214.748	16.2734
217.64	623.922
220.533	1388.43
223.426	2426.2
226.318	3742.61
229.211	5018.04
232.104	6519.09
234.996	7974.26
237.889	9623.81
240.782	11395.8
243.675	12960.5
246.567	14237.5
249.46	14657.4
252.353	14471.4
255.245	13812.2
258.138	12862.5
261.031	11984.8
263.923	11215.5
266.816	10721.4
269.709	9880.08
272.602	8834.7
275.494	7566.33
278.387	6051.76
281.28	4580.1
284.172	3119.86
287.065	2141.32
289.958	1315.35
292.851	667.992
295.743	204.152
298.636	106.555
301.529	214.242
304.421	81.3164
307.314	38.4219
310.207	172.535
313.099	320.324
315.992	554.971
318.885	766.049
321.778	975.852
324.67	1181.6
327.563	1426.53
330.456	1674.33
333.348	1936.76
336.241	2112.42
339.134	2189.78
342.026	2329.05
344.919	2205.39
347.812	2115.04
350.705	1849.69
353.597	1640.39
356.49	1286.49
359.383	1004.42
362.275	858.756
365.168	697.699
368.061	591.451
370.954	632.047
373.846	459.99
376.739	431.574
379.632	322.363
382.524	268.326
385.417	333.617
388.31	134.682
391.202	264.09
394.095	122.951
396.988	255.619
399.88	129.701
402.773	326.69
405.666	225.857
408.559	251.065
411.451	194.008
414.344	210.443
417.237	88.6699
420.129	48.4688
423.022	60.6758
425.915	125.551
428.808	96.1836
431.7	73.4258
434.593	83.2519
437.486	21.9629
440.378	25.3379
443.271	61.957
446.164	109.818
449.056	141.879
451.949	109.742
454.842	182.994
457.735	303.045
460.627	300.393
463.52	261.504
466.413	418.732
469.305	368.373
472.198	341.918
475.091	352.721
477.983	456.688
480.876	406.404
483.769	307.65
486.661	307.281
489.554	343.283
492.447	238.035
495.34	239.133
498.232	222.973
501.125	175.281
504.018	170.272
506.911	134.615
509.803	145.779
512.696	12.6836
515.589	159.379
518.481	96.2715
521.374	133.815
524.267	62.2363
527.159	150.125
530.052	99.25
532.945	42.7285
535.837	106.566
538.73	127
541.623	192.184
544.516	229.531
547.408	306.992
550.301	317.498
553.194	488.717
556.086	489.072
558.979	654.861
561.872	677.777
564.764	845.369
567.657	1120.65
570.55	954.262
573.443	1107.5
576.335	1093.56
579.228	1143.66
582.121	1194.56
585.013	1069.75
587.906	1054.76
590.799	984.264
593.692	905.938
596.584	737.002
599.477	580.168
602.37	510.856
605.262	368.09
608.155	387.223
611.048	266.685
613.94	187.227
616.833	213.777
619.726	129.711
622.619	83.8066
625.511	81.3887
628.404	52.3262
631.297	13.8691
634.189	36.2949
637.082	71.7441
639.975	76.5449
642.867	64.3301
645.76	5.12695
648.653	114.856
651.545	30.4668
654.438	34.8262
657.331	50.1758
660.224	242.24
663.116	328.799
666.009	392.752
668.902	462.109
671.794	380.74
674.687	636.742
677.58	688.678
680.472	875.342
683.365	1203.75
686.258	1466.84
689.151	1610.2
692.043	1680.94
694.936	1558.56
697.829	1253.83
700.721	858.873
703.614	917.588
706.507	1036.09
709.399	1124.09
712.292	1760.46
715.185	3124.77
718.078	5245.02
720.97	8012.9
723.863	11585.2
726.756	14013.6
729.648	11432.7
732.541	7204.54
735.434	4811.91
738.327	3489.55
741.219	2247.65
744.112	1487.31
747.005	1185.76
749.897	944.969
752.79	474.076
755.683	190.451
758.576	118.111
761.468	220.055
764.361	397.584
767.254	596.381
770.146	884.934
773.039	1169.84
775.932	1210.31
778.824	1303.74
781.717	1386.61
784.61	1322.99
787.503	1319.63
790.395	1167.83
793.288	1018.59
796.181	973.633
799.073	893.459
801.966	732.025
804.859	615.982
807.751	434.211
810.644	310.783
813.537	228.734
816.429	44.8164
819.322	6.3418
822.215	104.769
825.108	199.914
828	87.0547
830.893	3.85156
833.786	105.973
836.678	211.779
839.571	334.06
842.464	578.191
845.356	807.371
848.249	864.309
851.142	991.816
854.035	913.953
856.927	895.548
859.82	755.039
862.713	749.456
865.605	964.927
868.498	1281.22
871.391	1251.34
874.284	937.763
877.176	590.847
880.069	447.305
882.962	295.18
885.854	218.958
888.747	101.923
891.64	85.2266
894.533	10.6445
897.425	42.6055
900.318	58.249
903.211	75.1689
906.103	30.3457
908.996	22.8398
911.889	13.5352
914.781	59.8516
917.674	93.3193
920.567	22.4326
923.46	72.8477
926.352	87.0947
929.245	171.61
932.138	195.009
935.03	119.728
937.923	217.823
940.816	336.738
943.708	350.644
946.601	426.644
949.494	579.27
952.386	561.519
955.279	806.223
958.172	734.586
961.065	848.588
963.957	974.213
966.85	1011.47
969.743	1056.46
972.635	1033.99
975.528	980.134
978.421	1004.47
981.313	829.531
984.206	736.873
987.099	584.598
989.992	493.515
992.884	380.983
995.777	313.326
998.67	234.721
1001.56	142.45
1004.46	158.85
1007.35	2.65137
1010.24	17.4863
1013.13	79.3457
1016.03	82.249
1018.92	13.5566
1021.81	69.6055
1024.7	60.8477
1027.6	32.0098
1030.49	12.0254
1033.38	7.38281
1036.28	28.0947
1039.17	65.3848
1042.06	160.374
1044.95	238.341
1047.85	195.01
1050.74	189.786
1053.63	363.335
1056.52	586.755
1059.42	712.54
1062.31	983.986
1065.2	1287.32
1068.09	2835.73
1070.99	6806.78
1073.88	14633.5
1076.77	26727.7
1079.66	36101.1
1082.56	33176.8
1085.45	31538
1088.34	31655.8
1091.24	25249.6
1094.13	24441.3
1097.02	28395.5
1099.91	27295.9
1102.81	17347.8
1105.7	7564.81
1108.59	2523.89
1111.48	956.125
1114.38	539.589
1117.27	253.548
1120.16	194.175
1123.06	96.5684
1125.95	105.554
1128.84	68.8701
1131.73	74.5283
1134.63	32.5469
1137.52	84.6455
1140.41	19.4346
1143.31	14.9941
1146.2	36.624
1149.09	4.23144
1151.98	3.82227
1154.88	42.4883
1157.77	55.1016
1160.66	110.036
1163.55	77.0606
1166.45	80.3857
1169.34	60.9092
1172.23	94.9111
1175.12	84.1289
1178.02	43.2471
1180.91	53.8516
1183.8	81.2471
1186.69	142.44
1189.59	28.2334
1192.48	88.4775
1195.37	141.674
1198.27	33.0908
1201.16	42.5303
1204.05	120.436
1206.94	8.15234
1209.84	57.2373
1212.73	58.7559
1215.62	89.4394
1218.52	64.8135
1221.41	9.15723
1224.3	10.6992
1227.19	62.3027
1230.09	54.4473
1232.98	36.6103
1235.87	6.1416
