Measurement: Raman, 532 nm, unoriented, Raman Data Processed
Mineral: Hydroxylellestadite
Rruff sample: R060769
Ideal chemistry: Ca_5_(SiO_4_)_1.5_(SO_4_)_1.5_(OH)
Locality: Crestmore, Riverside County, California, USA
Source: Michael Scott
Description: Transparent tan-yellow prismatic crystals in blue calcite
Measured chemistry: Ca_5.00_((SiO_4_)_1.23_(SO_4_)_1.09_(PO_4_)_0.68_)_Σ=3_((OH)_0.89_Cl_0.11_)_Σ=1_; OH estimated by difference and stoichiometry
Raman shift (cm-1)	intensity
123.933	0
127.308	226.624
130.683	337.577
134.058	523.457
137.433	877.622
140.807	1126.05
144.182	1117.95
147.557	1157.17
150.932	1107.99
154.307	1077.16
157.682	969.312
161.056	1048.63
164.431	995.579
167.806	907.888
171.181	829.576
174.556	877.42
177.93	930.605
181.305	925.501
184.68	952.102
188.055	1000.69
191.43	1022.27
194.804	990.554
198.179	976.178
201.554	1004.24
204.929	1051.1
208.304	1017.49
211.678	950.164
215.053	952.809
218.428	944.763
221.803	993.526
225.178	927.772
228.553	1003.98
231.927	954.998
235.302	992.867
238.677	1003.59
242.052	983.141
245.427	1045.85
248.801	1125.92
252.176	1154.76
255.551	1194.8
258.926	1301.77
262.301	1434.67
265.676	1454.98
269.05	1397.91
272.425	1393.42
275.8	1374.14
279.175	1356.82
282.55	1310.37
285.924	1263.83
289.299	1154.43
292.674	1066.79
296.049	1070.58
299.424	1103.76
302.798	1170.95
306.173	1217.81
309.548	1228.63
312.923	1232.01
316.298	1147.34
319.673	1030.42
323.047	993.079
326.422	940.32
329.797	777.469
333.172	692.735
336.547	547.914
339.922	468.068
343.296	294.378
346.671	194.403
350.046	70.874
353.421	13.408
356.796	60.361
360.17	147.227
363.545	123.566
366.92	93.984
370.295	45.475
373.67	68.229
377.044	2.824
380.419	108.191
383.794	246.835
387.169	528.423
390.544	877.739
393.918	1283.75
397.293	1764.64
400.668	2034.21
404.043	2232.59
407.418	2198.72
410.793	2259.42
414.167	2299.3
417.542	2338.59
420.917	2455.7
424.292	2638.36
427.667	2685.57
431.042	2722.81
434.416	2723.77
437.791	2696.21
441.166	2679.95
444.541	2718.32
447.916	2938.14
451.29	3509.69
454.665	4508.75
458.04	5985.48
461.415	7179.67
464.79	7085.3
468.164	6001.24
471.539	5050.76
474.914	4063.35
478.289	2912.95
481.664	2001.15
485.039	1225.78
488.413	610.561
491.788	312.387
495.163	74.411
498.538	57.504
501.913	82.324
505.287	98.795
508.662	159.308
512.037	184.225
515.412	396.019
518.787	511.663
522.161	734.315
525.536	930.814
528.911	1040.4
532.286	1139.49
535.661	1044.11
539.036	887.933
542.41	714.637
545.785	528.009
549.16	492.277
552.535	496.115
555.91	649.289
559.284	758.807
562.659	995.841
566.034	1152.95
569.409	1328.77
572.784	1461.43
576.159	1495.98
579.533	1518.36
582.908	1457.44
586.283	1166.16
589.658	944.459
593.033	725.23
596.407	625.412
599.782	889.175
603.157	1290.81
606.532	1678.29
609.907	1925.5
613.282	2508.55
616.656	3464.79
620.031	4795.43
623.406	5807.09
626.781	5872.2
630.156	5417.79
633.531	4566.83
636.905	3717.81
640.28	3782.28
643.655	4075.88
647.03	3355.71
650.404	2041.35
653.779	900.968
657.154	250.514
660.529	69.947
663.904	23.691
667.279	41.793
670.653	50.104
674.028	39.06
677.403	112.259
680.778	96.751
684.153	18.478
687.528	52.448
690.902	50.645
694.277	44.356
697.652	20.029
701.027	40.345
704.402	4.021
707.776	5.795
711.151	15.007
714.526	45.293
717.901	4.68
721.276	48.145
724.651	79.01
728.025	1.732
731.4	39.195
734.775	69.887
738.15	46.563
741.524	99.319
744.899	34.97
748.274	8.114
751.649	48.389
755.024	40.556
758.399	63.593
761.773	91.032
765.148	15.335
768.523	10.757
771.898	6.287
775.273	9.066
778.648	71.607
782.022	52.392
785.397	83.032
788.772	110.049
792.147	104.846
795.521	124.546
798.896	125.161
802.271	107.383
805.646	63.262
809.021	84.598
812.396	34.62
815.77	61.472
819.145	211.266
822.52	393.688
825.895	703.889
829.27	1082.84
832.644	1685.2
836.019	2676.32
839.394	4042.13
842.769	6173.05
846.144	8754
849.519	11528.5
852.893	13579.3
856.268	14307.2
859.643	13194.6
863.018	10713.9
866.393	7932.84
869.768	5242.47
873.142	3370.03
876.517	2177.26
879.892	1571.46
883.267	1311.52
886.641	1152.23
890.016	1103.01
893.391	1128.51
896.766	1116.96
900.141	966.35
903.516	925.381
906.89	828.5
910.265	761.824
913.64	673.985
917.015	639.422
920.39	670.286
923.765	719.935
927.139	791.223
930.514	995.126
933.889	1119.33
937.264	1562.13
940.639	2349.07
944.013	3766.94
947.388	6161.8
950.763	9334.82
954.138	12535.9
957.513	14307.1
960.888	13853.9
964.262	11547.1
967.637	7887.05
971.012	4673.92
974.387	2510.23
977.762	1520.4
981.136	1412.02
984.511	2251.7
987.886	4569.23
991.261	9585.23
994.636	19022.8
998.01	33181.5
1001.38	47025.1
1004.76	51868.7
1008.13	43148
1011.51	26881.4
1014.88	13381.6
1018.26	5793.51
1021.63	2706.65
1025.01	1522.87
1028.38	985.188
1031.76	837.964
1035.13	610.78
1038.51	585.603
1041.88	490.467
1045.26	421.483
1048.63	395.235
1052.01	375.917
1055.38	552.628
1058.76	587.616
1062.13	818.584
1065.51	990.783
1068.88	1124.89
1072.26	1117.77
1075.63	970.765
1079.01	713.929
1082.38	466.81
1085.76	495.567
1089.13	246.342
1092.51	197.711
1095.88	392.528
1099.26	685.084
1102.63	1005.35
1106.01	1298.12
1109.38	1478.08
1112.75	1559.11
1116.13	1608.24
1119.5	1623.22
1122.88	1691.35
1126.25	1897.52
1129.63	2009.9
1133	2158.54
1136.38	2291.95
1139.75	2405.1
1143.13	2343.8
1146.5	2239.89
1149.88	2046.25
1153.25	1933.83
1156.63	1734.28
1160	1533.77
1163.38	1333.32
1166.75	1170.6
1170.13	926.072
1173.5	805.92
1176.88	716.127
1180.25	538.145
1183.62	417.921
1187	252.432
1190.38	125.33
1193.75	40.583
1197.12	68.488
1200.5	152.232
1203.87	105.344
1207.25	141.369
1210.62	126.32
1214	144.769
1217.37	96.912
1220.75	127.113
1224.12	92.908
1227.5	70.913
1230.87	23.872
1234.25	0.214
1237.62	9.141
1241	10.521
1244.37	28.413
1247.75	84.731
1251.12	53.479
1254.5	63.322
1257.87	72.336
1261.25	10.139
1264.62	12.104
1268	31.029
1271.37	43.13
1274.74	35.094
1278.12	28.829
1281.49	12.525
1284.87	6.869
1288.24	28.497
1291.62	0.985
