Measurement: Raman, 514 nm, unoriented, Raman Data Processed
Mineral: Hydroxylbastnasite-(Ce)
Rruff sample: R060283
Ideal chemistry: CeCO_3_(OH)
Locality: Trimouns, Luzenac, France
Source: Herb Obodda
Description: Brown hexagonal tablet
Measured chemistry: (Ce_0.50_Nd_0.24_(La,Pr)_0.23_Y_0.03_)_Σ=1_CO_3_((OH)_0.65_F_0.35_)_Σ=1_
Raman shift (cm-1)	intensity
80.125	0
84.311	59.253
88.496	18.529
92.678	2.164
96.858	10.761
101.036	80.382
105.212	255.544
109.387	920.108
113.559	2170.9
117.729	4139.2
121.897	5423.23
126.063	4257.24
130.228	3819.38
134.39	4977.55
138.55	5370.02
142.709	4862.27
146.865	3959.99
151.019	3733.16
155.171	4279.72
159.322	4605.42
163.47	4059.76
167.617	3227.07
171.761	2835.93
175.904	3315.02
180.044	3792.63
184.183	3592.91
188.319	3437.92
192.454	3423.69
196.586	3729.19
200.717	3632.41
204.846	3199.5
208.972	2544.97
213.097	1811.33
217.22	1230.81
221.341	1146.33
225.46	1315.36
229.577	1599.37
233.692	1761.73
237.805	2027.9
241.916	2102.78
246.025	2502.12
250.132	2943.36
254.237	3537.56
258.34	3988.73
262.442	3977.45
266.541	3528.83
270.639	2830.69
274.734	2200.67
278.828	1691.39
282.919	1341.81
287.009	1390.72
291.097	1219.98
295.183	1275.49
299.266	1421.16
303.348	1853.9
307.428	2470.66
311.507	3128.35
315.583	3841.93
319.657	4503.42
323.729	5003.29
327.8	5510.51
331.868	5916.9
335.935	6365.36
339.999	6693.27
344.062	6822.93
348.123	6855.24
352.182	6624.51
356.239	6375.23
360.294	5734.81
364.347	5111.78
368.398	4666.71
372.448	4060.88
376.495	3594.63
380.54	3337
384.584	3000.72
388.626	2648.23
392.666	2355.84
396.704	2146.55
400.74	2029.34
404.774	1782.2
408.806	1605.17
412.836	1315.59
416.865	1126.46
420.891	948.735
424.916	747.34
428.939	551.229
432.959	411.364
436.978	354.708
440.996	263.234
445.011	278.913
449.024	220.72
453.036	216.632
457.045	278.628
461.053	208.687
465.059	220.792
469.063	66.924
473.065	53.067
477.065	49.208
481.063	24.676
485.06	35.657
489.054	62.849
493.047	87.412
497.038	72.485
501.027	159.151
505.014	122.663
508.999	115.964
512.982	138.166
516.964	151.262
520.944	69.282
524.921	58.041
528.897	16.487
532.871	33.549
536.844	8.137
540.814	102.852
544.783	129.625
548.749	239.237
552.714	320.691
556.677	535.986
560.638	693.12
564.597	939.091
568.555	1299.9
572.511	1515.53
576.464	1871.62
580.416	2004.27
584.366	2095.36
588.315	1964.26
592.261	1898.96
596.206	1685.47
600.148	1440.77
604.089	1217.87
608.028	938.771
611.965	715.469
615.901	588.958
619.834	472.239
623.766	382.332
627.696	372.253
631.624	451.02
635.551	455.69
639.475	363.979
643.398	455.873
647.318	466.106
651.237	529.811
655.155	588.352
659.07	710.063
662.984	1044.77
666.895	1210.58
670.805	1134.19
674.713	1093.31
678.62	1203.53
682.524	1292.58
686.427	1698.78
690.328	2397.62
694.227	3067.63
698.124	2899.51
702.02	2394.99
705.913	2056.45
709.805	1791.89
713.695	1389.3
717.584	1059.7
721.47	906.071
725.355	1059.43
729.238	1143.78
733.119	1265.11
736.998	1155.43
740.876	1120.75
744.752	1066.06
748.626	1205.51
752.498	1170.94
756.368	1137.53
760.237	1163.84
764.104	1413.76
767.969	1614.13
771.832	1889.67
775.693	2048.84
779.553	2354.65
783.411	2459.45
787.267	2547.28
791.122	2524.12
794.974	2411.82
798.825	2183.27
802.674	1909.76
806.522	1605.1
810.367	1404.85
814.211	1100.95
818.053	907.146
821.893	748.171
825.732	635.47
829.568	563.088
833.403	538.516
837.236	563.212
841.068	674.978
844.898	1092.97
848.726	1726.12
852.552	2047.37
856.376	1944.62
860.199	1592.86
864.02	1186.09
867.839	1019.3
871.656	1811.5
875.472	2089.89
879.286	1366.1
883.098	656.246
886.909	277.371
890.717	138.474
894.524	55.555
898.33	22.615
902.133	10.649
905.935	61.649
909.735	42.615
913.533	41.545
917.33	26.434
921.124	25.283
924.918	51.093
928.709	8.856
932.499	8.481
936.286	34.938
940.073	33.597
943.857	33.519
947.64	47.726
951.421	15.271
955.2	29.122
958.978	36.335
962.753	21.858
966.527	18.368
970.3	12.582
974.071	31.309
977.84	38.07
981.607	100.715
985.372	85.255
989.136	133.717
992.898	131.093
996.659	153.357
1000.42	180.495
1004.17	202.508
1007.93	178.418
1011.68	184.2
1015.43	160.846
1019.18	175.112
1022.93	108.797
1026.68	130.075
1030.42	167.213
1034.17	169.211
1037.91	186.191
1041.65	238.131
1045.39	329.125
1049.12	346.94
1052.86	418.359
1056.59	476.698
1060.33	648.734
1064.06	836.84
1067.78	1028.82
1071.51	1357.74
1075.23	2396.65
1078.96	7734.33
1082.68	22738
1086.4	23912.6
1090.12	28225.6
1093.83	26270.2
1097.55	19578.4
1101.26	28251.3
1104.97	24478.4
1108.68	11218.3
1112.39	3393.97
1116.1	1171.52
1119.8	684.992
1123.5	506.536
1127.2	447.769
1130.9	323.112
1134.6	279.121
1138.3	229.858
1141.99	214.874
1145.69	159.061
1149.38	205.028
1153.07	194.216
1156.76	186.265
1160.44	182.623
1164.13	174.398
1167.81	124.696
1171.49	101.551
1175.17	99.051
1178.85	134.72
1182.52	76.067
1186.2	77.836
1189.87	61.729
1193.54	48.144
1197.21	59.145
1200.88	50.811
1204.55	45.091
1208.21	56.239
1211.88	29.254
1215.54	54.169
1219.2	70.917
1222.86	33.527
1226.51	22.014
1230.17	13.409
1233.82	0.282
1237.47	34.98
1241.12	0.22
1244.77	21.459
1248.42	2.718
1252.06	11.052
1255.71	4.183
1259.35	8.357
1262.99	32.49
1266.63	4.54
1270.26	16.319
1273.9	10.035
1277.53	12.625
1281.16	25.968
1284.8	4.747
1288.42	0.338
1292.05	35.192
1295.68	2.145
1299.3	18.123
1302.92	29.477
1306.55	10.974
1310.16	10.634
1313.78	43.626
1317.4	24.766
1321.01	19.804
1324.62	38.743
1328.24	54.505
1331.85	4.859
1335.45	35.511
1339.06	37.617
1342.66	22.786
1346.27	48.875
1349.87	76.937
1353.47	53.964
1357.07	42.836
1360.66	39.22
1364.26	41.006
1367.85	58.357
1371.44	100.974
1375.04	97.627
1378.62	109.755
1382.21	97.636
1385.8	140.061
1389.38	187.829
1392.96	270.024
1396.54	545.522
1400.12	984.38
1403.7	1387.42
1407.28	1495.59
1410.85	1589.27
1414.42	1827.2
1417.99	2060.12
1421.56	2077.23
1425.13	2031.97
1428.7	1907.06
1432.26	1818.74
1435.83	1778.37
1439.39	1802.76
1442.95	1582.41
1446.51	1345.89
1450.06	998.345
1453.62	694.676
1457.17	560.913
1460.73	525.021
1464.28	513.114
1467.83	578.291
1471.37	671.742
1474.92	814.42
1478.46	932.507
1482.01	879.865
1485.55	734.393
1489.09	553.078
1492.63	425.987
1496.16	254.232
1499.7	172.956
1503.23	70.254
1506.76	18.178
1510.29	8.867
1513.82	5.391
1517.35	13.758
1520.88	2.442
1524.4	1.422
1527.92	13.661
