Measurement: Raman, 532 nm, unoriented, Raman Data Processed
Mineral: Hydroxylherderite
Rruff sample: R060353
Ideal chemistry: CaBePO_4_(OH)
Locality: Shigar Valley, northeast of Skardu, Baltistan, Pakistan
Source: Herb Obodda
Description: Colorless equant crystal
Measured chemistry: (Ca_0.99_Mn_0.01_)_Σ=1_Be_1.00_P_1.00_O_4_((OH)_0.52_F_0.48_)_Σ=1_; trace amounts of Na; Be not measured but assumed by stoichiometry; OH estimated by charge balance
Raman shift (cm-1)	intensity
145.145	0
148.038	0.629
150.931	31.529
153.824	21.24
156.716	157.584
159.609	402.974
162.502	896.75
165.394	1687.36
168.287	2043.36
171.18	626.553
174.072	294.319
176.965	314.312
179.858	515.092
182.751	500.69
185.643	357.093
188.536	630.186
191.429	1114.93
194.321	2014.72
197.214	1236.98
200.107	453.195
202.999	239.533
205.892	124.409
208.785	54.802
211.678	2.226
214.57	30.96
217.463	70.222
220.356	151.929
223.248	211.871
226.141	61.975
229.034	15.093
231.926	3.531
234.819	11.963
237.712	12.514
240.605	68.867
243.497	11.893
246.39	21
249.283	123.188
252.176	216.116
255.068	176.628
257.961	74.721
260.854	94.688
263.746	152.552
266.639	301.531
269.532	374.333
272.424	440.419
275.317	186.188
278.21	105.448
281.103	18.529
283.995	1.806
286.888	10.631
289.781	24.101
292.673	93.287
295.566	164.941
298.459	168.9
301.351	207.528
304.244	175.813
307.137	196.712
310.03	161.129
312.922	127.833
315.815	179.788
318.708	155.513
321.6	209.783
324.493	280.597
327.386	279.488
330.278	358.328
333.171	365.791
336.064	425.503
338.957	415.065
341.849	290.393
344.742	217.023
347.635	202.708
350.527	210.417
353.42	144.84
356.313	124.634
359.205	49.014
362.098	39.86
364.991	18.388
367.884	33.001
370.776	7.61
373.669	33.584
376.562	24.963
379.454	49.006
382.347	55.286
385.24	42.984
388.132	61.816
391.025	92.81
393.918	55.239
396.81	102.797
399.703	78.382
402.596	36.351
405.489	133.226
408.381	138.716
411.274	195.713
414.167	281.684
417.06	446.84
419.952	612.366
422.845	943.815
425.738	1367.21
428.63	1105.98
431.523	537.369
434.416	493.341
437.308	611.569
440.201	853.803
443.094	1253.83
445.987	2050.02
448.879	2364.28
451.772	1539.66
454.665	755.503
457.557	436.302
460.45	243.497
463.343	143.631
466.235	143.697
469.128	52.357
472.021	59.064
474.914	93.791
477.806	8.185
480.699	34.462
483.592	11.405
486.484	55.687
489.377	17.133
492.27	35.799
495.162	58.741
498.055	18.668
500.948	31.644
503.841	35.494
506.733	166.547
509.626	273.724
512.519	491.369
515.411	839.984
518.304	1520.97
521.197	1137.75
524.089	578.936
526.982	656.666
529.875	1054.13
532.768	1721.06
535.66	1480.98
538.553	670.416
541.446	382.936
544.338	411.241
547.231	381.438
550.124	429.223
553.016	353.417
555.909	330.89
558.802	282.076
561.695	344.117
564.587	430.224
567.48	648.061
570.373	1044.62
573.265	1588.5
576.158	2455.45
579.051	3099.41
581.943	3489.16
584.836	4186.33
587.729	4487.17
590.622	3675.62
593.514	3102.12
596.407	3129.59
599.3	2181.06
602.192	1267.15
605.085	787.355
607.978	684.943
610.87	547.469
613.763	401.902
616.656	312.633
619.549	279.114
622.441	179.032
625.334	138.155
628.227	106.872
631.119	37.198
634.012	9.289
636.905	35.384
639.797	17.807
642.69	54.862
645.583	21.131
648.476	24.284
651.368	4.032
654.261	29.742
657.154	39.051
660.046	3.68
662.939	4.065
665.832	41.342
668.724	36.395
671.617	161.131
674.51	213.799
677.403	209.084
680.295	230.647
683.188	224.532
686.081	326.214
688.973	311.805
691.866	399.458
694.759	390.557
697.652	460.045
700.544	446.853
703.437	448.575
706.33	419.773
709.222	481.192
712.115	355.186
715.008	268.441
717.901	191.626
720.793	218.515
723.686	133.03
726.579	107.622
729.471	180.297
732.364	132.185
735.257	9.863
738.149	4.489
741.042	48.674
743.935	124.66
746.828	290.651
749.72	315.351
752.613	293.387
755.506	438.443
758.398	552.146
761.291	663.166
764.184	563.028
767.076	614.494
769.969	539.947
772.862	524.08
775.755	364.396
778.647	323.105
781.54	263.305
784.433	272.703
787.325	219.859
790.218	213.694
793.111	149.436
796.003	231.687
798.896	253.958
801.789	119.119
804.682	153.691
807.574	84.316
810.467	115.706
813.36	111.074
816.252	94.627
819.145	90.229
822.038	69.067
824.93	16.068
827.823	116.245
830.716	90.112
833.609	63.207
836.501	91.942
839.394	21.696
842.287	91.787
845.179	17.371
848.072	123.751
850.965	97.581
853.857	28.947
856.75	98.415
859.643	0.497
862.536	49.351
865.428	7.109
868.321	96.86
871.214	7.565
874.106	22.07
876.999	12.365
879.892	85.937
882.784	119.758
885.677	99.699
888.57	220.579
891.463	266.203
894.355	386.515
897.248	425.127
900.141	391.213
903.033	365.68
905.926	326.227
908.819	258.846
911.711	219.396
914.604	251.973
917.497	211.564
920.39	86.733
923.282	124.242
926.175	94.417
929.068	87.31
931.96	61.213
934.853	46.725
937.746	10.503
940.638	6.181
943.531	12.004
946.424	3.555
949.317	38.062
952.209	11.593
955.102	197.096
957.995	196.788
960.888	262.696
963.78	384.648
966.673	758.215
969.566	1169.22
972.458	1754.74
975.351	2938.61
978.244	4264.1
981.136	5387.68
984.029	5982.1
986.922	5762.4
989.815	5412.69
992.707	5441.49
995.6	6098.76
998.493	7403.25
1001.38	9450.79
1004.28	11993.2
1007.17	13238.5
1010.06	10175.3
1012.96	6066.84
1015.85	3899.55
1018.74	2664.38
1021.63	2144.03
1024.53	1947.06
1027.42	1738.83
1030.31	1358.38
1033.2	1156.19
1036.1	763.788
1038.99	517.271
1041.88	338.511
1044.78	51.3
1047.67	62.703
1050.56	14.413
1053.45	51.226
1056.35	102.311
1059.24	54.251
1062.13	1.403
1065.03	94.142
1067.92	15.262
1070.81	26.987
1073.7	44.142
1076.6	74.89
1079.49	152.97
1082.38	351.896
1085.27	668.14
1088.17	850.975
1091.06	580.557
1093.95	305.857
1096.84	321.184
1099.74	259.676
1102.63	283.482
1105.52	350.826
1108.41	287.295
1111.31	294.174
1114.2	381.781
1117.09	406.201
1119.99	658.801
1122.88	871.104
1125.77	1480.25
1128.66	2642.79
1131.56	2856.98
1134.45	1747.62
1137.34	1675.22
1140.23	2470.49
1143.13	3284.51
1146.02	1783.44
1148.91	755.191
1151.81	406.27
1154.7	271.234
1157.59	232.256
1160.48	186.541
1163.38	146.557
1166.27	82.229
1169.16	51.238
1172.06	5.779
1174.95	147.305
1177.84	290.627
1180.73	46.91
1183.62	152.922
1186.52	122.039
1189.41	162.82
1192.3	64.668
1195.2	102.275
1198.09	48.404
1200.98	39.51
1203.87	103.387
1206.77	0.58
1209.66	181.242
1212.55	62.186
1215.44	152.904
1218.34	6.94
1221.23	50.512
1224.12	61.008
1227.02	60.354
1229.91	11.119
1232.8	166.209
1235.69	112.494
1238.59	268.961
1241.48	84.246
1244.37	58.895
1247.27	245.258
1250.16	155.979
1253.05	225.818
1255.94	173.943
1258.84	228.836
1261.73	204.834
1264.62	51.367
1267.51	40.938
1270.41	179.377
1273.3	268.4
1276.19	294.719
1279.09	252.918
1281.98	64.857
1284.87	195.156
1287.76	139.188
1290.66	153.799
1293.55	37.033
