Measurement: Raman, 785 nm, unoriented, Raman Data Processed
Mineral: Hydroxylherderite
Rruff sample: R050518
Ideal chemistry: CaBePO_4_(OH)
Locality: Mt. Apatite, Auburn, Maine, USA
Source: University of Arizona Mineral Museum
Description: Colorless prismatic crystals
Measured chemistry: Ca_1.00_Be_1.00_(P_1.00_O_4_)((OH)_0.75_F_0.25_)_Î£=1_
Raman shift (cm-1)	intensity
149.845	0
152.738	132.642
155.63	197.214
158.523	257.541
161.416	610.828
164.308	1046.86
167.201	1847.21
170.094	1222.86
172.987	271.744
175.879	296.79
178.772	403.863
181.665	971.271
184.557	1011.76
187.45	467.944
190.343	427.685
193.235	684.502
196.128	1040.6
199.021	642.444
201.913	206.737
204.806	26.1216
207.699	110.453
210.591	113.28
213.484	21.6602
216.377	94.0659
219.27	295.309
222.162	597.537
225.055	735.889
227.948	461.112
230.84	171.184
233.733	36.3882
236.626	33.6489
239.518	46.7312
242.411	61.7954
245.304	92.4802
248.197	76.8975
251.089	111.81
253.982	207.155
256.875	261.332
259.767	265.437
262.66	253.164
265.553	309.35
268.445	308.236
271.338	361.47
274.231	282.506
277.124	167.39
280.016	153.367
282.909	194.115
285.802	168.8
288.694	132.587
291.587	153.094
294.48	261.002
297.373	297.006
300.265	358.516
303.158	437.135
306.051	429.281
308.943	424.058
311.836	354.892
314.729	253.696
317.621	253.593
320.514	311.545
323.407	345.675
326.3	412.678
329.192	497.603
332.085	549.699
334.978	607.733
337.87	619.48
340.763	643.714
343.656	548.664
346.548	505.151
349.441	438.204
352.334	403.522
355.226	269.115
358.119	137.07
361.012	77.8762
363.904	15.936
366.797	25.512
369.69	15.9414
372.583	22.2202
375.475	21.1243
378.368	16.542
381.261	41.5984
384.153	9.84961
387.046	65.9856
389.939	25.0713
392.832	6.80811
395.724	13.2202
398.617	50.4392
401.51	39.3447
404.402	59.4631
407.295	84.9866
410.188	144.249
413.08	195.899
415.973	325.135
418.866	413.7
421.759	681.879
424.651	984.172
427.544	1065.74
430.437	779.168
433.329	732.657
436.222	870.881
439.115	1163.53
442.007	1568.71
444.9	2446.06
447.793	2753.29
450.685	2147.89
453.578	1059.08
456.471	559.986
459.364	275.52
462.256	147.042
465.149	125.63
468.042	87.4224
470.934	34.207
473.827	2.73096
476.72	3.90967
479.613	24.2883
482.505	34.3455
485.398	29.8257
488.291	54.6338
491.183	28.8306
494.076	0.339355
496.969	30.5835
499.861	159.262
502.754	320.903
505.647	679.808
508.539	1142.27
511.432	1793.72
514.325	2938.14
517.218	4621.7
520.11	4230.07
523.003	1721.08
525.896	888.134
528.788	803.591
531.681	991.432
534.574	799.767
537.466	543.201
540.359	550.131
543.252	661.595
546.144	678.565
549.037	672.189
551.93	645.386
554.823	599.246
557.715	524.587
560.608	443.606
563.501	499.92
566.393	635.02
569.286	927.049
572.179	1411.34
575.072	1990.05
577.964	2663.97
580.857	3499.51
583.75	4467.11
586.642	4877.11
589.535	4705.1
592.428	4779.28
595.32	5405.85
598.213	5131.81
601.106	3415.78
603.999	2008.73
606.891	1252.1
609.784	816.775
612.677	576.68
615.569	426.591
618.462	339.777
621.355	273.557
624.247	148.28
627.14	93.3411
630.033	84.9978
632.926	113.005
635.818	146.239
638.711	117.034
641.604	62.6477
644.496	0.310791
647.389	64.2864
650.282	30.7769
653.174	67.2122
656.067	12.1665
658.96	7.92407
661.852	57.8035
664.745	166.469
667.638	165.157
670.531	257.987
673.423	395.323
676.316	543.815
679.209	686.201
682.101	673.686
684.994	678.275
687.887	615.029
690.779	573.276
693.672	517.988
696.565	481.398
699.458	482.75
702.35	494.168
705.243	436.275
708.136	349
711.028	271.232
713.921	181.381
716.814	114.5
719.707	54.8066
722.599	23.771
725.492	44.1846
728.385	54.8528
731.277	2.39648
734.17	45.7656
737.063	3.27954
739.955	32.9228
742.848	0.337402
745.741	53.1853
748.633	56.9155
751.526	123.242
754.419	184.762
757.312	308.284
760.204	346.737
763.097	414.416
765.99	404.723
768.882	383.332
771.775	357.134
774.668	422.373
777.56	388.08
780.453	395.95
783.346	335.831
786.239	328.597
789.131	287.452
792.024	261.988
794.917	188.953
797.809	169.063
800.702	123.275
803.595	97.1157
806.487	48.7651
809.38	71.5242
812.273	25.0855
815.165	47.7756
818.058	20.1314
820.951	38.8513
823.844	16.2109
826.736	26.3997
829.629	9.09741
832.522	26.4009
835.414	37.5251
838.307	1.15723
841.2	19.2795
844.092	1.62451
846.985	7.33472
849.878	41.8513
852.771	0.079102
855.663	39.0772
858.556	64.553
861.449	84.8169
864.341	118.451
867.234	132.106
870.127	181.917
873.019	147.001
875.912	157.321
878.805	199.76
881.698	186.575
884.59	189.061
887.483	239.457
890.376	241.53
893.268	267.403
896.161	323.652
899.054	328.459
901.947	332.265
904.839	364.517
907.732	312.85
910.625	316.383
913.517	318.93
916.41	268.025
919.303	208.332
922.195	95.5938
925.088	62.1768
927.981	50.7373
930.873	1.30469
933.766	31.696
936.659	1.12988
939.552	9.61401
942.444	47.2239
945.337	24.5347
948.23	30.9338
951.122	58.9243
954.015	127.511
956.908	190.752
959.8	304.89
962.693	482.5
965.586	763.16
968.479	1162.03
971.371	1926.65
974.264	3090.47
977.157	4739.44
980.049	6713.29
982.942	8524.96
985.835	9255.25
988.727	8632.11
991.62	7994.64
994.513	8173.09
997.405	9364.48
1000.3	11110.2
1003.19	12466.1
1006.08	11896.8
1008.98	8920.02
1011.87	5880.75
1014.76	3989.41
1017.65	2804.94
1020.55	2100.65
1023.44	1650.32
1026.33	1304
1029.22	1005.42
1032.12	732.524
1035.01	485.389
1037.9	320.582
1040.8	204.889
1043.69	120.501
1046.58	82.4658
1049.47	66.5923
1052.37	46.616
1055.26	58.5706
1058.15	8.80664
1061.05	8.55102
1063.94	8.24927
1066.83	23.7322
1069.72	17.3225
1072.62	20.1985
1075.51	14.033
1078.4	26.2873
1081.29	82.2874
1084.19	165.665
1087.08	240.727
1089.97	219.595
1092.87	116.911
1095.76	84.8855
1098.65	59.501
1101.54	62.9641
1104.43	66.4394
1107.33	67.0955
1110.22	86.1719
1113.11	142.841
1116.01	204.318
1118.9	363.754
1121.79	663.434
1124.68	1108.16
1127.58	1819.08
1130.47	2005.26
1133.36	1213.18
1136.26	841.058
1139.15	797.221
1142.04	884.539
1144.93	490.905
1147.83	246.652
1150.72	126.529
1153.61	53.8543
1156.5	33.3916
1159.4	38.1824
1162.29	14.5012
1165.18	14.875
1168.08	19.3267
1170.97	31.2524
1173.86	23.4036
1176.75	1.29028
1179.65	12.0145
1182.54	13.2611
1185.43	15.0272
1188.32	2.41467
1191.22	26.8762
1194.11	19.8284
1197	8.15185
1199.89	26.0594
1202.79	11.4495
1205.68	24.7483
1208.57	29.884
1211.46	0.960815
1214.36	65.3135
1217.25	29.9273
1220.14	29.01
1223.04	19.2443
1225.93	48.6744
1228.82	28.4089
1231.71	17.7573
1234.61	30.3431
1237.5	36.2489
1240.39	17.651
1243.29	30.5698
1246.18	19.1321
1249.07	28.2792
1251.96	31.6952
1254.86	7.93408
1257.75	19.1792
1260.64	4.96204
