Measurement: Raman, 785 nm, unoriented, Raman Data Processed
Mineral: Hydroxylherderite
Rruff sample: R070451
Ideal chemistry: CaBePO_4_(OH)
Locality: Fletcher mine, Groton, Grafton County, New Hampshire, USA
Source: Michael Scott
Description: Brownish green prismatic crystal
Measured chemistry: Ca_1.00_Be_1.00_P_1.00_O_4_((OH)_0.80_F_0.20_)_Î£=1_; trace amounts of Al; OH estimated by charge balance; BeO by difference
Raman shift (cm-1)	intensity
115.244	0
118.136	34.4791
121.029	42.495
123.922	1.60483
126.815	5.48041
129.707	41.6331
132.6	79.0961
135.493	108.988
138.385	128.501
141.278	186.929
144.171	438.994
147.064	476.827
149.956	328.628
152.849	380.937
155.742	430.655
158.634	562.178
161.527	847.321
164.42	1441.63
167.312	2623.31
170.205	2658.06
173.098	960.35
175.99	536.398
178.883	619.456
181.776	1071.22
184.669	1644.28
187.561	787.311
190.454	457.885
193.347	557.968
196.239	910.491
199.132	1439.06
202.025	933.509
204.917	197.621
207.81	27.0427
210.703	5.72772
213.596	8.41003
216.488	7.44812
219.381	12.1473
222.274	79.944
225.166	211.55
228.059	407.029
230.952	739.796
233.845	635.905
236.737	350.93
239.63	180.686
242.523	185.635
245.415	315.566
248.308	571.51
251.201	1069.45
254.093	1228.13
256.986	848.737
259.879	499.683
262.772	431.19
265.664	655.235
268.557	1102.81
271.45	966.328
274.342	326.195
277.235	69.8326
280.128	5.77173
283.02	12.1851
285.913	22.2431
288.806	24.6056
291.699	15.748
294.591	1.37018
297.484	111.025
300.377	223.455
303.269	463.477
306.162	941.752
309.055	1121.09
311.947	556.702
314.84	218.447
317.733	153.28
320.625	183.567
323.518	333.463
326.411	513.012
329.304	479.894
332.196	288.877
335.089	206.91
337.982	241.84
340.874	337.829
343.767	468.227
346.66	476.412
349.553	524.103
352.445	698.562
355.338	594.352
358.231	244.872
361.123	85.2382
364.016	41.1069
366.909	22.1663
369.801	15.7184
372.694	10.0096
375.587	14.115
378.479	8.75867
381.372	31.8137
384.265	13.3786
387.158	18.321
390.05	18.0123
392.943	34.3068
395.836	29.4006
398.728	48.3907
401.621	50.0159
404.514	87.746
407.406	83.4044
410.299	123.536
413.192	214.339
416.085	340.731
418.977	536.766
421.87	980.384
424.763	1387.21
427.655	1020.81
430.548	604.085
433.441	485.343
436.334	611.14
439.226	800.84
442.119	1230.37
445.012	1812.64
447.904	1709.51
450.797	957.332
453.69	461.483
456.582	271.811
459.475	154.808
462.368	131.297
465.26	87.565
468.153	67.308
471.046	50.3708
473.939	10.8203
476.831	10.9949
479.724	4.60321
482.617	36.3093
485.509	30.1924
488.402	20.9362
491.295	45.8149
494.188	40.2866
497.08	6.51447
499.973	36.1838
502.866	121.089
505.758	274.555
508.651	517.124
511.544	970.462
514.436	1687.02
517.329	1839.32
520.222	1525.16
523.115	1915.28
526.007	2684.85
528.9	2612.78
531.793	1604.89
534.685	1042.31
537.578	976.51
540.471	966.763
543.363	610.441
546.256	304.704
549.149	179.404
552.042	165.875
554.934	291.238
557.827	576.472
560.72	1009.65
563.612	1472.42
566.505	1548.09
569.398	1578.61
572.29	2086.8
575.183	2944.39
578.076	3280.15
580.968	2684.85
583.861	2307.72
586.754	2768.91
589.646	3972.36
592.539	6269.71
595.432	9507.47
598.325	10649
601.217	6734.56
604.11	3192.33
607.003	1639.34
609.895	1053.56
612.788	865.583
615.681	929.743
618.573	665.821
621.466	335.654
624.359	272.544
627.252	394.278
630.144	527.749
633.037	508.705
635.93	461.444
638.822	328.578
641.715	207.371
644.608	33.1194
647.5	51.071
650.393	81.9193
653.286	54.8552
656.179	15.1161
659.071	9.27545
661.964	89.1182
664.857	204.912
667.75	377.147
670.642	668.967
673.535	1036.56
676.428	1434.36
679.32	1535.96
682.213	1186.51
685.106	724.663
687.998	466.434
690.891	342.889
693.784	290.806
696.677	292.64
699.569	358.283
702.462	402.893
705.355	362.358
708.247	266.753
711.14	149.256
714.033	89.3909
716.925	60.2845
719.818	24.9128
722.711	11.1085
725.604	11.28
728.496	1.12653
731.389	8.15295
734.282	5.42841
737.174	7.72174
740.067	37.0447
742.96	51.2364
745.852	65.167
748.745	73.2664
751.638	120.357
754.53	125.617
757.423	148.709
760.316	204.719
763.209	209.675
766.101	215.863
768.994	210
771.887	225.689
774.779	285.673
777.672	370.519
780.565	423.977
783.457	620.654
786.35	813.424
789.243	984.928
792.136	917.307
795.028	686.803
797.921	426.519
800.814	276.78
803.706	178.797
806.599	126.116
809.492	83.3099
812.385	60.5191
815.277	28.9877
818.17	33.0924
821.063	14.0351
823.955	7.79834
826.848	19.0956
829.741	7.06952
832.633	10.9626
835.526	0.064697
838.419	1.70117
841.312	20.5327
844.204	7.34534
847.097	9.82013
849.99	9.73529
852.882	40.2593
855.775	49.4367
858.668	60.2915
861.56	98.3829
864.453	140.602
867.346	194.268
870.239	253.766
873.131	322.622
876.024	394.638
878.917	447.766
881.809	448.709
884.702	437.75
887.595	367.228
890.487	290.362
893.38	236.004
896.273	155.935
899.165	139.947
902.058	125.163
904.951	83.8315
907.844	74.1487
910.736	46.4532
913.629	39.4068
916.522	25.0757
919.414	8.43793
922.307	15.4582
925.2	22.0925
928.092	32.0334
930.985	18.9969
933.878	1.27203
936.771	2.37878
939.663	25.934
942.556	50.2653
945.449	53.7922
948.341	120.397
951.234	175.73
954.127	236.336
957.019	329.754
959.912	459.491
962.805	605.494
965.698	778.778
968.59	1111.6
971.483	1540.54
974.376	2373.88
977.268	3732.89
980.161	6020.55
983.054	9070.05
985.947	10172.3
988.839	8995.21
991.732	9696.63
994.625	13388.9
997.517	17296.3
1000.41	15599.6
1003.3	10934.8
1006.2	7535.53
1009.09	5879.89
1011.98	4796.99
1014.87	3142.51
1017.77	2133.76
1020.66	1540.55
1023.55	1142.46
1026.44	836.503
1029.34	601.97
1032.23	448.959
1035.12	294.262
1038.02	186.292
1040.91	132.041
1043.8	82.8378
1046.69	60.911
1049.59	21.2965
1052.48	38.314
1055.37	2.17468
1058.26	1.82983
1061.16	27.0802
1064.05	11.8417
1066.94	10.4473
1069.84	5.87885
1072.73	11.8159
1075.62	61.5539
1078.51	149.186
1081.41	294.524
1084.3	445.254
1087.19	367.439
1090.08	186.993
1092.98	129.805
1095.87	76.1669
1098.76	85.2102
1101.65	67.2003
1104.55	62.9258
1107.44	74.7441
1110.33	131.828
1113.22	133.563
1116.12	227.968
1119.01	379.858
1121.9	727.79
1124.8	1442.07
1127.69	2251.87
1130.58	1724.06
1133.47	1782.33
1136.37	2735.01
1139.26	2354.95
1142.15	1193.46
1145.05	520.766
1147.94	258.132
1150.83	135.198
1153.72	85.1268
1156.62	49.6766
1159.51	29.3864
1162.4	27.0797
1165.29	32.4762
1168.19	29.2407
1171.08	15.4649
1173.97	19.5884
1176.87	0.93454
1179.76	7.73749
1182.65	6.22186
1185.54	11.6216
1188.43	0.934906
1191.33	1.77747
1194.22	29.963
1197.11	35.7747
1200.01	12.8016
1202.9	41.7854
1205.79	36.3362
1208.68	27.2512
1211.58	31.4044
1214.47	20.2148
1217.36	14.5487
1220.26	24.0246
1223.15	19.8948
1226.04	17.841
1228.93	26.1417
1231.83	4.4176
1234.72	1.32333
