Measurement: Raman, 785 nm, unoriented, Raman Data Processed
Mineral: Hydroboracite
Rruff sample: R060713
Ideal chemistry: CaMg[B_3_O_4_(OH)_3_]_2_3H_2_O
Locality: Sijes, Salta Province, Argentina
Source: Bob Jenkins
Description: Divergent groups of colorless bladed crystals that lie somewhat parallel with each other
Measured chemistry: (Ca_0.93_Mg_0.07_)_Σ=1_Mg_1.00_B_6_O_8_(OH)_6_·3H_2_O ; B, H not measured but estimated by stoichiometry
Raman shift (cm-1)	intensity
167.329	0
170.221	1035.5
173.114	383.875
176.007	0.660156
178.899	152.148
181.792	1187.34
184.685	1790.47
187.577	611.023
190.47	135.828
193.363	43.6875
196.255	522.414
199.148	503.047
202.041	783.648
204.934	309.273
207.826	278.125
210.719	16.5156
213.612	382.375
216.504	877.164
219.397	1108.15
222.29	1077.33
225.182	776.297
228.075	652.484
230.968	404.477
233.861	1038.88
236.753	1573.52
239.646	2573.75
242.539	3010.41
245.431	1840.42
248.324	955.273
251.217	968.383
254.109	1482.24
257.002	2539.98
259.895	3207.38
262.788	1818.43
265.68	897.969
268.573	455.758
271.466	355.039
274.358	197.016
277.251	475.922
280.144	1048.62
283.036	1531.77
285.929	1746.98
288.822	1058.81
291.715	455.328
294.607	22.5156
297.5	198.062
300.393	633.43
303.285	1027.34
306.178	1405.92
309.071	1350.07
311.964	847.109
314.856	528.086
317.749	903.883
320.642	1101.18
323.534	1471.47
326.427	2035.57
329.32	1675.88
332.212	1122.39
335.105	914.438
337.998	452.156
340.891	197.25
343.783	26.5312
346.676	132.898
349.569	633
352.461	743.148
355.354	643.523
358.247	302.359
361.139	200.672
364.032	183.766
366.925	104.758
369.818	468.594
372.71	948.234
375.603	1335.76
378.496	1419.45
381.388	1237.05
384.281	1486.79
387.174	1434.44
390.066	1316.66
392.959	1268.04
395.852	1580.23
398.745	1612.3
401.637	1568.38
404.53	1213.62
407.423	520.719
410.315	413.938
413.208	510.047
416.101	787.133
418.993	968.039
421.886	488.578
424.779	554.297
427.672	292.125
430.564	79.2656
433.457	45.2734
436.35	64.7734
439.242	111.812
442.135	277.148
445.028	512.281
447.921	530.688
450.813	246.836
453.706	119.672
456.599	24.6328
459.491	77.8594
462.384	119.055
465.277	243.531
468.169	268.016
471.062	290.992
473.955	81.7852
476.848	111.102
479.74	101.852
482.633	197.504
485.526	535.16
488.418	528.34
491.311	489.301
494.204	460.039
497.096	196.676
499.989	88.7461
502.882	117.68
505.775	47.3203
508.667	93.0938
511.56	159.852
514.453	492.008
517.345	498.438
520.238	612.727
523.131	937.359
526.023	1385.48
528.916	997.461
531.809	440.301
534.701	491.867
537.594	575.285
540.487	397.805
543.38	614.039
546.272	1033.36
549.165	1700.98
552.058	2087.85
554.95	954.281
557.843	691.207
560.736	765.566
563.628	1051.19
566.521	1343.34
569.414	849.137
572.307	372.527
575.199	42.4102
578.092	103.312
580.985	396.269
583.877	151.137
586.77	255.852
589.663	126.32
592.555	100.539
595.448	42.1172
598.341	305.805
601.234	597.543
604.126	589.996
607.019	694.16
609.912	749.191
612.804	627.965
615.697	492.699
618.59	149.953
621.482	145.516
624.375	39.8477
627.268	241.109
630.161	35.957
633.053	228.691
635.946	268.824
638.839	656.754
641.731	387.356
644.624	238.758
647.517	85.8125
650.409	43.6562
653.302	261.215
656.195	377.191
659.088	395.91
661.98	431.242
664.873	154.199
667.766	54.0195
670.658	326.758
673.551	294.832
676.444	302.234
679.336	415.816
682.229	119.211
685.122	27.2031
688.015	63.5352
690.907	4.49609
693.8	83.6133
696.693	383.445
699.585	251.348
702.478	208.641
705.371	183.297
708.263	15.8594
711.156	86.8242
714.049	215.531
716.942	370.981
719.834	381.426
722.727	487.566
725.62	413.41
728.513	300.809
731.405	322.332
734.298	694.238
737.191	669.727
740.083	835.891
742.976	1279.13
745.869	1856.94
748.761	2580.54
751.654	3546.41
754.547	4559.04
757.44	3635.08
760.332	2301.08
763.225	1333.68
766.118	988.195
769.01	677.746
771.903	372.18
774.796	366.445
777.688	116.07
780.581	4.29297
783.474	29.7148
786.367	298.621
789.259	260.191
792.152	70.8086
795.045	39.6992
797.937	59.3477
800.83	149.059
803.723	93.2383
806.615	29.9727
809.508	79.4531
812.401	112.644
815.294	174.129
818.186	72.9609
821.079	56.8242
823.972	128.938
826.864	221.562
829.757	245.238
832.65	129.914
835.542	370.426
838.435	240.973
841.328	245.203
844.221	277.488
847.113	140.035
850.006	149.062
852.899	134.719
855.791	17.8984
858.684	120.156
861.577	211.773
864.469	162.867
867.362	60.0547
870.255	316.449
873.148	338.348
876.04	587.481
878.933	770.883
881.826	593.316
884.718	410.207
887.611	270.086
890.504	358.266
893.396	173.566
896.289	170.793
899.182	89.0586
902.075	147.203
904.967	26.1758
907.86	137.113
910.753	154.777
913.645	149.184
916.538	76.6289
919.431	70.625
922.323	56.4219
925.216	20.6758
928.109	94.6406
931.002	246.918
933.894	274.137
936.787	422.977
939.68	380.137
942.572	376.934
945.465	447.519
948.358	420.938
951.25	590.777
954.143	250.008
957.036	254.555
959.929	334.805
962.821	405.336
965.714	310.644
968.607	407.469
971.499	365.375
974.392	324.363
977.285	352.031
980.177	166.613
983.07	103.09
985.963	200.031
988.856	100.231
991.748	33.3281
994.641	60.4414
997.534	128.586
1000.43	307.711
1003.32	314.68
1006.21	95.2422
1009.1	140.918
1012	180.215
1014.89	222.922
1017.78	132.25
1020.67	99.5078
1023.57	195.184
1026.46	172.176
1029.35	277.902
1032.25	290.477
1035.14	474.492
1038.03	134.922
1040.92	257.902
1043.82	329.547
1046.71	219.328
1049.6	118.543
1052.49	168.223
1055.39	241.844
1058.28	263.188
1061.17	71.9375
1064.07	20.9766
1066.96	5.75
1069.85	96.6094
1072.74	96.8438
1075.64	241.062
1078.53	20.0078
1081.42	172.594
1084.32	244.113
1087.21	136.758
1090.1	56.2031
1092.99	100.473
1095.88	254.394
1098.78	109.754
1101.67	125.195
1104.56	2.14062
1107.46	7.26172
1110.35	14.8906
1113.24	218.926
1116.13	283.223
1119.03	102.344
1121.92	143.074
1124.81	228.516
1127.7	383.582
1130.6	267.359
1133.49	212.32
1136.38	233.781
1139.28	430.246
1142.17	335.961
1145.06	320.547
1147.95	250.844
1150.85	262.18
1153.74	63.5078
1156.63	187.363
1159.53	175.758
1162.42	271.371
1165.31	59.0977
1168.2	141.566
1171.1	111.736
1173.99	12.1641
1176.88	21.1855
1179.77	62.6133
1182.67	21.4219
1185.56	29.3887
1188.45	35.5762
1191.35	86.5879
1194.24	280.537
1197.13	128.346
1200.02	116.982
1202.91	135.988
1205.81	113.18
1208.7	139.596
1211.59	75.7441
1214.49	209.043
1217.38	175.369
1220.27	226.26
1223.16	353.688
1226.06	202.758
1228.95	197.156
1231.84	109.434
1234.73	273.119
1237.63	130.055
1240.52	229.035
1243.41	135.26
1246.31	89.6641
1249.2	216.203
1252.09	119.658
1254.98	101.775
1257.88	34.4258
1260.77	55.0566
1263.66	153.455
1266.56	107.131
