Measurement: Raman, 532 nm, unoriented, Raman Data Processed
Mineral: Hydroxylapatite
Rruff sample: R060180
Ideal chemistry: Ca_5_(PO_4_)_3_OH
Locality: Holly Springs, Georgia, USA
Source: Julian Gray
Description: Tan colored nodule in talc schist associated with serpentinite
Measured chemistry: Ca_5.00_(P_1.00_O_4_)_3_((OH)_0.98_Cl_0.02_)
Raman shift (cm-1)	intensity
150.046	0
152.939	321.763
155.832	270.46
158.724	83.1084
161.617	10.3174
164.51	18.6982
167.403	8.52734
170.295	58.9268
173.188	94.2022
176.081	135.62
178.973	152.58
181.866	101.726
184.759	33.917
187.651	8.5
190.544	26.7607
193.437	65.6397
196.329	75.2412
199.222	128.46
202.115	198.386
205.008	238.767
207.9	236.685
210.793	180.535
213.686	162.641
216.578	189.149
219.471	178.51
222.364	216.601
225.256	244.446
228.149	255.922
231.042	254.552
233.935	199.226
236.827	179.744
239.72	123.775
242.613	63.0508
245.505	12.3066
248.398	10.1045
251.291	9.66406
254.184	34.0137
257.076	44.4512
259.969	75.8242
262.862	105.401
265.754	191.432
268.647	176.571
271.54	158.709
274.433	193.213
277.325	211.856
280.218	217.045
283.111	246.26
286.003	263.228
288.896	282.115
291.789	236.856
294.681	184.711
297.574	149.622
300.467	136.838
303.36	123.204
306.252	85.3262
309.145	60.1523
312.038	48.2539
314.93	64.7627
317.823	81.8809
320.716	49.4922
323.608	76.1045
326.501	136.744
329.394	180.09
332.287	174.326
335.179	178.916
338.072	118.626
340.965	89.2783
343.857	88.0127
346.75	87.9502
349.643	107.976
352.536	45.8047
355.428	53.6768
358.321	13.0117
361.214	9.18457
364.106	21.9414
366.999	31.7021
369.892	28.3477
372.784	33.2295
375.677	5.02051
378.57	2.94238
381.462	15.1065
384.355	19.5713
387.248	6.34766
390.141	31.1514
393.033	22.3818
395.926	44.2627
398.819	58.2227
401.712	106.892
404.604	185.283
407.497	286.255
410.39	411.199
413.282	654.797
416.175	929.712
419.068	1183.58
421.96	1550.6
424.853	1913.29
427.746	2176.8
430.639	2109.82
433.531	1638.5
436.424	1309.02
439.317	1231.62
442.209	1220.07
445.102	1154.91
447.995	1017.46
450.887	843.321
453.78	651.667
456.673	472.944
459.566	350.623
462.458	222.602
465.351	158.977
468.244	94.1953
471.136	86.0273
474.029	72.6992
476.922	34.9082
479.815	51.7031
482.707	38.582
485.6	4.75586
488.493	13.7012
491.385	16.1172
494.278	35.8164
497.171	51.8555
500.063	59.8691
502.956	75.5938
505.849	46.0469
508.741	32.7695
511.634	50.4746
514.527	49.082
517.42	32.4727
520.312	22.541
523.205	2.4043
526.098	11.4395
528.99	6.53711
531.883	34.7715
534.776	31.1973
537.669	3.57031
540.561	22.9922
543.454	18.5762
546.347	61.6816
549.239	88.7227
552.132	95.3125
555.025	53.0059
557.918	110.096
560.81	131.928
563.703	228.885
566.596	353.853
569.488	505.363
572.381	709.121
575.274	1056.63
578.166	1479.8
581.059	1380.72
583.952	1196.26
586.845	1418.03
589.737	1494.68
592.63	1153.44
595.523	690.633
598.415	570.934
601.308	643.498
604.201	822.045
607.093	952.32
609.986	569.418
612.879	286.773
615.771	193.717
618.664	92.041
621.557	44.6426
624.45	21.2012
627.342	24.4531
630.235	40.7285
633.128	62.6074
636.02	45.7305
638.913	1.02344
641.806	14.1934
644.699	14.2051
647.591	23.5664
650.484	5.08203
653.377	42.3066
656.269	38.9863
659.162	118.191
662.055	117.959
664.947	109.113
667.84	67.0078
670.733	68.3359
673.626	89.4434
676.518	44.7871
679.411	27.1777
682.304	60.502
685.197	24.3945
688.089	34.1582
690.982	30.4512
693.875	29.2422
696.767	71.9902
699.66	111.637
702.553	91.8984
705.445	36.2734
708.338	12.8965
711.231	51.8242
714.124	86.7402
717.016	110.016
719.909	71.916
722.802	65.9883
725.694	75.3047
728.587	67.0586
731.48	28.7383
734.372	69.3731
737.265	69.1523
740.158	131.109
743.051	107.904
745.943	114.102
748.836	37.125
751.729	7.35352
754.621	14.1152
757.514	33.7949
760.407	77.4434
763.299	103.576
766.192	71.9609
769.085	13.8594
771.977	43.4531
774.87	81.4394
777.763	19.8965
780.656	80.8731
783.548	120.199
786.441	130.738
789.334	46.3164
792.226	58.5
795.119	28.3379
798.012	9.8457
800.905	74.0449
803.797	57.6895
806.69	92.2188
809.583	106.639
812.475	33.8223
815.368	0.003906
818.261	1.43555
821.154	44.7812
824.046	21.1094
826.939	110.482
829.832	105.324
832.724	86.7617
835.617	79.2969
838.51	57.0801
841.403	133.066
844.295	66.2754
847.188	28.5371
850.081	20.8984
852.973	90.0098
855.866	98.0371
858.759	27.3184
861.651	23.1348
864.544	8.33594
867.437	27.0332
870.33	70.0137
873.222	50.8809
876.115	10.8262
879.008	0.3125
881.9	10.7598
884.793	27.8008
887.686	62.1484
890.578	3.61914
893.471	16.7578
896.364	0.029297
899.256	79.7578
902.149	153.178
905.042	173.059
907.935	108.789
910.827	133.555
913.72	194.117
916.613	247.996
919.505	185.043
922.398	140.977
925.291	119.688
928.184	117.856
931.076	130.906
933.969	265.57
936.862	356.356
939.754	527.051
942.647	733.016
945.54	1300.48
948.433	2710.56
951.325	5981.97
954.218	8954.23
957.111	13248.4
960.003	20390.6
962.896	22284.8
965.789	8290.23
968.682	2846.88
971.574	1181.74
974.467	606.231
977.36	421.441
980.252	285.379
983.145	239.25
986.038	136.508
988.93	83.6289
991.823	50.6719
994.716	13.4219
997.609	76.9805
1000.5	119.531
1003.39	31.2656
1006.29	20.7578
1009.18	25.0977
1012.07	24.9492
1014.97	55.8516
1017.86	134.137
1020.75	335.754
1023.64	483.144
1026.54	629.109
1029.43	722.422
1032.32	649.426
1035.21	820.062
1038.11	1059.74
1041	1211.35
1043.89	1208.07
1046.78	1274.65
1049.68	1097.46
1052.57	772.195
1055.46	694.004
1058.36	476.703
1061.25	310.68
1064.14	327.387
1067.03	426.539
1069.93	599.633
1072.82	651.519
1075.71	769.742
1078.6	462.863
1081.5	166.684
1084.39	57.6484
1087.28	79.75
1090.17	60.1055
1093.07	91.1172
1095.96	56.4492
1098.85	93.3945
1101.75	102.324
1104.64	3.83984
1107.53	26.8047
1110.42	16.5859
1113.32	70.0352
1116.21	87.5938
1119.1	43.0195
1121.99	41.9141
1124.89	21.0469
1127.78	107.727
1130.67	79.4805
1133.57	124.113
1136.46	35.6914
1139.35	55.0117
1142.24	65.6094
1145.14	117.078
1148.03	193.809
1150.92	103.227
1153.81	59.5078
1156.71	22.0625
1159.6	4.46094
1162.49	69.7148
1165.38	77.5742
1168.28	120.234
1171.17	132.34
1174.06	105.16
1176.96	92.7969
1179.85	7.67578
1182.74	22.5039
1185.63	15.6094
1188.53	120.172
1191.42	204.133
1194.31	72.0625
1197.2	148
1200.1	186.481
1202.99	141.082
1205.88	151.742
1208.78	132.969
1211.67	87.2734
1214.56	111.027
1217.45	111.316
1220.35	187.922
1223.24	187.106
1226.13	140.609
1229.03	150.473
1231.92	169.801
1234.81	150.148
1237.7	37.9062
1240.6	14.9336
1243.49	5.86328
1246.38	38.1172
1249.27	83.4141
1252.17	27.332
1255.06	38.6484
1257.95	111.918
1260.84	36.5977
1263.74	83.6172
1266.63	185.602
1269.52	281.137
1272.41	273.383
1275.31	211.332
1278.2	134.43
1281.09	40.9648
1283.99	0.414063
1286.88	95.4492
1289.77	118.195
1292.66	6.01562
1295.56	122.094
1298.45	46.2109
1301.34	24.4922
