Measurement: Raman, 785 nm, unoriented, Raman Data Processed
Mineral: Hydroxylherderite
Rruff sample: R050520
Ideal chemistry: CaBePO_4_(OH)
Locality: Virgem da Lapa, Minas Gerais, Brazil
Source: University of Arizona Mineral Museum
Description: White massive associated with a dark green tourmaline
Measured chemistry: Ca_1.00_Be_1.00_(P_1.00_O_4_)((OH)_0.53_F_0.47_)_Î£=1_ ; Be not measured but estimated by difference and charge balance
Raman shift (cm-1)	intensity
138.756	0
141.649	84.3528
144.542	25.8803
147.434	120.781
150.327	392.241
153.22	671.462
156.112	836.102
159.005	1147.31
161.898	1624.84
164.791	2677.99
167.683	3834
170.576	2284.15
173.469	842.167
176.361	738.105
179.254	1059.91
182.147	1726.52
185.039	1446.64
187.932	891.841
190.825	996.054
193.718	1677.73
196.61	2072.46
199.503	1012.74
202.396	445.417
205.288	162.015
208.181	31.6717
211.074	62.5575
213.966	18.8707
216.859	37.9452
219.752	203.106
222.644	424.347
225.537	443.162
228.43	203.351
231.322	28.9575
234.215	30.162
237.108	45.6456
240.001	23.0078
242.893	48.6639
245.786	114.632
248.679	164.604
251.571	293.927
254.464	462.053
257.357	492.714
260.25	442.761
263.142	317.837
266.035	372.469
268.928	471.477
271.82	571.91
274.713	342.7
277.606	132.85
280.498	60.1962
283.391	42.9813
286.284	39.4706
289.176	89.3637
292.069	211.299
294.962	328.098
297.855	418.256
300.747	593.126
303.64	585.678
306.533	511.213
309.425	423.483
312.318	322.756
315.211	349.678
318.103	332.454
320.996	395.874
323.889	528.683
326.782	549.234
329.674	507.927
332.567	560.371
335.46	568.219
338.352	601.856
341.245	536.026
344.138	438.082
347.031	414.702
349.923	391.557
352.816	373.41
355.709	217.021
358.601	155.196
361.494	29.6849
364.387	6.8147
367.279	17.0204
370.172	5.19067
373.065	9.43616
375.957	28.6936
378.85	8.14123
381.743	10.7988
384.636	7.8772
387.528	11.2618
390.421	46.9225
393.314	20.7517
396.206	59.3578
399.099	55.3866
401.992	77.3043
404.885	116.343
407.777	187.799
410.67	252.002
413.562	413.936
416.455	573.239
419.348	802.31
422.241	1233.44
425.133	1817.8
428.026	1936.18
430.919	1321.22
433.811	1174.71
436.704	1354.12
439.597	1728.65
442.49	2379.53
445.382	3574.44
448.275	4425.8
451.168	3344.08
454.06	1693
456.953	856.024
459.846	475.513
462.738	305.469
465.631	188.943
468.524	132.371
471.416	58.8131
474.309	8.31274
477.202	13.1439
480.095	9.12866
482.987	32.7671
485.88	35.6014
488.773	46.5107
491.665	28.9587
494.558	35.3883
497.451	36.35
500.344	106.698
503.236	278.025
506.129	583.565
509.022	985.468
511.914	1538.87
514.807	2529.37
517.7	4213.92
520.592	3970.65
523.485	1750.31
526.378	1101.27
529.27	1268.73
532.163	1739.58
535.056	1427.96
537.948	840.305
540.841	636.323
543.734	638.249
546.627	650.249
549.519	615.08
552.412	579.62
555.305	498.768
558.197	483.821
561.09	455.125
563.983	567.329
566.875	814.77
569.768	1151.59
572.661	1784.06
575.554	2580.64
578.446	3313.58
581.339	3935.03
584.232	4656.68
587.125	4952.25
590.017	4470.31
592.91	4151.15
595.803	4427.29
598.695	3898.81
601.588	2433.36
604.481	1457.39
607.373	992.817
610.266	714.226
613.159	566.57
616.052	454.479
618.944	422.334
621.837	317.731
624.73	181.116
627.622	148.167
630.515	131.146
633.408	152.775
636.3	133.517
639.193	131.751
642.086	65.5311
644.978	1.90613
647.871	33.2805
650.764	62.223
653.657	39.98
656.549	22.8969
659.442	26.2191
662.335	2.3949
665.227	69.4883
668.12	120.033
671.013	167.814
673.905	233.068
676.798	344.774
679.691	440.278
682.583	449.271
685.476	439.464
688.369	424.552
691.262	455.399
694.154	452.776
697.047	497.418
699.94	570.335
702.832	560.779
705.725	566.139
708.618	495.433
711.51	404.702
714.403	296.783
717.296	163.604
720.189	75.031
723.081	32.0037
725.974	45.1773
728.867	39.9569
731.759	11.0889
734.652	23.1792
737.545	33.469
740.437	37.7286
743.33	56.6837
746.223	99.0171
749.115	139.56
752.008	186.326
754.901	308.332
757.794	447.091
760.686	537.862
763.579	580.554
766.472	561.139
769.364	512.722
772.257	477.46
775.15	450.736
778.043	436.356
780.935	374.864
783.828	340.875
786.721	305.675
789.613	264.825
792.506	207.68
795.399	161.289
798.291	158.781
801.184	91.8644
804.077	57.6005
806.97	37.3068
809.862	43.1565
812.755	17.7162
815.648	4.77161
818.54	8.04144
821.433	12.9512
824.326	3.08197
827.218	3.52844
830.111	5.90808
833.004	12.3563
835.896	4.58618
838.789	1.28516
841.682	8.93176
844.575	2.41852
847.467	0.420898
850.36	7.74573
853.253	14.1589
856.145	12.5291
859.038	36.5547
861.931	55.6204
864.823	44.1633
867.716	61.7792
870.609	88.552
873.502	96.2311
876.394	94.2428
879.287	73.532
882.18	91.6016
885.072	101.045
887.965	127.93
890.858	136.602
893.75	170.074
896.643	208.307
899.536	241.578
902.429	266.853
905.321	249.775
908.214	238.748
911.107	229.057
913.999	214.985
916.892	189.461
919.785	155.552
922.678	75.4553
925.57	59.8403
928.463	21.3715
931.356	11.4572
934.248	8.3689
937.141	25.5948
940.034	1.63013
942.926	4.63013
945.819	21.505
948.712	53.0335
951.604	102.894
954.497	161.985
957.39	235.382
960.283	385.796
963.175	571.328
966.068	839.959
968.961	1324.67
971.853	2170.95
974.746	3532.06
977.639	5416.04
980.531	7454.51
983.424	9225.41
986.317	9571.49
989.21	8860.93
992.102	8350.52
994.995	8707.58
997.888	10054.2
1000.78	12030
1003.67	14117.3
1006.57	14102.1
1009.46	10621.4
1012.35	6851.65
1015.24	4526.37
1018.14	3192.2
1021.03	2479.7
1023.92	1998.38
1026.82	1681.21
1029.71	1382.92
1032.6	1039
1035.49	753.234
1038.38	460.425
1041.28	276.739
1044.17	189.604
1047.06	95.4994
1049.96	48.6007
1052.85	45.5732
1055.74	25.9254
1058.63	14.0671
1061.53	0.133972
1064.42	22.8904
1067.31	27.9155
1070.2	29.9755
1073.1	25.1256
1075.99	28.4041
1078.88	136.665
1081.78	293.498
1084.67	531.203
1087.56	582.335
1090.45	411.682
1093.35	216.763
1096.24	158.312
1099.13	139.064
1102.03	105.269
1104.92	90.093
1107.81	113.697
1110.7	112.113
1113.6	161.189
1116.49	248.901
1119.38	422.67
1122.27	804.977
1125.17	1273.89
1128.06	2076.62
1130.95	2254.41
1133.84	1499.78
1136.74	1301.13
1139.63	1808.78
1142.52	2173.32
1145.41	1316.85
1148.31	550.566
1151.2	235.617
1154.09	100.667
1156.99	53.1459
1159.88	15.3184
1162.77	17.9274
1165.66	0.201111
1168.56	21.7092
1171.45	12.0727
1174.34	9.43359
1177.23	6.08514
1180.13	7.17328
1183.02	12.1515
1185.91	1.68787
1188.81	0.738464
1191.7	4.74951
1194.59	10.7195
1197.48	29.4202
1200.38	67.6244
1203.27	34.661
1206.16	38.2288
1209.06	40.3899
1211.95	28.0395
1214.84	45.4846
1217.73	15.2712
1220.62	24.3756
1223.52	24.6014
1226.41	6.77625
1229.3	5.28644
1232.2	22.275
1235.09	1.01959
1237.98	14.2549
1240.87	5.66852
1243.77	11.1343
1246.66	14.8489
1249.55	15.8371
1252.44	1.08374
1255.34	14.1465
1258.23	1.31519
1261.12	14.298
1264.02	2.03058
