Measurement: Raman, 532 nm, unoriented, Raman Data Processed
Mineral: Hydroxylherderite
Rruff sample: R050520
Ideal chemistry: CaBePO_4_(OH)
Locality: Virgem da Lapa, Minas Gerais, Brazil
Source: University of Arizona Mineral Museum
Description: White massive associated with a dark green tourmaline
Measured chemistry: Ca_1.00_Be_1.00_(P_1.00_O_4_)((OH)_0.53_F_0.47_)_Î£=1_ ; Be not measured but estimated by difference and charge balance
Raman shift (cm-1)	intensity
117.863	0
121.238	222.766
124.613	1065.48
127.988	355.04
131.362	85.312
134.737	19.669
138.112	71.276
141.487	300.225
144.862	582.904
148.236	14.989
151.611	26.739
154.986	27.629
158.361	262.888
161.736	607.463
165.111	1718.98
168.485	3218.33
171.86	2672.68
175.235	655.416
178.61	539.814
181.985	964.186
185.359	1260.36
188.734	607.977
192.109	878.939
195.484	1912.74
198.859	2141.36
202.234	793.275
205.608	357.61
208.983	129.194
212.358	0.328
215.733	26.456
219.108	72.538
222.482	410.573
225.857	592.064
229.232	208.423
232.607	34.956
235.982	42.26
239.357	33.208
242.731	5.465
246.106	23.523
249.481	126.678
252.856	291.523
256.231	454.027
259.605	314.903
262.98	293.231
266.355	259.34
269.73	421.428
273.105	526.26
276.479	328.592
279.854	107.267
283.229	64.376
286.604	78.233
289.979	103.905
293.353	262.432
296.728	422.562
300.103	722.092
303.478	588.583
306.853	546.008
310.228	425.132
313.602	356.889
316.977	362.442
320.352	344.486
323.727	442.279
327.102	523.445
330.477	597.519
333.851	783.304
337.226	941.161
340.601	883.754
343.976	616.102
347.351	482.63
350.725	425.445
354.1	316.603
357.475	229.854
360.85	98.402
364.225	15.75
367.599	0.72
370.974	4.39
374.349	21.746
377.724	26.381
381.099	4.147
384.474	32.496
387.848	76.35
391.223	15.537
394.598	2.06
397.973	56.847
401.348	75.081
404.723	107.579
408.097	220.538
411.472	270.779
414.847	420.988
418.222	755.586
421.597	1422.8
424.971	2481.05
428.346	2713.13
431.721	1399.22
435.096	1144.6
438.471	1479.29
441.845	2380.91
445.22	4405.57
448.595	6336.14
451.97	4062.57
455.345	1703.55
458.72	837.931
462.094	476.934
465.469	278.825
468.844	149.41
472.219	100.048
475.594	18.838
478.969	41.305
482.343	4.972
485.718	74.5
489.093	15.746
492.468	48.273
495.843	0.017
499.217	56.966
502.592	164.647
505.967	422.914
509.342	1185.24
512.717	2292.87
516.091	5240.7
519.466	8124.78
522.841	2504.93
526.216	1097.14
529.591	1340.01
532.966	2100.07
536.34	1225.53
539.715	651.319
543.09	749.037
546.465	769.463
549.84	814.192
553.214	808.711
556.589	622.17
559.964	567.876
563.339	408.432
566.714	857.516
570.089	1065.86
573.463	2092.1
576.838	3316.83
580.213	3967.54
583.588	5017.88
586.963	5727.99
590.338	4509.38
593.712	3763.89
597.087	3595.39
600.462	1973.96
603.837	1111.89
607.211	736.166
610.586	498.095
613.961	401.885
617.336	371.059
620.711	262.812
624.086	117.675
627.46	63.5
630.835	58.265
634.21	83.205
637.585	137.049
640.96	54.496
644.334	35.381
647.709	64.101
651.084	4.731
654.459	44.591
657.834	11.438
661.209	6.805
664.583	81.841
667.958	127.006
671.333	236.759
674.708	389.216
678.083	546.866
681.458	596.922
684.832	579.327
688.207	674.649
691.582	644.836
694.957	720.516
698.332	741.238
701.706	878.744
705.081	821.993
708.456	796.265
711.831	543.685
715.206	416.09
718.581	294.796
721.955	257.694
725.33	164.066
728.705	139.348
732.08	65.082
735.455	125.604
738.829	167.389
742.204	241.228
745.579	295.373
748.954	308.483
752.329	435.889
755.703	680.952
759.078	907.208
762.453	981.465
765.828	958.22
769.203	817.747
772.578	645.519
775.952	589.378
779.327	530.943
782.702	370.764
786.077	314.712
789.452	333.345
792.826	250.146
796.201	181.248
799.576	130.722
802.951	125.575
806.326	22.353
809.701	71.419
813.075	78.836
816.45	55.328
819.825	35.246
823.2	81.036
826.575	107.737
829.95	45.573
833.324	81.6
836.699	32.999
840.074	0.725
843.449	22.623
846.824	19.489
850.198	0.187
853.573	63.057
856.948	58.46
860.323	84.103
863.698	46.641
867.073	147.593
870.447	70.323
873.822	66.819
877.197	22.302
880.572	103.948
883.947	223.786
887.321	123.832
890.696	187.94
894.071	210.588
897.446	214.647
900.821	258.929
904.195	154.677
907.57	225.937
910.945	300.284
914.32	202.155
917.695	108.575
921.07	93.409
924.444	9.492
927.819	9.461
931.194	37.048
934.569	66.901
937.944	17.949
941.318	39.463
944.693	8.973
948.068	87.6
951.443	178.867
954.818	348.096
958.193	572.653
961.567	831.847
964.942	1374.49
968.317	2384.21
971.692	4208.03
975.067	7529.09
978.442	11681.9
981.816	14568.7
985.191	14251.1
988.566	12170.2
991.941	11317.6
995.316	12048.1
998.69	14950.7
1002.07	20317.2
1005.44	23591.3
1008.82	17078.3
1012.19	9467.02
1015.56	5955.67
1018.94	4306.81
1022.31	3605.92
1025.69	3084.05
1029.06	2460.56
1032.44	1903.52
1035.81	1232.46
1039.19	681.826
1042.56	403.945
1045.94	164.008
1049.31	255.477
1052.69	119.924
1056.06	73.602
1059.44	25.357
1062.81	78.104
1066.19	29.834
1069.56	43.209
1072.94	40.605
1076.31	108.078
1079.69	249.438
1083.06	769.189
1086.44	1065.18
1089.81	554.402
1093.18	276.115
1096.56	214.486
1099.93	193.879
1103.31	118.299
1106.68	170.25
1110.06	180.049
1113.43	287.082
1116.81	433.908
1120.18	836.217
1123.56	1708.35
1126.93	3606.55
1130.31	5191.56
1133.68	1749.52
1137.06	1581.05
1140.43	2712.84
1143.81	2003.12
1147.18	727.932
1150.56	332.354
1153.93	141.312
1157.31	138.229
1160.68	58.684
1164.06	76.305
1167.43	126.006
1170.81	69.732
1174.18	132.889
1177.56	24.584
1180.93	10.482
1184.31	41.158
1187.68	38.299
1191.06	8.73
1194.43	96.295
1197.81	15.439
1201.18	80.996
1204.55	110.754
1207.93	91.174
1211.3	109.307
1214.68	188.189
1218.05	101.215
1221.43	100.043
1224.8	78.641
1228.18	155.836
1231.55	148.15
1234.93	88.674
1238.3	257.713
1241.68	156.938
1245.05	62.91
1248.43	82.215
1251.8	51.826
1255.18	140.33
1258.55	109.729
1261.93	133.92
1265.3	38.77
1268.68	0.035
1272.05	120.172
1275.42	95.795
1278.8	241.703
1282.17	162.105
1285.55	26.424
1288.92	157.576
1292.3	86.465
1295.67	48.248
1299.05	94.768
