Measurement: Raman, 532 nm, unoriented, Raman Data Processed
Mineral: Hydroxylapatite
Rruff sample: R100225
Ideal chemistry: Ca_5_(PO_4_)_3_OH
Locality: Sapo mine, Goiabeira, Minas Gerais, Brazil
Source: Luiz Menezes
Description: Green hexagonal dipyramids
Raman shift (cm-1)	intensity
180.227	0
183.119	0.247131
186.012	0.676636
188.905	5.7818
191.798	20.4732
194.69	23.9934
197.583	22.4235
200.476	28.2193
203.369	24.5298
206.261	25.5771
209.154	29.293
212.047	25.3393
214.939	28.7595
217.832	27.1322
220.725	27.5797
223.617	29.6971
226.51	25.8965
229.403	22.1901
232.296	18.3414
235.188	12.9742
238.081	8.22437
240.974	16.2821
243.866	13.6739
246.759	10.5669
249.652	3.81152
252.544	4.78174
255.437	1.58728
258.33	1.96692
261.223	2.71338
264.115	5.37488
267.008	7.71838
269.901	9.22266
272.793	14.3696
275.686	2.18164
278.579	7.17896
281.471	5.45215
284.364	10.2136
287.257	13.4177
290.15	11.7967
293.042	8.86255
295.935	0.227173
298.828	3.07752
301.72	0.599121
304.613	0.591797
307.506	0.369873
310.399	7.33008
313.291	1.05383
316.184	2.91052
319.077	7.56604
321.969	1.48706
324.862	9.38513
327.755	6.65356
330.647	8.69238
333.54	10.587
336.433	2.14844
339.325	6.92786
342.218	1.3396
345.111	6.07996
348.004	6.22229
350.896	6.96863
353.789	5.88171
356.682	9.00635
359.574	4.15564
362.467	0.722168
365.36	3.55579
368.253	2.41528
371.145	1.98596
374.038	2.61621
376.931	8.36914
379.823	1.98291
382.716	1.03076
385.609	2.35022
388.502	2.56653
391.394	13.2849
394.287	5.94275
397.18	8.01599
400.072	8.01587
402.965	11.2804
405.858	9.63147
408.75	7.45422
411.643	1.42261
414.536	17.7998
417.428	31.887
420.321	44.3068
423.214	58.0923
426.107	85.8353
428.999	107.932
431.892	116.119
434.785	93.3675
437.677	68.4409
440.57	55.2882
443.463	49.8002
446.356	47.6598
449.248	33.3449
452.141	31.1923
455.034	17.5356
457.926	19.4456
460.819	5.64246
463.712	6.00915
466.604	8.58411
469.497	7.88977
472.39	11.9518
475.283	11.8155
478.175	6.39941
481.068	8.41577
483.961	3.2644
486.853	0.729004
489.746	2.40845
492.639	3.12671
495.531	9.34485
498.424	7.08142
501.317	3.75269
504.21	1.42493
507.102	5.21875
509.995	3.44604
512.888	7.07251
515.78	13.8979
518.673	5.97241
521.566	2.29126
524.458	5.36011
527.351	14.8252
530.244	1.78076
533.137	8.05493
536.029	1.5481
538.922	6.65942
541.815	0.230469
544.707	1.1499
547.6	2.49536
550.493	7.18628
553.386	8.96045
556.278	5.79639
559.171	8.70435
562.064	7.03027
564.956	10.6152
567.849	19.0076
570.742	28.4854
573.635	34.8594
576.527	55.5938
579.42	47.9558
582.313	42.3167
585.205	52.8179
588.098	62.374
590.991	70.7925
593.883	37.95
596.776	21.3862
599.669	18.5347
602.562	13.4448
605.454	13.6719
608.347	9.07349
611.24	13.48
614.132	16.843
617.025	10.645
619.918	5.80469
622.81	2.69458
625.703	5.19482
628.596	0.129639
631.489	2.29126
634.381	2.34741
637.274	10.1899
640.167	8.95532
643.059	14.6602
645.952	12.2446
648.845	2.19727
651.737	2.35693
654.63	6.49854
657.523	13.0493
660.416	11.24
663.308	12.5024
666.201	3.43726
669.094	6.68799
671.986	0.652344
674.879	5.23315
677.772	4.77368
680.664	8.48584
683.557	15.8235
686.45	12.6094
689.343	17.9624
692.235	16.8503
695.128	1.89795
698.021	10.0718
700.913	8.59009
703.806	12.8811
706.699	13.8821
709.592	19.5452
712.484	11.9695
715.377	14.792
718.27	8.29492
721.162	6.72754
724.055	2.50122
726.948	1.82959
729.841	0.545654
732.733	0.392822
735.626	3.58203
738.519	3.42383
741.411	6.55518
744.304	0.617188
747.197	2.45996
750.089	1.86231
752.982	1.49585
755.875	10.5049
758.768	4.57568
761.66	4.29126
764.553	7.32373
767.446	8.09717
770.338	10.593
773.231	6.12573
776.124	6.50977
779.016	8.73267
781.909	1.625
784.802	5.9519
787.694	1.81714
790.587	9.95435
793.48	7.33765
796.373	12.0598
799.265	10.8381
802.158	23.342
805.051	7.88794
807.943	11.4797
810.836	12.3018
813.729	17.115
816.621	12.5317
819.514	12.6213
822.407	17.9844
825.3	9.34717
828.192	1.86548
831.085	12.8384
833.978	1.87012
836.87	9.78369
839.763	4.00781
842.656	4.53955
845.549	5.84131
848.441	0.769043
851.334	5.17139
854.227	5.36914
857.119	8.31738
860.012	0.691406
862.905	3.70996
865.798	15.5505
868.69	8.69556
871.583	12.8352
874.476	13.73
877.368	12.0579
880.261	14.6284
883.154	13.9915
886.046	9.66284
888.939	8.65967
891.832	2.28955
894.725	3.79102
897.617	1
900.51	12.7349
903.403	14.75
906.295	7.26758
909.188	14.0513
912.081	9.3833
914.973	1.4563
917.866	6.50684
920.759	12.4827
923.652	16.9385
926.544	17.627
929.437	20.2832
932.33	13.6562
935.222	26.8174
938.115	25.7883
941.008	18.3955
943.9	35.9753
946.793	61.0979
949.686	121.727
952.579	235.782
955.471	379.217
958.364	671.513
961.257	1113.95
964.149	1110.06
967.042	460.212
969.935	180.25
972.827	79.1311
975.72	36.3208
978.613	22.6287
981.506	16.0252
984.398	12.665
987.291	0.357178
990.184	1.93237
993.077	1.98022
995.969	2.61328
998.862	0.428467
1001.75	8.01392
1004.65	2.78784
1007.54	1.6145
1010.43	5.49609
1013.33	9.1687
1016.22	9.07153
1019.11	15.4548
1022	14.9294
1024.9	14.5632
1027.79	31.0432
1030.68	36.5981
1033.57	38.0571
1036.47	48.5527
1039.36	56.0864
1042.25	68.1003
1045.14	73.7585
1048.04	75.9534
1050.93	55.2749
1053.82	44.2432
1056.72	31.7722
1059.61	26.9075
1062.5	23.5178
1065.39	17.7646
1068.29	17.8345
1071.18	29.5686
1074.07	24.7205
1076.96	24.6582
1079.86	22.8772
1082.75	19.6489
1085.64	13.936
1088.54	6.85522
1091.43	6.19971
1094.32	0.337891
1097.21	1.06787
1100.11	2.16821
1103	7.01367
1105.89	8.38892
1108.79	5.44043
1111.68	17.2854
1114.57	6.2019
1117.46	8.81665
1120.36	16.6697
1123.25	25.9348
1126.14	9.83911
1129.03	18.4294
1131.93	12.1343
1134.82	2.74756
1137.71	4.57861
1140.6	2.54053
1143.5	8.68506
1146.39	8.0022
1149.28	10.0637
1152.17	8.51855
1155.07	5.8208
1157.96	0.771484
1160.85	1.32007
1163.75	12.4326
1166.64	11.1167
1169.53	7.40479
1172.42	16.27
1175.32	11.1826
1178.21	8.33398
1181.1	4.12207
1183.99	10.9868
1186.89	10.7046
1189.78	1.30078
1192.67	16.3806
1195.57	11.5623
1198.46	13.0481
1201.35	11.8689
1204.24	7.39868
1207.14	1.16016
1210.03	2.78857
1212.92	13.2976
1215.82	14.9937
1218.71	10.6052
1221.6	4.80029
1224.49	8.73584
1227.38	18.6277
1230.28	1.53345
1233.17	14.2732
1236.06	4.19482
1238.96	2.55933
1241.85	5.85083
1244.74	3.50244
1247.63	5.21436
1250.53	4.67847
1253.42	4.37598
1256.31	3.34619
1259.2	15.449
1262.1	13.8784
1264.99	9.30444
1267.88	10.8889
1270.78	8.99316
1273.67	12.6174
1276.56	1.02734
1279.45	7.30664
1282.35	12.1206
1285.24	8.35254
1288.13	3.78516
1291.03	13.3438
1293.92	9.26221
1296.81	5.9231
1299.7	11.2297
1302.6	0
