Measurement: Raman, 532 nm, unoriented, Raman Data Processed
Mineral: Hydromagnesite
Rruff sample: R060011
Ideal chemistry: Mg_5_(CO_3_)_4_(OH)_2_4H_2_O
Locality: Paradise Range, Nye County, Nevada, USA
Source: University of Arizona Mineral Museum
Description: Colorless bladed crystals
Measured chemistry: Mg_5.00_(CO_3_)_4_(OH)_2_Â·4H_2_O
Raman shift (cm-1)	intensity
155.708	0
159.083	22.9237
162.458	66.291
165.833	75.4849
169.208	94.5794
172.582	38.1199
175.957	21.548
179.332	14.0576
182.707	59.6957
186.082	73.0769
189.456	144.961
192.831	264.321
196.206	411.685
199.581	612.699
202.956	615.44
206.331	346.763
209.705	147.776
213.08	45.3951
216.455	40.0358
219.83	107.605
223.205	182.995
226.579	201.856
229.954	167.218
233.329	181.056
236.704	172.079
240.079	273.899
243.453	356.874
246.828	419.12
250.203	349.07
253.578	250.673
256.953	215.072
260.328	252.168
263.702	261.811
267.077	287.809
270.452	199.033
273.827	108.947
277.202	18.4893
280.577	12.6371
283.951	16.4249
287.326	23.124
290.701	51.1118
294.076	83.8398
297.451	87.6054
300.825	25.044
304.2	13.4513
307.575	4.38654
310.95	19.7487
314.325	24.4942
317.7	35.6459
321.074	44.7933
324.449	50.382
327.824	57.6904
331.199	18.6013
334.574	38.5966
337.948	32.7201
341.323	6.80237
344.698	1.82068
348.073	0.322083
351.448	8.79651
354.822	23.1923
358.197	13.9221
361.572	31.3746
364.947	23.0877
368.322	34.2211
371.697	57.9294
375.071	53.5571
378.446	38.2174
381.821	7.14252
385.196	20.9128
388.571	3.69489
391.945	4.56574
395.32	11.0575
398.695	4.97986
402.07	26.2668
405.445	15.2474
408.82	20.008
412.194	17.719
415.569	23.0076
418.944	23.207
422.319	49.5194
425.694	36.0296
429.068	27.1295
432.443	33.2747
435.818	51.8263
439.193	49.8029
442.568	46.2508
445.943	52.1334
449.317	83.8226
452.692	68.5132
456.067	78.4883
459.442	142.538
462.817	127.344
466.192	143.964
469.566	118.023
472.941	99.8569
476.316	69.5669
479.691	64.3856
483.066	45.7723
486.44	32.2854
489.815	40.6837
493.19	5.91907
496.565	30.9492
499.94	7.5531
503.315	4.13
506.689	26.9561
510.064	15.2025
513.439	6.10559
516.814	9.26331
520.189	9.04565
523.563	12.4083
526.938	16.6314
530.313	14.2798
533.688	26.5829
537.063	38.8313
540.438	46.6759
543.812	50.9716
547.187	56.6274
550.562	43.3527
553.937	74.991
557.312	62.3085
560.686	74.103
564.061	83.5249
567.436	79.5922
570.811	95.0151
574.186	66.2683
577.561	81.5335
580.935	107.011
584.31	72.9115
587.685	50.3606
591.06	76.9356
594.435	35.2749
597.809	49.3796
601.184	30.7379
604.559	15.5287
607.934	31.6711
611.309	7.43823
614.683	23.8511
618.058	2.00891
621.433	9.11633
624.808	12.2181
628.183	8.24011
631.558	10.4653
634.932	26.6945
638.307	6.41248
641.682	19.2167
645.057	52.4219
648.432	37.3132
651.807	67.0619
655.181	77.1633
658.556	92.287
661.931	89.3735
665.306	50.1577
668.681	52.5049
672.055	57.2748
675.43	27.0433
678.805	24.1705
682.18	17.8574
685.555	15.6543
688.929	32.7208
692.304	30.3904
695.679	25.3889
699.054	48.3135
702.429	65.3289
705.804	91.3707
709.178	99.0127
712.553	122.223
715.928	151.942
719.303	205.692
722.678	263.893
726.053	274.275
729.427	232.287
732.802	140.529
736.177	111.965
739.552	74.6622
742.927	78.3087
746.302	95.6268
749.676	156.93
753.051	203.029
756.426	244.496
759.801	134.949
763.176	61.881
766.55	23.3154
769.925	37.3873
773.3	20.4198
776.675	4.73608
780.05	21.7834
783.424	0.490234
786.799	2.33618
790.174	12.0294
793.549	23.3475
796.924	17.0107
800.298	26.1689
803.673	5.31885
807.048	26.7492
810.423	19.089
813.798	12.718
817.173	22.9214
820.547	18.215
823.922	21.9706
827.297	26.6408
830.672	4.1095
834.047	12.5102
837.422	11.0336
840.796	6.56824
844.171	3.7832
847.546	28.8076
850.921	19.948
854.296	1.0636
857.67	33.3204
861.045	12.1901
864.42	27.9368
867.795	20.0508
871.17	7.92481
874.544	26.9819
877.919	29.4733
881.294	37.444
884.669	17.3074
888.044	10.7468
891.419	4.07983
894.793	14.0815
898.168	20.8881
901.543	2.06152
904.918	1.30774
908.293	0.393188
911.668	15.6685
915.042	14.0073
918.417	22.0491
921.792	13.8689
925.167	15.7961
928.542	33.2216
931.916	27.4269
935.291	22.0077
938.666	25.0414
942.041	59.5176
945.416	53.8911
948.79	56.6724
952.165	34.6132
955.54	37.1726
958.915	25.1202
962.29	46.4951
965.665	43.1328
969.039	13.493
972.414	27.9556
975.789	30.5533
979.164	32.7065
982.539	37.1179
985.913	25.125
989.288	18.1682
992.663	18.7401
996.038	5.28455
999.413	22.1902
1002.79	13.6355
1006.16	7.74817
1009.54	14.6187
1012.91	2.59241
1016.29	5.09338
1019.66	11.7408
1023.04	4.2688
1026.41	27.9575
1029.79	36.8907
1033.16	21.541
1036.54	18.8513
1039.91	34.0509
1043.29	6.98096
1046.66	43.4154
1050.04	51.2366
1053.41	67.5721
1056.79	66.6436
1060.16	83.5803
1063.53	90.1883
1066.91	120.996
1070.28	103.216
1073.66	141.933
1077.03	159.238
1080.41	171.132
1083.78	198.877
1087.16	258.612
1090.53	330.002
1093.91	424.74
1097.28	518.746
1100.66	702.759
1104.03	1020.33
1107.41	1891.91
1110.78	3940.06
1114.16	7062.13
1117.53	10003.6
1120.91	5571.39
1124.28	1992.51
1127.66	833.396
1131.03	449.105
1134.41	305.932
1137.78	186.002
1141.15	122.278
1144.53	94.0601
1147.9	75.0254
1151.28	54.6842
1154.65	33.5341
1158.03	22.1096
1161.4	2.50891
1164.78	34.4026
1168.15	3.26233
1171.53	50.5204
1174.9	10.3754
1178.28	16.6207
1181.65	8.37988
1185.03	16.6075
1188.4	6.89905
1191.78	2.52344
1195.15	11.788
1198.53	2.04089
1201.9	15.4128
1205.28	8.72082
1208.65	5.05078
1212.03	32.2012
1215.4	28.4132
1218.78	8.08227
1222.15	20.6759
1225.53	23.332
1228.9	38.0044
1232.28	2.70373
1235.65	44.5807
1239.03	11.6975
1242.4	35.794
1245.78	28.7214
1249.15	5.13574
1252.52	45.5074
1255.9	37.3066
1259.27	51.58
1262.65	22.2079
1266.02	41.7476
1269.4	49.0676
1272.77	30.2036
1276.15	15.3159
1279.52	33.9916
1282.9	48.389
1286.27	44.6266
1289.65	36.3959
1293.02	16.9112
1296.4	34.2247
1299.77	35.5443
1303.15	12.1249
1306.52	47.4153
1309.9	16.4842
1313.27	27.1763
1316.65	42.6328
