Measurement: Raman, 780 nm, unoriented, Raman Data Processed
Mineral: Hydrotungstite
Rruff sample: R120058
Ideal chemistry: WO_2_(OH)_2_H_2_O
Locality: Mundo Nuevo, La Libertad, Peru
Source: Bob Jenkins
Description: Greenish yellow cubes, associated with ferberite
Raman shift (cm-1)	intensity
98.8353	0
102.21	56.5313
105.585	181.791
108.96	209.727
112.335	160.415
115.709	65.5025
119.084	21.3569
122.459	4.54523
125.834	14.2085
129.209	130.299
132.583	152.893
135.958	37.6837
139.333	16.7442
142.708	29.6215
146.083	33.8473
149.458	11.5426
152.832	12.1935
156.207	28.4181
159.582	13.7843
162.957	7.35223
166.332	31.1996
169.706	42.4531
173.081	52.1584
176.456	74.7952
179.831	76.9737
183.206	110.566
186.581	133.042
189.955	161.5
193.33	205.257
196.705	253.813
200.08	311.05
203.455	383.978
206.829	437.599
210.204	440.771
213.579	421.289
216.954	416.155
220.329	426.063
223.703	431.324
227.078	446.537
230.453	477.338
233.828	489.298
237.203	450.998
240.578	366.371
243.952	303.308
247.327	274.445
250.702	273.659
254.077	297.54
257.452	346.162
260.827	412.012
264.201	489.181
267.576	496.572
270.951	443.569
274.326	384.67
277.701	347.852
281.075	320.205
284.45	271.091
287.825	193.41
291.2	125.744
294.575	67.2152
297.95	24.0306
301.324	2.57858
304.699	16.9165
308.074	18.32
311.449	9.91925
314.824	1.21234
318.198	17.1439
321.573	38.2566
324.948	59.2099
328.323	74.5794
331.698	64.2553
335.072	55.5129
338.447	61.2017
341.822	68.0119
345.197	91.9582
348.572	120.776
351.947	155.982
355.321	177.392
358.696	181.993
362.071	164.508
365.446	142.813
368.821	135.469
372.195	132.357
375.57	144.811
378.945	139.652
382.32	126.943
385.695	95.9034
389.07	81.1662
392.444	79.9863
395.819	99.6881
399.194	103.478
402.569	56.0822
405.944	21.9694
409.318	1.50738
412.693	1.45227
416.068	0.771973
419.443	1.48227
422.818	0.648056
426.192	1.35536
429.567	1.1512
432.942	2.3067
436.317	4.54451
439.692	3.77951
443.067	11.3965
446.441	12.2466
449.816	15.5289
453.191	18.2828
456.566	13.9221
459.941	11.5921
463.315	4.95958
466.69	4.19261
470.065	0.959045
473.44	3.56428
476.815	2.46744
480.19	1.93666
483.564	2.09621
486.939	1.18117
490.314	3.88296
493.689	3.99847
497.064	5.46405
500.438	10.0417
503.813	15.0226
507.188	21.9566
510.563	30.2105
513.938	33.3006
517.313	34.7991
520.687	34.0604
524.062	35.4079
527.437	39.3998
530.812	39.8233
534.187	46.3285
537.562	46.7038
540.936	44.0724
544.311	37.6693
547.686	31.9981
551.061	17.3567
554.436	8.69202
557.81	0.064728
561.185	7.28143
564.56	9.39539
567.935	11.9983
571.31	14.0666
574.684	9.90176
578.059	3.5253
581.434	0.255585
584.809	6.28546
588.184	14.7848
591.559	24.5154
594.933	33.7216
598.308	49.4348
601.683	64.4297
605.058	77.4017
608.433	99.738
611.808	123.463
615.182	151.57
618.557	191.712
621.932	235.917
625.307	301.169
628.682	383.778
632.056	483.331
635.431	611.916
638.806	764.927
642.181	935.054
645.556	1114.05
648.931	1271.21
652.305	1398.44
655.68	1441.95
659.055	1422.03
662.43	1361.6
665.805	1302.59
669.179	1279.42
672.554	1288.14
675.929	1316.92
679.304	1345.71
682.679	1321.73
686.053	1234.68
689.428	1083.67
692.803	911.538
696.178	735.242
699.553	578.309
702.928	432.757
706.302	321.881
709.677	237.797
713.052	171.531
716.427	124.882
719.802	89.3654
723.177	59.1033
726.551	38.4371
729.926	23.341
733.301	7.98682
736.676	3.29129
740.051	7.62387
743.425	11.5688
746.8	12.2482
750.175	10.0258
753.55	14.2861
756.925	4.72607
760.299	1.17542
763.674	18.4803
767.049	27.5771
770.424	35.8334
773.799	36.5812
777.173	32.5772
780.548	25.4519
783.923	18.7146
787.298	17.5844
790.673	14.7828
794.048	19.7184
797.422	17.952
800.797	15.6862
804.172	10.2564
807.547	8.76932
810.922	5.46622
814.297	1.82916
817.671	1.30933
821.046	0.468658
824.421	2.39615
827.796	2.0661
831.171	0.872589
834.545	0.629578
837.92	7.65097
841.295	16.7505
844.67	22.1682
848.045	37.2099
851.419	58.1158
854.794	93.4829
858.169	137.447
861.544	219.197
864.919	342.285
868.294	532.85
871.668	788.742
875.043	1108.66
878.418	1389.71
881.793	1457.94
885.168	1185.75
888.543	688.191
891.917	352.972
895.292	188.931
898.667	110.487
902.042	66.7828
905.417	44.3653
908.791	31.1659
912.166	25.8614
915.541	22.5332
918.916	27.9131
922.291	38.8917
925.665	56.8705
929.04	83.5152
932.415	122.624
935.79	176.218
939.165	290.209
942.54	503.529
945.914	875.188
949.289	1409.6
952.664	2341.73
956.039	3582.13
959.414	3038.21
962.788	1381.03
966.163	613.226
969.538	318.596
972.913	183.809
976.288	118.796
979.663	80.2087
983.037	56.0555
986.412	35.6662
989.787	17.58
993.162	7.5622
996.537	0.093826
999.911	2.90375
1003.29	5.14288
1006.66	3.87962
1010.04	1.53879
1013.41	3.06148
1016.79	2.2352
1020.16	0.630745
1023.53	0.732338
1026.91	2.46842
1030.29	5.98467
1033.66	8.26169
1037.03	9.92048
1040.41	12.0616
1043.78	13.0768
1047.16	15.3569
1050.53	17.5423
1053.91	18.9565
1057.28	18.1337
1060.66	20.9203
1064.03	19.6802
1067.41	17.5863
1070.78	18.1366
1074.16	15.43
1077.53	15.2682
1080.91	11.8661
1084.28	11.391
1087.66	12.5055
1091.03	10.6675
1094.41	9.15792
1097.78	8.82178
1101.16	7.09769
1104.53	6.77399
1107.91	5.98353
1111.28	6.11433
1114.65	3.7184
1118.03	3.64855
1121.4	3.05168
1124.78	3.74783
1128.15	3.08022
1131.53	4.41867
1134.9	0.758911
1138.28	2.52093
1141.65	1.21759
1145.03	1.41561
1148.4	1.37361
1151.78	4.25623
1155.15	0.138527
1158.53	0.259716
1161.9	0.627274
1165.28	0.507339
1168.65	0.271614
1172.03	1.16229
1175.4	0.596455
1178.78	1.15104
1182.15	0.584747
1185.53	0.551155
1188.9	0.888474
1192.28	2.0641
1195.65	2.82111
1199.03	2.34382
1202.4	2.09245
1205.78	5.74737
1209.15	5.19919
1212.53	7.87904
1215.9	10.1252
1219.28	9.1136
1222.65	10.5128
1226.02	10.912
1229.4	8.05994
1232.77	9.52315
1236.15	8.94782
1239.52	6.44008
1242.9	5.04305
1246.27	4.39322
1249.65	1.96142
1253.02	4.13859
1256.4	1.06583
1259.77	2.05814
1263.15	0.960968
1266.52	1.00219
1269.9	0.323448
1273.27	3.88334
1276.65	5.22336
1280.02	5.02418
1283.4	0.135712
