Measurement: Raman, 780 nm, unoriented, Raman Data Processed
Mineral: Hydroxylapatite
Rruff sample: R100225
Ideal chemistry: Ca_5_(PO_4_)_3_OH
Locality: Sapo mine, Goiabeira, Minas Gerais, Brazil
Source: Luiz Menezes
Description: Green hexagonal dipyramids
Raman shift (cm-1)	intensity
161.477	0
164.369	0.347073
167.262	0.52652
170.155	1.10778
173.047	2.35135
175.94	2.61292
178.833	5.78735
181.726	4.78784
184.618	3.7524
187.511	3.33551
190.404	3.12413
193.296	3.51809
196.189	4.16113
199.082	4.77895
201.974	5.00771
204.867	6.44114
207.76	6.79462
210.652	5.10902
213.545	4.88812
216.438	6.78069
219.331	6.21418
222.223	8.5095
225.116	8.5021
228.009	8.93471
230.901	9.07581
233.794	4.31717
236.687	5.46738
239.579	3.79341
242.472	4.57742
245.365	2.4352
248.257	0.788136
251.15	0.478619
254.043	0.242985
256.936	0.348816
259.828	0.132706
262.721	3.6476
265.614	3.97237
268.506	5.3655
271.399	9.12004
274.292	10.1702
277.185	10.5046
280.077	11.0656
282.97	12.8194
285.863	14.1584
288.755	12.9281
291.648	9.93407
294.541	7.92272
297.433	7.36954
300.326	3.31488
303.219	4.44766
306.111	2.62201
309.004	4.00687
311.897	3.63325
314.79	3.07786
317.682	2.22677
320.575	4.19045
323.468	8.37066
326.36	8.57106
329.253	12.0579
332.146	14.0299
335.038	10.4437
337.931	6.88516
340.824	6.27135
343.717	3.06507
346.609	3.76402
349.502	0.209545
352.395	0.195198
355.287	0.265934
358.18	1.23079
361.073	2.40726
363.965	1.10122
366.858	0.459688
369.751	0.545914
372.644	1.71227
375.536	0.110182
378.429	0.791819
381.322	0.104639
384.214	0.226652
387.107	1.05017
390	2.29975
392.892	1.71239
395.785	3.97092
398.678	2.58182
401.57	5.69606
404.463	10.1355
407.356	15.1417
410.249	19.2114
413.141	27.509
416.034	38.9342
418.927	51.5264
421.819	68.6238
424.712	94.9385
427.605	124.419
430.498	130.013
433.39	105.352
436.283	83.8231
439.176	74.2437
442.068	77.3573
444.961	73.929
447.854	66.2985
450.746	54.1023
453.639	39.542
456.532	26.9262
459.425	19.8682
462.317	15.169
465.21	11.4966
468.103	9.91757
470.995	6.77535
473.888	5.72523
476.781	4.03416
479.673	3.91263
482.566	3.03642
485.459	2.76011
488.351	2.2742
491.244	2.27069
494.137	1.73793
497.029	0.595833
499.922	0.833229
502.815	1.35318
505.708	0.277485
508.6	0.078966
511.493	0.486628
514.386	1.97636
517.278	1.00367
520.171	0.085564
523.064	0.147696
525.957	1.51529
528.849	0.226957
531.742	0.360552
534.635	0.028357
537.527	0.646641
540.42	0.216709
543.313	0.917234
546.205	0.625832
549.098	0.376204
551.991	1.26978
554.884	2.96757
557.776	6.19019
560.669	6.11341
563.562	10.6301
566.454	18.462
569.347	21.809
572.24	33.4558
575.132	55.5396
578.025	83.1972
580.918	71.6709
583.811	48.2593
586.703	51.2159
589.596	65.4115
592.489	49.6657
595.381	24.3077
598.274	15.3797
601.167	13.9079
604.059	21.5246
606.952	22.9423
609.845	17.9226
612.737	19.7564
615.63	18.955
618.523	9.28112
621.416	4.53667
624.308	2.46801
627.201	0.925716
630.094	1.67544
632.986	0.808516
635.879	2.13588
638.772	1.87797
641.664	2.44372
644.557	1.93066
647.45	2.88459
650.342	1.30707
653.235	2.48221
656.128	0.094421
659.021	1.48399
661.913	0.217428
664.806	1.66544
667.699	0.078156
670.591	0.634369
673.484	0.26145
676.377	2.24561
679.269	1.67463
682.162	0.293594
685.055	0.323017
687.948	2.07757
690.84	1.17624
693.733	1.81652
696.626	1.93694
699.518	1.11226
702.411	3.49473
705.304	1.38905
708.197	1.10378
711.089	1.89897
713.982	3.15938
716.875	3.44973
719.767	3.92557
722.66	1.65583
725.553	1.15688
728.445	0.854965
731.338	3.00293
734.231	2.34993
737.124	1.94497
740.016	2.94539
742.909	0.678003
745.802	1.00964
748.694	1.91184
751.587	2.47955
754.48	1.18583
757.372	3.65277
760.265	2.32463
763.158	3.00667
766.051	2.23993
768.943	0.60696
771.836	0.504284
774.729	0.664001
777.621	1.88538
780.514	3.32184
783.407	1.79422
786.299	1.93908
789.192	2.23259
792.085	2.45518
794.977	0.935528
797.87	1.60065
800.763	2.27508
803.655	1.38418
806.548	1.44127
809.441	1.06493
812.334	1.50398
815.226	3.4165
818.119	2.17766
821.012	0.797665
823.904	0.719212
826.797	0.960785
829.69	2.23247
832.582	0.213551
835.475	1.74545
838.368	0.191032
841.261	2.43505
844.153	1.36405
847.046	1.65851
849.939	1.5756
852.831	1.80968
855.724	0.4548
858.617	2.01526
861.51	0.552349
864.402	2.02076
867.295	2.57755
870.188	0.48753
873.08	1.35398
875.973	1.27706
878.866	1.7411
881.758	0.839336
884.651	0.14827
887.544	2.04009
890.437	0.900066
893.329	0.379734
896.222	0.485638
899.115	1.46456
902.007	0.742561
904.9	1.19148
907.793	0.096806
910.685	1.31031
913.578	1.52528
916.471	2.88733
919.364	0.02879
922.256	4.00311
925.149	2.33873
928.042	4.68858
930.934	7.67709
933.827	8.94745
936.72	13.246
939.612	20.3503
942.505	35.5904
945.398	59.9499
948.29	112.652
951.183	200.937
954.076	284.923
956.968	453.341
959.861	837.915
962.754	979.69
965.647	388.031
968.539	135.615
971.432	59.5467
974.325	26.1776
977.217	12.3032
980.11	6.50712
983.003	3.43595
985.895	1.07688
988.788	0.07185
991.681	0.293823
994.574	0.702419
997.466	0.316811
1000.36	1.16317
1003.25	0.951633
1006.14	0.982628
1009.04	1.66204
1011.93	1.42873
1014.82	5.99011
1017.72	8.20216
1020.61	14.5018
1023.5	22.4376
1026.39	38.0849
1029.29	39.9666
1032.18	32.7953
1035.07	35.1605
1037.96	48.2418
1040.86	60.7108
1043.75	59.2509
1046.64	59.8421
1049.54	45.4283
1052.43	37.5747
1055.32	34.325
1058.21	24.9601
1061.11	17.253
1064	15.7632
1066.89	13.1471
1069.78	13.3975
1072.68	12.7521
1075.57	15.3631
1078.46	8.06744
1081.35	5.46187
1084.25	5.04892
1087.14	1.93913
1090.03	1.17567
1092.92	2.19078
1095.82	0.530094
1098.71	1.87556
1101.6	1.23834
1104.5	0.330978
1107.39	3.18229
1110.28	1.26574
1113.17	0.560318
1116.07	1.77794
1118.96	1.27489
1121.85	0.386742
1124.74	1.59656
1127.64	1.07418
1130.53	3.4652
1133.42	1.75694
1136.32	3.66876
1139.21	2.93319
1142.1	1.7553
1144.99	2.37566
1147.89	2.18392
1150.78	1.75771
1153.67	3.65573
1156.57	1.87689
1159.46	2.4036
1162.35	3.18005
1165.24	1.78948
1168.13	2.5079
1171.03	2.62263
1173.92	4.49522
1176.81	1.96608
1179.71	2.15815
1182.6	2.44498
1185.49	2.13271
1188.38	4.07163
1191.28	4.67303
1194.17	2.45901
1197.06	3.33617
1199.95	1.99876
1202.85	3.35024
1205.74	1.43537
1208.63	4.00579
1211.53	2.69392
1214.42	0.157722
1217.31	2.84228
1220.2	2.642
1223.1	1.26907
1225.99	3.11731
1228.88	0.474678
1231.78	0.912575
1234.67	0.307076
1237.56	0.065491
1240.45	1.36096
1243.35	2.37218
1246.24	1.40716
1249.13	1.36454
1252.02	1.63769
1254.92	2.06924
1257.81	3.68119
1260.7	1.03858
1263.59	2.04015
1266.49	0.220314
1269.38	0.495003
1272.27	0.092766
1275.16	1.18273
1278.06	0.860008
1280.95	2.65031
1283.84	0.138809
