Measurement: Raman, 785 nm, unoriented, Raman Data Processed
Mineral: Hydroboracite
Rruff sample: R060866
Ideal chemistry: CaMg[B_3_O_4_(OH)_3_]_2_3H_2_O
Locality: Thompson mine, Death Valley, California, USA
Source: Michael Scott
Description: Tuft of colorless slender prismatic crystals
Measured chemistry: Ca_1.00_Mg_1.00_B_6_O_8_(OH)_6_Â·3H_2_O ; B and H not measured but assumed by stoichiometry and verified by Raman
Raman shift (cm-1)	intensity
144.669	0
147.562	5882.69
150.454	8679.19
153.347	3551.61
156.24	3.38672
159.132	1.17969
162.025	2489.15
164.918	6306.17
167.811	10252.4
170.703	12655.3
173.596	9576.5
176.489	11608.5
179.381	7519.26
182.274	3589.15
185.167	3183.89
188.06	3169.05
190.952	3328.96
193.845	4345.96
196.738	5770.07
199.63	3013.02
202.523	1607.42
205.416	1367.5
208.308	1455.43
211.201	2360.11
214.094	4001.7
216.987	3965.55
219.879	2916.62
222.772	1318.85
225.665	522.445
228.557	383.894
231.45	815.707
234.343	2010.82
237.235	3703.85
240.128	6328.07
243.021	7074.94
245.913	3504.05
248.806	1759.1
251.699	2569.32
254.592	4919.25
257.484	7945.17
260.377	8932.45
263.27	3329.2
266.162	951.078
269.055	141.414
271.948	360.051
274.841	64.3633
277.733	414.422
280.626	1754.24
283.519	2632.47
286.411	2359.93
289.304	848.352
292.197	57.4961
295.089	114.637
297.982	242.992
300.875	1133.62
303.767	1930.91
306.66	2007.32
309.553	2188.95
312.446	2810.06
315.338	4661.05
318.231	7578.93
321.124	8516
324.016	5482.91
326.909	3401.38
329.802	2264.59
332.695	1617.38
335.587	1243.63
338.48	1062.14
341.373	468.609
344.265	359.582
347.158	393.703
350.051	482.848
352.943	339.668
355.836	23.6797
358.729	323.828
361.622	68.7227
364.514	235.504
367.407	514.16
370.3	240.68
373.192	641.481
376.085	859.113
378.978	867.988
381.87	1415.27
384.763	1603.06
387.656	1358.41
390.549	1478.69
393.441	1513.25
396.334	1567.77
399.227	1589.04
402.119	1296.91
405.012	1387.19
407.905	1761.32
410.798	2672.76
413.69	3724.75
416.583	5027.64
419.476	5887.69
422.368	8237.94
425.261	11011.5
428.154	10028
431.046	5933.95
433.939	2916.03
436.832	1529.28
439.724	1090.37
442.617	1088.95
445.51	899.387
448.403	945.695
451.295	719.176
454.188	770.066
457.081	596.148
459.973	342.289
462.866	263.668
465.759	217.758
468.651	53.4609
471.544	1.03516
474.437	8.05469
477.33	84.2812
480.222	235.758
483.115	477.746
486.008	660.809
488.9	536.066
491.793	269.957
494.686	21.9453
497.579	44.8984
500.471	0.214844
503.364	79.6602
506.257	26.3125
509.149	144.199
512.042	532.219
514.935	708.047
517.827	1043.93
520.72	1159.82
523.613	1797.98
526.505	2580.03
529.398	2090.52
532.291	1428.82
535.184	1677.94
538.076	1658.3
540.969	1641.27
543.862	2610.7
546.754	4957.95
549.647	8068.76
552.54	6254.15
555.433	3086.91
558.325	1418.54
561.218	1217.27
564.111	1297.19
567.003	1411.75
569.896	702.051
572.789	212.004
575.681	69.3047
578.574	75.6562
581.467	386.488
584.36	525.926
587.252	161.035
590.145	156.867
593.038	66.0547
595.93	378.016
598.823	718.644
601.716	1115.71
604.609	1506.18
607.501	1993.55
610.394	1912.72
613.287	1732.33
616.179	1379.23
619.072	1121.29
621.965	882.176
624.857	818.832
627.75	656.996
630.643	657.285
633.535	922.172
636.428	1197.57
639.321	1198.64
642.214	1194.63
645.106	1482.36
647.999	1367.31
650.892	1550.56
653.784	1710.54
656.677	1715.1
659.57	1689.87
662.462	1361.62
665.355	1064.41
668.248	754.363
671.141	764.633
674.033	573.762
676.926	474.602
679.819	315.961
682.711	41.1758
685.604	22.5195
688.497	139.152
691.389	77.543
694.282	127.281
697.175	178.801
700.068	85.2852
702.96	76.5742
705.853	13.1836
708.746	39.5664
711.638	24.1484
714.531	195.301
717.424	352.316
720.317	413.062
723.209	437.738
726.102	317.016
728.995	431.231
731.887	489.719
734.78	741.016
737.673	1172.82
740.565	1576.03
743.458	2271.93
746.351	3175.85
749.244	5332.91
752.136	7701.25
755.029	9562.77
757.922	8292.19
760.814	5294.81
763.707	3300.53
766.6	2039.45
769.492	1508.36
772.385	1193.01
775.278	829.305
778.17	481.371
781.063	364.535
783.956	304.902
786.849	501.336
789.741	363.727
792.634	208.398
795.527	173.805
798.419	17.4102
801.312	70.1289
804.205	17.2422
807.097	64.6367
809.99	246.613
812.883	252.863
815.776	222.125
818.668	228.719
821.561	112.301
824.454	307.305
827.346	416.41
830.239	627.086
833.132	1004.47
836.024	1416.71
838.917	1647.17
841.81	1641.87
844.703	1277.44
847.595	832.547
850.488	499.453
853.381	308.527
856.273	269.707
859.166	305.016
862.059	342.797
864.952	355.672
867.844	533.332
870.737	719.394
873.63	942.914
876.522	1134.73
879.415	1025.92
882.308	1194.26
885.2	1051.04
888.093	981.606
890.986	699.578
893.879	577.289
896.771	357.094
899.664	186.301
902.557	239.027
905.449	187.027
908.342	91.7617
911.235	177.367
914.127	175.59
917.02	196.25
919.913	132.848
922.806	112.32
925.698	52.457
928.591	165.242
931.484	173.25
934.376	315.644
937.269	271.969
940.162	452.701
943.054	372.387
945.947	505.834
948.84	403.379
951.732	381.889
954.625	358.512
957.518	221.635
960.411	302.424
963.303	311.326
966.196	350.144
969.089	192.219
971.981	267.867
974.874	228.978
977.767	81.5527
980.659	37.8027
983.552	90.9414
986.445	128.527
989.338	138.795
992.23	141.353
995.123	143.815
998.016	237.527
1000.91	429.922
1003.8	282.678
1006.69	363.088
1009.59	339.137
1012.48	353.766
1015.37	513.984
1018.26	464.879
1021.16	443.707
1024.05	304.336
1026.94	381.908
1029.84	566.211
1032.73	612.436
1035.62	379.82
1038.51	374.26
1041.41	561.543
1044.3	387.545
1047.19	403.836
1050.08	280.295
1052.98	145.662
1055.87	195.562
1058.76	150.967
1061.65	113.481
1064.55	18.1211
1067.44	50.9805
1070.33	1.83203
1073.23	169.078
1076.12	182.295
1079.01	255.941
1081.9	500.898
1084.8	259.668
1087.69	315.33
1090.58	308.793
1093.47	297.785
1096.37	383.09
1099.26	293.955
1102.15	212.309
1105.05	90.582
1107.94	48.0352
1110.83	69.4746
1113.72	285.459
1116.62	302.797
1119.51	327.393
1122.4	259.621
1125.3	497.328
1128.19	704.939
1131.08	886.219
1133.97	1115.03
1136.87	1397.1
1139.76	1769.86
1142.65	2587.53
1145.54	2008.59
1148.44	1875.37
1151.33	1544.71
1154.22	1231.44
1157.11	942.856
1160.01	764.6
1162.9	403.807
1165.79	583.961
1168.68	268.576
1171.58	226.174
1174.47	107.947
1177.36	195.555
1180.26	42.4805
1183.15	1.20703
1186.04	148.742
1188.93	38.9023
1191.83	73.9746
1194.72	194.519
1197.61	195.26
1200.51	228.99
1203.4	47.4727
1206.29	88.3535
1209.18	126.373
1212.08	61.5605
1214.97	182.793
1217.86	185.715
1220.75	133.666
1223.65	386.609
1226.54	378.199
1229.43	251.566
1232.32	330.414
1235.22	298.426
1238.11	108.889
1241	145.041
1243.89	183.81
1246.79	118.731
1249.68	26.0039
1252.57	115.453
1255.47	27.2949
1258.36	54.5762
1261.25	91.2031
1264.14	225.039
1267.04	113.211
1269.93	208.92
1272.82	0
