Measurement: Raman, 532 nm, unoriented, Raman Data Processed
Mineral: Ilesite
Rruff sample: R080073
Ideal chemistry: Mn^2+^S^6+^O_4_4H_2_O
Locality: McDonnell claim, Hell's Valley, Park County, Colorado, USA
Source: Michael Scott
Description: Pale greenish granular associated with copiapite and barite
Raman shift (cm-1)	intensity
150.69	0
153.582	19.3545
156.475	185.849
159.368	174.873
162.26	131.676
165.153	279.204
168.046	462.338
170.939	384.717
173.831	429.085
176.724	300.011
179.617	288.413
182.509	265.274
185.402	290.227
188.295	304.54
191.187	241.999
194.08	179.192
196.973	154.874
199.865	42.5088
202.758	14.0586
205.651	15.5625
208.544	21.7451
211.436	52.5947
214.329	16.6748
217.222	63.669
220.114	70.7852
223.007	149.936
225.9	124.972
228.792	126.864
231.685	120.839
234.578	1.63379
237.471	66.4424
240.363	30.5576
243.256	77.1123
246.149	17.4844
249.041	67.6367
251.934	116.799
254.827	182.84
257.719	199.195
260.612	245.9
263.505	265.346
266.398	336.489
269.29	423.338
272.183	505.772
275.076	674.034
277.968	809.12
280.861	920.969
283.754	1042.65
286.647	1064.67
289.539	1218.1
292.432	1302.81
295.325	1340.62
298.217	1334.22
301.11	1377.43
304.003	1345.62
306.895	1283.86
309.788	1083.33
312.681	906.884
315.574	758.502
318.466	634.781
321.359	509.987
324.252	433.49
327.144	301.864
330.037	239.435
332.93	194.156
335.822	141.345
338.715	152.514
341.608	65.8731
344.5	20.3057
347.393	6.22559
350.286	80.5557
353.179	76.4473
356.071	131.855
358.964	66.4844
361.857	122.446
364.749	39.54
367.642	70.9863
370.535	51.1768
373.428	71.8643
376.32	35.0996
379.213	58.168
382.106	19.709
384.998	7.41992
387.891	1.2832
390.784	4.66406
393.676	14.9834
396.569	40.8555
399.462	26.2412
402.354	41.6309
405.247	18.8389
408.14	59.0039
411.033	41.3047
413.925	118.356
416.818	150.7
419.711	182.043
422.603	243.188
425.496	213.413
428.389	253.17
431.281	312.551
434.174	395.216
437.067	397.317
439.96	446.506
442.852	505.05
445.745	658.079
448.638	708.592
451.53	861.98
454.423	910.254
457.316	1131.51
460.209	1071.04
463.101	979.909
465.994	814.286
468.887	649.323
471.779	544.158
474.672	500.749
477.565	439.121
480.457	448.987
483.35	389.38
486.243	413.465
489.135	373.211
492.028	212.904
494.921	191.519
497.814	201.998
500.706	179.336
503.599	134.272
506.492	92.6055
509.384	89.376
512.277	131.565
515.17	109.818
518.063	96.9258
520.955	73.415
523.848	59.1611
526.741	11.6152
529.633	22.3604
532.526	58.7754
535.419	75.7793
538.312	35.6719
541.204	87.7393
544.097	95.2412
546.99	2.00977
549.882	32.4824
552.775	39.624
555.668	69.9092
558.56	6.27832
561.453	9.4707
564.346	6.29492
567.239	10.2432
570.131	3.47754
573.024	20.0752
575.917	2.38574
578.809	150.316
581.702	164.466
584.595	282.306
587.487	286.432
590.38	310.669
593.273	395.13
596.165	386.281
599.058	369.126
601.951	341.461
604.843	301.827
607.736	342.108
610.629	308.767
613.522	295.207
616.414	269.211
619.307	329.481
622.2	322.22
625.092	361.698
627.985	358.079
630.878	388.924
633.77	432.852
636.663	432.676
639.556	473.56
642.449	452.005
645.341	361.624
648.234	276.521
651.127	211.176
654.019	248.696
656.912	257.979
659.805	232.202
662.697	305.783
665.59	279.062
668.483	184.293
671.376	189.972
674.268	141.19
677.161	190.818
680.054	84
682.946	58.1768
685.839	58.4795
688.732	55.8565
691.625	30.7666
694.517	4.19922
697.41	52.8057
700.303	77.3613
703.195	51.873
706.088	68.1367
708.981	77.875
711.873	19.1816
714.766	18.4004
717.659	20.9883
720.552	42.2266
723.444	8.52148
726.337	85.0254
729.23	53.0723
732.122	50.6953
735.015	32.832
737.908	55.1035
740.8	41.3887
743.693	60.918
746.586	33.4727
749.479	84.3242
752.371	22.7031
755.264	3.82031
758.157	26.1562
761.049	6.82617
763.942	66.5996
766.835	50.8613
769.727	37.1426
772.62	23.5117
775.513	85.2461
778.405	5.36328
781.298	55.7812
784.191	37.6035
787.084	98.1738
789.976	124.084
792.869	79.8242
795.762	38.7266
798.654	18.7812
801.547	43.0723
804.44	67.6992
807.332	45.748
810.225	85.4863
813.118	56.9609
816.011	43.5078
818.903	13.916
821.796	111.127
824.689	64.6992
827.581	54.9688
830.474	31.7305
833.367	23.3184
836.26	32.2285
839.152	92.457
842.045	48.4785
844.938	112.941
847.83	97.2852
850.723	42.8535
853.616	57.793
856.508	129.125
859.401	70.1113
862.294	59.0488
865.187	137.272
868.079	117
870.972	103.66
873.865	77.0547
876.757	76.9199
879.65	108.244
882.543	89.6504
885.435	100.268
888.328	103.873
891.221	137.293
894.114	81.1777
897.006	180.518
899.899	159.094
902.792	144.121
905.684	131.656
908.577	141.885
911.47	121.561
914.362	31.9062
917.255	64.2969
920.148	150.115
923.04	75.5137
925.933	103.611
928.826	110.969
931.719	63.8359
934.611	13.3867
937.504	31.7051
940.397	3.18945
943.289	33.1074
946.182	7.92188
949.075	41.0215
951.967	84.7129
954.86	11.957
957.753	20.459
960.646	30.1738
963.538	71.4238
966.431	15.498
969.324	21.3906
972.216	13.9688
975.109	35.5391
978.002	85.1367
980.894	128.367
983.787	152.279
986.68	278.684
989.573	367.033
992.465	350.201
995.358	459.084
998.251	536.26
1001.14	562.479
1004.04	662
1006.93	855.481
1009.82	1018.47
1012.71	1282.06
1015.61	1536.34
1018.5	1975.14
1021.39	2329.39
1024.29	2824.39
1027.18	3196.72
1030.07	3481.09
1032.96	3451.11
1035.86	3208.53
1038.75	2841.7
1041.64	2344.52
1044.53	2017.47
1047.43	1671.53
1050.32	1524.65
1053.21	1281.65
1056.11	1277.24
1059	1211.96
1061.89	1152.71
1064.78	1034.58
1067.68	973.387
1070.57	843.549
1073.46	826.336
1076.35	895.061
1079.25	937.33
1082.14	1007.35
1085.03	1160.92
1087.92	1232.41
1090.82	1287.09
1093.71	1209.72
1096.6	1027.39
1099.49	819.695
1102.39	659.033
1105.28	469.531
1108.17	429.57
1111.07	314.602
1113.96	329.49
1116.85	227.674
1119.74	256.861
1122.64	154.697
1125.53	59.8027
1128.42	15.4707
1131.32	9.19141
1134.21	11.9883
1137.1	0.501953
1139.99	30.7422
1142.89	45.1484
1145.78	50.6895
1148.67	11.8711
1151.56	51.8418
1154.46	26.2676
1157.35	68.9043
1160.24	25.5234
1163.13	74.3281
1166.03	150.619
1168.92	180.545
1171.81	164.875
1174.7	195.162
1177.6	214.422
1180.49	261.094
1183.38	149.949
1186.28	141.803
1189.17	138.426
1192.06	204.857
1194.95	160.744
1197.85	76.2559
1200.74	95.3496
1203.63	39.5977
1206.53	83.3574
1209.42	62.6113
1212.31	174.68
1215.2	77.3809
1218.1	95.8223
1220.99	59.1191
1223.88	47.9863
1226.77	49.8613
1229.67	76.1816
1232.56	128.756
1235.45	115.393
1238.35	55.9961
1241.24	17.9043
1244.13	43.5449
1247.02	130.283
1249.92	210.514
1252.81	232.883
1255.7	327.4
1258.59	281.193
1261.49	314.32
1264.38	432.973
1267.27	306.609
1270.16	343.906
1273.06	238.637
1275.95	238.957
1278.84	178.695
1281.73	191.949
1284.63	132.723
1287.52	129.947
1290.41	102.522
1293.31	54.1465
1296.2	1.2168
1299.09	85.6562
1301.98	29.3281
1304.88	0
