Measurement: Raman, 785 nm, unoriented, Raman Data Processed
Mineral: Ilesite
Rruff sample: R070494
Ideal chemistry: Mn^2+^SO_4_4H_2_O
Locality: Chvaletice, Pardubice Region, Bohemia (BÃ¶hmen; Boehmen), Czech Republic
Source: Michael Scott
Description: Granular white microcrystals associated with prismatic gypsum crystals
Raman shift (cm-1)	intensity
151.773	0
154.666	29.6991
157.558	49.8569
160.451	34.0155
163.344	107.49
166.237	55.4374
169.129	72.7148
172.022	5.73859
174.915	4.96509
177.807	11.3194
180.7	12.9966
183.593	34.5796
186.485	90.4073
189.378	120.949
192.271	181.329
195.163	210.244
198.056	248.462
200.949	273.018
203.842	312.406
206.734	302.764
209.627	261.37
212.52	245.18
215.412	242.046
218.305	175.9
221.198	154.124
224.09	86.594
226.983	64.488
229.876	49.1893
232.769	16.3271
235.661	4.72711
238.554	16.8564
241.447	11.6589
244.339	32.3633
247.232	47.4588
250.125	100.032
253.018	161.175
255.91	214.98
258.803	271.13
261.696	300.913
264.588	270.97
267.481	238.877
270.374	203.556
273.266	147.03
276.159	105.077
279.052	79.5324
281.945	66.2745
284.837	32.5186
287.73	49.0897
290.623	26.393
293.515	12.3507
296.408	22.3504
299.301	4.12445
302.193	15.1557
305.086	4.56177
307.979	28.7763
310.872	7.72784
313.764	8.50067
316.657	18.5618
319.55	24.9197
322.442	70.1153
325.335	57.7726
328.228	39.3385
331.12	24.8873
334.013	9.94281
336.906	6.89838
339.798	31.3119
342.691	62.54
345.584	50.6666
348.477	20.2469
351.369	9.91272
354.262	17.702
357.155	23.9779
360.047	10.6218
362.94	4.05157
365.833	6.48572
368.726	2.2511
371.618	13.4371
374.511	4.06598
377.404	19.4475
380.296	12.4097
383.189	3.88013
386.082	47.9191
388.974	31.3481
391.867	21.8644
394.76	7.61731
397.652	5.03119
400.545	7.10956
403.438	13.7747
406.331	49.6251
409.223	90.3843
412.116	147.935
415.009	271.808
417.901	408.572
420.794	588.014
423.687	824.916
426.579	936.267
429.472	840.676
432.365	579.826
435.258	348.348
438.15	230.452
441.043	124.031
443.936	99.8835
446.828	66.3773
449.721	80.3392
452.614	72.4481
455.507	92.3193
458.399	112.675
461.292	157.077
464.185	192.256
467.077	273.069
469.97	334.74
472.863	435.145
475.755	518.457
478.648	619.067
481.541	695.109
484.433	712.583
487.326	748.587
490.219	713.157
493.112	628.017
496.004	491.082
498.897	341.711
501.79	242.901
504.682	155.741
507.575	113.327
510.468	72.3016
513.361	60.811
516.253	41.3449
519.146	20.1907
522.039	2.51477
524.931	17.9501
527.824	16.3727
530.717	22.5891
533.609	12.1454
536.502	10.2369
539.395	0.583801
542.288	6.12189
545.18	13.5732
548.073	6.0036
550.966	1.58585
553.858	11.1332
556.751	5.98703
559.644	0.844513
562.536	13.3069
565.429	3.54553
568.322	4.62482
571.215	24.072
574.107	24.3673
577	21.6314
579.893	28.8341
582.785	33.0735
585.678	31.5779
588.571	38.313
591.463	55.7794
594.356	65.1649
597.249	74.1271
600.141	109.252
603.034	148.515
605.927	205.808
608.82	278.087
611.712	380.3
614.605	528.405
617.498	671.561
620.39	815.415
623.283	815.903
626.176	712.092
629.068	580.275
631.961	491.911
634.854	391.766
637.747	312.636
640.639	279.576
643.532	277.646
646.425	281.7
649.317	292.638
652.21	276.286
655.103	269.792
657.995	214.903
660.888	166.084
663.781	121.423
666.674	94.5952
669.566	55.3348
672.459	41.1413
675.352	33.7386
678.244	18.9133
681.137	7.17404
684.03	5.02164
686.923	4.4368
689.815	2.20425
692.708	15.1986
695.601	2.01465
698.493	9.86295
701.386	8.30518
704.279	13.1632
707.171	7.35455
710.064	16.5281
712.957	10.9964
715.85	3.38119
718.742	11.6821
721.635	21.7656
724.528	17.1426
727.42	9.69196
730.313	16.2845
733.206	3.16956
736.098	16.5354
738.991	12.1922
741.884	18.4506
744.777	2.3696
747.669	11.0647
750.562	18.1982
753.455	8.60596
756.347	10.4029
759.24	18.2087
762.133	17.3462
765.025	7.5954
767.918	4.07358
770.811	7.18546
773.703	0.486389
776.596	8.82922
779.489	8.28641
782.382	6.09201
785.274	5.46847
788.167	7.65451
791.06	12.7769
793.952	6.30298
796.845	3.5007
799.738	5.68304
802.63	10.8652
805.523	8.5802
808.416	6.56824
811.309	3.82672
814.201	12.1559
817.094	19.6889
819.987	14.0713
822.879	21.5049
825.772	8.98343
828.665	14.5787
831.558	28.1726
834.45	13.8423
837.343	39.2843
840.236	13.5399
843.128	36.7477
846.021	17.6168
848.914	10.0968
851.806	34.7616
854.699	31.2797
857.592	30.9742
860.485	50.3381
863.377	32.0638
866.27	38.1991
869.163	15.666
872.055	20.4168
874.948	18.3686
877.841	13.2939
880.733	22.8798
883.626	24.672
886.519	14.2052
889.412	14.8485
892.304	15.726
895.197	20.1717
898.09	31.8989
900.982	18.2634
903.875	25.4795
906.768	27.4131
909.66	21.6581
912.553	15.2734
915.446	14.5571
918.338	24.6166
921.231	9.27133
924.124	9.79767
927.017	18.3431
929.909	22.5093
932.802	10.1194
935.695	1.7742
938.587	25.7873
941.48	6.31161
944.373	3.91672
947.265	2.70703
950.158	6.32812
953.051	2.97376
955.944	7.67535
958.836	6.84476
961.729	5.77765
964.622	10.912
967.514	5.73044
970.407	18.0251
973.3	47.8688
976.192	73.204
979.085	135.553
981.978	206.427
984.871	186.271
987.763	118.189
990.656	112.002
993.549	124.25
996.441	161.777
999.334	214.339
1002.23	310.678
1005.12	413.671
1008.01	596.96
1010.9	882.305
1013.8	1279.14
1016.69	1881.02
1019.58	2479.55
1022.48	2897.6
1025.37	3000.81
1028.26	2776.93
1031.15	2346.19
1034.05	1816.54
1036.94	1230.8
1039.83	839.812
1042.72	503.82
1045.62	314.353
1048.51	186.212
1051.4	108.333
1054.3	62.4987
1057.19	7.8334
1060.08	11.5242
1062.97	17.2776
1065.87	15.3058
1068.76	34.8406
1071.65	56.9933
1074.54	122.789
1077.44	160.698
1080.33	253.815
1083.22	309.656
1086.12	362.817
1089.01	414.614
1091.9	417.332
1094.79	384.103
1097.69	378.662
1100.58	328.334
1103.47	287.819
1106.36	216.187
1109.26	166.466
1112.15	113.889
1115.04	87.1718
1117.93	65.3212
1120.83	37.554
1123.72	46.6082
1126.61	5.11963
1129.51	4.11319
1132.4	2.00934
1135.29	1.62763
1138.18	10.8036
1141.08	0.616669
1143.97	16.9569
1146.86	5.6113
1149.76	12.1663
1152.65	13.0677
1155.54	13.8291
1158.43	11.3609
1161.33	6.73935
1164.22	4.98218
1167.11	27.29
1170	27.4615
1172.9	38.8977
1175.79	46.8534
1178.68	73.3999
1181.57	97.4712
1184.47	139.579
1187.36	166.677
1190.25	206.428
1193.14	214.252
1196.04	195.797
1198.93	183.468
1201.82	148.851
1204.72	112.48
1207.61	89.9489
1210.5	68.053
1213.39	41.2276
1216.29	32.6315
1219.18	44.612
1222.07	21.7451
1224.96	48.2742
1227.86	22.423
1230.75	36.9453
1233.64	20.0312
1236.54	24.8454
1239.43	3.95999
1242.32	6.47098
1245.21	3.74985
1248.11	9.61639
1251	29.0734
1253.89	4.12949
1256.78	20.4663
1259.68	12.5533
1262.57	6.30987
