Measurement: Raman, 532 nm, unoriented, Raman Data Processed
Mineral: Ilesite
Rruff sample: R070494
Ideal chemistry: Mn^2+^SO_4_4H_2_O
Locality: Chvaletice, Pardubice Region, Bohemia (BÃ¶hmen; Boehmen), Czech Republic
Source: Michael Scott
Description: Granular white microcrystals associated with prismatic gypsum crystals
Raman shift (cm-1)	intensity
146.781	0
149.673	12.9076
152.566	85.3899
155.459	195.481
158.352	260.427
161.244	221.806
164.137	223.877
167.03	126.829
169.922	153.871
172.815	115.272
175.708	107.278
178.601	185.409
181.493	184.923
184.386	248.995
187.279	309.093
190.171	388.218
193.064	403.978
195.957	503.763
198.849	570.875
201.742	642.303
204.635	647.504
207.528	660.093
210.42	583.019
213.313	516.124
216.206	483.5
219.098	315.887
221.991	269.402
224.884	152.424
227.776	121.581
230.669	28.3628
233.562	29.6174
236.454	37.377
239.347	4.44092
242.24	13.512
245.133	66.0615
248.025	137.143
250.918	214.759
253.811	312.986
256.704	442.079
259.596	551.481
262.489	559.5
265.382	497.685
268.274	416.709
271.167	286.031
274.06	201.419
276.952	158.699
279.845	126.88
282.738	104.185
285.63	102.26
288.523	74.9959
291.416	12.8999
294.309	51.8872
297.201	15.5847
300.094	7.56372
302.987	13.0308
305.879	20.2822
308.772	50.4448
311.665	16.1655
314.558	23.531
317.45	33.9719
320.343	4.77466
323.236	39.9077
326.128	46.8955
329.021	24.4773
331.914	0.741943
334.806	15.8286
337.699	7.70386
340.592	56.2698
343.485	39.1807
346.377	32.343
349.27	97.614
352.163	26.9492
355.055	46.4993
357.948	40.6208
360.841	46.3079
363.733	11.4119
366.626	3.89551
369.519	48.6682
372.411	31.4924
375.304	7.02051
378.197	42.8574
381.09	1.87036
383.982	4.18066
386.875	11.0422
389.768	7.12988
392.66	20.8765
395.553	6.63013
398.446	9.7583
401.339	2.73633
404.231	21.1834
407.124	112.747
410.017	186.044
412.909	371.497
415.802	723.795
418.695	1122.26
421.587	1609.21
424.48	1946.3
427.373	1983.36
430.265	1505.17
433.158	931.665
436.051	514.778
438.944	324.37
441.836	217.469
444.729	140.789
447.622	121.945
450.514	158.111
453.407	118.185
456.3	168.964
459.192	281.108
462.085	334.438
464.978	422.29
467.871	649.49
470.763	824.359
473.656	1031.24
476.549	1263.13
479.441	1457.07
482.334	1569.63
485.227	1716.33
488.12	1670.08
491.012	1531.93
493.905	1354.4
496.798	947.841
499.69	593.513
502.583	494.063
505.476	303.676
508.368	196.924
511.261	147.076
514.154	119.888
517.047	61.8303
519.939	65.4768
522.832	12.8064
525.725	2.59644
528.617	1.20947
531.51	13.2473
534.403	38.3408
537.295	18.3545
540.188	8.51831
543.081	34.9856
545.973	15.5664
548.866	0.42041
551.759	22.3355
554.652	18.6975
557.544	20.5171
560.437	14.6868
563.33	40.3989
566.222	9.48023
569.115	12.6641
572.008	4.21191
574.9	73.4324
577.793	6.01587
580.686	36.4985
583.579	4.30029
586.471	33.1047
589.364	51.7676
592.257	98.3481
595.149	133.295
598.042	199.148
600.935	288.909
603.827	401.38
606.72	540.711
609.613	779.699
612.506	1092.82
615.398	1507.84
618.291	1912.86
621.184	1973.3
624.076	1767.44
626.969	1518.4
629.862	1285
632.755	979.723
635.647	763.032
638.54	628.641
641.433	594.987
644.325	646.268
647.218	712.737
650.111	687.356
653.003	688.468
655.896	565.106
658.789	446.998
661.682	345.818
664.574	222.53
667.467	156.157
670.36	80.5366
673.252	48.1187
676.145	52.4424
679.038	25.7964
681.93	12.532
684.823	12.2393
687.716	28.0247
690.609	17.352
693.501	2.85815
696.394	24.7661
699.287	2.0708
702.179	29.4419
705.072	37.231
707.965	42.2261
710.857	24.3494
713.75	4.84912
716.643	73.6836
719.535	20.8298
722.428	18.9651
725.321	37.3323
728.214	46.9163
731.106	37.0776
733.999	24.9102
736.892	32.398
739.784	7.22827
742.677	37.8289
745.57	50.6514
748.462	21.9717
751.355	58.26
754.248	3.03516
757.141	35.6587
760.033	17.4048
762.926	53.4133
765.819	6.93457
768.711	23.1438
771.604	23.7188
774.497	6.25806
777.389	12.6787
780.282	14.7898
783.175	23.7612
786.068	19.3787
788.96	35.5452
791.853	22.6562
794.746	28.1848
797.638	30.303
800.531	39.842
803.424	82.2068
806.317	35.8257
809.209	40.1621
812.102	52.1738
814.995	75.8943
817.887	30.926
820.78	55.7468
823.673	57.752
826.565	65.9138
829.458	76.8801
832.351	24.5569
835.244	65.5188
838.136	88.6096
841.029	89.0671
843.922	111.698
846.814	97.3701
849.707	117.328
852.6	116
855.492	102.245
858.385	66.4949
861.278	124.071
864.171	127.978
867.063	108.172
869.956	89.2373
872.849	96.9863
875.741	105.09
878.634	83.1411
881.527	129.989
884.419	83.658
887.312	90.7771
890.205	54.605
893.098	85.2051
895.99	84.2793
898.883	34.7563
901.776	89.8489
904.668	84.4263
907.561	75.7805
910.454	89.4749
913.346	76.7241
916.239	76.4924
919.132	72.7334
922.025	24.6062
924.917	61.6423
927.81	30.1543
930.703	17.3391
933.595	23.6877
936.488	30.1314
939.381	0.169189
942.274	1.948
945.166	36.032
948.059	11.2673
950.952	11.5776
953.844	31.5647
956.737	14.6882
959.63	20.7283
962.522	33.0801
965.415	11.9529
968.308	34.4487
971.201	14.5242
974.093	98.0288
976.986	150.763
979.879	286.866
982.771	319.24
985.664	231.341
988.557	244.845
991.449	316.195
994.342	431.531
997.235	536.979
1000.13	760.984
1003.02	1026.73
1005.91	1429.8
1008.81	2120
1011.7	3295.72
1014.59	4940.25
1017.48	6737.12
1020.38	8348.66
1023.27	9088.81
1026.16	8923.43
1029.05	7871.04
1031.95	6301.33
1034.84	4493.85
1037.73	3037.81
1040.62	1936.79
1043.52	1217.86
1046.41	728.918
1049.3	387.646
1052.2	177.061
1055.09	91.8445
1057.98	0.260254
1060.87	37.7622
1063.77	28.9241
1066.66	85.654
1069.55	216.582
1072.44	390.249
1075.34	478.568
1078.23	714.142
1081.12	878.405
1084.02	1181.12
1086.91	1281.24
1089.8	1376.69
1092.69	1400.95
1095.59	1275.59
1098.48	1153.95
1101.37	1022.2
1104.27	809.709
1107.16	652.545
1110.05	472.332
1112.94	418.065
1115.84	233.81
1118.73	178.47
1121.62	116.536
1124.51	58.7639
1127.41	22.9688
1130.3	13.8855
1133.19	7.65015
1136.08	1.65064
1138.98	21.8806
1141.87	37.7825
1144.76	5.22168
1147.65	10.0029
1150.55	5.6499
1153.44	0.122559
1156.33	13.1575
1159.23	33.3701
1162.12	32.1028
1165.01	39.1841
1167.9	47.8315
1170.8	102.111
1173.69	197.596
1176.58	177.081
1179.47	312.473
1182.37	421.445
1185.26	567.472
1188.15	673.685
1191.05	768.198
1193.94	708.726
1196.83	681.848
1199.72	593.981
1202.62	440.584
1205.51	300.163
1208.4	261.552
1211.3	138.872
1214.19	159.24
1217.08	119.914
1219.97	152.737
1222.87	132.722
1225.76	119.82
1228.65	59.2441
1231.54	32.2432
1234.44	57.2639
1237.33	32.9705
1240.22	30.7734
1243.11	41.1977
1246.01	9.66748
1248.9	4.24512
1251.79	40.7615
1254.68	38.4697
1257.58	21.3987
1260.47	13.3005
1263.36	50.7197
1266.26	0
