Measurement: Raman, 780 nm, unoriented, Raman Data Processed
Mineral: Ilmenite
Rruff sample: R060149
Ideal chemistry: Fe^2+^Ti^4+^O_3_
Locality: Faraday Property, Bancroft District, Ontario, Canada
Source: Marcus Origlieri
Description: Black thick tabular crystal
Measured chemistry: Fe^2+^_0.96_Mn_0.07_Mg_0.01_Ti_0.98_O_3_
Raman shift (cm-1)	intensity
145.54	0
148.433	0.148994
151.326	0.817768
154.218	0.934475
157.111	0.488405
160.004	1.1276
162.897	1.83315
165.789	1.64326
168.682	0.40439
171.575	1.15385
174.467	0.497974
177.36	0.918911
180.253	0.103319
183.145	0.619213
186.038	0.904221
188.931	1.35901
191.823	1.04014
194.716	1.9721
197.609	2.04582
200.502	1.51234
203.394	3.20884
206.287	5.16891
209.18	5.45569
212.072	6.93286
214.965	8.57192
217.858	9.50445
220.75	10.5523
223.643	11.6684
226.536	9.22094
229.429	7.42399
232.321	5.52745
235.214	4.75908
238.107	3.71865
240.999	3.91133
243.892	3.73674
246.785	3.32504
249.677	2.94007
252.57	1.74984
255.463	1.77739
258.356	1.05244
261.248	1.02377
264.141	0.282776
267.034	0.259508
269.926	0.168402
272.819	0.070332
275.712	0.235918
278.604	0.393703
281.497	0.316979
284.39	0.213977
287.283	0.341144
290.175	0.499228
293.068	0.241159
295.961	0.039219
298.853	0.554768
301.746	0.136409
304.639	0.213901
307.531	0.536679
310.424	0.587211
313.317	0.603075
316.209	1.07792
319.102	0.614091
321.995	1.77752
324.888	1.5504
327.78	1.61066
330.673	1.62153
333.566	1.9145
336.458	0.954577
339.351	0.848471
342.244	1.0694
345.137	1.33796
348.029	1.12878
350.922	1.39307
353.815	3.00797
356.707	3.11302
359.6	3.50313
362.493	4.22582
365.385	4.26792
368.278	5.09837
371.171	4.35148
374.063	2.93401
376.956	1.84939
379.849	1.35953
382.741	0.596623
385.634	1.033
388.527	1.38319
391.42	0.630169
394.312	0.209311
397.205	0.787987
400.098	0.676797
402.99	0.694596
405.883	0.726524
408.776	0.732458
411.668	0.438869
414.561	0.569124
417.454	0.205432
420.347	0.555429
423.239	0.815401
426.132	0.776628
429.025	0.797454
431.917	0.932227
434.81	0.960983
437.703	0.6506
440.596	0.76445
443.488	1.71636
446.381	1.67067
449.274	1.06652
452.166	1.36094
455.059	1.44988
457.952	1.38104
460.844	0.90376
463.737	0.643333
466.63	0.928481
469.522	1.26817
472.415	0.489317
475.308	0.489216
478.201	0.906929
481.093	0.356486
483.986	0.382426
486.879	0.168427
489.771	0.725718
492.664	0.772724
495.557	0.803376
498.45	0.994652
501.342	1.40069
504.235	0.654533
507.128	0.152096
510.02	0.4342
512.913	0.81731
515.806	1.02268
518.698	0.013381
521.591	0.800442
524.484	0.971988
527.376	1.04098
530.269	0.859487
533.162	0.623226
536.055	0.314485
538.947	0.455345
541.84	0.848039
544.733	0.916763
547.625	0.595191
550.518	0.153683
553.411	0.651569
556.303	0.669759
559.196	0.748325
562.089	0.286366
564.981	0.478284
567.874	0.122694
570.767	0.485338
573.66	1.20441
576.552	0.547824
579.445	0.14375
582.338	0.331628
585.23	0.662496
588.123	0.319987
591.016	0.28573
593.909	0.362273
596.801	0.136209
599.694	0.432338
602.587	0.309531
605.479	0.225581
608.372	0.011405
611.265	0.286963
614.157	0.347715
617.05	0.275262
619.943	0.301105
622.836	0.074833
625.728	0.179066
628.621	1.0843
631.514	1.83749
634.406	2.49894
637.299	3.33853
640.192	3.11213
643.084	4.83311
645.977	5.76753
648.87	7.73859
651.763	9.73309
654.655	11.5102
657.548	13.5775
660.441	17.0028
663.333	19.776
666.226	22.9415
669.119	26.6082
672.011	27.9541
674.904	30.0349
677.797	30.2847
680.689	28.8428
683.582	26.4452
686.475	23.2398
689.368	20.5885
692.26	17.3833
695.153	14.348
698.046	12.5954
700.938	10.5323
703.831	8.52437
706.724	7.84105
709.616	6.52174
712.509	4.95132
715.402	5.10743
718.294	4.48197
721.187	2.82819
724.08	2.68859
726.973	2.39655
729.865	2.23012
732.758	0.820543
735.651	1.62973
738.543	1.63488
741.436	1.01372
744.329	0.498423
747.221	0.189723
750.114	0.165085
753.007	0.430836
755.9	0.130404
758.792	0.04401
761.685	0.023212
764.578	0.06445
767.47	0.021602
770.363	0.281367
773.256	0.005565
776.149	0.147467
779.041	0.384064
781.934	0.658644
784.827	0.399569
787.719	0.240206
790.612	0.703217
793.505	0.433715
796.397	0.054313
799.29	0.645913
802.183	0.44896
805.075	0.227174
807.968	0.73732
810.861	0.288249
813.754	0.727419
816.646	0.965561
819.539	0.750567
822.432	0.693608
825.324	0.578488
828.217	1.21855
831.11	1.43662
834.002	0.945415
836.895	1.08087
839.788	1.57392
842.681	1.96538
845.573	1.97284
848.466	1.58997
851.359	2.05729
854.251	1.34433
857.144	1.90591
860.037	1.53547
862.929	1.91328
865.822	1.5096
868.715	1.41445
871.607	1.32147
874.5	1.23034
877.393	1.18683
880.286	1.5827
883.178	1.32622
886.071	0.950935
888.964	0.711618
891.856	0.754451
894.749	0.182296
897.642	1.12891
900.534	0.238278
903.427	0.438497
906.32	0.349972
909.213	0.306221
912.105	0.872891
914.998	0.591736
917.891	0.433228
920.783	0.585718
923.676	0.643999
926.569	0.281896
929.462	0.349382
932.354	0.858408
935.247	0.651782
938.14	0.211169
941.032	0.504313
943.925	0.295441
946.818	0.901728
949.71	0.73405
952.603	0.374979
955.496	0.986989
958.388	0.451627
961.281	0.985239
964.174	0.331111
967.067	0.959871
969.959	0.322789
972.852	0.877853
975.745	0.301139
978.637	0.343645
981.53	0.737983
984.423	0.21901
987.315	1.01553
990.208	0.827868
993.101	0.918193
995.994	1.10865
998.886	1.27103
1001.78	0.727495
1004.67	1.09458
1007.56	1.0164
1010.46	0.362002
1013.35	0.905792
1016.24	0.586029
1019.13	0.809209
1022.03	0.622051
1024.92	0.583208
1027.81	0.35869
1030.71	0.506392
1033.6	0.687084
1036.49	0.281297
1039.38	0.518305
1042.28	0.394755
1045.17	0.854923
1048.06	0.415298
1050.95	0.546961
1053.85	0.556748
1056.74	1.12037
1059.63	0.736036
1062.53	0.957974
1065.42	0.574897
1068.31	0.124249
1071.2	0.912439
1074.1	0.388475
1076.99	0.05291
1079.88	1.0349
1082.77	0.684649
1085.67	0.601481
1088.56	0.694996
1091.45	0.93012
1094.35	0.440551
1097.24	0.621796
1100.13	0.281945
1103.02	1.52422
1105.92	0.593759
1108.81	0.070066
1111.7	1.11491
1114.59	0.555699
1117.49	1.17006
1120.38	0.856779
1123.27	0.07559
1126.16	0.010196
1129.06	0.925782
1131.95	0.132637
1134.84	0.362341
1137.74	0.899103
1140.63	0.593188
1143.52	0.779243
1146.41	0.061859
1149.31	0.323693
1152.2	0.948389
1155.09	0.220001
1157.98	1.10959
1160.88	0.766071
1163.77	0.329437
1166.66	0.556234
1169.56	0.466321
1172.45	0.392294
1175.34	0.281742
1178.23	0.825756
1181.13	0.44915
1184.02	1.48343
1186.91	0.334049
1189.8	1.11238
1192.7	0.144813
1195.59	0.835529
1198.48	0.727231
1201.38	0.673134
1204.27	0.11153
1207.16	0.760148
1210.05	0.552418
1212.95	0.787493
1215.84	0.322418
1218.73	0.64704
1221.62	0.431084
1224.52	1.10458
1227.41	0.602923
1230.3	1.01948
1233.19	0.172404
1236.09	0.469126
1238.98	0.351684
1241.87	0.322243
1244.77	1.34395
1247.66	0.03228
1250.55	0.50461
1253.44	1.07548
1256.34	0.80049
1259.23	0.790122
1262.12	1.56771
1265.01	0.652057
1267.91	0.735876
1270.8	0.282639
1273.69	0.829133
1276.59	0.865676
1279.48	0.350575
1282.37	0.394112
1285.26	0.741035
