Measurement: Raman, 780 nm, unoriented, Raman Data Processed
Mineral: Ilmenite
Rruff sample: R130214
Ideal chemistry: Fe^2+^Ti^4+^O_3_
Locality: Mont St-Hilaire, Quebec, Canada
Source: Don Doell
Description: Black lustrous tabular crystals
Raman shift (cm-1)	intensity
96.5029	0
99.8777	2.76822
103.252	0.446533
106.627	4.84616
110.002	1.51053
113.377	3.09676
116.752	5.30955
120.127	3.64014
123.501	4.47853
126.876	1.48915
130.251	1.23762
133.626	0.94519
137.001	0.323776
140.375	0.127945
143.75	1.79945
147.125	4.46178
150.5	6.42052
153.875	7.51321
157.25	11.6788
160.624	17.1881
163.999	18.8822
167.374	14.86
170.749	11.4125
174.124	9.99332
177.498	13.0009
180.873	15.2362
184.248	19.0241
187.623	23.5255
190.998	29.3157
194.373	37.9122
197.747	48.1372
201.122	61.5234
204.497	83.8272
207.872	109.118
211.247	139.313
214.621	170.78
217.996	207.875
221.371	243.748
224.746	255.209
228.121	220.554
231.495	154.291
234.87	92.6054
238.245	53.6867
241.62	32.596
244.995	22.2345
248.369	15.0245
251.744	12.2277
255.119	8.512
258.494	6.40987
261.869	4.256
265.244	3.20406
268.618	1.58877
271.993	0.148514
275.368	0.459427
278.743	0.755005
282.118	0.67408
285.493	0.821968
288.867	0.861763
292.242	0.945313
295.617	1.75496
298.992	2.61755
302.366	5.52139
305.741	7.75694
309.116	9.55395
312.491	14.0289
315.866	16.7867
319.241	20.3716
322.615	25.5176
325.99	26.1114
329.365	27.459
332.74	26.6258
336.115	25.3065
339.49	22.1294
342.864	21.3009
346.239	21.8677
349.614	26.3551
352.989	30.5107
356.364	37.3908
359.738	45.3807
363.113	55.2489
366.488	58.9215
369.863	51.7757
373.238	32.289
376.613	17.9185
379.987	9.5566
383.362	5.18121
386.737	2.53899
390.112	0.47924
393.486	0.519302
396.861	0.65107
400.236	1.14132
403.611	0.149986
406.986	0.700653
410.361	0.627731
413.735	0.690453
417.11	0.370041
420.485	1.64259
423.86	0.745758
427.235	2.13929
430.61	2.5585
433.984	2.02227
437.359	3.19147
440.734	3.23874
444.109	2.88693
447.484	4.28917
450.858	4.13435
454.233	4.93967
457.608	4.23914
460.983	3.10165
464.358	2.72412
467.733	3.40835
471.107	2.65801
474.482	2.24873
477.857	3.12497
481.232	2.29074
484.606	2.9878
487.981	3.09743
491.356	2.63792
494.731	3.77327
498.106	3.90761
501.481	4.14961
504.855	3.17886
508.23	3.36566
511.605	4.21151
514.98	3.70875
518.355	3.42272
521.73	3.78027
525.104	4.8409
528.479	3.88377
531.854	3.77942
535.229	3.75987
538.604	3.97318
541.978	4.70425
545.353	3.89156
548.728	3.69635
552.103	2.88763
555.478	2.0677
558.852	2.68863
562.227	1.85364
565.602	1.04213
568.977	0.789734
572.352	0.793602
575.726	0.548523
579.101	0.143478
582.476	0.007042
585.851	0.144547
589.226	0.387352
592.601	1.19305
595.975	1.96355
599.35	1.64531
602.725	1.11826
606.1	1.04081
609.475	0.212364
612.85	0.448257
616.224	2.51907
619.599	4.95126
622.974	10.1669
626.349	14.1736
629.723	20.1836
633.098	29.2301
636.473	39.9727
639.848	52.2416
643.223	71.0226
646.598	89.6443
649.972	118.437
653.347	149.584
656.722	192.86
660.097	238.011
663.472	289.012
666.846	341.295
670.221	385.596
673.596	420.484
676.971	427.125
680.346	409.661
683.721	373.285
687.095	324.851
690.47	275.455
693.845	227.46
697.22	186.21
700.595	153.134
703.97	125.553
707.344	101.721
710.719	83.7247
714.094	67.6843
717.469	56.4032
720.843	44.8458
724.218	36.4536
727.593	29.551
730.968	25.6938
734.343	19.9843
737.718	15.7453
741.092	11.6272
744.467	8.53068
747.842	6.65012
751.217	5.1831
754.592	3.04958
757.966	0.238365
761.341	1.32864
764.716	0.286987
768.091	1.71373
771.466	1.54771
774.841	2.11707
778.215	1.63818
781.59	0.916145
784.965	0.60643
788.34	1.0696
791.715	0.009911
795.089	1.23751
798.464	2.20406
801.839	3.36228
805.214	3.58071
808.589	4.36677
811.963	5.60011
815.338	5.50684
818.713	6.55045
822.088	7.77276
825.463	7.97401
828.838	8.15652
832.212	7.661
835.587	7.55377
838.962	7.38552
842.337	6.56511
845.712	7.62347
849.087	7.42104
852.461	6.01698
855.836	4.69746
859.211	5.72548
862.586	4.82667
865.961	4.0606
869.335	4.69234
872.71	3.74423
876.085	3.53312
879.46	3.47248
882.835	3.66888
886.209	3.17478
889.584	2.42287
892.959	2.11572
896.334	2.73079
899.709	1.57982
903.083	1.40712
906.458	0.976772
909.833	1.36693
913.208	0.70734
916.583	1.11753
919.958	1.52612
923.332	0.295704
926.707	0.470917
930.082	0.868134
933.457	0.313896
936.832	0.101944
940.207	1.43656
943.581	0.001881
946.956	0.920124
950.331	1.24268
953.706	0.580585
957.081	0.156727
960.455	0.483929
963.83	0.378223
967.205	0.175781
970.58	0.619709
973.955	1.02736
977.329	0.492638
980.704	0.154583
984.079	0.684731
987.454	0.12265
990.829	0.682171
994.203	0.801201
997.578	0.843292
1000.95	0.75523
1004.33	0.277325
1007.7	1.00169
1011.08	0.065125
1014.45	0.856438
1017.83	1.46029
1021.2	0.801502
1024.58	0.387398
1027.95	0.496517
1031.33	0.246227
1034.7	0.228107
1038.08	0.48877
1041.45	1.00338
1044.83	0.646683
1048.2	0.782009
1051.58	0.737736
1054.95	0.653687
1058.33	1.31019
1061.7	0.15123
1065.08	0.118263
1068.45	0.350868
1071.82	0.833351
1075.2	0.824596
1078.57	0.801956
1081.95	0.70248
1085.32	0.77346
1088.7	0.928394
1092.07	0.836346
1095.45	0.966331
1098.82	0.273117
1102.2	1.00392
1105.57	0.125591
1108.95	1.6435
1112.32	0.070347
1115.7	1.91933
1119.07	0.372948
1122.45	1.33499
1125.82	2.08081
1129.2	1.32832
1132.57	1.05165
1135.95	0.519257
1139.32	1.22087
1142.69	0.402359
1146.07	0.908825
1149.44	0.909496
1152.82	0.630295
1156.19	1.42196
1159.57	0.74498
1162.94	0.651768
1166.32	2.29908
1169.69	1.42929
1173.07	0.45731
1176.44	0.78688
1179.82	1.43356
1183.19	0.925636
1186.57	1.60314
1189.94	1.21902
1193.32	2.5439
1196.69	1.15543
1200.07	1.32902
1203.44	0.474415
1206.82	1.9026
1210.19	1.36291
1213.57	1.22424
1216.94	1.17736
1220.32	0.506104
1223.69	0.639847
1227.07	0.018681
1230.44	0.258797
1233.82	0.567181
1237.19	0.661568
1240.57	0.453777
1243.94	0.799835
1247.32	1.62179
1250.69	1.07289
1254.06	0.711929
1257.44	0.213661
1260.81	0.69482
1264.19	0.925083
1267.56	0.462162
1270.94	1.34565
1274.31	1.2427
1277.69	0.016663
1281.06	0.768169
