Measurement: Raman, 785 nm, unoriented, Raman Data Processed
Mineral: Inderborite
Rruff sample: R060871
Ideal chemistry: CaMg[B_3_O_3_(OH)_5_]_2_6H_2_O
Locality: TL, Inder, Kazakhstan
Source: Michael Scott
Description: Colorless well-formed prismatic crystals
Raman shift (cm-1)	intensity
157.686	0
160.579	12.6011
163.472	200.882
166.364	357.778
169.257	326.197
172.15	194.563
175.042	79.6738
177.935	60.9541
180.828	2.54492
183.72	8.55957
186.613	45.0171
189.506	112.309
192.399	135.945
195.291	201.953
198.184	259.123
201.077	407.245
203.969	512.795
206.862	564.482
209.755	404.947
212.648	192.841
215.54	15.4341
218.433	19.3906
221.326	9.6626
224.218	48.2046
227.111	90.4492
230.004	104.597
232.896	128.73
235.789	305.083
238.682	456.618
241.575	622.696
244.467	845.608
247.36	963.047
250.253	1017.25
253.145	894.195
256.038	636.561
258.931	484.343
261.823	289.478
264.716	170.64
267.609	79.7549
270.502	11.0044
273.394	50.5273
276.287	21.3359
279.18	23.0488
282.072	21.9575
284.965	14.624
287.858	6.11523
290.75	18.0308
293.643	9.7832
296.536	43.1177
299.428	146.572
302.321	226.977
305.214	336.014
308.107	542.565
310.999	712.838
313.892	923.066
316.785	1229.08
319.677	1530.92
322.57	1433.62
325.463	1285.02
328.356	952.042
331.248	670.8
334.141	430.605
337.034	303.955
339.926	320.915
342.819	392.63
345.712	508.684
348.604	654.511
351.497	678.395
354.39	718.399
357.283	642.676
360.175	560.856
363.068	434.852
365.961	422.669
368.853	398.237
371.746	478.117
374.639	542.689
377.531	606.899
380.424	646.652
383.317	524.826
386.209	319.174
389.102	159.572
391.995	144.777
394.888	214.971
397.78	257.256
400.673	132.339
403.566	92.603
406.458	14.0859
409.351	26.0723
412.244	25.269
415.137	77.9038
418.029	131.309
420.922	130.776
423.815	211.399
426.707	227.741
429.6	240.327
432.493	214.216
435.385	168.562
438.278	127.877
441.171	103.135
444.063	114.315
446.956	164.916
449.849	82.8447
452.742	74.0557
455.634	37.4629
458.527	87.5825
461.42	18.4936
464.312	19.4644
467.205	35.5605
470.098	10.8584
472.99	40.0845
475.883	7.12646
478.776	57.9941
481.669	98.9722
484.561	193.958
487.454	280.989
490.347	433.169
493.239	489.727
496.132	617.585
499.025	700.545
501.918	772.765
504.81	763.106
507.703	694.45
510.596	553.015
513.488	502.655
516.381	476.769
519.274	464.355
522.166	458.204
525.059	458.352
527.952	406.163
530.845	402.438
533.737	387.278
536.63	384.948
539.523	275.066
542.415	189.034
545.308	168.423
548.201	53.3472
551.093	88.0161
553.986	38.5225
556.879	32.0391
559.771	66.9644
562.664	74.2739
565.557	118.74
568.45	156.42
571.342	235.459
574.235	387.59
577.128	448.838
580.02	580.694
582.913	620.109
585.806	600.348
588.699	509.524
591.591	438.873
594.484	300.599
597.377	259.022
600.269	223.281
603.162	156.051
606.055	193.566
608.947	179.966
611.84	222.686
614.733	319.352
617.626	417.659
620.518	555.425
623.411	786.477
626.304	979.758
629.196	1170.6
632.089	1477.86
634.982	1842.22
637.875	2284.57
640.767	2640.28
643.66	2754.27
646.553	2461.73
649.445	1943.04
652.338	1478.65
655.231	1112.07
658.123	758.277
661.016	549.979
663.909	361.471
666.802	248.102
669.694	171.053
672.587	187.88
675.48	132.293
678.372	112.382
681.265	71.8389
684.158	87.4922
687.05	40.3413
689.943	17.2949
692.836	46.8765
695.729	20.1694
698.621	18.624
701.514	17.4214
704.407	0.666504
707.299	41.9634
710.192	18.1973
713.085	32.2339
715.977	21.6895
718.87	58.5806
721.763	28.0029
724.655	57.8262
727.548	38.7007
730.441	66.6304
733.334	120.067
736.226	157.042
739.119	246.889
742.012	316
744.904	500.288
747.797	700.375
750.69	1101.95
753.582	1813.31
756.475	2460.67
759.368	2186.57
762.261	1351.44
765.153	739.669
768.046	399.685
770.939	303.943
773.831	178.597
776.724	150.614
779.617	142.303
782.51	69.5449
785.402	123.819
788.295	122.294
791.188	101.673
794.08	114.609
796.973	114.779
799.866	97.6309
802.758	55.5261
805.651	43.5215
808.544	80.7693
811.437	16.1628
814.329	51.9661
817.222	14.3257
820.115	4.15234
823.007	44.446
825.9	6.43189
828.793	49.9119
831.685	49.2148
834.578	36.405
837.471	91.218
840.364	48.2505
843.256	126.284
846.149	170.984
849.042	216.062
851.934	269.333
854.827	421.862
857.72	618.167
860.612	766.187
863.505	780.686
866.398	720.503
869.29	516.372
872.183	439.987
875.076	324.516
877.969	201.457
880.861	168.587
883.754	109.766
886.647	71.8723
889.539	109.781
892.432	77.8928
895.325	63.1707
898.217	45.645
901.11	47.4268
904.003	35.971
906.896	41.8928
909.788	55.5527
912.681	18.7759
915.574	2.12451
918.466	36.8826
921.359	30.3213
924.252	4.39282
927.145	42.4509
930.037	90.8928
932.93	144.642
935.823	108.512
938.715	114.958
941.608	142.596
944.501	165.279
947.394	96.9221
950.286	77.7361
953.179	54.1189
956.072	38.8543
958.964	63.4085
961.857	20.6067
964.75	13.8428
967.642	21.3896
970.535	18.0835
973.428	53.4902
976.321	71.5662
979.213	27.9971
982.106	29.0498
984.999	7.95117
987.891	12.3245
990.784	22.5681
993.677	19.7222
996.569	49.5269
999.462	177.276
1002.36	191.519
1005.25	185.036
1008.14	154.059
1011.03	110.653
1013.93	108.578
1016.82	89.9502
1019.71	54.221
1022.6	74.5989
1025.5	74.9197
1028.39	113.538
1031.28	177.911
1034.17	236.496
1037.07	244.011
1039.96	270.649
1042.85	293.108
1045.74	302.889
1048.64	365.608
1051.53	354.765
1054.42	368.98
1057.32	400.525
1060.21	426.231
1063.1	394.256
1065.99	362.296
1068.89	306.333
1071.78	247.681
1074.67	200.565
1077.57	80.396
1080.46	123.617
1083.35	44.2976
1086.24	43.3145
1089.14	38.4324
1092.03	19.9082
1094.92	18.5405
1097.81	15.6108
1100.71	11.0562
1103.6	44.573
1106.49	0.515625
1109.38	23.0352
1112.28	43.0344
1115.17	52.8201
1118.06	57.5393
1120.96	5.55078
1123.85	9.99194
1126.74	50.7163
1129.63	41.0718
1132.53	15.3918
1135.42	38.0674
1138.31	4.97803
1141.2	38.5095
1144.1	34.6284
1146.99	15.103
1149.88	60.5525
1152.78	71.3335
1155.67	76.8809
1158.56	100.297
1161.45	76.4981
1164.35	81.5762
1167.24	71.1746
1170.13	98.2175
1173.02	47.7119
1175.92	60.021
1178.81	31.5266
1181.7	48.6682
1184.6	20.4939
1187.49	81.637
1190.38	39.1484
1193.27	97.4954
1196.17	51.7988
1199.06	64.5122
1201.95	50.6352
1204.84	62.9807
1207.74	35.3694
1210.63	109.931
1213.52	52.5242
1216.41	101.131
1219.31	97.3127
1222.2	116.645
1225.09	106.794
1227.98	123.833
1230.88	100.12
1233.77	75.6362
1236.66	4.20117
1239.56	11.5977
1242.45	63.791
1245.34	41.7644
1248.23	31.7695
1251.13	30.5845
1254.02	57.7827
1256.91	2.7793
1259.81	0.50708
1262.7	31.1101
1265.59	62.3023
1268.48	47.6008
1271.38	17.6848
