Measurement: Raman, 514 nm, unoriented, Raman Data Processed
Mineral: Inderite
Rruff sample: R050195
Ideal chemistry: MgB_3_O_3_(OH)_5_5H_2_O
Locality: Boron, Kern County, California, USA
Source: Dave Bunk Minerals
Description: Colorless prismatic crystal
Measured chemistry: Mg_1.00_B_3.00_O_3_(OH)_5_Â·5H_2_O ; Mg measured, only
Raman shift (cm-1)	intensity
90.587	0
94.768	79.943
98.947	101.287
103.124	902.098
107.3	1385.68
111.473	1070.25
115.644	676.879
119.813	1215.64
123.981	4765.6
128.146	8003.52
132.309	4555.38
136.47	2391.29
140.63	2099.51
144.787	2951.88
148.942	3905.39
153.096	3032.08
157.247	2813.94
161.396	4761.64
165.544	7828.96
169.689	7432.05
173.833	3961.09
177.974	1462.22
182.114	824.63
186.251	542.994
190.387	253.815
194.52	147.858
198.652	145.154
202.782	202.431
206.909	11.34
211.035	21.021
215.159	63.519
219.281	353.259
223.4	742.092
227.518	1240.87
231.634	1088.99
235.748	733.633
239.86	704.952
243.97	932.556
248.079	1055.8
252.185	1166.3
256.289	831.252
260.391	129.792
264.492	77.677
268.59	136.596
272.687	96.098
276.781	11.269
280.874	158.358
284.964	20.115
289.053	120.102
293.14	637.393
297.225	1017.15
301.308	1270.46
305.389	1307.28
309.468	1837.43
313.545	2105.95
317.62	1777.93
321.693	1156.71
325.765	613.553
329.834	518.468
333.902	442.456
337.967	981.521
342.031	1381.57
346.093	1497.71
350.153	1362.95
354.21	1110.12
358.267	1333.39
362.321	1755.01
366.373	2269.81
370.423	2977.85
374.471	3899.26
378.518	4941.34
382.563	5052.54
386.605	4506.89
390.646	3967.33
394.685	3684.57
398.722	3575.49
402.757	3998.63
406.79	4969.92
410.821	6992.27
414.851	9975.66
418.878	12766.1
422.904	13663.5
426.927	11794.5
430.949	9484.83
434.969	8892.35
438.987	10405.2
443.003	9715.01
447.018	6685.49
451.03	4257.17
455.041	2862.75
459.049	2370.25
463.056	2097.66
467.061	2250.99
471.064	2586.25
475.065	2923.49
479.064	4821.88
483.062	7896.26
487.057	14516.6
491.051	22714
495.043	21339.4
499.032	12329.8
503.02	6705.1
507.007	3700.44
510.991	2244.78
514.973	1420.14
518.954	942.496
522.933	491.961
526.91	130.82
530.885	97.299
534.858	31.551
538.829	58.883
542.799	91.322
546.766	55.109
550.732	86.436
554.696	26.465
558.658	525.465
562.618	834.754
566.576	1228.33
570.533	1527.69
574.488	1872.94
578.44	2017.07
582.391	2396.11
586.341	2089.09
590.288	1799.24
594.233	1132.67
598.177	733.297
602.119	773.008
606.059	1008.66
609.997	1524.23
613.933	1661.7
617.868	2749.07
621.801	3586.5
625.731	5456.67
629.66	6730.58
633.588	8266.41
637.513	9046.51
641.437	8842.72
645.358	7340.39
649.278	6112.94
653.196	5214.4
657.113	3602.77
661.027	3057.05
664.94	2506.23
668.851	1564.34
672.76	1157.35
676.667	935.902
680.572	666.527
684.476	457.678
688.378	142.17
692.278	110.195
696.176	237.49
700.072	2.83
703.967	222.48
707.86	39.295
711.751	344.16
715.64	136.07
719.527	222.068
723.413	168.906
727.297	666.754
731.179	1554.48
735.059	2613.21
738.937	5341.92
742.814	7542.71
746.689	6320.49
750.562	4014.22
754.433	2262.89
758.303	1226.96
762.17	826.043
766.036	492.529
769.901	517.955
773.763	507.344
777.624	140.729
781.482	118.137
785.339	92.51
789.195	193.725
793.048	517.773
796.9	289.945
800.75	411.307
804.598	831.846
808.445	696.574
812.289	988.58
816.132	1066.89
819.973	878.221
823.813	736.648
827.65	410.068
831.486	568.461
835.32	362.059
839.152	17.439
842.983	73.387
846.812	141.158
850.639	492.008
854.464	513.461
858.288	391.227
862.11	672.834
865.93	762.482
869.748	1369.23
873.564	2129.22
877.379	2554.18
881.192	3020.8
885.004	2602
888.813	2351.52
892.621	1736.75
896.427	979.926
900.232	962.162
904.034	869.195
907.835	851.234
911.634	394.125
915.432	597.043
919.227	634.564
923.021	536.811
926.813	640.189
930.604	882.514
934.393	1209.66
938.18	1898.3
941.965	2782.41
945.749	3717.41
949.53	4553.72
953.311	4269.42
957.089	3381.79
960.866	2611.14
964.641	1975.81
968.414	1592.77
972.185	1152.36
975.955	946.182
979.723	864.133
983.49	750.092
987.254	584.311
991.017	577.453
994.779	736.729
998.538	1063.83
1002.3	694.004
1006.05	854.809
1009.81	543.377
1013.56	683.715
1017.31	596.371
1021.06	362.168
1024.81	223.535
1028.55	58.166
1032.3	264.301
1036.04	47.141
1039.78	169.574
1043.52	80.504
1047.26	223.832
1050.99	416.688
1054.73	468.137
1058.46	518.164
1062.19	531.754
1065.92	401.906
1069.65	336.609
1073.37	143.875
1077.1	48.852
1080.82	241.176
1084.54	342.375
1088.26	166.027
1091.97	46.215
1095.69	282.094
1099.4	48.34
1103.12	115.785
1106.83	241.734
1110.54	63.391
1114.24	129.824
1117.95	166.555
1121.65	240.805
1125.35	379.941
1129.06	349.539
1132.75	603.215
1136.45	787.332
1140.15	548.32
1143.84	376.777
1147.53	806.137
1151.22	380.598
1154.91	539.219
1158.6	954.867
1162.28	1302.68
1165.97	1494.88
1169.65	1630.31
1173.33	1544.67
1177.01	1743.81
1180.69	1454.14
1184.36	1914.98
1188.04	1731.88
1191.71	2099.93
1195.38	2054.28
1199.05	1867.98
1202.71	2147.43
1206.38	1602.17
1210.04	1179.28
1213.71	1187.51
1217.37	742.133
1221.03	781.051
1224.68	691.047
1228.34	545.539
1231.99	622.387
1235.65	552.023
1239.3	503.07
1242.95	653.625
1246.59	671.914
1250.24	737.883
1253.88	649.238
1257.53	71.777
1261.17	191.734
1264.81	574.969
1268.45	397.484
1272.08	192.926
1275.72	329.52
1279.35	544.332
1282.98	277.73
1286.61	391.438
1290.24	14.594
1293.87	7.613
1297.49	212.547
1301.11	42.422
1304.73	100.254
1308.36	226.309
1311.97	38.398
1315.59	431.723
1319.2	16.012
1322.82	116.832
1326.43	648.223
1330.04	449.551
1333.65	836.195
1337.26	975.758
1340.86	1794
1344.47	2043.44
1348.07	3244.77
1351.67	3419.92
1355.27	3493.69
1358.87	2860.9
1362.46	1895.73
1366.06	1250.57
1369.65	1113.98
1373.24	561.98
1376.83	529.074
1380.42	622.734
1384	557.02
1387.59	554.293
1391.17	932.336
1394.75	806.176
1398.33	755.383
1401.91	978.152
1405.49	595.523
1409.06	289.684
1412.64	493.887
1416.21	296.645
1419.78	446.688
1423.35	19.562
1426.91	206.168
