Measurement: Raman, 532 nm, unoriented, Raman Data Processed
Mineral: Inderite
Rruff sample: R050195
Ideal chemistry: MgB_3_O_3_(OH)_5_5H_2_O
Locality: Boron, Kern County, California, USA
Source: Dave Bunk Minerals
Description: Colorless prismatic crystal
Measured chemistry: Mg_1.00_B_3.00_O_3_(OH)_5_Â·5H_2_O ; Mg measured, only
Raman shift (cm-1)	intensity
134.755	0
137.648	12.9628
140.541	26.5199
143.433	14.0763
146.326	0.081604
149.219	31.0426
152.112	42.5567
155.004	31.4008
157.897	37.0146
160.79	55.9456
163.682	102.123
166.575	165.711
169.468	198.95
172.36	150.757
175.253	89.1531
178.146	61.085
181.038	63.2517
183.931	84.3761
186.824	91.903
189.717	97.7666
192.609	104.696
195.502	95.774
198.395	66.7414
201.287	41.5657
204.18	11.6604
207.073	2.55084
209.965	5.60965
212.858	4.0952
215.751	0.833435
218.644	6.56612
221.536	7.99437
224.429	12.406
227.322	15.4948
230.214	21.8458
233.107	23.5541
236	25.5885
238.893	29.847
241.785	34.706
244.678	38.0831
247.571	45.4457
250.463	44.7485
253.356	38.2911
256.249	34.046
259.141	30.7256
262.034	26.1115
264.927	22.0272
267.82	16.5551
270.712	11.4801
273.605	13.1271
276.498	15.4233
279.39	19.0362
282.283	25.0159
285.176	27.3341
288.068	32.3357
290.961	42.2314
293.854	60.3895
296.747	80.2933
299.639	101.211
302.532	97.1678
305.425	76.035
308.317	56.6515
311.21	48.0913
314.103	47.2448
316.995	43.5783
319.888	33.9157
322.781	23.3499
325.673	23.6091
328.566	24.0955
331.459	16.3199
334.352	2.08344
337.244	5.634
340.137	0.794891
343.03	9.96452
345.922	16.4092
348.815	16.2492
351.708	11.1258
354.601	9.99031
357.493	8.07069
360.386	5.8168
363.279	1.11742
366.171	1.6378
369.064	0.64061
371.957	2.5672
374.849	8.58827
377.742	13.4969
380.635	25.0043
383.527	26.6167
386.42	32.6921
389.313	37.177
392.206	40.7162
395.098	39.8903
397.991	33.8787
400.884	27.3426
403.776	28.4806
406.669	37.6618
409.562	54.9612
412.454	76.0044
415.347	107.515
418.24	142.264
421.132	175.466
424.025	179.315
426.918	148.776
429.811	111.792
432.703	92.46
435.596	86.2786
438.489	99.0817
441.381	118.98
444.274	112.267
447.167	68.0644
450.06	35.2168
452.952	16.0543
455.845	5.14796
458.738	2.01114
461.63	2.91057
464.523	0.83371
467.416	4.49097
470.308	10.6922
473.201	24.3938
476.094	40.1009
478.986	64.9854
481.879	96.1026
484.772	142.95
487.665	212.05
490.557	301.386
493.45	363.098
496.343	333.95
499.235	229.432
502.128	144.903
505.021	86.783
507.913	55.0964
510.806	32.2384
513.699	19.534
516.592	11.938
519.484	5.883
522.377	0.67514
525.27	0.611221
528.162	2.46014
531.055	0.959122
533.948	1.67775
536.841	1.92824
539.733	1.2231
542.626	0.980194
545.519	1.94663
548.411	0.04303
551.304	3.6165
554.197	8.72466
557.089	13.5338
559.982	19.0118
562.875	26.1356
565.768	38.847
568.66	49.8379
571.553	60.0071
574.446	74.9421
577.338	88.2859
580.231	99.0998
583.124	107.455
586.016	102.049
588.909	80.6661
591.802	59.6492
594.694	45.3461
597.587	32.5082
600.48	25.2979
603.373	23.8795
606.265	26.3929
609.158	32.3795
612.051	44.5089
614.943	58.8932
617.836	75.7863
620.729	101.784
623.621	130.193
626.514	163.059
629.407	191.46
632.3	222.128
635.192	241.586
638.085	243.653
640.978	237.4
643.87	213.828
646.763	185.961
649.656	155.872
652.548	128.086
655.441	105.073
658.334	84.56
661.227	67.9938
664.119	53.6145
667.012	42.5816
669.905	33.8295
672.797	27.7181
675.69	18.5448
678.583	15.1308
681.476	10.126
684.368	7.42277
687.261	5.95625
690.154	3.68613
693.046	2.30186
695.939	1.33708
698.832	0.037735
701.724	2.05304
704.617	2.07919
707.51	1.64957
710.403	3.16519
713.295	2.39252
716.188	0.47113
719.081	1.57626
721.973	6.77171
724.866	13.5968
727.759	24.0179
730.651	41.6848
733.544	64.1875
736.437	98.2228
739.33	142.306
742.222	184.88
745.115	195.325
748.008	163.542
750.9	112.65
753.793	77.7303
756.686	53.0371
759.578	37.0029
762.471	28.5666
765.364	20.2151
768.256	19.666
771.149	13.1819
774.042	8.42133
776.935	6.19023
779.827	4.34166
782.72	3.07574
785.613	2.01323
788.505	2.62059
791.398	0.044937
794.291	0.418228
797.183	3.05489
800.076	2.69908
802.969	4.19939
805.862	5.52519
808.754	7.6797
811.647	8.8492
814.54	8.84865
817.432	6.13599
820.325	5.17252
823.218	1.88715
826.111	2.67121
829.003	0.031425
831.896	0.539726
834.789	0.695358
837.681	0.583107
840.574	1.42975
843.467	0.823883
846.359	2.44199
849.252	4.45578
852.145	7.70029
855.038	12.017
857.93	15.4501
860.823	21.0959
863.716	24.2885
866.608	28.3418
869.501	30.1119
872.394	31.8874
875.286	38.0365
878.179	39.884
881.072	41.8397
883.965	42.4874
886.857	38.424
889.75	32.1017
892.643	27.0357
895.535	20.4204
898.428	17.7614
901.321	14.9258
904.213	10.5559
907.106	8.93414
909.999	7.58026
912.891	4.53606
915.784	4.12932
918.677	2.42512
921.57	2.27399
924.462	1.25696
927.355	1.36584
930.248	1.63867
933.14	2.45512
936.033	5.45075
938.926	7.27864
941.818	12.3165
944.711	17.7523
947.604	21.5947
950.497	20.6441
953.389	16.9262
956.282	13.4441
959.175	7.66113
962.067	4.17058
964.96	2.96101
967.853	0.528168
970.745	0.303253
973.638	1.95445
976.531	2.19862
979.423	1.40186
982.316	0.102127
985.209	2.61971
988.102	7.37067
990.994	13.9377
993.887	18.2541
996.78	22.6243
999.672	29.2517
1002.57	32.5841
1005.46	35.7485
1008.35	37.3065
1011.24	37.5812
1014.14	36.4582
1017.03	34.1058
1019.92	30.6371
1022.81	22.7699
1025.71	17.3472
1028.6	11.4845
1031.49	8.74594
1034.38	3.97168
1037.28	3.01993
1040.17	3.18838
1043.06	4.32164
1045.96	6.45032
1048.85	10.5029
1051.74	14.0357
1054.63	16.1567
1057.53	19.0761
1060.42	20.6303
1063.31	17.6527
1066.2	15.2231
1069.1	11.133
1071.99	10.0887
1074.88	7.75699
1077.78	8.30116
1080.67	5.3147
1083.56	4.88516
1086.45	5.58493
1089.35	3.26413
1092.24	6.31799
1095.13	1.19366
1098.02	2.14238
1100.92	0.515808
1103.81	1.61566
1106.7	1.09273
1109.6	0.242645
1112.49	0.337265
1115.38	1.53159
1118.27	3.0208
1121.17	6.67732
1124.06	10.0534
1126.95	19.0532
1129.84	18.6428
1132.74	21.6883
1135.63	26.0853
1138.52	28.5375
1141.41	27.9502
1144.31	28.2135
1147.2	26.166
1150.09	26.7384
1152.98	24.902
1155.88	24.7959
1158.77	25.9346
1161.66	28.5332
1164.56	30.7212
1167.45	33.0871
1170.34	32.5871
1173.23	33.7667
1176.13	32.764
1179.02	31.4962
1181.91	29.4251
1184.81	26.9378
1187.7	23.1904
1190.59	22.6852
1193.48	20.3796
1196.38	20.267
1199.27	18.2944
1202.16	17.1605
1205.05	14.9281
1207.95	11.7366
1210.84	8.93428
1213.73	6.25201
1216.62	5.46004
1219.52	2.71606
1222.41	3.42612
1225.3	1.10641
1228.2	1.22017
1231.09	0.757431
1233.98	0.823036
1236.87	0.217552
1239.77	0.354492
1242.66	0.065727
1245.55	1.12677
1248.44	1.76418
1251.34	2.51196
1254.23	2.58058
1257.12	2.52924
1260.02	3.09163
1262.91	3.19375
1265.8	2.9296
1268.69	2.50327
1271.59	1.65715
1274.48	2.79552
1277.37	1.88447
1280.26	2.54446
1283.16	1.84367
1286.05	0.536301
