Measurement: Raman, 532 nm, unoriented, Raman Data Processed
Mineral: Inderborite
Rruff sample: R060871
Ideal chemistry: CaMg[B_3_O_3_(OH)_5_]_2_6H_2_O
Locality: TL, Inder, Kazakhstan
Source: Michael Scott
Description: Colorless well-formed prismatic crystals
Raman shift (cm-1)	intensity
131.648	0
134.54	6.22705
137.433	360.563
140.326	833.811
143.218	1542.71
146.111	2419.67
149.004	2663.98
151.896	2137.64
154.789	1877.17
157.682	1548.24
160.574	1200.66
163.467	1031.38
166.36	846.31
169.252	644.508
172.145	471.655
175.038	423.662
177.931	574.461
180.823	654.701
183.716	620.644
186.609	638.844
189.501	626.815
192.394	750.351
195.287	619.609
198.179	322.623
201.072	334.826
203.965	448.574
206.858	691.406
209.75	626.169
212.643	325.783
215.536	44.3188
218.428	24.5649
221.321	77.9624
224.214	65.3545
227.107	7.604
229.999	132.295
232.892	168.105
235.785	310.256
238.677	487.788
241.57	778.309
244.463	1015.83
247.355	1322.51
250.248	1347.15
253.141	1166.96
256.033	850.393
258.926	616.849
261.819	508.566
264.712	334.307
267.604	230.378
270.497	238.705
273.39	251.471
276.282	284.926
279.175	157.699
282.068	62.2212
284.96	50.3613
287.853	24.915
290.746	51.8369
293.639	68.542
296.531	8.48242
299.424	21.604
302.317	301.199
305.209	314.008
308.102	502.183
310.995	727.216
313.887	1026.74
316.78	1384.51
319.673	1671.03
322.565	1772.81
325.458	1559.82
328.351	1175.14
331.244	857.048
334.136	551.41
337.029	370.102
339.922	253.913
342.814	217.266
345.707	236.92
348.6	252.792
351.493	301.866
354.385	357.291
357.278	245.736
360.171	282.597
363.063	173.003
365.956	124.491
368.849	85.2222
371.741	105.944
374.634	218.787
377.527	317.414
380.419	345.221
383.312	344.555
386.205	264.239
389.098	198.718
391.99	103.421
394.883	58.4673
397.776	130.386
400.668	180.121
403.561	145.475
406.454	70.1304
409.346	89.4146
412.239	89.0107
415.132	260.983
418.024	282.591
420.917	378.008
423.81	419.241
426.703	397.766
429.595	367.4
432.488	300.44
435.381	269.041
438.273	210.938
441.166	152.714
444.059	155.536
446.952	110.192
449.844	5.04883
452.737	74.3872
455.63	77.7017
458.522	18.4912
461.415	42.148
464.308	22.5913
467.2	31.4458
470.093	8.49658
472.986	17.1133
475.878	4.95654
478.771	25.4595
481.664	112.559
484.557	124.817
487.449	206.781
490.342	268.084
493.235	302.369
496.127	358.552
499.02	550.713
501.913	577.856
504.805	569.243
507.698	460.305
510.591	433.898
513.484	394.262
516.376	389.419
519.269	422.291
522.162	404.315
525.054	364.135
527.947	357.984
530.84	316.137
533.732	267.744
536.625	236.231
539.518	218.197
542.41	129.471
545.303	54.1743
548.196	12.4629
551.089	10.2427
553.981	50.6977
556.874	51.0723
559.767	0.17334
562.659	68.9898
565.552	165.114
568.445	226.054
571.337	325.449
574.23	502.733
577.123	618.536
580.016	755.333
582.908	838.585
585.801	890.28
588.694	873.865
591.586	815.011
594.479	793.936
597.372	802.424
600.264	823.491
603.157	871.339
606.05	908.415
608.942	906.124
611.835	1089.3
614.728	1259.47
617.621	1461.89
620.513	1782.97
623.406	2162.77
626.299	2510.59
629.191	2918.81
632.084	3245.28
634.977	3733.46
637.87	4228.97
640.762	4860.78
643.655	4856.53
646.548	4363.43
649.44	3577.01
652.333	2598.48
655.226	1905.04
658.118	1314.57
661.011	932.706
663.904	551.15
666.797	412.871
669.689	362.324
672.582	240.593
675.475	199.55
678.367	119.831
681.26	133.161
684.153	130.249
687.045	59.4512
689.938	79.04
692.831	54.1968
695.723	11.8398
698.616	2.74268
701.509	62.2134
704.402	69.1352
707.294	12.3975
710.187	4.08057
713.08	44.7075
715.972	14.687
718.865	58.0024
721.758	98.0215
724.65	122.655
727.543	182.594
730.436	257.681
733.328	280.344
736.221	396.614
739.114	574.45
742.007	784.181
744.899	1117.55
747.792	1333.13
750.685	1674.31
753.577	2280.51
756.47	3390.17
759.363	3268.57
762.255	1852.33
765.148	987.899
768.041	624.064
770.934	390.959
773.826	231.37
776.719	147.795
779.612	105.581
782.504	114.307
785.397	122.649
788.29	90.6231
791.183	115.826
794.075	202.808
796.968	185.805
799.861	227.781
802.753	207.173
805.646	170.254
808.539	111.769
811.431	111.228
814.324	69.5581
817.217	16.1196
820.109	42.0732
823.002	22.2505
825.895	27.1724
828.788	72.3936
831.68	21.981
834.573	9.21582
837.466	69.4883
840.358	102.806
843.251	97.0742
846.144	206.722
849.036	360.097
851.929	454.711
854.822	713.882
857.715	967.029
860.607	1332.6
863.5	1427.8
866.393	1375.3
869.285	996.695
872.178	672.299
875.071	503.94
877.963	363.797
880.856	290.396
883.749	242.997
886.641	247.236
889.534	298.184
892.427	234.893
895.32	232.287
898.212	221.148
901.105	150.196
903.998	108.883
906.89	40.6226
909.783	37.2598
912.676	39.5391
915.568	15.1045
918.461	4.78564
921.354	8.00146
924.246	38.1645
927.139	109.237
930.032	78.2319
932.925	89.771
935.817	91.5264
938.71	91.0019
941.603	87.7559
944.495	46.4346
947.388	37.0176
950.281	18.498
953.173	13.5059
956.066	12.5449
958.959	5.34863
961.852	32.0098
964.744	28.6387
967.637	17.7021
970.53	73.8037
973.422	81.7432
976.315	98.2715
979.208	91.2842
982.101	148.688
984.993	101.367
987.886	103.852
990.779	157.426
993.671	252.572
996.564	483.38
999.457	606.838
1002.35	791.63
1005.24	727.614
1008.13	543.354
1011.03	398.082
1013.92	323.148
1016.81	231.848
1019.71	206.076
1022.6	175.151
1025.49	377.979
1028.38	321.709
1031.28	457.167
1034.17	564.681
1037.06	650.813
1039.95	739.369
1042.85	702.612
1045.74	678.227
1048.63	562.079
1051.53	648.232
1054.42	658.355
1057.31	644.355
1060.2	544.598
1063.1	494.745
1065.99	467.877
1068.88	384.629
1071.77	240.924
1074.67	157.028
1077.56	124.045
1080.45	35.5693
1083.35	38.8721
1086.24	5.90332
1089.13	35.2393
1092.02	40.9228
1094.92	15.3447
1097.81	37.8574
1100.7	27.8525
1103.59	105.681
1106.49	43.7129
1109.38	124.738
1112.27	25.2441
1115.16	19.0059
1118.06	41.7227
1120.95	38.9258
1123.84	25.8984
1126.73	32.4326
1129.63	95.3926
1132.52	102.052
1135.41	42.7754
1138.31	22.8867
1141.2	84.5781
1144.09	58.4961
1146.98	84.3408
1149.88	145.796
1152.77	184.217
1155.66	247.766
1158.56	226.553
1161.45	217.296
1164.34	146.364
1167.23	174.496
1170.13	140.105
1173.02	101.457
1175.91	245.784
1178.8	220.755
1181.7	218.649
1184.59	269.89
1187.48	357.528
1190.38	314.121
1193.27	261.978
1196.16	212.946
1199.05	261.067
1201.94	218.879
1204.84	164.572
1207.73	213.033
1210.62	198.269
1213.52	177.148
1216.41	213.184
1219.3	109.686
1222.19	221.954
1225.09	172.784
1227.98	136.012
1230.87	84.9404
1233.77	115.443
1236.66	152.745
1239.55	90.8223
1242.44	74.958
1245.34	71.5059
1248.23	64.6172
1251.12	14.6816
1254.01	62.3721
1256.91	27.5332
1259.8	59.2285
1262.69	54.8486
1265.59	55.9121
1268.48	84.7715
1271.37	46.4932
