Measurement: Raman, 532 nm, unoriented, Raman Data Processed
Mineral: Indialite
Rruff sample: R140777
Ideal chemistry: Mg_2_Al_3_(AlSi_5_)O_18_
Locality: Caspar quarry, Bellerberg volcano, Ettringen, Mayen, Eifel, Rhineland-Palatinate, Germany
Source: Ch. and H. Sch√§fer
Description: Violet, associated with quartz, labradorite and tridymite (R140778).
Raman shift (cm-1)	intensity
89.7832	0
93.158	37.3765
96.5328	15.9254
99.9077	11.2396
103.282	19.2407
106.657	66.9688
110.032	107.045
113.407	137.498
116.782	251.594
120.157	298.525
123.531	187.671
126.906	128.752
130.281	82.0606
133.656	54.3406
137.031	42.275
140.405	61.9585
143.78	36.9794
147.155	32.498
150.53	33.0273
153.905	49.7105
157.28	65.5072
160.654	23.5742
164.029	9.70773
167.404	0.150208
170.779	3.91821
174.154	5.78616
177.528	10.6746
180.903	13.1916
184.278	16.2534
187.653	13.4793
191.028	11.601
194.403	11.3734
197.777	8.84454
201.152	5.62704
204.527	10.3913
207.902	4.79285
211.277	4.29425
214.651	2.60931
218.026	0.703125
221.401	2.48502
224.776	7.13415
228.151	9.50503
231.525	16.8466
234.9	33.8462
238.275	47.8433
241.65	60.2673
245.025	75.7436
248.4	98.0263
251.774	135.868
255.149	181.696
258.524	232.135
261.899	145.081
265.274	41.9073
268.649	12.833
272.023	0.347229
275.398	0.390686
278.773	4.57678
282.148	12.8876
285.523	17.9665
288.897	28.6162
292.272	45.7579
295.647	45.0208
299.022	38.3736
302.397	35.3761
305.772	29.7018
309.146	12.1092
312.521	1.87384
315.896	1.55225
319.271	0.06723
322.646	7.43323
326.02	18.1658
329.395	24.7184
332.77	11.3979
336.145	4.34787
339.52	6.65613
342.894	9.45062
346.269	11.045
349.644	15.2846
353.019	17.4857
356.394	23.01
359.769	25.6837
363.143	38.3299
366.518	48.637
369.893	25.776
373.268	13.5496
376.643	10.4307
380.017	7.19754
383.392	6.20837
386.767	4.72861
390.142	1.84625
393.517	1.61002
396.892	0.31604
400.266	1.43005
403.641	1.89237
407.016	0.829895
410.391	4.76556
413.766	10.9575
417.14	17.2288
420.515	30.791
423.89	41.5294
427.265	40.2683
430.64	25.3257
434.014	18.2383
437.389	18.4128
440.764	20.8276
444.139	26.3475
447.514	33.7197
450.889	42.8208
454.263	53.3245
457.638	51.4988
461.013	52.9531
464.388	64.0896
467.763	75.9882
471.137	78.3606
474.512	81.2622
477.887	83.4516
481.262	100.991
484.637	123.239
488.012	111.71
491.386	79.2043
494.761	45.5289
498.136	23.1508
501.511	11.6782
504.886	5.88568
508.26	1.38708
511.635	0.940674
515.01	2.23877
518.385	1.29895
521.76	0.686707
525.135	1.53699
528.509	2.27277
531.884	11.2743
535.259	26.3631
538.634	56.7658
542.009	102.375
545.384	166.046
548.758	247.231
552.133	321.224
555.508	307.854
558.883	243.605
562.258	216.594
565.632	199.06
569.007	204.861
572.382	231.532
575.757	255.246
579.132	214.447
582.506	133.95
585.881	79.2716
589.256	49.4547
592.631	33.5502
596.006	28.8311
599.381	21.1979
602.755	15.4294
606.13	10.1002
609.505	16.772
612.88	9.95612
616.255	8.48407
619.63	6.16303
623.004	2.8208
626.379	2.9483
629.754	2.31867
633.129	2.51215
636.504	1.87592
639.878	1.35169
643.253	3.30115
646.628	6.72931
650.003	10.8944
653.378	21.0984
656.752	34.7118
660.127	56.4169
663.502	77.8173
666.877	107.9
670.252	105.05
673.626	62.0328
677.001	27.4276
680.376	11.537
683.751	4.63745
687.126	6.05652
690.501	1.25165
693.875	2.78241
697.25	0.617615
700.625	1.46045
704	5.03833
707.375	15.804
710.75	22.5903
714.124	24.1646
717.499	22.1918
720.874	23.4612
724.249	30.2756
727.624	34.9358
730.998	40.29
734.373	46.2816
737.748	49.1172
741.123	44.867
744.498	40.2285
747.872	37.2609
751.247	36.2563
754.622	26.067
757.997	20.2428
761.372	16.591
764.747	16.3835
768.121	16.403
771.496	17.7733
774.871	19.0306
778.246	17.7926
781.621	14.9717
784.995	18.4376
788.37	15.8144
791.745	15.2369
795.12	11.4038
798.495	8.88684
801.87	7.54523
805.244	9.68658
808.619	12.5272
811.994	2.73584
815.369	3.94257
818.744	5.26263
822.119	5.17438
825.493	0.510193
828.868	3.48547
832.243	4.16559
835.618	0.926025
838.993	1.35608
842.367	4.49164
845.742	6.07007
849.117	4.22864
852.492	5.41742
855.867	4.89502
859.241	5.28235
862.616	6.69238
865.991	9.41016
869.366	13.1261
872.741	15.7604
876.115	15.6872
879.49	24.842
882.865	19.4229
886.24	21.9396
889.615	35.514
892.99	53.9994
896.364	74.609
899.739	87.2531
903.114	80.3136
906.489	46.1093
909.864	31.9767
913.239	20.3409
916.613	18.6204
919.988	12.1528
923.363	7.95142
926.738	0.439331
930.113	2.07013
933.487	0.279907
936.862	1.97943
940.237	7.01605
943.612	10.5127
946.987	24.9474
950.361	41.6626
953.736	55.329
957.111	81.2355
960.486	128.698
963.861	165.01
967.236	200.476
970.61	211.156
973.985	133.99
977.36	63.7946
980.735	30.3438
984.11	18.1758
987.485	11.5347
990.859	13.377
994.234	17.716
997.609	33.1763
1000.98	41.2681
1004.36	67.024
1007.73	103.173
1011.11	113.992
1014.48	73.2648
1017.86	37.7345
1021.23	19.4598
1024.61	13.4141
1027.98	10.0198
1031.36	11.7239
1034.73	9.57068
1038.11	6.92578
1041.48	10.9752
1044.86	8.19806
1048.23	6.91168
1051.61	8.22699
1054.98	3.43115
1058.36	1.32507
1061.73	0.995728
1065.11	3.33044
1068.48	1.25299
1071.86	4.65515
1075.23	1.62451
1078.6	3.08215
1081.98	2.75232
1085.35	1.10699
1088.73	2.08997
1092.1	3.06757
1095.48	7.87329
1098.85	7.52979
1102.23	17.6648
1105.6	22.8599
1108.98	25.6671
1112.35	20.2531
1115.73	13.9934
1119.1	13.0951
1122.48	7.91235
1125.85	7.64087
1129.23	4.1842
1132.6	3.797
1135.98	6.47546
1139.35	10.3626
1142.73	10.9375
1146.1	9.06592
1149.48	12.9689
1152.85	12.812
1156.22	16.5201
1159.6	12.805
1162.97	13.2668
1166.35	14.2323
1169.72	21.9337
1173.1	41.6041
1176.47	71.9806
1179.85	101.219
1183.22	127.61
1186.6	104.36
1189.97	69.5006
1193.35	42.4581
1196.72	27.2057
1200.1	16.4873
1203.47	12.3395
1206.85	11.0743
1210.22	12.1433
1213.6	7.8114
1216.97	6.63196
1220.35	2.3147
1223.72	1.33264
1227.1	1.86584
1230.47	0.290649
1233.85	0.578979
1237.22	2.71387
1240.6	0.468628
1243.97	3.32581
1247.35	7.63123
1250.72	7.62622
1254.1	2.76477
1257.47	3.56262
1260.85	2.22339
1264.22	3.24731
1267.59	0.17981
1270.97	1.24182
1274.34	4.89941
1277.72	6.1814
1281.09	2.08911
1284.47	1.53906
1287.84	3.91882
1291.22	2.19324
1294.59	4.93994
1297.97	3.16736
1301.34	1.005
