Measurement: Raman, 532 nm, unoriented, Raman Data Processed
Mineral: Indium
Rruff sample: R060771
Ideal chemistry: In
Locality: Eastern Transbaikal, Russia
Source: Michael Scott
Description: Dark grey metallic grains
Raman shift (cm-1)	intensity
146.111	0
149.003	33.293
151.896	91.7705
154.789	54.1543
157.682	151.089
160.574	419.927
163.467	454.462
166.36	390.288
169.252	431.742
172.145	705.507
175.038	945.61
177.93	926.612
180.823	789.756
183.716	554.164
186.609	496.132
189.501	288.745
192.394	68.6431
195.287	50.4297
198.179	190.975
201.072	222.175
203.965	39.98
206.857	207.89
209.75	379.593
212.643	520.752
215.536	777.93
218.428	1073.42
221.321	1276.88
224.214	1553.48
227.106	1845.66
229.999	2148.52
232.892	2502.48
235.784	2796.84
238.677	3231.49
241.57	3712.43
244.462	4308.64
247.355	5041.95
250.248	5572.82
253.141	6132.9
256.033	6673.28
258.926	7236.75
261.819	7688.6
264.711	7959.88
267.604	8150.1
270.497	7921.77
273.389	7605
276.282	7236.68
279.175	6556.19
282.068	5851.48
284.96	5096.05
287.853	4317.68
290.746	3731.92
293.638	3056.69
296.531	2506.36
299.424	2079.36
302.316	1650.45
305.209	1342.99
308.102	1077.91
310.995	841.252
313.887	620.423
316.78	455.844
319.673	336.193
322.565	231.386
325.458	178.294
328.351	25.0786
331.243	71.1128
334.136	9.68701
337.029	5.75049
339.922	64.6777
342.814	54.9536
345.707	133.085
348.6	204.079
351.492	368.524
354.385	447.547
357.278	522.769
360.17	467.604
363.063	561.384
365.956	540.394
368.849	511.867
371.741	444.164
374.634	426.701
377.527	330.085
380.419	214.548
383.312	152.288
386.205	116.241
389.097	46.1699
391.99	9.96973
394.883	4.96924
397.776	20.9531
400.668	56.2051
403.561	85.3667
406.454	62.7685
409.346	40.2332
412.239	14.5593
415.132	19.1939
418.024	3.43433
420.917	57.3481
423.81	20.2615
426.703	60.2256
429.595	99.0366
432.488	135.35
435.381	122.689
438.273	154.963
441.166	194.707
444.059	186.667
446.951	234.121
449.844	260.541
452.737	264.912
455.629	300.652
458.522	271.004
461.415	258.405
464.308	252.184
467.2	242.055
470.093	239.667
472.986	242.859
475.878	227.863
478.771	157.454
481.664	172.783
484.556	160.716
487.449	207.618
490.342	121.439
493.234	96.2876
496.127	119.096
499.02	122.656
501.913	93.2659
504.805	86.5186
507.698	68.0598
510.591	57.8159
513.484	62.0432
516.376	75.7729
519.269	63.6609
522.161	104.13
525.054	39.3716
527.947	55.2588
530.84	72.4397
533.732	22.6223
536.625	13.4607
539.518	23.3298
542.41	4.19727
545.303	10.7527
548.196	8.5564
551.089	1.98657
553.981	11.2627
556.874	8.53711
559.767	14.0449
562.659	5.19629
565.552	33.575
568.445	33.479
571.337	19.1711
574.23	29.9163
577.123	22.387
580.016	58.175
582.908	76.1003
585.801	106.767
588.694	114.466
591.586	129.787
594.479	126.487
597.372	145.463
600.264	204.452
603.157	222.554
606.05	224.591
608.943	265.997
611.835	330.602
614.728	368.596
617.621	365.062
620.513	480.644
623.406	539.617
626.299	636.119
629.191	682.708
632.084	777.722
634.977	840.872
637.87	890.3
640.762	867.702
643.655	861.415
646.547	803.57
649.44	747.231
652.333	694.958
655.226	572.872
658.118	458.288
661.011	346.247
663.904	260.716
666.796	223.252
669.689	181.15
672.582	163.243
675.474	116.51
678.367	81.8037
681.26	67.4939
684.153	27.2496
687.045	40.9438
689.938	25.2786
692.831	0.685913
695.723	8.86694
698.616	0.783569
701.509	8.33276
704.402	25.8584
707.294	6.67041
710.187	21.0739
713.08	4.99634
715.972	27.2035
718.865	1.38281
721.758	43.103
724.651	48.3565
727.543	2.19812
730.436	36.9249
733.329	45.352
736.221	46.0547
739.114	14.8777
742.007	32.6351
744.899	56.8914
747.792	54.4183
750.685	64.6154
753.578	16.3579
756.47	56.8168
759.363	48.0344
762.255	84.076
765.148	38.3767
768.041	52.4984
770.934	75.074
773.826	47.5288
776.719	37.3713
779.612	10.6182
782.504	39.7841
785.397	41.3843
788.29	54.989
791.182	44.0669
794.075	44.9297
796.968	32.7808
799.861	20.5272
802.753	15.5148
805.646	27.0095
808.539	0.414429
811.431	1.96289
814.324	36.2778
817.217	4.06592
820.109	4.26856
823.002	14.3119
825.895	3.90625
828.788	42.3619
831.68	26.9871
834.573	8.26013
837.466	31.6975
840.358	31.9977
843.251	23.8611
846.144	5.13708
849.036	19.6519
851.929	22.9927
854.822	13.9546
857.715	9.71301
860.607	42.02
863.5	29.4868
866.393	0.331055
869.285	3.10461
872.178	18.0438
875.071	47.6495
877.964	36.4723
880.856	30.0109
883.749	37.655
886.641	24.408
889.534	69.3394
892.427	30.6368
895.32	15.7975
898.212	35.3502
901.105	40.921
903.998	28.0027
906.89	40.8018
909.783	26.5612
912.676	20.3484
915.568	16.2372
918.461	54.7304
921.354	53.9681
924.247	58.7164
927.139	61.3005
930.032	31.3594
932.925	56.7801
935.817	48.3099
938.71	47.895
941.603	65.6254
944.495	84.0253
947.388	86.8272
950.281	98.0399
953.174	134.245
956.066	114.416
958.959	116.303
961.852	134.935
964.744	101.465
967.637	86.7797
970.53	45.2401
973.422	31.0317
976.315	60.0826
979.208	36.5062
982.101	23.1148
984.993	46.0547
987.886	14.551
990.779	7.1543
993.671	3.53503
996.564	3.32495
999.457	28.3855
1002.35	8.6626
1005.24	5.21765
1008.13	1.69666
1011.03	1.68567
1013.92	23.7676
1016.81	17.3973
1019.71	2.15247
1022.6	36.7363
1025.49	39.1837
1028.38	31.6257
1031.28	2.16345
1034.17	17.0309
1037.06	18.8671
1039.95	19.5558
1042.85	45.5492
1045.74	43.5958
1048.63	45.3742
1051.53	42.6056
1054.42	40.1047
1057.31	25.2381
1060.2	15.6666
1063.1	34.0159
1065.99	9.56256
1068.88	23.3786
1071.77	10.3334
1074.67	26.9257
1077.56	15.1409
1080.45	24.6366
1083.35	14.4382
1086.24	40.4539
1089.13	25.8937
1092.02	25.1795
1094.92	25.8102
1097.81	50.0043
1100.7	30.3843
1103.59	22.9122
1106.49	23.1058
1109.38	31.1992
1112.27	23.4028
1115.16	13.0768
1118.06	29.8128
1120.95	12.6777
1123.84	43.9405
1126.74	29.4669
1129.63	19.6373
1132.52	35.4455
1135.41	20.4119
1138.31	30.2447
1141.2	23.9562
1144.09	10.7703
1146.98	6.40424
1149.88	32.9767
1152.77	37.6517
1155.66	16.8112
1158.56	31.7008
1161.45	15.455
1164.34	17.4805
1167.23	17.0993
1170.13	2.68347
1173.02	12.116
1175.91	18.0237
1178.8	9.20984
1181.7	22.7188
1184.59	6.00366
1187.48	29.4263
1190.38	20.4171
1193.27	24.4311
1196.16	11.1602
1199.05	21.2534
1201.95	19.2598
1204.84	33.8548
1207.73	22.9189
1210.62	25.7471
1213.52	39.5977
1216.41	8.53101
1219.3	0.294189
1222.19	4.35956
1225.09	23.9507
1227.98	11.9204
1230.87	15.8509
1233.77	20.6113
1236.66	29.7967
1239.55	18.0463
1242.44	31.3264
1245.34	19.9476
1248.23	13.2894
1251.12	3.05243
1254.01	12.6881
1256.91	21.5702
1259.8	10.9122
1262.69	15.3856
1265.59	17.2199
1268.48	19.6
1271.37	9.26727
1274.26	48.0953
1277.16	33.807
1280.05	19.2677
1282.94	17.5853
1285.83	3.76856
1288.73	18.513
1291.62	14.2937
1294.51	21.4041
1297.4	5.49536
