Measurement: Raman, 780 nm, unoriented, Raman Data Processed
Mineral: Indialite
Rruff sample: R140777
Ideal chemistry: Mg_2_Al_3_(AlSi_5_)O_18_
Locality: Caspar quarry, Bellerberg volcano, Ettringen, Mayen, Eifel, Rhineland-Palatinate, Germany
Source: Ch. and H. Sch√§fer
Description: Violet, associated with quartz, labradorite and tridymite (R140778).
Raman shift (cm-1)	intensity
101.684	0
105.059	1.18945
108.434	31.0608
111.809	41.8118
115.184	76.1511
118.558	168.772
121.933	166.458
125.308	100.268
128.683	55.1765
132.058	15.3848
135.433	9.51196
138.807	11.3081
142.182	4.04175
145.557	2.9939
148.932	11.3689
152.307	14.875
155.681	33.456
159.056	39.1326
162.431	13.2283
165.806	9.83374
169.181	4.95312
172.555	6.71314
175.93	9.71167
179.305	22.1457
182.68	40.7913
186.055	33.5686
189.43	33.6357
192.804	26.7744
196.179	31.7498
199.554	19.2175
202.929	18.1213
206.304	29.9763
209.678	18.2192
213.053	20.8213
216.428	18.9812
219.803	24.5564
223.178	28.0146
226.553	31.8936
229.927	39.5144
233.302	43.3062
236.677	58.2461
240.052	69.8862
243.427	70.7227
246.801	77.4138
250.176	89.9067
253.551	110.397
256.926	145.919
260.301	202.06
263.675	98.4763
267.05	19.2461
270.425	0.503418
273.8	1.37598
277.175	1.64722
280.55	5.20019
283.924	6.38745
287.299	13.1892
290.674	34.0615
294.049	41.7339
297.424	42.9104
300.798	42.5679
304.173	34.9541
307.548	19.4114
310.923	1.77759
314.298	0.384277
317.673	0.002197
321.047	5.77148
324.422	8.58765
327.797	11.4785
331.172	8.98755
334.547	8.03271
337.921	17.126
341.296	14.2258
344.671	14.1489
348.046	20.5295
351.421	13.884
354.796	13.1475
358.17	18.1611
361.545	31.8621
364.92	38.1418
368.295	50.7327
371.67	23.5605
375.044	5.99146
378.419	3.33154
381.794	0.344971
385.169	3.69116
388.544	2.74976
391.918	3.81494
395.293	2.79614
398.668	1.13965
402.043	0.250732
405.418	2.36768
408.793	1.26685
412.167	1.16064
415.542	3.38013
418.917	15.095
422.292	34.648
425.667	40.9949
429.041	41.5601
432.416	24.7771
435.791	16.519
439.166	11.0166
442.541	17.8071
445.915	15.5171
449.29	14.4639
452.665	23.5908
456.04	30.2653
459.415	25.863
462.789	29.568
466.164	29.9459
469.539	40.0575
472.914	55.8212
476.289	49.459
479.664	54.6294
483.038	58.0199
486.413	55.8397
489.788	64.3381
493.163	31.9758
496.538	22.7277
499.913	18.8307
503.287	7.4093
506.662	5.52332
510.037	6.22266
513.412	8.29199
516.787	7.94678
520.161	4.69702
523.536	4.70093
526.911	4.68359
530.286	2.81421
533.661	5.3894
537.035	29.3754
540.41	56.6331
543.785	82.4712
547.16	137.821
550.535	199.931
553.909	252.699
557.284	239.015
560.659	190.775
564.034	168.471
567.409	144.442
570.784	158.039
574.158	178.497
577.533	193.082
580.908	156.727
584.283	101.108
587.658	50.6576
591.033	35.4341
594.407	21.5673
597.782	22.9737
601.157	21.0145
604.532	11.8944
607.907	9.73145
611.281	9.33545
614.656	7.82165
618.031	1.31811
621.406	2.26099
624.781	5.99585
628.155	3.65466
631.53	0.625122
634.905	4.53332
638.28	0.017212
641.655	1.32092
645.029	4.96191
648.404	5.12354
651.779	6.33374
655.154	19.4556
658.529	32.1134
661.904	39.4862
665.278	64.1003
668.653	75.7009
672.028	64.7573
675.403	36.3491
678.778	17.3412
682.153	9.79309
685.527	4.99646
688.902	3.2063
692.277	0.7771
695.652	0.780518
699.027	1.81726
702.401	4.93408
705.776	9.26855
709.151	13.1719
712.526	19.5311
715.901	13.4918
719.275	9.85376
722.65	4.93604
726.025	11.2994
729.4	8.44922
732.775	5.28564
736.149	11.501
739.524	12.0666
742.899	6.19373
746.274	7.33752
749.649	6.9082
753.024	5.56799
756.398	5.66907
759.773	0.369019
763.148	0.619141
766.523	5.87781
769.898	6.93921
773.273	10.8721
776.647	9.56079
780.022	11.2767
783.397	5.52576
786.772	6.50842
790.146	9.19763
793.521	2.97681
796.896	7.62927
800.271	3.53406
803.646	7.83179
807.021	10.5885
810.395	4.37732
813.77	3.44043
817.145	1.06689
820.52	8.85913
823.895	5.78845
827.269	5.34155
830.644	0.957031
834.019	0.410889
837.394	1.35986
840.769	0.800415
844.144	2.9989
847.518	0.687256
850.893	4.23669
854.268	4.94092
857.643	2.06409
861.018	6.18396
864.393	2.82922
867.767	0.883545
871.142	6.67944
874.517	2.92505
877.892	5.26856
881.266	1.14941
884.641	8.55225
888.016	6.44617
891.391	7.48291
894.766	6.06152
898.141	8.92407
901.515	7.1311
904.89	12.9762
908.265	7.76599
911.64	3.29114
915.015	4.65564
918.389	4.68628
921.764	5.25391
925.139	2.55298
928.514	4.42835
931.889	2.75549
935.264	3.35498
938.638	7.35669
942.013	5.37231
945.388	5.92346
948.763	19.0198
952.138	22.9253
955.512	33.7817
958.887	45.0018
962.262	64.3541
965.637	82.0029
969.012	98.7201
972.386	100.261
975.761	54.0048
979.136	21.7363
982.511	9.66077
985.886	3.66138
989.261	1.10413
992.635	0.199097
996.01	3.95532
999.385	7.39661
1002.76	8.78271
1006.13	21.0035
1009.51	28.3691
1012.88	32.4867
1016.26	20.8199
1019.63	10.3098
1023.01	2.43152
1026.38	0.568115
1029.76	5.65601
1033.13	1.31433
1036.51	7.81604
1039.88	5.9917
1043.26	4.21539
1046.63	2.5581
1050.01	1.73279
1053.38	1.96802
1056.76	1.49048
1060.13	4.18573
1063.51	1.32837
1066.88	2.15076
1070.26	0.287476
1073.63	2.5282
1077.01	1.3125
1080.38	0.063599
1083.76	3.01788
1087.13	6.30737
1090.51	1.43109
1093.88	3.836
1097.26	2.79065
1100.63	4.1709
1104	10.6799
1107.38	18.0757
1110.75	14.77
1114.13	9.35742
1117.5	7.91064
1120.88	4.0152
1124.25	2.76007
1127.63	0.228271
1131	0.302063
1134.38	1.23077
1137.75	0.413635
1141.13	5.37457
1144.5	5.07886
1147.88	4.61829
1151.25	4.69019
1154.63	8.23755
1158	7.72302
1161.38	7.70789
1164.75	7.3476
1168.13	12.2891
1171.5	22.7756
1174.88	30.471
1178.25	47.9629
1181.62	68.981
1185	79.5887
1188.38	57.5217
1191.75	32.9091
1195.12	22.3981
1198.5	16.3588
1201.87	12.4296
1205.25	8.10944
1208.62	5.18335
1212	5.77832
1215.37	6.78235
1218.75	2.91998
1222.12	5.88275
1225.5	4.47766
1228.87	3.43085
1232.25	6.32104
1235.62	5.12061
1239	1.97327
1242.37	1.39593
1245.75	0.619873
1249.12	3.24121
1252.5	2.14038
1255.87	4.20245
1259.25	1.48309
1262.62	6.72607
1265.99	10.7308
1269.37	5.28601
1272.74	4.3175
1276.12	0.96405
1279.49	5.06043
1282.87	3.00726
