Measurement: Raman, 532 nm, unoriented, Raman Data Processed
Mineral: Inesite
Rruff sample: R070456
Ideal chemistry: Ca_2_Mn^2+^_7_Si_10_O_28_(OH)_2_5H_2_O
Locality: Fengjiashan mine (Daye Copper mine), Daye County, Huangshi Prefecture, Hubei Province, China
Source: Michael Scott
Description: Fan-shaped cluster of pink laths associated with quartz and brown platy hubeite
Measured chemistry: Ca_2.00_(Mn^2+^_6.03_Fe^2+^_0.93_Mg_0.04_)_Σ=7_Si_10.00_O_28_(OH)_2_·5H_2_O; (OH) estimated by charge balance; H_2_O by difference
Raman shift (cm-1)	intensity
144.37	0
147.263	127.296
150.155	64.8486
153.048	249.139
155.941	378.416
158.833	374.383
161.726	280.829
164.619	197.746
167.512	138.21
170.404	129.002
173.297	265.104
176.19	290.073
179.082	232.378
181.975	234.984
184.868	104.877
187.761	60.377
190.653	85.4985
193.546	38.1514
196.439	81.6128
199.331	46.7627
202.224	42.3677
205.117	157.905
208.009	250.276
210.902	323.413
213.795	510.978
216.688	492.223
219.58	429.73
222.473	353.52
225.366	253.013
228.258	182.858
231.151	110.891
234.044	84.8882
236.936	157.963
239.829	157.583
242.722	168.221
245.614	220.316
248.507	238.33
251.4	235.053
254.293	278.718
257.185	201.357
260.078	148.3
262.971	13.9312
265.863	65.9482
268.756	23.0913
271.649	122.515
274.541	104.469
277.434	180.399
280.327	282.792
283.22	354.094
286.112	382.58
289.005	459.471
291.898	513.275
294.79	526.332
297.683	547.082
300.576	450.043
303.469	204.5
306.361	39.2466
309.254	23.1162
312.147	30.3877
315.039	37.522
317.932	89.0132
320.825	233.995
323.717	246.816
326.61	274.987
329.503	374.226
332.396	579.947
335.288	635.909
338.181	797.018
341.074	1013.09
343.966	1219.82
346.859	1240.51
349.752	1006.49
352.644	864.109
355.537	607.761
358.43	457.287
361.322	461.004
364.215	431.025
367.108	498.271
370.001	482.225
372.893	501.929
375.786	488.179
378.679	482.072
381.572	449.639
384.464	377.286
387.357	348.8
390.25	245.893
393.142	217.657
396.035	33.6416
398.928	73.459
401.82	41.0796
404.713	134.509
407.606	142.989
410.498	194.702
413.391	137.463
416.284	191.85
419.177	289.868
422.069	407.256
424.962	384.492
427.855	391.408
430.747	284.912
433.64	325.785
436.533	263.882
439.425	224.872
442.318	253.699
445.211	309.25
448.104	301.031
450.996	241.436
453.889	147.026
456.782	82.4893
459.674	72.7353
462.567	31.4336
465.46	11.5879
468.353	10.1343
471.245	10.0039
474.138	56.4385
477.031	51.9668
479.923	66.9795
482.816	173.484
485.709	169.081
488.601	218.865
491.494	189.62
494.387	179.296
497.279	192.875
500.172	180.393
503.065	136.679
505.958	189.5
508.85	213.041
511.743	238.365
514.636	236.16
517.528	215.06
520.421	218.514
523.314	208.468
526.207	233.107
529.099	288.604
531.992	332.399
534.885	427.272
537.777	496.042
540.67	493.536
543.563	521.599
546.455	424.21
549.348	240.517
552.241	85.3721
555.134	14.021
558.026	39.6792
560.919	35.189
563.812	23.0767
566.704	35.0727
569.597	13.0986
572.49	11.2583
575.382	7.68018
578.275	30.0967
581.168	21.8213
584.061	62.7534
586.953	34.6162
589.846	42.6748
592.739	151.947
595.631	189.367
598.524	286.504
601.417	333.139
604.309	370.552
607.202	344.705
610.095	395.868
612.987	362.577
615.88	433.834
618.773	467.476
621.666	545.886
624.558	651.401
627.451	814.452
630.344	1030.56
633.236	1406.73
636.129	1867.66
639.022	2598.04
641.915	3496.53
644.807	4538.22
647.7	5539.49
650.593	6095.23
653.485	5988.96
656.378	5088.88
659.271	4015.96
662.163	3088.34
665.056	2377.55
667.949	1997.93
670.842	1799.61
673.734	1667.2
676.627	1678.77
679.52	1704.67
682.412	1723.33
685.305	1728.47
688.198	1548.49
691.091	1378.37
693.983	1027.89
696.876	723.827
699.769	481.894
702.661	434.11
705.554	422.987
708.447	468.921
711.339	494.536
714.232	507.019
717.125	400.406
720.018	261.69
722.91	146.56
725.803	65.624
728.696	4.38574
731.588	7.29443
734.481	5.00586
737.374	30.6235
740.266	13.1182
743.159	40.3989
746.052	27.3936
748.944	9.8081
751.837	3.81152
754.73	29.832
757.623	37.4668
760.515	63.1738
763.408	75.9961
766.301	87.4785
769.193	106.534
772.086	83.1025
774.979	55.5869
777.871	65.5147
780.764	17.4404
783.657	61.2105
786.55	61.458
789.442	87.0396
792.335	29.2759
795.228	27.9487
798.12	11.0708
801.013	67.4263
803.906	52.3179
806.798	53.2139
809.691	53.7852
812.584	60.2192
815.477	20.1167
818.369	113.778
821.262	40.2378
824.155	61.5107
827.047	62.6963
829.94	113.35
832.833	43.356
835.726	33.168
838.618	64.2759
841.511	61.8584
844.404	55.9106
847.296	88.1724
850.189	53.7046
853.082	24.0161
855.975	40.1528
858.867	27.8608
861.76	29.9673
864.653	51.9898
867.545	36.6445
870.438	34.4697
873.331	2.37988
876.223	41.5864
879.116	28.7627
882.009	21.2895
884.902	17.8447
887.794	26.7046
890.687	39.3701
893.58	15.5391
896.472	2.96875
899.365	9.19775
902.258	29.3477
905.15	45.252
908.043	189.064
910.936	209.713
913.828	257.301
916.721	337.421
919.614	449.559
922.507	710.46
925.399	911.522
928.292	1201.5
931.185	1297.94
934.077	1198.56
936.97	930.393
939.863	565.525
942.755	379.148
945.648	195.223
948.541	100.518
951.434	13.0327
954.326	3.60693
957.219	7.84912
960.112	10.3281
963.004	42.5972
965.897	38.0952
968.79	0.351563
971.683	10.311
974.575	64.4126
977.468	148.308
980.361	146.641
983.253	188.282
986.146	226.066
989.039	254
991.931	336.103
994.824	375.385
997.717	418.07
1000.61	494.785
1003.5	654.537
1006.39	771.192
1009.29	1137.35
1012.18	1463.05
1015.07	1535.22
1017.97	1699.23
1020.86	1894.77
1023.75	2269.64
1026.64	2693.46
1029.54	2939.85
1032.43	2777.51
1035.32	2207.83
1038.21	1758.44
1041.11	1571.04
1044	1632.78
1046.89	1820.71
1049.79	1897.13
1052.68	1744.9
1055.57	1424.2
1058.46	1284.1
1061.36	1264.21
1064.25	1273.12
1067.14	1214.22
1070.03	994.572
1072.93	701.407
1075.82	530.99
1078.71	385.539
1081.61	302.537
1084.5	213.628
1087.39	255.084
1090.28	166.001
1093.18	131.6
1096.07	72.3691
1098.96	83.3047
1101.85	2.07812
1104.75	6.4668
1107.64	27.7744
1110.53	16.7261
1113.42	17.4912
1116.32	24.6963
1119.21	18.043
1122.1	13.3481
1125	26.0605
1127.89	14.7085
1130.78	22.396
1133.67	2.80078
1136.57	36.2124
1139.46	67.5215
1142.35	29.4477
1145.24	55.9815
1148.14	64.7627
1151.03	27.4302
1153.92	22.5215
1156.82	83.2139
1159.71	82.5469
1162.6	77.896
1165.49	28.4575
1168.39	90.4316
1171.28	59.4082
1174.17	97.8521
1177.06	72.5396
1179.96	133.136
1182.85	94.0308
1185.74	97.3618
1188.63	51.4385
1191.53	88.3506
1194.42	78.2388
1197.31	73.5386
1200.21	86.5166
1203.1	78.4624
1205.99	44.0981
1208.88	48.895
1211.78	56.502
1214.67	82.0249
1217.56	102.118
1220.45	138.276
1223.35	131.593
1226.24	100.131
1229.13	36.5166
1232.03	41.4619
1234.92	54.5181
1237.81	36.8262
1240.7	72.9121
1243.6	40.5967
1246.49	4.00635
1249.38	46.4815
1252.28	69.7124
1255.17	47.9258
1258.06	37.4453
1260.95	68.7158
1263.85	55.4463
1266.74	37.7803
1269.63	80.4189
1272.52	75.9399
1275.42	39.1562
1278.31	41.0908
1281.2	10.5205
1284.09	11.5845
1286.99	70.418
1289.88	38.9487
1292.77	34.6885
