Measurement: Raman, 780 nm, unoriented, Raman Data Processed
Mineral: Inesite
Rruff sample: R090030
Ideal chemistry: Ca_2_Mn^2+^_7_Si_10_O_28_(OH)_2_5H_2_O
Locality: Hale Creek Mine, Mad River Ridge, Hale Creek, Trinity County, California
Source: James Shigley
Description: Clusters of pink slender chisel-shaped laths
Raman shift (cm-1)	intensity
130.464	0
133.357	7.42606
136.25	5.70727
139.142	0.074585
142.035	2.46683
144.928	9.10664
147.82	19.9747
150.713	28.8881
153.606	25.6533
156.499	14.3352
159.391	10.1336
162.284	9.01628
165.177	4.63468
168.069	6.37259
170.962	8.98337
173.855	12.2217
176.747	14.4482
179.64	10.0898
182.533	2.896
185.425	2.36544
188.318	4.35391
191.211	1.05566
194.104	1.00252
196.996	3.56589
199.889	8.42459
202.782	12.9216
205.674	19.3258
208.567	27.1645
211.46	36.1197
214.352	46.5676
217.245	51.5035
220.138	49.7757
223.03	43.5087
225.923	38.6456
228.816	33.5906
231.709	30.3698
234.601	32.3023
237.494	39.0012
240.387	43.9232
243.279	37.3517
246.172	28.9267
249.065	23.7202
251.958	18.1115
254.85	16.8397
257.743	14.0307
260.636	12.7207
263.528	13.8978
266.421	16.1932
269.314	24.8306
272.207	36.4558
275.099	52.825
277.992	73.0225
280.885	84.4248
283.777	80.8652
286.67	69.0223
289.563	65.9709
292.455	74.7813
295.348	89.4459
298.241	91.069
301.134	65.9936
304.026	32.5923
306.919	12.8521
309.812	1.44256
312.704	2.03396
315.597	0.09362
318.49	5.31195
321.382	13.3415
324.275	21.5174
327.168	32.2932
330.06	45.5894
332.953	57.3407
335.846	57.2999
338.739	48.3647
341.631	42.092
344.524	43.1383
347.417	48.8166
350.309	54.2139
353.202	50.5545
356.095	39.6365
358.987	28.1477
361.88	19.3071
364.773	15.0431
367.666	12.68
370.558	10.9652
373.451	8.93029
376.344	6.22778
379.236	1.12187
382.129	0.574921
385.022	0.961906
387.914	0.101906
390.807	1.34611
393.7	1.54018
396.592	2.1737
399.485	0.757668
402.378	0.733723
405.271	4.79268
408.163	7.80782
411.056	7.82587
413.949	6.65015
416.841	8.9259
419.734	12.7826
422.627	16.7344
425.519	17.9755
428.412	13.0104
431.305	10.339
434.198	7.16856
437.09	5.43293
439.983	5.06011
442.876	7.70439
445.768	9.57428
448.661	10.1294
451.554	8.70169
454.447	4.518
457.339	2.48875
460.232	2.52491
463.125	3.05234
466.017	4.95003
468.91	7.3017
471.803	8.99362
474.695	8.83224
477.588	9.15953
480.481	10.8807
483.373	15.4515
486.266	21.3137
489.159	26.2555
492.052	27.0843
494.944	24.122
497.837	18.0567
500.73	10.8555
503.622	6.46515
506.515	4.16559
509.408	2.36949
512.301	2.63385
515.193	2.0879
518.086	3.05887
520.979	3.61758
523.871	3.95524
526.764	3.78586
529.657	4.44313
532.549	3.9667
535.442	3.2663
538.335	3.26248
541.227	2.90332
544.12	3.74804
547.013	3.62466
549.906	5.29323
552.798	5.67941
555.691	4.63157
558.584	2.5886
561.476	1.11105
564.369	0.028202
567.262	0.875801
570.154	1.57128
573.047	2.2738
575.94	2.43861
578.833	2.38417
581.725	0.906265
584.618	0.595348
587.511	1.56566
590.403	3.67004
593.296	6.81543
596.189	9.66029
599.082	12.0726
601.974	14.8925
604.867	16.3265
607.76	15.8383
610.652	13.7145
613.545	11.3956
616.438	10.6944
619.33	11.8004
622.223	14.7259
625.116	19.4981
628.009	28.0665
630.901	38.5784
633.794	56.8071
636.687	79.6739
639.579	113.7
642.472	158.616
645.365	219.499
648.257	288.311
651.15	335.076
654.043	319.626
656.936	251.214
659.828	178.709
662.721	127.021
665.614	95.509
668.506	79.1423
671.399	69.6967
674.292	65.494
677.184	67.4666
680.077	71.2939
682.97	78.7071
685.862	86.1528
688.755	92.2129
691.648	87.003
694.541	75.7717
697.433	59.8644
700.326	46.7501
703.219	37.9206
706.111	33.9948
709.004	33.3955
711.897	34.3595
714.789	33.9094
717.682	33.0494
720.575	30.037
723.468	24.6148
726.36	19.8427
729.253	14.0772
732.146	9.49548
735.038	5.40226
737.931	1.23114
740.824	0.440285
743.716	1.82962
746.609	2.69904
749.502	2.11587
752.395	2.13365
755.287	1.2198
758.18	0.376057
761.073	1.91064
763.965	3.51458
766.858	4.93404
769.751	5.60401
772.644	4.65721
775.536	3.59145
778.429	2.13362
781.322	1.63108
784.214	1.46233
787.107	1.09356
790	1.55239
792.892	1.97125
795.785	1.89924
798.678	3.08853
801.571	3.01293
804.463	2.82189
807.356	2.73604
810.249	2.04717
813.141	1.96191
816.034	1.81789
818.927	2.41688
821.819	2.83091
824.712	2.91217
827.605	3.61964
830.497	3.95809
833.39	3.53945
836.283	3.84484
839.176	3.91799
842.068	3.6086
844.961	3.53466
847.854	2.81295
850.746	2.61661
853.639	2.23501
856.532	1.67213
859.424	1.34151
862.317	0.704111
865.21	1.06183
868.103	0.742281
870.995	0.17275
873.888	0.402391
876.781	0.219778
879.673	0.36344
882.566	0.115141
885.459	0.331429
888.351	0.212282
891.244	0.28389
894.137	0.889795
897.03	1.10926
899.922	1.94253
902.815	3.68148
905.708	5.67638
908.6	8.98869
911.493	13.1758
914.386	18.7323
917.278	25.0222
920.171	29.6994
923.064	38.3703
925.957	49.8387
928.849	61.6369
931.742	63.2139
934.635	51.5813
937.527	34.4772
940.42	20.4245
943.313	10.9205
946.205	4.14801
949.098	0.653809
951.991	1.12709
954.884	0.796413
957.776	1.27573
960.669	0.104216
963.562	0.500681
966.454	0.996973
969.347	0.191555
972.24	1.74158
975.132	5.62127
978.025	8.44992
980.918	10.1562
983.811	8.16027
986.703	5.68127
989.596	4.5425
992.489	6.89142
995.381	12.1145
998.274	20.5402
1001.17	31.8377
1004.06	47.2525
1006.95	65.3253
1009.85	90.023
1012.74	113.14
1015.63	118.905
1018.52	110.181
1021.42	101.329
1024.31	98.1541
1027.2	101.976
1030.09	97.8693
1032.99	77.4804
1035.88	53.6277
1038.77	38.5533
1041.66	34.4121
1044.56	35.3026
1047.45	42.2142
1050.34	51.9035
1053.23	57.488
1056.13	59.0162
1059.02	64.2772
1061.91	74.6424
1064.81	92.4645
1067.7	97.4849
1070.59	76.3327
1073.48	54.6506
1076.38	41.9597
1079.27	35.1109
1082.16	28.3437
1085.06	22.278
1087.95	17.0844
1090.84	11.781
1093.73	7.82796
1096.63	4.05396
1099.52	1.96942
1102.41	0.805754
1105.3	0.110939
1108.2	0.195175
1111.09	0.357111
1113.98	0.693398
1116.88	0.557592
1119.77	0.789961
1122.66	0.539295
1125.55	0.291475
1128.45	0.007498
1131.34	0.279285
1134.23	0.193119
1137.12	0.131451
1140.02	0.567838
1142.91	0.265438
1145.8	0.484946
1148.69	0.810147
1151.59	1.14095
1154.48	1.19036
1157.37	1.45509
1160.27	1.56644
1163.16	1.79883
1166.05	1.61245
1168.94	1.90671
1171.84	2.22416
1174.73	1.85856
1177.62	2.47442
1180.51	1.73793
1183.41	1.93514
1186.3	2.42613
1189.19	1.92827
1192.09	1.81832
1194.98	1.80238
1197.87	2.12251
1200.76	1.9454
1203.66	2.05226
1206.55	1.82334
1209.44	1.75149
1212.33	1.24979
1215.23	1.65203
1218.12	1.51811
1221.01	1.65347
1223.9	1.48154
1226.8	0.975468
1229.69	1.37754
1232.58	1.40945
1235.47	0.969023
1238.37	1.33068
1241.26	0.898186
1244.15	1.15431
1247.05	0.86009
1249.94	0.721112
1252.83	0.674154
1255.72	0.448491
1258.62	0.5372
1261.51	0.313622
1264.4	0.634213
1267.3	0.646803
1270.19	0.362955
1273.08	0.05723
1275.97	0.884089
1278.87	0.479835
1281.76	0.420396
1284.65	0.643554
