Measurement: Raman, 532 nm, unoriented, Raman Data Processed
Mineral: Inesite
Rruff sample: R090030
Ideal chemistry: Ca_2_Mn^2+^_7_Si_10_O_28_(OH)_2_5H_2_O
Locality: Hale Creek Mine, Mad River Ridge, Hale Creek, Trinity County, California
Source: James Shigley
Description: Clusters of pink slender chisel-shaped laths
Raman shift (cm-1)	intensity
130.46	0
133.834	10.5482
137.209	5.08817
140.584	4.47462
143.959	13.7399
147.334	24.1719
150.708	29.4511
154.083	25.7604
157.458	10.9816
160.833	13.1367
164.208	14.1739
167.583	11.5556
170.957	12.2021
174.332	15.3979
177.707	15.5857
181.082	7.53825
184.457	0.822609
187.832	6.20277
191.206	5.00065
194.581	1.80089
197.956	1.24319
201.331	7.34539
204.706	14.4573
208.08	22.9068
211.455	32.5071
214.83	43.2844
218.205	47.0083
221.58	41.466
224.954	33.3674
228.329	29.8462
231.704	28.9325
235.079	33.9203
238.454	38.3779
241.829	40.0819
245.203	32.3193
248.578	25.3676
251.953	18.4404
255.328	13.6864
258.703	10.8921
262.077	10.9665
265.452	15.002
268.827	22.8343
272.202	38.7006
275.577	61.7843
278.952	85.5958
282.326	95.757
285.701	84.5934
289.076	75.6712
292.451	79.3365
295.826	92.4507
299.2	88.8795
302.575	56.1974
305.95	22.3192
309.325	6.13867
312.7	2.67477
316.075	7.99992
319.449	18.4488
322.824	27.1898
326.199	32.7566
329.574	41.2375
332.949	52.385
336.323	53.3265
339.698	51.1781
343.073	45.2152
346.448	49.6699
349.823	54.8649
353.197	53.7942
356.572	40.175
359.947	28.7892
363.322	20.4376
366.697	18.9875
370.072	15.9533
373.446	17.5483
376.821	15.0351
380.196	11.0111
383.571	4.05749
386.946	0.449303
390.32	2.339
393.695	3.73383
397.07	3.53858
400.445	2.09291
403.82	0.848885
407.195	4.5214
410.569	6.36184
413.944	6.20469
417.319	8.12298
420.694	13.7472
424.069	17.9556
427.443	16.9999
430.818	12.6688
434.193	8.63084
437.568	6.02325
440.943	7.69721
444.317	10.5583
447.692	13.7687
451.067	11.4242
454.442	7.18709
457.817	2.94793
461.192	1.77885
464.566	4.96278
467.941	8.28183
471.316	11.9213
474.691	13.4307
478.066	15.5631
481.44	21.9707
484.815	29.5075
488.19	36.0746
491.565	37.2272
494.94	32.588
498.315	22.6962
501.689	14.1672
505.064	9.77969
508.439	7.76812
511.814	8.18025
515.189	8.35394
518.563	11.9782
521.938	13.4946
525.313	15.5348
528.688	15.9955
532.063	13.9813
535.438	11.8322
538.812	11.3812
542.187	10.2156
545.562	10.8199
548.937	11.6116
552.312	12.8887
555.687	10.835
559.061	6.27403
562.436	3.25545
565.811	0.313412
569.186	1.73686
572.561	2.94285
575.935	4.17033
579.31	3.47558
582.685	1.86098
586.06	0.614391
589.435	3.59734
592.809	6.66704
596.184	11.8312
599.559	16.2714
602.934	18.9119
606.309	19.9412
609.683	18.6868
613.058	16.3358
616.433	17.2324
619.808	21.1599
623.183	33.1514
626.558	41.801
629.932	63.2256
633.307	95.3898
636.682	148.84
640.057	229.234
643.432	340.397
646.807	478.815
650.181	598.283
653.556	609.484
656.931	481.93
660.306	329.091
663.681	225.53
667.055	166.149
670.43	136.651
673.805	123.17
677.18	120.595
680.555	126.909
683.929	137.375
687.304	148.013
690.679	141.923
694.054	119.257
697.429	89.7227
700.803	66.7775
704.178	53.9869
707.553	48.5064
710.928	48.2837
714.303	46.7792
717.678	42.8297
721.052	36.036
724.427	25.8291
727.802	18.9468
731.177	9.68463
734.552	3.78394
737.927	0.032051
741.301	1.70235
744.676	3.62181
748.051	3.5776
751.426	2.61425
754.801	1.32624
758.175	1.24181
761.55	2.83654
764.925	6.31958
768.3	8.65249
771.675	7.60271
775.049	6.5406
778.424	3.59156
781.799	3.0781
785.174	1.93923
788.549	1.87821
791.923	2.61209
795.298	3.19071
798.673	3.45993
802.048	3.16457
805.423	3.82236
808.798	2.36457
812.172	2.65424
815.547	3.04307
818.922	2.92795
822.297	3.25731
825.672	4.44874
829.047	4.60614
832.421	5.39439
835.796	5.8145
839.171	5.23706
842.546	5.62719
845.921	4.70661
849.295	4.40721
852.67	3.6474
856.045	3.67001
859.42	2.35755
862.795	1.83453
866.169	1.44124
869.544	0.979156
872.919	0.592365
876.294	0.679234
879.669	0.111973
883.044	0.072437
886.418	0.304276
889.793	0.075935
893.168	0.249306
896.543	1.07587
899.918	2.1632
903.293	4.82222
906.667	8.98023
910.042	16.0101
913.417	26.3757
916.792	39.3807
920.167	56.5341
923.541	79.1195
926.916	106.929
930.291	127.574
933.666	111.845
937.041	72.8804
940.415	37.2755
943.79	16.094
947.165	5.12076
950.54	0.273628
953.915	1.614
957.29	0.569092
960.664	0.69474
964.039	1.29683
967.414	1.85931
970.789	0.443069
974.164	1.73837
977.538	7.41489
980.913	10.874
984.288	8.16943
987.663	5.56052
991.038	8.83168
994.413	18.2744
997.787	35.4142
1001.16	62.7824
1004.54	101.063
1007.91	154.522
1011.29	223.721
1014.66	266.449
1018.04	261.454
1021.41	247.999
1024.79	255.556
1028.16	272.71
1031.54	252.328
1034.91	186.756
1038.29	131.035
1041.66	107.962
1045.04	112.756
1048.41	130.09
1051.78	143.17
1055.16	139.323
1058.53	133.823
1061.91	141.946
1065.28	170.856
1068.66	168.682
1072.03	117.474
1075.41	79.5093
1078.78	59.355
1082.16	45.4598
1085.53	34.2101
1088.91	25.4111
1092.28	18.559
1095.66	10.3975
1099.03	4.77307
1102.41	2.25375
1105.78	0.596985
1109.16	0.1866
1112.53	0.212929
1115.91	0.541718
1119.28	0.425545
1122.66	1.41825
1126.03	0.721626
1129.4	1.03708
1132.78	0.385254
1136.15	0.295681
1139.53	0.316948
1142.9	0.339783
1146.28	0.622437
1149.65	1.29327
1153.03	1.57666
1156.4	2.4141
1159.78	2.54133
1163.15	2.97723
1166.53	3.63779
1169.9	4.07747
1173.28	4.41034
1176.65	4.48692
1180.03	4.58208
1183.4	4.59452
1186.78	4.53209
1190.15	3.39495
1193.53	4.01946
1196.9	3.83769
1200.28	3.72977
1203.65	4.00518
1207.03	4.42746
1210.4	3.65152
1213.78	3.1403
1217.15	3.28664
1220.53	3.22855
1223.9	2.5891
1227.28	2.36864
1230.65	1.88357
1234.02	2.59589
1237.4	1.93896
1240.77	1.80496
1244.15	1.69796
1247.52	2.18667
1250.9	1.38612
1254.27	1.01419
1257.65	0.821159
1261.02	1.18824
1264.4	1.71716
1267.77	0.650307
1271.15	0.645374
1274.52	0.840752
1277.9	0.331631
1281.27	0.023605
1284.65	0.57531
1288.02	0.416023
1291.4	0.248489
1294.77	0.99033
1298.15	0.553825
1301.52	0.030136
