Measurement: Raman, 785 nm, unoriented, Raman Data Processed
Mineral: Inesite
Rruff sample: R070456
Ideal chemistry: Ca_2_Mn^2+^_7_Si_10_O_28_(OH)_2_5H_2_O
Locality: Fengjiashan mine (Daye Copper mine), Daye County, Huangshi Prefecture, Hubei Province, China
Source: Michael Scott
Description: Fan-shaped cluster of pink laths associated with quartz and brown platy hubeite
Measured chemistry: Ca_2.00_(Mn^2+^_6.03_Fe^2+^_0.93_Mg_0.04_)_Σ=7_Si_10.00_O_28_(OH)_2_·5H_2_O; (OH) estimated by charge balance; H_2_O by difference
Raman shift (cm-1)	intensity
145.506	0
148.398	161.1
151.291	357.017
154.184	286.934
157.076	228.31
159.969	264.598
162.862	316.431
165.754	288.559
168.647	200.415
171.54	169.604
174.433	86.907
177.325	144.609
180.218	175.78
183.111	131.957
186.003	76.7859
188.896	28.2024
191.789	35.5376
194.681	17.1091
197.574	15.2766
200.467	8.70776
203.359	61.5393
206.252	196.652
209.145	306.786
212.038	435.353
214.93	511.544
217.823	563.131
220.716	423.502
223.608	310.851
226.501	156.305
229.394	60.2847
232.286	10.4143
235.179	10.4768
238.072	29.0076
240.965	109.827
243.857	87.7593
246.75	169.48
249.643	160.414
252.535	178.253
255.428	133.519
258.321	81.3943
261.214	7.28589
264.106	0.161133
266.999	30.3152
269.892	40.4609
272.784	113.532
275.677	281.811
278.57	380.327
281.462	543.394
284.355	610.79
287.248	640.013
290.14	697.108
293.033	739.339
295.926	710.712
298.819	694.684
301.711	452.012
304.604	243.03
307.497	91.4534
310.389	38.8562
313.282	14.7302
316.175	65.3359
319.067	142.397
321.96	182.444
324.853	169.755
327.746	77.7866
330.638	78.2051
333.531	137.393
336.424	190.287
339.316	332.943
342.209	483.371
345.102	610.116
347.995	681.175
350.887	593.439
353.78	465.344
356.673	327.987
359.565	230.088
362.458	187.052
365.351	165.471
368.243	155.171
371.136	195.229
374.029	239.436
376.921	231.923
379.814	251.499
382.707	234.111
385.6	176.311
388.492	183.789
391.385	51.3773
394.278	24.9939
397.17	64.9775
400.063	20.1831
402.956	24.5264
405.849	50.7794
408.741	109.588
411.634	167.021
414.527	145.777
417.419	226.6
420.312	335.679
423.205	413.196
426.097	482.363
428.99	446.591
431.883	400.777
434.776	381.485
437.668	267.119
440.561	215.617
443.454	221.32
446.346	255.201
449.239	227.211
452.132	188.005
455.024	104.974
457.917	55.3679
460.81	1.60693
463.702	10.4208
466.595	25.2999
469.488	0.678833
472.381	4.18774
475.273	47.135
478.166	4.10596
481.059	54.7081
483.951	82.2467
486.844	98.7637
489.737	134.311
492.63	142.961
495.522	104.28
498.415	117.806
501.308	86.2219
504.2	139.886
507.093	162.62
509.986	135.675
512.878	194.701
515.771	218.676
518.664	247.825
521.557	232.961
524.449	211.94
527.342	255.618
530.235	227.969
533.127	232.317
536.02	187.857
538.913	208.638
541.805	219.209
544.698	179.571
547.591	67.7075
550.484	71.4667
553.376	91.7037
556.269	54.2821
559.162	20.3506
562.054	2.35706
564.947	5.51941
567.84	13.0944
570.732	40.6661
573.625	35.934
576.518	9.15601
579.41	2.87122
582.303	3.36133
585.196	28.7208
588.089	46.4817
590.981	59.3213
593.874	76.9849
596.767	173.289
599.659	224.239
602.552	264.104
605.445	288.577
608.337	302.571
611.23	287.012
614.123	331.128
617.016	399.764
619.908	434.921
622.801	550.638
625.694	692.92
628.586	857.923
631.479	1147.13
634.372	1524.15
637.264	2058.9
640.157	2826.07
643.05	3787.4
645.943	4829.32
648.835	5857.66
651.728	6364.22
654.621	6121.71
657.513	5081.5
660.406	3934.81
663.299	3004.45
666.192	2322.71
669.084	1969.84
671.977	1702.08
674.87	1645.96
677.762	1635.01
680.655	1717.72
683.548	1774.63
686.44	1759.06
689.333	1617.88
692.226	1357.31
695.119	1007.08
698.011	665.666
700.904	499.452
703.797	392.065
706.689	390.019
709.582	432.613
712.475	423.82
715.367	428.067
718.26	345.279
721.153	239.572
724.045	162.911
726.938	50.5181
729.831	11.3787
732.724	24.0889
735.616	11.6637
738.509	13.4612
741.402	29.913
744.294	17.2521
747.187	39.359
750.08	10.4622
752.972	22.165
755.865	1.89191
758.758	29.2195
761.651	57.6231
764.543	84.8756
767.436	102.931
770.329	88.67
773.221	70.2142
776.114	65.9496
779.007	32.3253
781.899	32.1671
784.792	22.7775
787.685	37.5431
790.578	40.8571
793.47	39.9581
796.363	48.1732
799.256	26.9665
802.148	18.9199
805.041	27.647
807.934	28.1207
810.827	37.2338
813.719	18.6876
816.612	43.3121
819.505	41.6688
822.397	42.5035
825.29	29.0725
828.183	27.3779
831.075	42.28
833.968	43.1446
836.861	50.0414
839.753	16.2158
842.646	34.7944
845.539	47.9045
848.432	22.5506
851.324	6.52087
854.217	26.0258
857.11	27.6165
860.002	24.6671
862.895	4.0622
865.788	5.79083
868.68	7.55786
871.573	13.915
874.466	6.59302
877.359	20.3376
880.251	1.44818
883.144	17.179
886.037	20.093
888.929	30.6007
891.822	9.45178
894.715	37.1407
897.607	20.914
900.5	24.9784
903.393	19.0769
906.285	54.6391
909.178	70.272
912.071	149.589
914.964	207.14
917.856	280.602
920.749	376.672
923.642	565.74
926.534	742.138
929.427	901.841
932.32	989.196
935.212	853.414
938.105	615.03
940.998	413.315
943.891	219.649
946.783	88.9643
949.676	42.1191
952.569	33.4785
955.461	16.4297
958.354	5.81732
961.247	13.0978
964.139	26.8976
967.032	8.24518
969.925	19.6851
972.818	32.2241
975.71	69.7602
978.603	124.044
981.496	147.928
984.388	157.489
987.281	166.586
990.174	162.411
993.067	205.909
995.959	255.508
998.852	310.812
1001.75	372.597
1004.64	485.683
1007.53	700.122
1010.42	931.938
1013.32	1127.89
1016.21	1223.63
1019.1	1301.49
1021.99	1512.07
1024.89	1814.5
1027.78	2150.29
1030.67	2251.71
1033.56	2069.83
1036.46	1659.42
1039.35	1344.26
1042.24	1271.74
1045.13	1324.03
1048.03	1422.23
1050.92	1443.55
1053.81	1270.24
1056.71	1067.54
1059.6	883.711
1062.49	818.762
1065.38	771.675
1068.28	707.192
1071.17	587.948
1074.06	427.88
1076.95	303.123
1079.85	236.985
1082.74	159.535
1085.63	137.123
1088.53	123.142
1091.42	97.9822
1094.31	83.4949
1097.2	44.528
1100.1	11.628
1102.99	17.8526
1105.88	2.91894
1108.78	25.9901
1111.67	15.7744
1114.56	4.68799
1117.45	29.0221
1120.35	9.52295
1123.24	9.54712
1126.13	2.80719
1129.02	4.26837
1131.92	5.4306
1134.81	11.1553
1137.7	3.43646
1140.59	20.224
1143.49	40.4687
1146.38	24.758
1149.27	11.9488
1152.16	36.8696
1155.06	17.2699
1157.95	24.7927
1160.84	38.3874
1163.74	21.6151
1166.63	75.0089
1169.52	28.0349
1172.41	40.2856
1175.31	55.9529
1178.2	33.3074
1181.09	23.1663
1183.98	32.3287
1186.88	40.2772
1189.77	27.3901
1192.66	12.7641
1195.56	18.958
1198.45	28.5254
1201.34	39.4373
1204.23	21.1658
1207.13	36.5936
1210.02	27.6231
1212.91	22.9539
1215.8	26.5513
1218.7	17.0746
1221.59	29.9948
1224.48	32.6894
1227.38	10.0524
1230.27	18.1708
1233.16	26.0884
1236.05	19.8889
1238.95	14.4581
1241.84	8.56769
1244.73	28.0598
1247.62	29.33
1250.52	12.5621
1253.41	22.2698
1256.3	22.6667
1259.19	6.64075
1262.09	25.2645
1264.98	21.1231
