Measurement: Raman, 514 nm, unoriented, Raman Data Processed
Mineral: Inyoite
Rruff sample: R050157
Ideal chemistry: CaB_3_O_3_(OH)_5_4H_2_O
Locality: Sijes, Salta, Argentina
Source: Jim McGlasson
Description: Group of colorless tabular crystals
Measured chemistry: (Ca_0.986_H_0.014_)(B_0.995_Si_0.005_)_3_O_3_(OH)_5_ Â·4H_2_O
Raman shift (cm-1)	intensity
145.917	0
148.421	991.483
150.923	2924.46
153.425	1703.56
155.926	599.035
158.426	687.273
160.925	759.839
163.423	91.4697
165.921	7.24902
168.417	732.81
170.913	2157.41
173.407	3279.06
175.901	3717.8
178.394	4456.91
180.886	5188.63
183.377	4878.63
185.868	4127.79
188.357	4729.9
190.846	5711.34
193.333	6252.48
195.82	5655.79
198.306	3994.5
200.791	2964.68
203.276	2330.77
205.759	2155.87
208.241	1571.91
210.723	1168.69
213.204	705.988
215.684	303.636
218.163	201.421
220.641	86.2588
223.118	1.45508
225.594	137.373
228.07	136.757
230.544	81.1533
233.018	25.8096
235.491	121.048
237.963	177.628
240.434	256.058
242.905	146.223
245.374	34.9346
247.843	35.2578
250.311	234.861
252.777	473.3
255.243	712.26
257.709	941.185
260.173	949.841
262.636	858.028
265.099	934.053
267.561	780.964
270.021	686.855
272.481	701.649
274.941	595.505
277.399	408.563
279.856	460.931
282.313	302.665
284.768	303.455
287.223	302.438
289.677	329.166
292.13	263.8
294.583	96.7266
297.034	158.754
299.485	180.662
301.934	162.493
304.383	154.276
306.831	376.005
309.278	447.679
311.725	491.332
314.17	590.839
316.615	794.553
319.058	1112.18
321.501	1244.34
323.943	1569.31
326.384	2029.46
328.825	1862.58
331.264	1673.4
333.703	1272.3
336.141	987.273
338.577	625.803
341.014	479.604
343.449	589.717
345.883	687.426
348.317	738.501
350.749	929.46
353.181	990.284
355.612	1050.97
358.042	1081.53
360.472	902.05
362.9	985.115
365.328	1053.37
367.755	1254.16
370.18	1560.73
372.606	1796.15
375.03	2007.23
377.453	2068.28
379.876	1939.31
382.298	2160.33
384.718	2781.38
387.138	3332.47
389.558	3402.4
391.976	3239.47
394.394	2834.7
396.81	2280.51
399.226	1690.73
401.641	1881.95
404.055	1973.95
406.469	1976.09
408.881	2018.4
411.293	1640.87
413.704	1483.5
416.114	1126.31
418.523	749.388
420.931	562.762
423.338	416.603
425.745	160.996
428.151	185.55
430.556	61.6191
432.96	157.835
435.363	125.438
437.766	178.283
440.168	69.1621
442.568	146.919
444.968	124.926
447.368	53.1338
449.766	421.555
452.163	570.191
454.56	783.917
456.956	1110.98
459.351	2129.06
461.745	3152.49
464.138	4117
466.531	3800.11
468.923	2768.45
471.314	1758.78
473.704	1269.31
476.093	1010.05
478.481	810.994
480.869	522.149
483.256	563.54
485.642	565.158
488.027	697.058
490.411	609.299
492.794	651.847
495.177	834.651
497.559	887.684
499.94	1070.94
502.32	1104.4
504.699	1138.1
507.078	1062.02
509.456	996.143
511.833	930.484
514.209	1145.04
516.584	1079.81
518.958	974.793
521.332	1029.98
523.705	1165.37
526.077	1080.96
528.448	832.969
530.818	821.342
533.188	949.328
535.557	758.334
537.924	424.465
540.292	220.918
542.658	247.777
545.023	183.977
547.388	132.031
549.752	10.6348
552.115	83.3164
554.477	116.232
556.838	30.5391
559.199	57.2031
561.559	136.309
563.918	59.9297
566.276	136.533
568.633	143.117
570.99	229.879
573.345	426.816
575.7	645.672
578.054	792.965
580.408	710.453
582.76	963.695
585.112	1161.57
587.463	1269.56
589.813	1237.86
592.162	1666.18
594.511	1914.67
596.858	1974.2
599.205	2543.02
601.551	3471.99
603.896	4581.13
606.241	6697.62
608.584	9119.98
610.927	13509.8
613.269	17279.8
615.61	18700.1
617.951	15560.4
620.291	10081
622.629	6061.68
624.967	4112.6
627.305	2616.86
629.641	1715.21
631.977	1156.82
634.311	1118.58
636.645	900.481
638.979	802.516
641.311	544.689
643.643	480.682
645.973	311.402
648.303	504.545
650.633	469.529
652.961	287.863
655.289	273.685
657.616	23.4707
659.942	247.447
662.267	31.5996
664.591	66.0371
666.915	160.744
669.238	245.69
671.56	0.814453
673.881	86.2051
676.202	201.68
678.521	57.2383
680.84	7.06836
683.158	218.742
685.476	144.664
687.792	220.688
690.108	206.799
692.423	93.2168
694.737	39.9375
697.05	96.5781
699.363	276.533
701.675	254.635
703.986	183.816
706.296	306.191
708.605	493.238
710.914	590.244
713.222	557.334
715.529	884.488
717.835	991.709
720.141	1364.1
722.446	1556.21
724.749	2343.45
727.053	3211.65
729.355	3818.85
731.656	4076.79
733.957	3186.93
736.257	1977.75
738.557	1345.98
740.855	1088.93
743.153	770.881
745.449	469.066
747.746	502.242
750.041	480.455
752.335	490.01
754.629	487.07
756.922	401.998
759.214	133.51
761.506	424.447
763.796	592.871
766.086	551.682
768.375	388.346
770.664	346.465
772.951	314.699
775.238	341.607
777.524	297.918
779.809	213.807
782.094	138.647
784.377	64.2383
786.66	172.801
788.942	58.4941
791.223	6.28125
793.504	11.1523
795.784	33.7852
798.063	201.047
800.341	186.547
802.618	406.312
804.895	561.102
807.171	439.019
809.446	422.779
811.721	504.318
813.994	275.438
816.267	366.043
818.539	256.139
820.81	304.258
823.081	265.289
825.351	94.3106
827.62	402.9
829.888	51.0801
832.155	128.815
834.422	23.9453
836.688	52.7207
838.953	41.1777
841.217	224.227
843.481	79.0098
845.744	63.2969
848.006	73.0469
850.267	199.941
852.528	212.42
854.788	264.295
857.047	35.5918
859.305	216.527
861.562	147.076
863.819	287.244
866.075	346.998
868.33	396.326
870.585	275.223
872.838	382.211
875.091	200.865
877.344	167.828
879.595	174.086
881.846	65.5742
884.095	160.75
886.345	136.49
888.593	34.166
890.841	40.8574
893.087	22.6953
895.334	186.41
897.579	129.703
899.823	292.609
902.067	195.154
904.31	267.35
906.553	262.963
908.794	569.748
911.035	460.969
913.275	631.137
915.514	568.025
917.753	615.508
919.991	483.273
922.228	578.432
924.464	639.67
926.699	831.795
928.934	1041.42
931.168	715.816
933.402	792.176
935.634	541.5
937.866	526.83
940.097	530.461
942.327	564.238
944.557	627.494
946.785	514.695
949.013	642.09
951.241	710.135
953.467	848.057
955.693	860.637
957.918	763.055
960.142	754.871
962.366	655.568
964.589	610.992
966.811	562.195
969.032	436.428
971.252	380.223
973.472	432.441
975.691	286.484
977.91	259.219
980.127	242.043
982.344	225.283
984.56	223.268
986.775	392.477
988.99	396.703
991.204	270.625
993.417	344.182
995.629	307.775
997.841	111.559
1000.05	189.373
1002.26	116.016
1004.47	283.221
1006.68	251.188
1008.89	160.029
1011.1	419.904
1013.3	301.238
1015.51	314.353
1017.71	199.481
1019.92	37.291
1022.12	288.752
1024.32	305.34
1026.52	10.2207
1028.73	1.76758
