Measurement: Raman, 780 nm, unoriented, Raman Data Processed
Mineral: Inyoite
Rruff sample: R050157
Ideal chemistry: CaB_3_O_3_(OH)_5_4H_2_O
Locality: Sijes, Salta, Argentina
Source: Jim McGlasson
Description: Group of colorless tabular crystals
Measured chemistry: (Ca_0.986_H_0.014_)(B_0.995_Si_0.005_)_3_O_3_(OH)_5_ Â·4H_2_O
Raman shift (cm-1)	intensity
138.304	0
141.196	24.9657
144.089	7.76691
146.982	8.43787
149.874	47.2054
152.767	82.6634
155.66	126.576
158.553	159.437
161.445	126.604
164.338	70.3954
167.231	69.612
170.123	82.8675
173.016	80.9321
175.909	77.7012
178.801	80.9982
181.694	104.07
184.587	145.415
187.48	171.162
190.372	170.656
193.265	165.6
196.158	134.731
199.05	113.069
201.943	113.322
204.836	115.447
207.728	93.9806
210.621	57.2753
213.514	24.4856
216.406	9.07184
219.299	4.82941
222.192	0.859955
225.085	3.32419
227.977	3.24472
230.87	3.44672
233.763	1.40039
236.655	0.093506
239.548	0.784424
242.441	3.88062
245.333	8.47775
248.226	9.21954
251.119	18.3869
254.012	19.593
256.904	24.433
259.797	23.3668
262.69	27.879
265.582	25.6756
268.475	26.1907
271.368	23.4469
274.26	22.2007
277.153	24.6342
280.046	20.0381
282.939	18.9758
285.831	14.5638
288.724	12.4288
291.617	3.26987
294.509	2.74472
297.402	0.603821
300.295	1.06494
303.188	1.8399
306.08	0.284149
308.973	4.17618
311.866	5.81256
314.758	9.8916
317.651	20.9644
320.544	28.1951
323.436	40.37
326.329	47.44
329.222	50.9162
332.115	56.3646
335.007	61.6613
337.9	72.9759
340.793	90.4957
343.685	113.509
346.578	136.445
349.471	161.968
352.363	170.172
355.256	150.114
358.149	117.505
361.041	88.1379
363.934	72.2278
366.827	63.0806
369.72	68.118
372.612	70.8453
375.505	66.251
378.398	65.8093
381.29	69.9133
384.183	74.7769
387.076	77.0798
389.969	69.2859
392.861	43.9951
395.754	25.7666
398.647	20.8748
401.539	18.977
404.432	24.1579
407.325	32.5655
410.217	37.5897
413.11	43.5628
416.003	36.9461
418.896	31.0291
421.788	15.4303
424.681	3.8262
427.574	2.69913
430.466	3.58676
433.359	5.02826
436.252	2.97455
439.144	0.04184
442.037	4.15616
444.93	13.0853
447.822	22.6421
450.715	32.7455
453.608	49.4589
456.501	76.5657
459.393	117.409
462.286	170.079
465.179	201.802
468.071	170.578
470.964	122.003
473.857	93.8198
476.75	74.8797
479.642	66.8748
482.535	58.3724
485.428	57.1035
488.32	54.754
491.213	51.8915
494.106	56.6309
496.998	62.3615
499.891	73.6366
502.784	77.0909
505.676	87.7434
508.569	84.8716
511.462	87.6002
514.355	83.8464
517.247	81.2255
520.14	79.3599
523.033	78.7274
525.925	75.6569
528.818	74.7892
531.711	65.7607
534.604	59.1371
537.496	40.3753
540.389	22.9221
543.282	10.5997
546.174	3.48331
549.067	3.51904
551.96	5.46558
554.852	3.3754
557.745	2.41959
560.638	3.35571
563.53	7.26431
566.423	9.54324
569.316	14.4134
572.209	22.7616
575.101	30.5981
577.994	42.8983
580.887	47.9242
583.779	60.2416
586.672	73.0496
589.565	92.2676
592.457	109.275
595.35	139.802
598.243	189.707
601.136	247.323
604.028	317.539
606.921	413.254
609.814	562.942
612.706	728.675
615.599	799.366
618.492	630.266
621.385	382.614
624.277	222.083
627.17	133.721
630.063	86.6281
632.955	59.5668
635.848	42.3799
638.741	31.908
641.633	22.6731
644.526	15.9128
647.419	13.7726
650.312	10.3999
653.204	11.4081
656.097	7.89951
658.99	5.68906
661.882	6.30768
664.775	6.07062
667.668	1.80002
670.56	2.98441
673.453	1.21765
676.346	0.942169
679.239	2.39908
682.131	4.56039
685.024	0.106262
687.917	1.51959
690.809	1.45081
693.702	0.462402
696.595	3.15421
699.487	5.04746
702.38	2.04602
705.273	5.25333
708.165	8.58404
711.058	14.8238
713.951	23.1385
716.844	40.1437
719.736	51.2622
722.629	67.8129
725.522	92.922
728.414	123.887
731.307	132.371
734.2	105.25
737.092	66.7063
739.985	38.5941
742.878	21.1077
745.771	12.1271
748.663	8.18509
751.556	3.02234
754.449	1.22168
757.341	3.776
760.234	1.89838
763.127	0.597229
766.019	2.77548
768.912	2.793
771.805	5.44998
774.698	4.49835
777.59	2.3971
780.483	0.264526
783.376	0.493225
786.268	2.39938
789.161	6.39078
792.054	10.0579
794.947	11.6745
797.839	19.2841
800.732	26.6776
803.625	36.0952
806.517	41.6417
809.41	45.1136
812.303	31.5568
815.195	18.1443
818.088	13.8733
820.981	8.15295
823.874	6.80975
826.766	4.55301
829.659	2.94174
832.552	3.36002
835.444	2.68485
838.337	3.2923
841.23	1.13153
844.122	1.07147
847.015	2.01254
849.908	1.55279
852.801	1.89505
855.693	1.70572
858.586	1.68527
861.479	1.89761
864.371	1.1998
867.264	0.171783
870.157	0.481659
873.049	0.84436
875.942	0.311371
878.835	0.202332
881.727	0.67746
884.62	0.709625
887.513	0.681152
890.406	5.24136
893.298	8.94034
896.191	14.4378
899.084	21.0295
901.976	30.6778
904.869	37.1652
907.762	44.5551
910.654	50.7671
913.547	48.3917
916.44	46.3504
919.332	42.9581
922.225	40.9118
925.118	37.7421
928.011	37.8403
930.903	34.0088
933.796	31.5891
936.689	28.9637
939.581	27.1344
942.474	24.5321
945.367	24.3452
948.26	28.5373
951.152	29.9247
954.045	34.2531
956.938	35.7394
959.83	31.7639
962.723	28.5135
965.616	17.7269
968.508	14.8386
971.401	11.639
974.294	7.25085
977.187	5.72192
980.079	6.56406
982.972	3.00073
985.865	4.20465
988.757	6.73581
991.65	7.21655
994.543	7.34772
997.435	4.37692
1000.33	6.31867
1003.22	8.62442
1006.11	5.23807
1009.01	7.24954
1011.9	7.54938
1014.79	7.08276
1017.68	3.80118
1020.58	2.28128
1023.47	2.49225
1026.36	1.02502
1029.26	0.622528
1032.15	0.617004
1035.04	0.333527
1037.93	0.469299
1040.83	2.61398
1043.72	4.26733
1046.61	6.86667
1049.5	10.2755
1052.4	9.42847
1055.29	10.5037
1058.18	11.2706
1061.08	12.0942
1063.97	10.943
1066.86	10.5153
1069.75	8.51413
1072.65	7.48645
1075.54	6.67236
1078.43	5.51727
1081.32	3.66678
1084.22	3.55316
1087.11	1.80524
1090	1.90704
1092.89	0.971527
1095.79	0.428772
1098.68	1.48395
1101.57	0.090424
1104.46	1.44574
1107.36	2.79392
1110.25	2.09863
1113.14	1.98297
1116.04	1.63629
1118.93	3.96121
1121.82	1.61929
1124.71	0.659668
1127.61	2.43915
1130.5	1.66321
1133.39	0.492523
1136.29	4.24554
1139.18	3.4924
1142.07	2.35349
1144.96	3.00732
1147.86	2.41788
1150.75	3.24872
1153.64	2.89972
1156.53	3.20615
1159.43	4.77194
1162.32	6.26636
1165.21	5.36618
1168.11	5.80432
1171	6.1015
1173.89	6.96719
1176.78	8.00076
1179.68	9.43109
1182.57	12.1538
1185.46	10.2615
1188.35	11.1014
1191.25	12.9724
1194.14	10.5328
1197.03	12.339
1199.92	14.6507
1202.82	11.9397
1205.71	10.2563
1208.6	10.2692
1211.49	7.20099
1214.39	6.444
1217.28	4.62482
1220.17	1.65448
1223.07	2.12176
1225.96	0.257538
1228.85	4.86822
1231.74	0.877319
1234.64	0.974335
1237.53	1.57092
1240.42	1.79999
1243.32	4.30426
1246.21	6.00726
1249.1	6.07043
1251.99	7.17624
1254.89	5.13019
1257.78	5.80557
1260.67	6.43613
1263.56	2.53964
1266.46	3.685
1269.35	0.882446
1272.24	4.14877
