Measurement: Raman, 785 nm, unoriented, Raman Data Processed
Mineral: Inyoite
Rruff sample: R040161
Ideal chemistry: CaB_3_O_3_(OH)_5_4H_2_O
Locality: Kramer deposit, Boron, Kern County, California, USA
Source: University of Arizona Mineral Museum
Description: Group of colorless indistinct rounded crystals
Measured chemistry: Ca_1.00_B_3.00_O_3_(OH)_5_Â·4H_2_O
Raman shift (cm-1)	intensity
114.752	4.90179
117.645	13.4267
120.537	14.7969
123.43	14.4814
126.323	44.0728
129.215	78.3285
132.108	108.31
135.001	158.202
137.893	189.008
140.786	287.751
143.679	458.678
146.572	789.076
149.464	1172.33
152.357	1188.43
155.25	1054.5
158.142	1049.81
161.035	1076.91
163.928	1173.64
166.821	1506.92
169.713	2019.44
172.606	2443.43
175.499	2533.99
178.391	2481.28
181.284	2206.79
184.177	1621.19
187.069	1207.76
189.962	1002.3
192.855	844.145
195.748	658.962
198.64	542.79
201.533	460.43
204.426	420.107
207.318	409.249
210.211	314.225
213.104	210.403
215.996	148.844
218.889	101.279
221.782	90.7165
224.674	58.0358
227.567	17.1376
230.46	21.1569
233.353	36.2211
236.245	17.2595
239.138	27.1162
242.031	14.9089
244.923	0.074829
247.816	2.59125
250.709	28.7637
253.601	49.1681
256.494	52.5449
259.387	79.0819
262.28	73.6088
265.172	63.5968
268.065	56.9673
270.958	62.5873
273.85	55.3401
276.743	58.9033
279.636	49.9626
282.529	41.1969
285.421	16.5336
288.314	5.75348
291.207	7.56854
294.099	24.4497
296.992	28.1147
299.885	25.9153
302.777	3.9552
305.67	40.1508
308.563	74.773
311.455	149.973
314.348	213.596
317.241	309.991
320.134	409.982
323.026	514.506
325.919	608.148
328.812	602.311
331.704	521.802
334.597	429.511
337.49	392.309
340.382	444.971
343.275	549.778
346.168	708.713
349.061	827.663
351.953	936.21
354.846	850.542
357.739	685.482
360.631	515.934
363.524	421.705
366.417	431.263
369.31	443.745
372.202	470.47
375.095	496.901
377.988	513.253
380.88	515.493
383.773	571.618
386.666	600.532
389.558	531.305
392.451	465.671
395.344	327.589
398.236	230.388
401.129	257.4
404.022	296.067
406.915	324.532
409.807	356.721
412.7	300.447
415.593	254.572
418.485	216.506
421.378	129.255
424.271	59.8352
427.163	34.9682
430.056	9.07935
432.949	16.5664
435.842	8.91589
438.734	16.9673
441.627	1.73352
444.52	7.72138
447.412	10.6086
450.305	14.6442
453.198	24.0746
456.091	31.9146
458.983	67.3653
461.876	118.702
464.769	147.722
467.661	160.457
470.554	134.573
473.447	86.2484
476.339	50.7135
479.232	39.4328
482.125	19.9987
485.017	4.05987
487.91	1.3454
490.803	7.58234
493.696	1.81995
496.588	24.7604
499.481	42.6104
502.374	116.052
505.266	172.448
508.159	160.138
511.052	199.452
513.944	175.525
516.837	205.068
519.73	220.35
522.623	227.888
525.515	241.707
528.408	205.247
531.301	206.918
534.193	159.089
537.086	122.779
539.979	73.978
542.871	16.7915
545.764	1.22797
548.657	22.1292
551.55	9.90149
554.442	8.14343
557.335	37.8923
560.228	85.1486
563.12	60.6658
566.013	66.8486
568.906	72.8961
571.798	97.6838
574.691	127.469
577.584	150.587
580.477	198.862
583.369	246.35
586.262	306.202
589.155	381.725
592.047	503.809
594.94	680.297
597.833	989.638
600.726	1527.38
603.618	2302.88
606.511	3447.88
609.404	4900.49
612.296	6594.71
615.189	7242.31
618.082	5853.37
620.974	3584.54
623.867	2043.77
626.76	1203.64
629.653	716.083
632.545	483.057
635.438	307.745
638.331	179.487
641.223	148.583
644.116	81.1564
647.009	65.2014
649.901	35.6975
652.794	12.7927
655.687	2.40961
658.58	0.764282
661.472	0.856323
664.365	4.3233
667.258	1.21466
670.15	8.46606
673.043	2.12347
675.936	11.0864
678.828	22.7292
681.721	3.96887
684.614	21.1543
687.506	12.5333
690.399	27.1616
693.292	0.80426
696.185	12.7159
699.077	5.76819
701.97	20.9748
704.863	18.9978
707.755	9.98157
710.648	30.6406
713.541	79.4258
716.433	128.647
719.326	236.558
722.219	341.562
725.112	539.202
728.004	735.591
730.897	815.62
733.79	678.952
736.682	411.387
739.575	227.431
742.468	116.841
745.361	61.5868
748.253	31.5126
751.146	19.5897
754.039	39.7554
756.931	1.78412
759.824	1.17346
762.717	9.73645
765.609	1.58832
768.502	7.78332
771.395	14.7355
774.288	1.73724
777.18	18.7873
780.073	0.074463
782.966	4.47278
785.858	2.70703
788.751	3.58447
791.644	27.256
794.536	22.626
797.429	62.3182
800.322	41.0447
803.215	79.6212
806.107	100.698
809	93.0007
811.893	50.3828
814.785	56.8234
817.678	33.9949
820.571	27.7789
823.463	4.30847
826.356	4.39575
829.249	3.47742
832.141	12.8309
835.034	5.48712
837.927	1.35199
840.82	8.15997
843.712	1.87213
846.605	6.14502
849.498	4.27533
852.39	13.0037
855.283	16.5493
858.176	26.9945
861.068	54.5819
863.961	75.7622
866.854	80.5426
869.747	89.9423
872.639	71.9356
875.532	68.2538
878.425	55.6256
881.317	41.1388
884.21	42.4446
887.103	27.8982
889.995	23.0836
892.888	18.1622
895.781	44.1199
898.674	64.1108
901.566	81.954
904.459	122.337
907.352	162.001
910.244	201.959
913.137	228.76
916.03	274.495
918.923	311.908
921.815	361.908
924.708	412.515
927.601	426.004
930.493	404.493
933.386	313.007
936.279	271.717
939.171	228.288
942.064	164.653
944.957	146.14
947.85	141.156
950.742	111.969
953.635	131.357
956.528	118.545
959.42	85.4742
962.313	77.4447
965.206	70.0968
968.098	72.8795
970.991	90.8161
973.884	90.3528
976.777	74.9554
979.669	50.6874
982.562	21.8815
985.455	20.1773
988.347	0.854004
991.24	1.32404
994.133	18.0499
997.025	7.20386
999.918	2.23358
1002.81	3.20862
1005.7	29.464
1008.6	8.16217
1011.49	41.189
1014.38	13.9025
1017.27	22.4556
1020.17	0.362732
1023.06	7.34723
1025.95	2.43964
1028.85	0.125427
1031.74	15.4167
1034.63	12.242
1037.52	35.5458
1040.42	37.1625
1043.31	51.9727
1046.2	65.9371
1049.09	99.2056
1051.99	112.029
1054.88	152.029
1057.77	163.085
1060.66	181.412
1063.56	190.727
1066.45	191.816
1069.34	168.266
1072.24	138.94
1075.13	121.144
1078.02	92.4858
1080.91	84.8419
1083.81	83.1083
1086.7	54.1383
1089.59	66.2822
1092.48	36.5375
1095.38	42.9109
1098.27	22.0568
1101.16	27.7588
1104.06	16.3165
1106.95	22.833
1109.84	21.6595
1112.73	19.8142
1115.63	6.66132
1118.52	0.903442
1121.41	12.4332
1124.3	9.76611
1127.2	1.94623
1130.09	6.22839
1132.98	5.98785
1135.88	7.65668
1138.77	5.75116
1141.66	11.2342
1144.55	10.2888
1147.45	0.454773
1150.34	3.0025
1153.23	1.19904
1156.12	10.0932
1159.02	8.17322
1161.91	10.0982
1164.8	15.0166
1167.69	3.63776
1170.59	22.5642
1173.48	33.7463
1176.37	21.0597
1179.27	34.8014
1182.16	24.7087
1185.05	0.120117
1187.94	28.3713
1190.84	28.4901
1193.73	22.0099
1196.62	38.3486
1199.51	47.0269
1202.41	48.3037
1205.3	47.6314
1208.19	25.4641
1211.09	35.0175
1213.98	52.3566
1216.87	38.1148
1219.76	32.5496
1222.66	33.4021
1225.55	17.2092
1228.44	27.5709
1231.33	3.4989
1234.23	0
