Measurement: Raman, 532 nm, unoriented, Raman Data Processed
Mineral: Inyoite
Rruff sample: R040161
Ideal chemistry: CaB_3_O_3_(OH)_5_4H_2_O
Locality: Kramer deposit, Boron, Kern County, California, USA
Source: University of Arizona Mineral Museum
Description: Group of colorless indistinct rounded crystals
Measured chemistry: Ca_1.00_B_3.00_O_3_(OH)_5_Â·4H_2_O
Raman shift (cm-1)	intensity
123.145	0
126.52	0.499786
129.895	77.0456
133.27	191.569
136.645	283.086
140.019	498.574
143.394	690.945
146.769	997.288
150.144	1387.82
153.519	1347.88
156.894	1407.13
160.268	1444.95
163.643	1322.86
167.018	1611.01
170.393	2185.01
173.768	2440.93
177.143	2378.38
180.517	2257.05
183.892	1959.95
187.267	1864.2
190.642	1904.89
194.017	1745.38
197.391	1229.76
200.766	915.84
204.141	771.063
207.516	667.518
210.891	403.844
214.266	223.611
217.64	105.095
221.015	58.372
224.39	9.35046
227.765	20.1154
231.14	6.02301
234.514	16.6632
237.889	13.1641
241.264	25.2847
244.639	29.3223
248.014	9.00647
251.388	39.103
254.763	85.2266
258.138	96.5906
261.513	99.4802
264.888	108.914
268.263	111.215
271.637	124.344
275.012	101.148
278.387	103.596
281.762	89.715
285.137	60.6054
288.512	51.6516
291.886	22.0594
295.261	10.8452
298.636	23.8348
302.011	36.9594
305.386	28.941
308.76	53.0682
312.135	112.34
315.51	209.149
318.885	353.865
322.26	465.488
325.635	588.015
329.009	608.744
332.384	482.351
335.759	471.93
339.134	534.14
342.509	694.447
345.883	915.181
349.258	1176.56
352.633	1230.56
356.008	1037.26
359.383	818.799
362.757	667.768
366.132	622.813
369.507	701.506
372.882	796.129
376.257	808.415
379.632	801.784
383.006	885.129
386.381	1010.22
389.756	940.223
393.131	715.707
396.506	525.954
399.88	478.64
403.255	559.626
406.63	695.378
410.005	675.514
413.38	607.886
416.755	496.714
420.129	336.86
423.504	163.421
426.879	82.6194
430.254	32.8115
433.629	12.8278
437.003	27.313
440.378	11.4116
443.753	31.9453
447.128	38.8696
450.503	16.4974
453.878	32.8756
457.252	75.6938
460.627	211.798
464.002	370.122
467.377	376.73
470.752	295.815
474.127	244.298
477.501	194.574
480.876	146.854
484.251	133.71
487.626	106.549
491.001	156.198
494.375	167.468
497.75	189.393
501.125	269.274
504.5	339.504
507.875	347.801
511.25	344.813
514.624	376.161
517.999	417.183
521.374	444.227
524.749	443.325
528.124	438.99
531.498	387.799
534.873	270.348
538.248	176.238
541.623	77.7719
544.998	19.9197
548.372	6.52197
551.747	17.6134
555.122	11.0844
558.497	53.3381
561.872	88.5454
565.247	133.654
568.621	111.075
571.996	196.164
575.371	236.756
578.746	334.711
582.121	399.511
585.495	487.433
588.87	653.375
592.245	876.555
595.62	1216.71
598.995	1892.06
602.37	2897.69
605.744	4564.54
609.119	6879.8
612.494	9638.03
615.869	10425.8
619.244	7084.84
622.619	3698.24
625.993	1968.53
629.368	1118.79
632.743	650.296
636.118	394.64
639.493	278.742
642.867	178.407
646.242	142.779
649.617	82.0406
652.992	60.7832
656.367	54.0123
659.741	22.8538
663.116	25.4661
666.491	11.6542
669.866	18.1151
673.241	11.5353
676.616	13.753
679.99	4.56689
683.365	0.309326
686.74	17.0297
690.115	3.0072
693.49	2.11401
696.865	4.68579
700.239	5.69946
703.614	37.6577
706.989	56.7518
710.364	119.675
713.739	208.118
717.113	348.096
720.488	577.169
723.863	856.702
727.238	1280.02
730.613	1529.5
733.987	1170.3
737.362	643.579
740.737	294.324
744.112	165.23
747.487	94.2168
750.862	41.6332
754.236	30.9153
757.611	7.74426
760.986	47.1583
764.361	57.7948
767.736	31.9657
771.111	45.5581
774.485	32.4602
777.86	32.7955
781.235	19.4968
784.61	35.7561
787.985	39.618
791.359	57.6621
794.734	78.0123
798.109	137.97
801.484	214.984
804.859	272.16
808.234	270.329
811.608	225.296
814.983	118.739
818.358	76.2725
821.733	35.0541
825.108	12.9098
828.482	1.84851
831.857	11.9104
835.232	5.17993
838.607	4.57446
841.982	6.96326
845.356	29.6932
848.731	27.4357
852.106	40.6338
855.481	46.5411
858.856	48.6531
862.231	77.051
865.605	72.9254
868.98	98.0305
872.355	77.3849
875.73	95.3185
879.105	48.8368
882.48	34.7719
885.854	41.8856
889.229	50.8829
892.604	44.496
895.979	74.0767
899.354	77.4556
902.729	148.76
906.103	220.967
909.478	281.984
912.853	331.5
916.228	361.725
919.602	405.652
922.977	474.601
926.352	490.835
929.727	492.533
933.102	428.801
936.477	329.362
939.851	256.004
943.226	227.823
946.601	220.135
949.976	254.496
953.351	283.154
956.726	270.236
960.1	282.117
963.475	188.201
966.85	131.687
970.225	132.372
973.6	107.122
976.974	77.2759
980.349	33.8572
983.724	39.694
987.099	1.98962
990.474	11.7003
993.848	8.2406
997.223	14.995
1000.6	2.8031
1003.97	33.9646
1007.35	34.6043
1010.72	71.2927
1014.1	29.0601
1017.47	5.55225
1020.85	16.3927
1024.22	4.07703
1027.6	5.25647
1030.97	2.53906
1034.35	25.7786
1037.72	10.4104
1041.1	37.9047
1044.47	91.029
1047.85	123.993
1051.22	184.365
1054.6	216.139
1057.97	240.283
1061.35	283.012
1064.72	270.827
1068.09	226.247
1071.47	174.809
1074.84	162.093
1078.22	162.122
1081.59	111.497
1084.97	100.558
1088.34	83.1897
1091.72	99.1069
1095.09	56.7859
1098.47	63.6587
1101.84	85.5554
1105.22	62.8102
1108.59	46.8978
1111.97	51.0175
1115.34	64.6201
1118.72	47.8999
1122.09	34.5502
1125.47	39.4161
1128.84	5.22327
1132.22	10.5448
1135.59	21.7035
1138.97	15.8225
1142.34	17.4264
1145.71	2.87512
1149.09	21.3492
1152.46	0.422852
1155.84	6.8042
1159.21	0.44751
1162.59	1.75085
1165.96	12.193
1169.34	23.8375
1172.71	14.0446
1176.09	49.0157
1179.46	71.4304
1182.84	50.8336
1186.21	70.9725
1189.59	73.4132
1192.96	83.2393
1196.34	120.714
1199.71	144.849
1203.09	130.361
1206.46	135.1
1209.84	121.951
1213.21	86.1715
1216.59	106.558
1219.96	97.4497
1223.34	74.2761
1226.71	68.4669
1230.09	62.6224
1233.46	63.2075
1236.84	65.2795
1240.21	62.8378
1243.59	106.071
1246.96	111.818
1250.34	145.039
1253.71	150.975
1257.08	148.915
1260.46	110.918
1263.83	68.509
1267.21	73.1404
1270.58	38.4629
1273.96	54.0469
1277.33	12.7697
1280.71	12.2976
1284.08	21.3412
1287.46	8.34253
1290.83	3.93872
