Measurement: Raman, 514 nm, unoriented, Raman Data Processed
Mineral: Inyoite
Rruff sample: R040161
Ideal chemistry: CaB_3_O_3_(OH)_5_4H_2_O
Locality: Kramer deposit, Boron, Kern County, California, USA
Source: University of Arizona Mineral Museum
Description: Group of colorless indistinct rounded crystals
Measured chemistry: Ca_1.00_B_3.00_O_3_(OH)_5_Â·4H_2_O
Raman shift (cm-1)	intensity
114.254	0
118.424	94.192
122.592	251.044
126.758	120.181
130.922	57.053
135.083	404.557
139.243	928.966
143.401	3184.45
147.557	7375.33
151.711	10167.7
155.863	6071.02
160.013	3691.86
164.161	3124.45
168.308	5277.04
172.452	10259.3
176.594	17380.2
180.734	22470.7
184.872	15516.9
189.008	9383.71
193.143	6804.82
197.275	4485.96
201.405	2893.53
205.534	1859.96
209.66	1507.42
213.784	897.07
217.907	336.037
222.027	81.256
226.146	33.976
230.263	86.128
234.377	66.434
238.49	39.049
242.601	13.318
246.709	333.617
250.816	1095.75
254.921	1905
259.024	2661.34
263.125	2514.76
267.224	1905.35
271.321	1233.1
275.416	943.64
279.51	607.275
283.601	433.303
287.69	34.596
291.778	94.697
295.863	308.643
299.947	293.062
304.029	548.506
308.108	1132.79
312.186	1832.76
316.262	2862.31
320.336	4390.74
324.408	6264.89
328.478	6941.35
332.546	5102.25
336.612	3174.62
340.677	1763.14
344.739	892.808
348.799	639.676
352.858	611.732
356.915	554.957
360.969	382.322
365.022	515.783
369.073	805.846
373.122	1087.94
377.169	1312.64
381.215	1783.47
385.258	2321.23
389.299	2513.94
393.339	2142.38
397.376	1690.26
401.412	2027.37
405.446	2356.8
409.478	2368.31
413.508	1655.26
417.536	1052.2
421.562	568.15
425.586	155.094
429.609	53.027
433.629	139.146
437.648	81.82
441.665	30.57
445.68	25.609
449.693	40.906
453.704	111.539
457.713	508.008
461.721	1524.59
465.726	2061.36
469.73	1217.19
473.731	340.135
477.731	66.143
481.729	53.707
485.725	119.68
489.72	3.195
493.712	202.861
497.703	487.732
501.691	956.576
505.678	1159.49
509.663	1187.52
513.646	973.732
517.627	831.021
521.607	540.307
525.584	780.586
529.56	723.979
533.534	480.418
537.506	451.799
541.476	369.119
545.444	149.387
549.41	250.59
553.375	544.764
557.337	691.865
561.298	999.887
565.257	794.854
569.214	652.736
573.17	1175.53
577.123	1147.22
581.075	1639.82
585.024	1983.33
588.972	2555.47
592.918	3238.8
596.863	4367.65
600.805	6511.76
604.746	10412.9
608.685	19000.6
612.621	32120.6
616.557	36622.5
620.49	23262.4
624.421	12056.8
628.351	5856.78
632.279	3546.45
636.205	2561.52
640.129	1831.6
644.051	1518.57
647.972	1269.95
651.89	967.232
655.807	1138.71
659.722	1206.52
663.636	942.041
667.547	901.719
671.457	1295.83
675.365	1617.4
679.271	1603.88
683.175	1469.87
687.077	1492.56
690.978	1692.57
694.877	1304.67
698.774	1578.4
702.669	1313.04
706.562	1328.52
710.454	1124.86
714.344	1632.06
718.232	1452.13
722.118	2315.06
726.002	3696.85
729.885	5171.51
733.766	5165.03
737.645	2489.42
741.522	1573.68
745.397	795.807
749.271	471.006
753.143	469.424
757.013	362.113
760.881	197.779
764.748	256.475
768.613	356.131
772.476	331.635
776.337	79.211
780.196	55.527
784.054	20.021
787.91	247.219
791.764	116.934
795.616	55.609
799.467	20.488
803.316	193.553
807.163	0.596
811.008	143.467
814.851	175.822
818.693	39.592
822.533	107.861
826.371	135.291
830.208	97.129
834.042	13.205
837.875	147.848
841.706	98.078
845.536	284.746
849.363	200.631
853.189	363.441
857.013	341.002
860.836	334.586
864.656	436.164
868.475	551.643
872.292	599.539
876.108	766.32
879.922	741.719
883.733	493.07
887.544	595.449
891.352	848.764
895.159	642.971
898.964	929.08
902.767	757.084
906.568	944.99
910.368	1443.52
914.166	1636.16
917.962	2061.38
921.757	2629.85
925.55	3502.97
929.341	3826.39
933.13	3294.36
936.918	2676.4
940.703	2052.66
944.488	1725.29
948.27	1544.67
952.051	1400.08
955.83	957.016
959.607	840.502
963.383	749.457
967.156	775.186
970.928	898
974.699	936.234
978.468	805.34
982.234	645.469
986	361.414
989.763	352.633
993.525	624.971
997.285	442.295
1001.04	159.379
1004.8	621.695
1008.55	585.191
1012.31	531.115
1016.06	650.209
1019.81	611.229
1023.56	634.371
1027.31	509.578
1031.05	729.893
1034.79	540.996
1038.53	723.898
1042.27	941.158
1046.01	997.547
1049.75	756.088
1053.48	1045.09
1057.22	1009.71
1060.95	1090.36
1064.68	1313.76
1068.4	1014.91
1072.13	1013.33
1075.86	842.537
1079.58	574.793
1083.3	1007.06
1087.02	929.059
1090.74	757.352
1094.45	584.844
1098.17	768.105
1101.88	760.082
1105.59	492.742
1109.3	532.012
1113.01	276.879
1116.71	268.375
1120.42	693.547
1124.12	564.922
1127.82	130.172
1131.52	113.316
1135.22	80.938
1138.91	148.555
1142.61	70.387
1146.3	226.129
1149.99	16.574
1153.68	89.41
1157.37	210.77
1161.06	146.887
1164.74	121.027
1168.42	24.676
1172.1	222.973
1175.78	38.668
1179.46	58.301
1183.14	93.699
1186.81	174.469
1190.48	116.867
1194.15	346.312
1197.83	76.93
1201.49	186.039
1205.16	466.078
1208.82	314.035
1212.49	485.141
1216.15	168.547
1219.81	469.379
1223.46	513.691
1227.12	531.355
1230.78	681.094
1234.43	569.668
1238.08	567.98
1241.73	876.34
1245.38	813.176
1249.03	1000.47
1252.67	807.211
1256.31	888.391
1259.95	616.637
1263.6	862.863
1267.23	573.172
1270.87	543.574
1274.51	294.496
1278.14	380.102
1281.77	231.598
1285.4	59.699
1289.03	175.812
1292.66	273.34
1296.28	127.344
1299.91	65.629
1303.53	137.066
1307.15	35.738
1310.77	38.469
1314.38	237.707
1318	190.559
1321.61	339.57
1325.23	455.359
1328.84	139.422
1332.45	52
1336.06	40.891
1339.66	29.691
1343.27	36.691
1346.87	77.152
1350.47	227.949
1354.07	77.426
1357.67	48.137
1361.26	182.391
1364.86	93.621
1368.45	283.668
1372.04	54.941
1375.63	394.742
1379.22	135.605
1382.81	261.137
1386.39	536.773
1389.98	361.523
1393.56	257.41
1397.14	234.176
1400.72	542.227
1404.3	411.195
1407.87	664.531
1411.45	638.559
1415.02	277.605
1418.59	416.27
1422.16	429.855
1425.73	771.777
1429.29	765.152
1432.86	535.195
1436.42	487.441
1439.98	551.801
1443.54	691.418
1447.1	589.445
1450.66	637.82
1454.21	730.504
1457.77	978.246
1461.32	647.375
1464.87	465.887
1468.42	916.086
1471.96	736.039
1475.51	889.629
1479.06	399.047
1482.6	836.801
1486.14	628.949
1489.68	188.375
1493.22	279.625
1496.75	235.605
1500.29	249.562
1503.82	57.664
1507.35	98.688
1510.88	240.566
1514.41	301.906
