Measurement: Raman, 532 nm, unoriented, Raman Data Processed
Mineral: Inyoite
Rruff sample: R050157
Ideal chemistry: CaB_3_O_3_(OH)_5_4H_2_O
Locality: Sijes, Salta, Argentina
Source: Jim McGlasson
Description: Group of colorless tabular crystals
Measured chemistry: (Ca_0.986_H_0.014_)(B_0.995_Si_0.005_)_3_O_3_(OH)_5_ Â·4H_2_O
Raman shift (cm-1)	intensity
140.511	0
143.404	9.3421
146.297	2.79681
149.19	52.4396
152.082	88.5191
154.975	88.1699
157.868	121.352
160.76	115.61
163.653	62.6655
166.546	43.3646
169.438	73.2263
172.331	96.1464
175.224	100.263
178.117	105.699
181.009	123.441
183.902	165.174
186.795	223.747
189.687	256.709
192.58	274.495
195.473	238.463
198.365	168.808
201.258	130.314
204.151	118.112
207.043	102.916
209.936	72.3768
212.829	37.3728
215.722	16.3178
218.614	6.39615
221.507	1.86667
224.4	4.32956
227.292	0.104584
230.185	3.40222
233.078	0.726624
235.97	2.92526
238.863	1.64127
241.756	2.57758
244.649	6.5343
247.541	10.6083
250.434	15.6462
253.327	22.6347
256.219	27.139
259.112	28.9257
262.005	35.7098
264.897	37.6854
267.79	36.7484
270.683	37.3686
273.576	39.8267
276.468	36.4921
279.361	40.7657
282.254	31.0242
285.146	30.5053
288.039	18.2608
290.932	13.7349
293.825	6.93512
296.717	3.54474
299.61	0.851563
302.503	0.876343
305.395	2.65118
308.288	1.09222
311.181	1.78418
314.073	8.68817
316.966	10.2795
319.859	18.8011
322.752	27.4596
325.644	33.8353
328.537	39.6248
331.43	39.0423
334.322	46.4849
337.215	50.4683
340.108	62.0168
343	80.8369
345.893	106.077
348.786	135.366
351.678	152.127
354.571	148.43
357.464	120.754
360.356	97.4558
363.249	78.932
366.142	75.6227
369.035	86.5991
371.927	100.014
374.82	108.629
377.713	105.15
380.605	100.974
383.498	109.266
386.391	123.585
389.284	122.234
392.176	98.7953
395.069	67.3227
397.962	44.0424
400.854	39.5084
403.747	46.874
406.64	54.9821
409.532	58.7903
412.425	60.5763
415.318	55.871
418.211	43.0773
421.103	25.5727
423.996	14.1213
426.889	7.26837
429.781	1.27814
432.674	1.47449
435.567	2.63892
438.459	5.72876
441.352	4.34448
444.245	2.6795
447.137	6.76147
450.03	14.1921
452.923	28.0031
455.816	44.7175
458.708	75.7005
461.601	122.809
464.494	164.452
467.386	157.448
470.279	117.87
473.172	83.279
476.065	67.9932
478.957	55.8308
481.85	49.0246
484.743	47.7252
487.635	43.3588
490.528	39.7203
493.421	43.8408
496.313	46.3208
499.206	51.2352
502.099	60.1817
504.991	70.3097
507.884	75.6693
510.777	70.6679
513.67	72.3027
516.562	70.3924
519.455	67.1664
522.348	71.116
525.24	67.8167
528.133	66.0402
531.026	67.4685
533.918	59.1796
536.811	44.4608
539.704	28.5488
542.597	16.6626
545.489	2.19281
548.382	0.857788
551.275	4.20343
554.167	1.65912
557.06	4.39978
559.953	2.92151
562.846	5.8504
565.738	14.6036
568.631	19.238
571.524	24.0442
574.416	33.3437
577.309	44.7968
580.202	52.5063
583.094	64.5848
585.987	76.6867
588.88	88.6197
591.773	104.872
594.665	136.858
597.558	183.01
600.451	256.004
603.343	351.793
606.236	482.551
609.129	674.464
612.021	924.297
614.914	1110.49
617.807	1001.25
620.699	659.945
623.592	372.267
626.485	218.782
629.378	133.838
632.27	88.4019
635.163	54.884
638.056	38.5967
640.948	25.4125
643.841	22.3763
646.734	17.7383
649.626	16.7049
652.519	8.90033
655.412	3.51685
658.305	8.44898
661.197	8.69721
664.09	6.24731
666.983	2.09851
669.875	0.521729
672.768	1.9527
675.661	0.093201
678.553	1.40851
681.446	3.17383
684.339	2.61713
687.232	0.317261
690.124	0.260986
693.017	2.78833
695.91	4.75482
698.802	7.44367
701.695	9.3689
704.588	8.94318
707.481	7.22375
710.373	19.6678
713.266	25.5825
716.159	35.683
719.051	50.8013
721.944	72.4847
724.837	104.087
727.729	143.395
730.622	175.049
733.515	154.01
736.408	99.748
739.3	61.6799
742.193	35.959
745.086	20.5454
747.978	16.9544
750.871	10.2601
753.764	10.8004
756.656	8.03418
759.549	4.58057
762.442	1.53143
765.335	2.88892
768.227	4.59082
771.12	7.27618
774.013	3.01007
776.905	4.73132
779.798	4.85529
782.691	8.80975
785.583	6.57007
788.476	4.73083
791.369	6.11792
794.261	10.8497
797.154	16.5604
800.047	19.6708
802.939	30.4014
805.832	41.5025
808.725	45.5404
811.618	33.3895
814.51	23.7024
817.403	18.2855
820.296	13.6709
823.188	4.64746
826.081	4.71973
828.974	0.325317
831.866	0.639771
834.759	0.307434
837.652	2.81976
840.545	3.63916
843.437	2.59167
846.33	1.63391
849.223	0.017212
852.115	1.67944
855.008	3.81604
857.901	5.35785
860.793	0.313965
863.686	0.0755
866.579	3.56262
869.472	6.84875
872.364	1.79492
875.257	0.099243
878.15	2.74811
881.042	3.3678
883.935	1.81708
886.828	3.23694
889.721	4.93549
892.613	6.15479
895.506	9.10229
898.399	12.7675
901.291	23.3016
904.184	30.7491
907.077	36.8578
909.969	44.4561
912.862	47.4089
915.755	40.5782
918.648	34.9639
921.54	36.6921
924.433	39.8625
927.326	39.0996
930.218	38.4988
933.111	29.8613
936.004	25.2108
938.896	25.8538
941.789	25.6668
944.682	25.3477
947.574	22.1072
950.467	30.2342
953.36	31.9918
956.253	37.3042
959.145	37.7695
962.038	30.4522
964.931	24.4322
967.823	18.8569
970.716	11.1109
973.609	8.06305
976.501	6.74591
979.394	4.35877
982.287	5.41242
985.18	4.78552
988.072	0.831726
990.965	2.85858
993.858	1.80823
996.75	0.501587
999.643	1.80487
1002.54	4.48968
1005.43	4.78686
1008.32	7.7514
1011.21	8.91113
1014.11	7.66028
1017	7.29748
1019.89	4.20728
1022.78	0.077087
1025.68	0.287781
1028.57	1.74054
1031.46	0.770935
1034.36	1.22186
1037.25	4.04852
1040.14	3.50366
1043.03	1.52331
1045.93	4.04925
1048.82	8.37109
1051.71	8.86707
1054.6	9.02704
1057.5	13.7897
1060.39	15.887
1063.28	16.4924
1066.17	20.4457
1069.07	17.7993
1071.96	12.1077
1074.85	9.53888
1077.75	5.65131
1080.64	2.9154
1083.53	2.14356
1086.42	0.150635
1089.32	3.06378
1092.21	5.32849
1095.1	7.80774
1097.99	3.6778
1100.89	3.07965
1103.78	6.66632
1106.67	5.29236
1109.57	6.23328
1112.46	3.02942
1115.35	2.81567
1118.24	3.59979
1121.14	0.025513
1124.03	6.02081
1126.92	0.368652
1129.82	2.12207
1132.71	4.03796
1135.6	1.78723
1138.49	2.40308
1141.38	3.28333
1144.28	0.350952
1147.17	2.55286
1150.06	0.192078
1152.96	1.58539
1155.85	0.820374
1158.74	2.56012
1161.63	0.591187
1164.53	5.77649
1167.42	1.85602
1170.31	6.86011
1173.2	4.39423
1176.1	3.24524
1178.99	6.93018
1181.88	7.74982
1184.78	8.94733
1187.67	10.1374
1190.56	10.2029
1193.45	13.6419
1196.35	12.1575
1199.24	14.7034
1202.13	11.499
1205.03	13.9215
1207.92	12.4153
1210.81	13.0761
1213.7	10.7272
1216.6	9.15576
1219.49	8.96582
1222.38	8.73498
1225.27	6.93768
1228.17	7.54468
1231.06	3.25751
1233.95	4.77918
1236.84	3.33008
1239.74	3.26978
1242.63	1.95709
1245.52	5.48767
1248.41	6.01269
1251.31	12.2371
1254.2	10.1129
1257.09	8.4726
1259.99	7.86554
1262.88	8.47138
1265.77	7.70642
1268.66	7.15216
1271.56	5.37878
1274.45	0.57074
1277.34	4.05725
1280.23	2.10608
