Measurement: Raman, 780 nm, unoriented, Raman Data Processed
Mineral: Iodargyrite
Rruff sample: R080017
Ideal chemistry: AgI
Locality: Broken Hill, New South Wales, Australia
Source: Michael Scott
Description: Lemon-yellow prismatic hexagonal crystals
Raman shift (cm-1)	intensity
136.936	0
139.829	19.1641
142.722	29.0133
145.614	30.5789
148.507	42.853
151.4	68.9279
154.292	62.7388
157.185	83.494
160.078	84.38
162.971	101.66
165.863	102.204
168.756	86.9701
171.649	66.318
174.541	45.2298
177.434	24.1375
180.327	11.1148
183.22	2.63449
186.112	4.2643
189.005	7.28369
191.898	9.21956
194.79	2.22002
197.683	23.1798
200.576	49.8207
203.468	73.3736
206.361	91.1614
209.254	107.434
212.147	121.937
215.039	132.504
217.932	144.542
220.825	148.281
223.717	154.352
226.61	158.332
229.503	159.685
232.395	153.482
235.288	157.083
238.181	148.462
241.073	146.01
243.966	136.777
246.859	124.776
249.752	114.543
252.644	108.072
255.537	98.942
258.43	95.8422
261.322	88.7089
264.215	84.0207
267.108	83.4449
270	76.278
272.893	72.3295
275.786	64.6968
278.679	63.8122
281.571	56.5659
284.464	52.2165
287.357	46.5017
290.249	45.1219
293.142	38.0011
296.035	36.7848
298.928	34.8094
301.82	29.5076
304.713	28.1888
307.606	22.0139
310.498	19.1936
313.391	21.7644
316.284	15.4166
319.176	17.0673
322.069	11.6303
324.962	11.5622
327.854	8.32126
330.747	4.96711
333.64	6.2729
336.533	6.96079
339.425	5.57681
342.318	1.63311
345.211	1.74485
348.103	0.125465
350.996	1.65505
353.889	1.17874
356.781	0.960876
359.674	1.14161
362.567	1.0227
365.46	1.05043
368.352	0.80864
371.245	0.840752
374.138	0.539505
377.03	0.045822
379.923	1.6503
382.816	2.51671
385.709	0.063187
388.601	0.253426
391.494	4.35363
394.387	0.637634
397.279	0.23877
400.172	2.45712
403.065	0.339218
405.957	4.79471
408.85	2.15819
411.743	2.5727
414.635	3.25147
417.528	4.07629
420.421	3.93245
423.314	4.13763
426.206	4.39253
429.099	5.02582
431.992	4.82679
434.884	5.89113
437.777	6.3598
440.67	6.28059
443.562	6.78587
446.455	4.18041
449.348	7.74826
452.241	4.20615
455.133	3.84344
458.026	6.07137
460.919	5.04954
463.811	2.81586
466.704	4.24925
469.597	5.54956
472.49	6.30618
475.382	2.91171
478.275	6.24455
481.168	4.69035
484.06	2.59775
486.953	3.8622
489.846	4.29167
492.738	7.43027
495.631	4.78318
498.524	0.421066
501.416	5.21404
504.309	4.92911
507.202	7.04176
510.095	4.71518
512.987	4.74986
515.88	3.78387
518.773	5.16499
521.665	2.51962
524.558	5.80483
527.451	5.27168
530.343	5.11992
533.236	4.83833
536.129	1.73931
539.022	2.52773
541.914	1.48331
544.807	3.51936
547.7	6.94218
550.592	2.42454
553.485	6.06741
556.378	1.55944
559.27	3.0228
562.163	4.77863
565.056	4.09717
567.949	4.71197
570.841	1.68417
573.734	2.29015
576.627	3.34903
579.519	3.45038
582.412	2.97765
585.305	5.61069
588.197	1.34067
591.09	2.3067
593.983	1.99239
596.876	0.18322
599.768	2.39905
602.661	3.74882
605.554	9.1281
608.446	2.48959
611.339	3.95585
614.232	1.63238
617.125	0.462982
620.017	2.68586
622.91	3.48927
625.803	1.51562
628.695	1.33249
631.588	1.5488
634.481	0.738472
637.373	1.73772
640.266	2.59899
643.159	1.11005
646.052	2.29821
648.944	3.54994
651.837	0.607918
654.73	1.6505
657.622	3.11541
660.515	2.07614
663.408	2.64074
666.3	0.213074
669.193	1.05633
672.086	0.26963
674.979	0.684174
677.871	0.140312
680.764	1.51804
683.657	0.104851
686.549	1.19123
689.442	3.21877
692.335	3.91328
695.227	2.83321
698.12	5.03416
701.013	0.747925
703.905	1.19038
706.798	3.78162
709.691	1.7291
712.584	1.56562
715.476	1.74044
718.369	4.43603
721.262	1.03376
724.154	2.92397
727.047	2.79146
729.94	1.50063
732.832	1.76099
735.725	1.49229
738.618	3.23237
741.511	2.37073
744.403	4.93433
747.296	1.32223
750.189	1.72649
753.081	0.726051
755.974	3.69627
758.867	1.16803
761.76	3.39308
764.652	2.98267
767.545	0.134201
770.438	4.15176
773.33	1.26275
776.223	6.30388
779.116	1.93808
782.008	3.97063
784.901	0.654732
787.794	2.73611
790.687	2.56406
793.579	6.32934
796.472	5.63298
799.365	3.43149
802.257	1.34728
805.15	0.793404
808.043	4.013
810.935	3.32819
813.828	3.38874
816.721	1.96493
819.614	1.02909
822.506	3.39644
825.399	2.19279
828.292	0.391724
831.184	0.571541
834.077	1.10931
836.97	3.66332
839.862	3.02164
842.755	2.18394
845.648	5.82793
848.54	1.13662
851.433	2.71078
854.326	1.00359
857.219	4.20199
860.111	3.60764
863.004	3.74282
865.897	3.78497
868.789	2.98087
871.682	3.0051
874.575	2.67806
877.467	4.85671
880.36	3.73953
883.253	3.05372
886.146	3.95747
889.038	1.63563
891.931	0.43232
894.824	2.76053
897.716	2.8643
900.609	2.35009
903.502	5.20443
906.394	3.00895
909.287	2.74564
912.18	3.39322
915.073	3.24942
917.965	5.43229
920.858	1.06204
923.751	0.990242
926.643	3.61874
929.536	2.24611
932.429	5.43226
935.322	1.08066
938.214	0.648148
941.107	2.44017
944	1.97784
946.892	4.85297
949.785	2.16782
952.678	1.68021
955.57	3.55772
958.463	4.57269
961.356	0.184258
964.249	0.873619
967.141	3.45926
970.034	0.321281
972.927	3.70867
975.819	2.7547
978.712	1.76685
981.605	2.0172
984.497	5.3887
987.39	0.702827
990.283	2.07108
993.176	1.74426
996.068	2.85348
998.961	6.39822
1001.85	5.14402
1004.75	1.72533
1007.64	0.575478
1010.53	4.76096
1013.42	2.57352
1016.32	2.54045
1019.21	3.24886
1022.1	1.96738
1024.99	3.51174
1027.89	2.26265
1030.78	0.092117
1033.67	2.3393
1036.57	1.03426
1039.46	2.26409
1042.35	2.56942
1045.24	2.60371
1048.14	0.557747
1051.03	4.21091
1053.92	3.23536
1056.82	6.12144
1059.71	1.59482
1062.6	1.78178
1065.49	2.50507
1068.39	4.60567
1071.28	1.96595
1074.17	4.30722
1077.06	3.99444
1079.96	1.70879
1082.85	1.8412
1085.74	2.45555
1088.63	1.77225
1091.53	0.893028
1094.42	1.47311
1097.31	0.291611
1100.2	1.89268
1103.1	0.345207
1105.99	5.15289
1108.88	0.084183
1111.78	2.97009
1114.67	2.41753
1117.56	2.29852
1120.45	3.92381
1123.35	1.07623
1126.24	1.01286
1129.13	3.56644
1132.03	0.220596
1134.92	6.01286
1137.81	2.17624
1140.7	3.10355
1143.6	0.267654
1146.49	0.445427
1149.38	3.12505
1152.27	2.35272
1155.17	1.8064
1158.06	1.92283
1160.95	3.43935
1163.85	4.43611
1166.74	2.55836
1169.63	0.797043
1172.52	0.301048
1175.42	3.89069
1178.31	2.82054
1181.2	5.30469
1184.09	3.79378
1186.99	2.98357
1189.88	2.5553
1192.77	4.42053
1195.66	0.939201
1198.56	4.56131
1201.45	1.33629
1204.34	3.83807
1207.23	2.59763
1210.13	3.85687
1213.02	4.53693
1215.91	3.63875
1218.81	4.45629
1221.7	2.63539
1224.59	1.72047
1227.48	6.40092
1230.38	0.37735
1233.27	4.19183
1236.16	5.68632
1239.06	1.9012
1241.95	0.575386
1244.84	2.8429
1247.73	0.818817
1250.63	0.753357
1253.52	1.12019
1256.41	1.98545
1259.3	1.7933
1262.2	1.45788
1265.09	2.16351
1267.98	0.474258
1270.88	2.09715
1273.77	0.809212
1276.66	1.27757
1279.55	1.08643
1282.44	3.95091
1285.34	0.036964
1288.23	0
