Measurement: Raman, 785 nm, unoriented, Raman Data Processed
Mineral: Iodargyrite
Rruff sample: R061056
Ideal chemistry: AgI
Locality: Capitana, Chile
Source: Bob Jenkins
Description: Transparent colorless prismatic crystals
Raman shift (cm-1)	intensity
91.6369	0
95.0117	153.996
98.3865	387.636
101.761	572.798
105.136	500.555
108.511	250.512
111.886	1.10553
115.261	45.9114
118.635	169.512
122.01	31.2952
125.385	1750.25
128.76	4796.16
132.135	7570.69
135.51	6429.13
138.884	5555.19
142.259	7752.91
145.634	11489.9
149.009	13864.6
152.384	12661
155.758	10222.3
159.133	8625.23
162.508	8088.8
165.883	7508.45
169.258	6693.15
172.632	5501.78
176.007	4269.07
179.382	3295.02
182.757	2640.12
186.132	2304.12
189.507	2041.31
192.881	1911.51
196.256	1845.59
199.631	1974.56
203.006	2097.26
206.381	2234.96
209.756	2373.19
213.13	2545.72
216.505	2705.95
219.88	3035.28
223.255	3323.49
226.63	3630.72
230.004	3785.22
233.379	4039.82
236.754	4306.33
240.129	4517.33
243.504	4610.72
246.878	4615.95
250.253	4552.53
253.628	4484.16
257.003	4301.38
260.378	4067.31
263.752	3688.79
267.127	3258.33
270.502	2775.59
273.877	2148.65
277.252	1705.43
280.627	1325.07
284.001	884.999
287.376	513.556
290.751	265.072
294.126	74.728
297.501	72.9033
300.875	99.7153
304.25	145.047
307.625	178.29
311	114.47
314.375	134.936
317.75	112.152
321.124	41.3169
324.499	0.381348
327.874	170.26
331.249	160.419
334.624	185.408
337.998	248.37
341.373	353.67
344.748	353.644
348.123	426.817
351.498	492.683
354.873	508.938
358.247	593.556
361.622	554.285
364.997	543.581
368.372	559.969
371.747	583.82
375.122	545.286
378.496	489.35
381.871	450.194
385.246	369.13
388.621	401.879
391.995	379.133
395.37	431.003
398.745	450.404
402.12	375.303
405.495	310.843
408.87	311.929
412.244	289.17
415.619	242.406
418.994	316.102
422.369	265.698
425.744	177.675
429.118	183.899
432.493	209.917
435.868	196.463
439.243	180.989
442.618	169.655
445.993	133.269
449.367	139.228
452.742	142.647
456.117	111.36
459.492	93.3252
462.867	84.8599
466.241	72.3027
469.616	87.7808
472.991	83.1099
476.366	19.2949
479.741	47.2852
483.116	7.42969
486.49	40.291
489.865	60.477
493.24	39.2388
496.615	55.7549
499.99	24.4282
503.365	31.5303
506.739	26.4546
510.114	38.5703
513.489	40.2398
516.864	25.1099
520.239	16.6436
523.613	57.1855
526.988	12.499
530.363	34.3174
533.738	44.6079
537.113	23.3745
540.487	2.40283
543.862	7.57715
547.237	14.9521
550.612	9.62012
553.987	13.6743
557.362	40.917
560.736	87.145
564.111	32.7041
567.486	7.14941
570.861	12.9165
574.236	6.86084
577.611	12.1533
580.985	85.4175
584.36	62.9912
587.735	44.7764
591.11	44.6489
594.485	58.4648
597.859	13.6558
601.234	96.2158
604.609	46.3403
607.984	131.001
611.359	73.1523
614.733	105.608
618.108	74.9453
621.483	135.546
624.858	139.402
628.233	110.186
631.607	146.479
634.982	107.095
638.357	111.814
641.732	75.2661
645.107	61.8008
648.482	49.1846
651.856	43.1416
655.231	112.013
658.606	98.2812
661.981	39.8403
665.356	43.7075
668.731	17.0591
672.105	19.438
675.48	36.7109
678.855	20.2026
682.23	36.437
685.605	56.0781
688.979	77.0483
692.354	26.9458
695.729	51.1016
699.104	66.7153
702.479	47.331
705.854	22.9126
709.228	15.9312
712.603	23.4106
715.978	42.75
719.353	71.0845
722.727	31.3208
726.102	36.3164
729.477	10.7119
732.852	39.4307
736.227	2.21484
739.602	51.8262
742.976	36.9731
746.351	25.2656
749.726	43.1372
753.101	8.2041
756.476	26.0806
759.851	69.3281
763.225	73.6191
766.6	33.7368
769.975	69.1201
773.35	68.6465
776.725	87.4468
780.099	105.565
783.474	93.5054
786.849	127.2
790.224	83.7656
793.599	130.953
796.973	112.701
800.348	87.7573
803.723	125.995
807.098	157.877
810.473	154.066
813.848	91.7368
817.222	154.027
820.597	110.612
823.972	76.7173
827.347	75.5908
830.722	85.3945
834.096	94.1724
837.471	35.3301
840.846	46.9531
844.221	74.8311
847.596	77.6504
850.971	14.5132
854.345	62.6509
857.72	24.2988
861.095	32.3691
864.47	13.1523
867.845	40.7969
871.22	11.8379
874.594	20.7451
877.969	61.811
881.344	11.8701
884.719	33.9497
888.094	63.979
891.468	13.4727
894.843	23.8892
898.218	78.479
901.593	24.1641
904.968	54.2129
908.342	26.1689
911.717	91.3491
915.092	41.2197
918.467	40.7407
921.842	6.18555
925.216	21.8755
928.591	25.3262
931.966	41.6318
935.341	31.3237
938.716	27.688
942.091	50.3862
945.465	8.76611
948.84	40.1963
952.215	52.6816
955.59	58.2017
958.965	21.3486
962.34	54.3745
965.714	67.7861
969.089	0.07373
972.464	72.4761
975.839	24.6572
979.214	38.1289
982.588	14.0479
985.963	68.2871
989.338	28.6196
992.713	17.9819
996.088	6.67285
999.462	76.5828
1002.84	36.5627
1006.21	28.5581
1009.59	13.8787
1012.96	92.8835
1016.34	74.2202
1019.71	32.7661
1023.09	24.688
1026.46	4.30518
1029.84	43.6516
1033.21	23.175
1036.59	33.7522
1039.96	34.1228
1043.34	41.7961
1046.71	33.9924
1050.09	7.49878
1053.46	62.8071
1056.83	59.7202
1060.21	31.5322
1063.58	58.7981
1066.96	7.28174
1070.33	67.2234
1073.71	79.7729
1077.08	47.7602
1080.46	52.5627
1083.83	25.8833
1087.21	41.8787
1090.58	57.9688
1093.96	9.91065
1097.33	12.2446
1100.71	49.8152
1104.08	10.1675
1107.46	39.6069
1110.83	71.438
1114.21	111.264
1117.58	62.4207
1120.96	44.7859
1124.33	56.7563
1127.7	27.5989
1131.08	66.8088
1134.45	69.4858
1137.83	93.8223
1141.2	64.1785
1144.58	85.6914
1147.95	59.4438
1151.33	26.6855
1154.7	64.7888
1158.08	30.1895
1161.45	59.7058
1164.83	33.6208
1168.2	12.6675
1171.58	35.9807
1174.95	60.9094
1178.33	9.96021
1181.7	19.3823
1185.08	18.6133
1188.45	45.9524
1191.83	60.2366
1195.2	65.0469
1198.58	104.46
1201.95	56.5596
1205.33	61.1072
1208.7	24.6665
1212.08	39.6184
1215.45	99.7022
1218.83	109.598
1222.2	81.8389
1225.58	27.7124
1228.95	54.7024
1232.33	5.19604
1235.7	50.0278
1239.07	34.9436
1242.45	7.31445
1245.82	63.3667
1249.2	59.072
1252.57	39.1838
1255.95	43.6733
1259.32	33.7222
1262.7	16.0869
1266.07	12.7461
