Measurement: Raman, 532 nm, unoriented, Raman Data Processed
Mineral: Iowaite
Rruff sample: R120110
Ideal chemistry: Mg_6_Fe^3+^_2_(OH)_16_Cl_2_4H_2_O
Locality: Kaznakhtinskiy Range, Altai Mountains, Russia
Source: Marcus Origlieri
Description: Dark purple massive, associated with chrysotile
Raman shift (cm-1)	intensity
171.488	0
174.381	7.82231
177.273	20.4438
180.166	21.724
183.059	20.2377
185.951	27.1101
188.844	42.1712
191.737	55.087
194.629	60.5919
197.522	42.3384
200.415	34.2271
203.308	30.4704
206.2	29.1673
209.093	27.2211
211.986	30.3375
214.878	24.7366
217.771	22.3063
220.664	16.7447
223.556	15.6288
226.449	10.3758
229.342	8.58766
232.234	9.6555
235.127	6.59004
238.02	3.38008
240.913	1.37965
243.805	2.56247
246.698	2.44606
249.591	2.46219
252.483	1.39758
255.376	0.836151
258.269	5.33978
261.161	7.48558
264.054	12.0535
266.947	21.9861
269.84	37.003
272.732	47.9543
275.625	65.3264
278.518	84.4524
281.41	101.16
284.303	116.604
287.196	116.492
290.089	111.262
292.981	107.963
295.874	107.835
298.767	106.817
301.659	103.945
304.552	102.826
307.445	102.352
310.337	99.605
313.23	95.3281
316.123	84.859
319.015	70.6516
321.908	53.5621
324.801	36.937
327.694	23.3655
330.586	13.3302
333.479	7.50955
336.372	7.522
339.264	8.67073
342.157	9.42716
345.05	8.21874
347.942	9.2785
350.835	9.46811
353.728	10.6414
356.621	13.4948
359.513	11.2218
362.406	12.111
365.299	16.0948
368.191	15.4715
371.084	15.1212
373.977	12.8709
376.87	11.2676
379.762	10.8284
382.655	3.03677
385.548	1.37582
388.44	0.196548
391.333	4.46193
394.226	4.70949
397.118	6.89159
400.011	5.11476
402.904	3.58228
405.796	1.1194
408.689	6.6824
411.582	17.3755
414.475	28.5695
417.367	34.0726
420.26	52.498
423.153	57.9607
426.045	70.1577
428.938	76.8654
431.831	90.391
434.724	104.496
437.616	110.682
440.509	130.806
443.402	163.489
446.294	207.842
449.187	268.392
452.08	333.094
454.972	394.729
457.865	416.824
460.758	372.622
463.651	272.738
466.543	170.572
469.436	94.7539
472.329	51.8713
475.221	26.248
478.114	15.7026
481.007	13.7159
483.899	13.2583
486.792	16.5277
489.685	28.0131
492.577	39.613
495.47	58.402
498.363	82.8476
501.256	116.894
504.148	159.633
507.041	223.641
509.934	311.299
512.826	436.039
515.719	603.56
518.612	816.486
521.505	1066.55
524.397	1316.96
527.29	1503.68
530.183	1568.06
533.075	1529.63
535.968	1409.38
538.861	1192.1
541.753	920.183
544.646	650.447
547.539	435.428
550.432	288.023
553.324	187.534
556.217	124.086
559.11	79.1826
562.002	49.2491
564.895	30.8011
567.788	16.6011
570.68	7.33633
573.573	1.17226
576.466	2.93926
579.359	1.57628
582.251	4.09631
585.144	4.69054
588.037	4.21573
590.929	4.53842
593.822	2.12973
596.715	0.305252
599.607	2.07242
602.5	0.017715
605.393	1.19766
608.285	3.20384
611.178	3.1349
614.071	4.69157
616.964	4.76013
619.856	6.07445
622.749	7.42644
625.642	6.42753
628.534	8.44837
631.427	8.99249
634.32	11.4182
637.212	8.14553
640.105	9.66167
642.998	6.93089
645.891	6.92937
648.783	7.17521
651.676	7.42494
654.569	7.63648
657.461	6.11393
660.354	6.52733
663.247	6.04496
666.139	7.25578
669.032	4.37542
671.925	6.91211
674.818	7.35937
677.71	7.26319
680.603	6.64431
683.496	8.02712
686.388	6.14033
689.281	3.2055
692.174	2.75057
695.067	4.06345
697.959	6.64336
700.852	1.74106
703.745	0.018387
706.637	1.43401
709.53	1.01188
712.423	1.13532
715.315	1.85565
718.208	2.3908
721.101	2.26897
723.994	3.2469
726.886	2.26328
729.779	3.14153
732.672	4.31522
735.564	4.01753
738.457	3.93055
741.35	4.29681
744.242	4.9753
747.135	6.11797
750.028	5.66218
752.92	6.05508
755.813	8.35427
758.706	6.82044
761.599	6.26164
764.491	9.4952
767.384	8.63506
770.277	6.4808
773.169	7.68208
776.062	6.99796
778.955	9.13163
781.847	6.26751
784.74	6.21265
787.633	5.98206
790.526	6.08549
793.418	6.35634
796.311	6.05282
799.204	4.5012
802.096	3.67714
804.989	1.60798
807.882	3.53107
810.774	1.80251
813.667	2.72192
816.56	2.73435
819.453	0.640465
822.345	0.149239
825.238	0.242805
828.131	0.002457
831.023	1.17001
833.916	1.17589
836.809	1.54858
839.702	0.705208
842.594	0.027924
845.487	0.66523
848.38	1.25061
851.272	0.278381
854.165	3.36764
857.058	5.05095
859.95	2.24706
862.843	3.85772
865.736	4.01815
868.629	2.75022
871.521	5.63718
874.414	3.36991
877.307	3.59814
880.199	3.52746
883.092	4.81191
885.985	6.36024
888.877	4.81751
891.77	3.21206
894.663	5.04536
897.556	3.54313
900.448	2.46743
903.341	4.07951
906.234	5.97944
909.126	2.32188
912.019	4.06236
914.912	3.88308
917.804	5.94582
920.697	3.91279
923.59	3.95576
926.482	3.37915
929.375	5.55025
932.268	4.76086
935.161	4.98378
938.053	5.46582
940.946	3.62198
943.839	1.33144
946.731	2.22311
949.624	1.57011
952.517	1.76397
955.409	0.889408
958.302	3.2496
961.195	0.846443
964.088	0.425026
966.98	0.199039
969.873	1.45188
972.766	0.468487
975.658	1.87935
978.551	0.009148
981.444	1.53422
984.337	3.45021
987.229	3.77876
990.122	2.27993
993.015	3.59933
995.907	5.25014
998.8	7.45924
1001.69	4.7565
1004.59	2.23916
1007.48	4.4278
1010.37	4.02921
1013.26	5.27159
1016.16	3.26189
1019.05	4.12551
1021.94	4.68514
1024.83	5.5191
1027.73	4.74821
1030.62	5.69863
1033.51	5.60899
1036.4	7.03482
1039.3	11.9919
1042.19	17.3775
1045.08	25.6919
1047.98	25.9662
1050.87	32.4465
1053.76	47.1042
1056.65	56.8381
1059.55	51.2067
1062.44	35.3748
1065.33	19.0443
1068.22	11.9294
1071.12	6.21112
1074.01	4.6878
1076.9	0.717884
1079.8	2.24343
1082.69	2.35407
1085.58	1.20453
1088.47	1.13051
1091.37	1.36945
1094.26	2.26681
1097.15	2.77449
1100.04	1.65021
1102.94	0.99184
1105.83	0.119095
1108.72	1.43125
1111.62	1.49504
1114.51	0.767235
1117.4	2.55757
1120.29	2.16225
1123.19	1.73605
1126.08	4.38342
1128.97	2.87238
1131.86	0.981071
1134.76	3.22652
1137.65	3.15858
1140.54	0.260258
1143.43	2.49385
1146.33	3.17839
1149.22	2.0669
1152.11	1.15996
1155.01	1.77304
1157.9	2.6093
1160.79	4.34658
1163.68	1.92494
1166.58	1.99923
1169.47	1.77324
1172.36	2.7039
1175.26	2.19224
1178.15	1.67376
1181.04	0.956444
1183.93	3.47073
1186.83	4.21152
1189.72	2.36631
1192.61	1.67078
1195.5	1.39342
1198.4	2.39944
1201.29	2.3682
1204.18	1.77346
1207.07	1.86243
1209.97	0.388908
1212.86	0.927597
1215.75	2.53102
1218.64	3.36135
1221.54	1.75436
1224.43	2.48505
1227.32	3.39447
1230.22	2.00648
1233.11	0.802975
1236	2.03917
1238.89	2.53196
1241.79	1.47201
1244.68	2.36145
1247.57	0.760006
1250.46	0.980766
1253.36	7.4438
1256.25	0.361076
1259.14	2.41256
1262.04	3.09507
1264.93	1.56107
1267.82	1.1443
1270.71	1.43668
1273.61	1.45259
1276.5	3.62338
1279.39	3.4065
1282.29	0.189011
1285.18	2.1902
1288.07	2.26287
1290.96	2.48385
1293.86	2.81058
1296.75	1.02421
1299.64	1.18463
1302.53	0.544464
