Measurement: Raman, 532 nm, unoriented, Raman Data Processed
Mineral: Iowaite
Rruff sample: R060272
Ideal chemistry: Mg_6_Fe^3+^_2_(OH)_16_Cl_2_4H_2_O
Locality: Palabora open pit, Phalaborwa, Transvaal, Republic of South Africa
Source: Michael Scott
Description: Reddish-brown hexagonal tablet
Measured chemistry: Mg_6.00_Fe^3+^_2.00_(OH)_16_(Cl_1.65_(OH)_0.35_)_Σ=2_·4H_2_O; OH estimated by charge balance
Raman shift (cm-1)	intensity
90.9743	0
94.3491	2.25951
97.7239	1.04689
101.099	5.82695
104.474	12.3705
107.848	4.17259
111.223	16.662
114.598	15.5166
117.973	5.22369
121.348	0.661193
124.722	3.55721
128.097	1.40176
131.472	1.2663
134.847	3.35134
138.222	5.17143
141.597	26.2583
144.971	30.4382
148.346	41.0163
151.721	66.1688
155.096	82.5605
158.471	79.4182
161.845	83.9888
165.22	89.4387
168.595	85.5644
171.97	82.6728
175.345	66.9367
178.72	67.7605
182.094	59.3313
185.469	52.1895
188.844	45.2142
192.219	43.0156
195.594	35.0993
198.968	35.5921
202.343	26.9365
205.718	18.3122
209.093	16.2529
212.468	15.6428
215.843	12.157
219.217	10.3339
222.592	6.26071
225.967	6.68465
229.342	3.22584
232.717	4.24885
236.091	1.42299
239.466	3.74709
242.841	0.167679
246.216	3.71532
249.591	6.98088
252.965	10.2383
256.34	12.7741
259.715	24.9023
263.09	37.0776
266.465	51.3218
269.84	70.0579
273.214	89.181
276.589	114.78
279.964	135.872
283.339	142.913
286.714	120.268
290.089	89.1135
293.463	68.6707
296.838	49.5356
300.213	37.9085
303.588	33.4347
306.963	34.0711
310.337	27.2161
313.712	25.643
317.087	28.8576
320.462	18.8427
323.837	14.3721
327.212	8.21429
330.586	3.739
333.961	4.48001
337.336	2.10188
340.711	3.19388
344.086	1.36542
347.46	0.981873
350.835	2.83153
354.21	0.952194
357.585	0.324661
360.96	8.60661
364.334	10.2572
367.709	18.9358
371.084	20.9375
374.459	20.5932
377.834	20.9077
381.209	24.267
384.583	17.9828
387.958	13.2474
391.333	9.53267
394.708	3.21707
398.083	2.8669
401.457	2.55397
404.832	5.10557
408.207	7.34028
411.582	3.53022
414.957	6.45012
418.332	10.469
421.706	9.22586
425.081	9.22072
428.456	9.95197
431.831	13.154
435.206	11.2795
438.58	14.3724
441.955	7.00226
445.33	5.60274
448.705	4.89976
452.08	1.94691
455.454	1.08867
458.829	0.453407
462.204	5.5247
465.579	3.20948
468.954	2.35691
472.329	1.57098
475.703	2.91335
479.078	11.2774
482.453	17.7212
485.828	27.0002
489.203	33.3357
492.577	45.894
495.952	62.317
499.327	81.5665
502.702	103.09
506.077	132.402
509.452	175.005
512.826	231.793
516.201	311.388
519.576	420.064
522.951	540.15
526.326	652.952
529.701	697.653
533.075	662.393
536.45	589.116
539.825	513.228
543.2	424.731
546.575	340.152
549.949	265.102
553.324	202.602
556.699	150.276
560.074	111.202
563.449	80.9387
566.823	62.3084
570.198	47.4899
573.573	38.6726
576.948	33.3072
580.323	29.2148
583.697	24.8004
587.072	21.2784
590.447	15.9653
593.822	15.3756
597.197	12.2797
600.572	6.52155
603.946	1.65999
607.321	2.14834
610.696	3.91116
614.071	2.19331
617.446	2.58046
620.821	0.541077
624.195	0.033195
627.57	2.25214
630.945	1.59749
634.32	2.12658
637.695	0.537018
641.069	3.23513
644.444	3.04073
647.819	0.532852
651.194	0.288177
654.569	3.55463
657.943	3.73358
661.318	6.37205
664.693	7.8071
668.068	0.790348
671.443	3.99788
674.818	4.94264
678.192	5.39434
681.567	6.37929
684.942	4.85841
688.317	2.88015
691.692	5.91502
695.067	2.969
698.441	4.93024
701.816	1.74225
705.191	6.75462
708.566	3.90757
711.941	2.62581
715.315	2.75812
718.69	1.5839
722.065	6.12241
725.44	2.9706
728.815	3.13245
732.189	4.43273
735.564	1.41969
738.939	3.11362
742.314	5.98748
745.689	2.72518
749.063	3.75978
752.438	4.47465
755.813	3.13097
759.188	1.12708
762.563	0.136589
765.938	2.14223
769.312	3.68225
772.687	1.96985
776.062	0.714138
779.437	4.02896
782.812	2.97937
786.187	4.12149
789.561	1.72179
792.936	1.27432
796.311	4.75468
799.686	3.48476
803.061	3.46033
806.435	3.43741
809.81	4.22578
813.185	0.729771
816.56	3.65772
819.935	0.077747
823.309	0.554546
826.684	1.50001
830.059	4.12052
833.434	0.017567
836.809	2.58735
840.184	3.51316
843.558	1.24736
846.933	3.37426
850.308	2.94529
853.683	3.39858
857.058	5.40504
860.433	4.57201
863.807	4.72387
867.182	3.73705
870.557	4.56867
873.932	2.18675
877.307	0.102699
880.681	2.5693
884.056	2.48565
887.431	4.92743
890.806	5.08633
894.181	1.72382
897.556	2.7316
900.93	0.871468
904.305	1.52661
907.68	3.86976
911.055	0.403896
914.43	0.232029
917.804	2.05663
921.179	0.58947
924.554	1.92736
927.929	5.0491
931.304	3.63666
934.678	3.38243
938.053	2.65857
941.428	0.352539
944.803	5.54063
948.178	4.00145
951.553	2.91487
954.927	3.83119
958.302	2.63915
961.677	0.672375
965.052	5.3553
968.427	2.73828
971.802	2.67722
975.176	3.66958
978.551	3.33461
981.926	3.61129
985.301	0.173141
988.676	2.7072
992.05	2.21949
995.425	2.27297
998.8	0.692272
1002.17	3.15519
1005.55	2.61145
1008.92	2.20486
1012.3	2.66686
1015.67	1.36758
1019.05	1.18033
1022.42	2.21881
1025.8	1.27707
1029.17	6.47805
1032.55	6.20737
1035.92	3.19014
1039.3	7.47234
1042.67	8.67018
1046.05	11.4812
1049.42	14.4074
1052.8	25.5617
1056.17	29.9973
1059.55	20.4502
1062.92	16.0199
1066.3	6.80701
1069.67	5.44097
1073.05	2.38018
1076.42	2.49907
1079.8	3.5623
1083.17	3.76647
1086.55	3.95812
1089.92	3.63657
1093.3	1.42196
1096.67	2.11778
1100.04	2.0323
1103.42	1.54227
1106.79	1.30656
1110.17	2.15951
1113.54	1.9769
1116.92	2.72025
1120.29	2.44532
1123.67	0.77858
1127.04	4.73303
1130.42	1.8134
1133.79	3.99857
1137.17	5.63813
1140.54	6.86791
1143.92	1.9032
1147.29	3.66001
1150.67	3.747
1154.04	7.97384
1157.42	3.75659
1160.79	4.65253
1164.17	4.505
1167.54	2.58741
1170.92	7.40977
1174.29	4.26925
1177.66	3.35168
1181.04	3.95714
1184.41	6.276
1187.79	2.14785
1191.16	2.1125
1194.54	6.615
1197.91	2.50079
1201.29	1.28342
1204.66	1.66436
1208.04	2.61392
1211.41	5.54306
1214.79	2.64895
1218.16	2.58735
1221.54	3.22607
1224.91	0.206654
1228.29	1.16245
1231.66	3.50519
1235.04	3.53949
1238.41	2.18521
1241.79	1.8112
1245.16	2.2946
1248.54	2.85929
1251.91	1.67417
1255.29	0.457611
1258.66	3.71055
1262.04	4.13765
1265.41	2.71451
1268.79	1.5177
1272.16	0.32999
1275.54	1.79003
1278.91	2.7505
1282.29	5.25942
1285.66	2.92005
1289.03	3.38134
1292.41	6.81066
1295.78	0.270836
1299.16	3.75493
1302.53	0.463242
