Measurement: Raman, 780 nm, unoriented, Raman Data Processed
Mineral: Iowaite
Rruff sample: R060272
Ideal chemistry: Mg_6_Fe^3+^_2_(OH)_16_Cl_2_4H_2_O
Locality: Palabora open pit, Phalaborwa, Transvaal, Republic of South Africa
Source: Michael Scott
Description: Reddish-brown hexagonal tablet
Measured chemistry: Mg_6.00_Fe^3+^_2.00_(OH)_16_(Cl_1.65_(OH)_0.35_)_Σ=2_·4H_2_O; OH estimated by charge balance
Raman shift (cm-1)	intensity
91.5332	0
94.908	24.6026
98.2828	10.5469
101.658	3.40543
105.032	2.18597
108.407	0.194519
111.782	2.02823
115.157	0.815491
118.532	2.36397
121.907	3.23895
125.281	8.23987
128.656	11.925
132.031	12.7546
135.406	7.94966
138.781	11.9229
142.155	8.99944
145.53	8.68196
148.905	9.93071
152.28	14.0318
155.655	14.9659
159.03	12.175
162.404	15.975
165.779	15.3267
169.154	12.8633
172.529	12.3059
175.904	2.97211
179.278	8.24284
182.653	4.35971
186.028	6.76196
189.403	0.77887
192.778	8.32851
196.153	3.23399
199.527	4.21281
202.902	3.88989
206.277	1.13887
209.652	1.3093
213.027	2.08836
216.401	0.344696
219.776	0.135345
223.151	4.7244
226.526	1.08835
229.901	2.08579
233.275	1.7672
236.65	0.259705
240.025	2.58958
243.4	2.81831
246.775	8.01637
250.15	10.7478
253.524	16.5532
256.899	21.2048
260.274	41.2717
263.649	58.1325
267.024	74.3491
270.399	105.514
273.773	135.474
277.148	174.47
280.523	199.107
283.898	190.518
287.273	150.982
290.647	111.526
294.022	86.3497
297.397	67.8453
300.772	56.7552
304.147	56.7152
307.522	59.0645
310.896	55.8324
314.271	49.8246
317.646	42.8335
321.021	31.5615
324.396	18.8384
327.77	14.0836
331.145	8.58966
334.52	4.85054
337.895	2.52393
341.27	2.57816
344.644	1.19933
348.019	0.293503
351.394	4.18947
354.769	0.759415
358.144	2.08186
361.519	10.9806
364.893	13.4897
368.268	21.9977
371.643	26.8416
375.018	29.5172
378.393	26.9161
381.767	26.2078
385.142	18.5806
388.517	12.2708
391.892	9.427
395.267	2.22493
398.642	1.82347
402.016	0.37973
405.391	0.083344
408.766	4.32066
412.141	5.62308
415.516	6.8304
418.89	10.5061
422.265	10.4475
425.64	11.0159
429.015	11.2406
432.39	12.6371
435.765	9.60963
439.139	10.8018
442.514	6.93889
445.889	3.09486
449.264	3.0883
452.639	1.6055
456.014	1.08246
459.388	0.646957
462.763	4.13565
466.138	2.88666
469.513	0.710968
472.887	4.33842
476.262	8.58424
479.637	19.7591
483.012	31.1044
486.387	41.6045
489.762	57.9309
493.136	74.6582
496.511	95.2836
499.886	121.3
503.261	155.548
506.636	203.854
510.01	268.575
513.385	352.435
516.76	466.183
520.135	612.851
523.51	776.955
526.885	885.927
530.259	873.057
533.634	777.628
537.009	668.21
540.384	549.472
543.759	437.713
547.134	339.19
550.508	250.911
553.883	181.625
557.258	126.684
560.633	93.7723
564.008	62.3609
567.382	42.9608
570.757	34.9342
574.132	24.8677
577.507	19.5569
580.882	15.3142
584.256	10.7286
587.631	6.69455
591.006	5.95609
594.381	3.76719
597.756	6.38267
601.131	0.200874
604.505	0.635368
607.88	2.61571
611.255	1.39294
614.63	0.75399
618.005	1.68205
621.38	1.00201
624.754	1.67252
628.129	0.202522
631.504	2.50163
634.879	0.916496
638.254	4.75499
641.628	1.75227
645.003	3.72263
648.378	4.01105
651.753	3.33482
655.128	3.07894
658.503	7.19911
661.877	5.73528
665.252	3.35939
668.627	5.0204
672.002	4.50822
675.377	4.10992
678.751	1.75153
682.126	3.66203
685.501	2.5044
688.876	3.6881
692.251	2.19237
695.625	3.40906
699	0.307972
702.375	3.37621
705.75	0.891365
709.125	1.95003
712.5	3.56859
715.874	0.144581
719.249	1.58972
722.624	0.447178
725.999	1.91849
729.374	3.08259
732.749	2.29252
736.123	1.30199
739.498	4.17817
742.873	4.32633
746.248	2.35396
749.623	4.14495
752.997	3.79648
756.372	3.84269
759.747	6.1938
763.122	2.83009
766.497	4.21864
769.871	3.7179
773.246	3.63255
776.621	4.10454
779.996	2.86403
783.371	3.90003
786.745	0.913216
790.12	4.03662
793.495	2.66801
796.87	4.6609
800.245	1.53192
803.62	0.327778
806.994	4.03904
810.369	2.99615
813.744	2.86832
817.119	0.256336
820.494	0.394894
823.869	3.82365
827.243	4.26406
830.618	1.61985
833.993	1.1492
837.368	4.2962
840.743	2.72334
844.117	1.92816
847.492	0.042107
850.867	2.49988
854.242	2.4791
857.617	1.81704
860.991	4.22445
864.366	4.03186
867.741	6.10794
871.116	1.57637
874.491	0.050167
877.866	1.76558
881.24	4.64613
884.615	4.02235
887.99	2.37908
891.365	2.28584
894.74	3.2924
898.115	4.7096
901.489	3.45985
904.864	2.54263
908.239	1.90016
911.614	2.25129
914.989	2.2253
918.363	0.692551
921.738	2.35869
925.113	0.017723
928.488	5.6949
931.863	1.02438
935.237	2.26485
938.612	0.34417
941.987	4.60753
945.362	1.52368
948.737	3.13905
952.112	1.49175
955.486	3.48608
958.861	0.700146
962.236	0.710896
965.611	1.65095
968.986	3.5006
972.361	1.16011
975.735	0.917469
979.11	0.329399
982.485	2.11853
985.86	2.34722
989.235	1.90727
992.609	3.94077
995.984	2.08229
999.359	1.65488
1002.73	1.96154
1006.11	1.74168
1009.48	1.28895
1012.86	2.3815
1016.23	2.34198
1019.61	7.03539
1022.98	4.2881
1026.36	1.77581
1029.73	3.74192
1033.11	3.80027
1036.48	7.10402
1039.86	8.43793
1043.23	13.0483
1046.61	15.0105
1049.98	16.7446
1053.36	26.722
1056.73	28.4295
1060.11	19.2551
1063.48	9.50271
1066.86	5.75776
1070.23	3.85644
1073.61	4.41862
1076.98	2.93146
1080.36	4.85593
1083.73	2.04237
1087.1	0.989822
1090.48	4.27319
1093.85	0.704746
1097.23	2.17598
1100.6	2.66847
1103.98	0.172825
1107.35	1.10541
1110.73	1.17401
1114.1	4.31909
1117.48	1.12289
1120.85	4.15936
1124.23	4.73454
1127.6	1.73836
1130.98	1.94493
1134.35	2.49985
1137.73	2.33782
1141.1	7.08561
1144.48	0.67889
1147.85	2.85496
1151.23	3.28282
1154.6	3.18757
1157.97	3.6469
1161.35	1.58136
1164.72	2.46983
1168.1	1.28966
1171.47	3.55939
1174.85	1.94307
1178.22	2.80619
1181.6	2.77651
1184.97	0.903576
1188.35	2.50642
1191.72	2.67881
1195.1	3.06578
1198.47	3.64229
1201.85	2.42506
1205.22	2.76923
1208.6	0.180298
1211.97	1.49838
1215.35	3.94757
1218.72	2.00646
1222.1	1.45362
1225.47	1.7457
1228.85	3.36334
1232.22	0.979763
1235.6	0.761688
1238.97	0.620144
1242.35	1.43657
1245.72	2.93626
1249.1	1.99897
1252.47	3.03665
1255.85	0.052387
1259.22	0.898811
1262.6	3.29678
1265.97	0.870235
1269.34	1.31213
1272.72	3.59774
1276.09	2.8752
1279.47	3.71728
1282.84	1.63434
