Measurement: Raman, 780 nm, unoriented, Raman Data Processed
Mineral: Iowaite
Rruff sample: R120110
Ideal chemistry: Mg_6_Fe^3+^_2_(OH)_16_Cl_2_4H_2_O
Locality: Kaznakhtinskiy Range, Altai Mountains, Russia
Source: Marcus Origlieri
Description: Dark purple massive, associated with chrysotile
Raman shift (cm-1)	intensity
175.01	0
177.902	3.06729
180.795	0.053894
183.688	2.21555
186.581	1.18498
189.473	3.67322
192.366	4.21179
195.259	8.41499
198.151	4.20165
201.044	4.20973
203.937	7.2675
206.829	9.81516
209.722	8.61008
212.615	8.90825
215.507	7.61922
218.4	6.68544
221.293	4.39212
224.186	3.8129
227.078	0.760071
229.971	0.643997
232.864	2.10748
235.756	1.95552
238.649	0.464859
241.542	0.777206
244.435	0.623459
247.327	0.896606
250.22	0.539612
253.113	3.17955
256.005	4.68953
258.898	5.23601
261.791	9.03978
264.683	14.7833
267.576	21.727
270.469	31.5246
273.361	43.8753
276.254	63.0242
279.147	87.0115
282.04	111.906
284.932	125.424
287.825	126.3
290.718	113.552
293.61	100.857
296.503	94.902
299.396	90.6915
302.288	92.1976
305.181	94.9764
308.074	102.675
310.967	108.871
313.859	109.062
316.752	110.382
319.645	101.025
322.537	81.4126
325.43	57.2861
328.323	36.2818
331.216	23.4859
334.108	13.471
337.001	4.20622
339.894	3.99939
342.786	3.06812
345.679	3.54121
348.572	2.88267
351.464	5.76265
354.357	2.68808
357.25	4.18071
360.142	3.96571
363.035	6.48073
365.928	10.2968
368.821	13.8766
371.713	15.5467
374.606	16.8441
377.499	14.2919
380.391	7.29312
383.284	7.37529
386.177	3.81718
389.07	2.91032
391.962	0.850998
394.855	0.355331
397.748	4.15619
400.64	1.25455
403.533	1.17259
406.426	0.883072
409.318	6.11076
412.211	9.28209
415.104	19.301
417.997	24.2828
420.889	31.5953
423.782	38.3316
426.675	46.1327
429.567	47.0852
432.46	46.2063
435.353	50.4591
438.245	50.5846
441.138	52.2877
444.031	55.1363
446.923	68.0184
449.816	82.1716
452.709	108.369
455.602	130.714
458.494	144.749
461.387	127.853
464.28	89.1216
467.172	51.6095
470.065	24.5442
472.958	7.81424
475.851	1.62068
478.743	2.47148
481.636	3.22679
484.529	3.64006
487.421	5.06921
490.314	20.499
493.207	27.1253
496.099	40.8291
498.992	63.3817
501.885	86.4544
504.777	120.232
507.67	165.676
510.563	227.038
513.456	327.233
516.348	468.516
519.241	657.021
522.134	898.072
525.026	1149.49
527.919	1347.65
530.812	1463.98
533.705	1482.5
536.597	1413.89
539.49	1238.29
542.383	963.747
545.275	689.953
548.168	475.443
551.061	316.854
553.953	213.228
556.846	147.191
559.739	100.503
562.631	70.1835
565.524	48.5351
568.417	31.5744
571.31	19.9889
574.202	15.1481
577.095	9.37289
579.988	4.78955
582.88	2.75206
585.773	1.81444
588.666	0.291641
591.558	1.01225
594.451	0.196548
597.344	1.66051
600.237	0.644073
603.129	0.386909
606.022	0.022194
608.915	2.25499
611.807	0.557877
614.7	0.491173
617.593	2.85712
620.486	1.5506
623.378	0.098053
626.271	3.34084
629.164	1.66701
632.056	2.60395
634.949	3.1618
637.842	4.4575
640.734	2.84888
643.627	3.28411
646.52	3.54974
649.413	4.68783
652.305	6.0849
655.198	3.26753
658.091	3.83798
660.983	3.82667
663.876	1.6302
666.769	3.98048
669.661	2.81101
672.554	4.13218
675.447	6.70695
678.34	4.81024
681.232	3.89068
684.125	3.31684
687.018	4.89527
689.91	4.94215
692.803	3.83207
695.696	3.90301
698.588	0.254654
701.481	1.88744
704.374	0.747292
707.266	1.02001
710.159	1.65112
713.052	0.525543
715.945	2.1384
718.837	0.862991
721.73	0.739861
724.623	2.4081
727.515	2.46822
730.408	3.01048
733.301	3.90273
736.193	1.31951
739.086	1.82748
741.979	3.73161
744.872	2.17672
747.764	5.26823
750.657	7.02048
753.55	7.01916
756.442	6.34264
759.335	7.326
762.228	7.35921
765.12	7.75741
768.013	6.57767
770.906	5.29533
773.799	8.91232
776.691	7.02506
779.584	6.24839
782.477	6.25439
785.369	5.54494
788.262	5.84827
791.155	5.60854
794.048	3.45567
796.94	7.157
799.833	4.12317
802.726	5.78727
805.618	4.98777
808.511	4.06297
811.404	2.63887
814.296	4.01477
817.189	1.23045
820.082	0.660126
822.975	2.04329
825.867	2.17448
828.76	0.767921
831.653	2.17619
834.545	0.608299
837.438	4.53198
840.331	1.60039
843.223	0.542564
846.116	0.312653
849.009	2.69731
851.902	3.89336
854.794	2.56795
857.687	3.45792
860.58	3.44516
863.472	4.85423
866.365	3.51588
869.258	2.58417
872.15	3.45169
875.043	2.91827
877.936	4.66667
880.829	5.84401
883.721	2.59586
886.614	0.543785
889.507	0.893425
892.399	2.07613
895.292	2.41423
898.185	1.80501
901.077	0.60524
903.97	3.24438
906.863	2.0518
909.756	2.35826
912.648	7.82691
915.541	3.55656
918.434	4.65904
921.326	4.46338
924.219	2.72654
927.112	5.33613
930.005	3.40719
932.897	2.79266
935.79	1.74
938.683	0.369747
941.575	5.32077
944.468	3.04548
947.361	2.32373
950.253	1.89074
953.146	1.3985
956.039	0.444096
958.932	0.788967
961.824	0.066628
964.717	0.905766
967.61	0.204887
970.502	1.23959
973.395	2.63141
976.288	2.15319
979.18	2.07914
982.073	4.3099
984.966	3.12138
987.859	4.84509
990.751	9.25026
993.644	6.66358
996.537	8.19172
999.429	8.01345
1002.32	10.8417
1005.22	9.3706
1008.11	3.54594
1011	9.26221
1013.89	6.87021
1016.78	7.23239
1019.68	7.15792
1022.57	8.21544
1025.46	8.15459
1028.36	6.5574
1031.25	4.55792
1034.14	6.37833
1037.03	9.91081
1039.93	17.475
1042.82	28.3474
1045.71	31.1138
1048.61	29.9707
1051.5	43.2994
1054.39	60.6875
1057.28	74.9091
1060.18	63.4766
1063.07	43.6958
1065.96	23.9158
1068.85	11.4417
1071.75	7.981
1074.64	4.26374
1077.53	4.78838
1080.42	2.87611
1083.32	3.40452
1086.21	5.63197
1089.1	2.56294
1092	1.08568
1094.89	1.83174
1097.78	0.396629
1100.67	2.18468
1103.57	2.08362
1106.46	0.825108
1109.35	0.954563
1112.24	1.376
1115.14	1.53056
1118.03	0.057171
1120.92	0.16188
1123.82	2.75033
1126.71	1.77304
1129.6	2.5768
1132.49	4.66869
1135.39	0.356548
1138.28	1.79679
1141.17	3.22268
1144.06	0.967228
1146.96	3.28682
1149.85	2.50211
1152.74	0.233997
1155.63	4.97559
1158.53	7.26722
1161.42	2.75119
1164.31	7.62082
1167.21	1.77556
1170.1	1.1903
1172.99	1.64648
1175.88	4.78083
1178.78	4.45207
1181.67	2.14526
1184.56	0.638607
1187.45	1.03296
1190.35	2.86426
1193.24	1.71189
1196.13	5.04103
1199.03	2.28214
1201.92	3.33302
1204.81	3.3831
1207.7	0.618908
1210.6	0.136173
1213.49	4.55059
1216.38	0.906029
1219.27	2.02773
1222.17	2.05583
1225.06	2.1244
1227.95	2.17247
1230.85	2.9319
1233.74	3.0782
1236.63	1.66931
1239.52	4.3537
1242.42	1.84126
1245.31	2.48451
1248.2	3.62862
1251.09	3.34419
1253.99	2.0618
1256.88	3.07387
1259.77	2.33059
1262.66	5.90993
1265.56	1.15535
1268.45	1.39883
1271.34	2.37401
1274.24	1.47348
1277.13	2.60894
1280.02	0.186199
1282.91	1.78714
