Measurement: Raman, 780 nm, unoriented, Raman Data Processed
Mineral: Iquiqueite
Rruff sample: R060822
Ideal chemistry: K_3_Na_4_Mg(CrO_4_)B_24_O_39_(OH)12H_2_O
Locality: Salar de Miraje, Pampa de Tamanigal, Atacama, Chile
Source: Michael Scott
Description: Transparent pale yellow crystals imbedded in nitratine
Raman shift (cm-1)	intensity
157.609	0
160.502	1.28026
163.395	5.67342
166.287	12.2873
169.18	21.8561
172.073	32.113
174.966	45.9381
177.858	59.9171
180.751	74.6716
183.644	85.903
186.536	87.4508
189.429	78.1382
192.322	60.4792
195.214	44.8227
198.107	31.5685
201	21.3783
203.893	14.4557
206.785	8.62363
209.678	5.17287
212.571	2.38296
215.463	0.696556
218.356	0.81506
221.249	0.737446
224.142	0.912281
227.034	0.725319
229.927	0.082802
232.82	0.843689
235.712	2.27354
238.605	2.61864
241.498	6.04207
244.39	6.85249
247.283	8.11946
250.176	6.66329
253.069	5.14247
255.961	3.92393
258.854	3.29191
261.747	3.59634
264.639	3.21122
267.532	3.48325
270.425	3.83871
273.317	4.14752
276.21	5.59413
279.103	5.27721
281.995	4.31078
284.888	3.79732
287.781	5.47275
290.674	5.40626
293.566	6.08929
296.459	7.2739
299.352	9.30614
302.244	11.0694
305.137	11.726
308.03	11.5613
310.923	12.1798
313.815	12.7594
316.708	12.753
319.601	11.9147
322.493	9.05072
325.386	6.56249
328.279	4.97345
331.171	3.50081
334.064	1.74797
336.957	1.54274
339.849	1.50769
342.742	0.130356
345.635	0.288548
348.527	0.029076
351.42	0.591679
354.313	0.165051
357.206	0.145573
360.098	0.269997
362.991	0.723171
365.884	1.43353
368.776	1.8765
371.669	2.4448
374.562	1.97135
377.454	2.2532
380.347	2.3107
383.24	2.72379
386.133	3.24463
389.025	4.17322
391.918	5.7045
394.811	7.02364
397.703	9.83217
400.596	12.6172
403.489	15.5703
406.382	18.0261
409.274	20.4347
412.167	22.9286
415.06	23.4306
417.952	18.8581
420.845	12.0495
423.738	6.6798
426.63	4.42878
429.523	2.64552
432.416	1.66492
435.308	1.28143
438.201	0.268139
441.094	0.258205
443.987	0.478985
446.879	0.007885
449.772	0.929359
452.665	0.835785
455.557	1.17927
458.45	2.62868
461.343	3.82664
464.236	4.68086
467.128	3.91804
470.021	5.43035
472.914	6.28632
475.806	8.45742
478.699	10.3104
481.592	10.3891
484.484	7.45836
487.377	5.11871
490.27	2.6626
493.163	1.82674
496.055	1.64672
498.948	1.15917
501.841	1.06012
504.733	0.711912
507.626	0.393513
510.519	0.408455
513.411	0.195963
516.304	0.16865
519.197	0.298683
522.09	0.194208
524.982	0.457296
527.875	0.393368
530.768	1.27409
533.66	1.27489
536.553	1.30238
539.446	1.76518
542.338	1.2199
545.231	1.34418
548.124	1.42721
551.016	1.70708
553.909	1.70097
556.802	2.23513
559.695	1.93216
562.587	0.774014
565.48	1.01046
568.373	1.12418
571.265	0.282997
574.158	0.580843
577.051	0.31102
579.943	0.102026
582.836	0.244436
585.729	0.133429
588.621	0.356756
591.514	0.79339
594.407	0.562244
597.3	0.455387
600.192	1.4056
603.085	1.19733
605.978	1.45802
608.87	1.32103
611.763	2.06107
614.656	3.29312
617.548	4.0713
620.441	4.76685
623.334	5.18771
626.227	6.98068
629.119	8.17628
632.012	7.27037
634.905	7.12462
637.797	6.4492
640.69	5.31409
643.583	2.89806
646.476	1.62009
649.368	0.347836
652.261	0.294378
655.154	0.606224
658.046	0.251652
660.939	0.982704
663.832	0.695564
666.724	0.469774
669.617	0.042793
672.51	0.599638
675.403	0.755024
678.295	1.85087
681.188	1.03275
684.081	0.921322
686.973	0.959482
689.866	1.60707
692.759	1.71349
695.651	1.85675
698.544	3.44875
701.437	3.97311
704.33	4.82365
707.222	7.29779
710.115	9.26002
713.008	9.3081
715.9	10.4842
718.793	15.5479
721.686	26.4837
724.578	37.5758
727.471	9.46383
730.364	1.7375
733.256	0.913893
736.149	0.193689
739.042	0.488407
741.935	0.527636
744.827	0.014978
747.72	0.322155
750.613	0.116589
753.505	0.373283
756.398	0.034967
759.291	0.180655
762.183	1.45573
765.076	0.282423
767.969	0.579475
770.862	1.88364
773.754	0.176065
776.647	0.270039
779.54	0.562096
782.432	0.158392
785.325	0.37603
788.218	0.183947
791.111	0.441116
794.003	0.752657
796.896	1.07023
799.789	1.36894
802.681	1.44306
805.574	2.093
808.467	2.06525
811.359	1.71206
814.252	2.07606
817.145	2.89149
820.038	2.55607
822.93	2.35804
825.823	1.63772
828.716	1.79617
831.608	1.59792
834.501	2.21788
837.394	0.767967
840.286	1.85473
843.179	2.02524
846.072	1.63898
848.965	1.70533
851.857	1.66788
854.75	2.54284
857.643	1.17749
860.535	1.6207
863.428	1.9133
866.321	1.35489
869.213	1.61492
872.106	1.2664
874.999	1.68945
877.891	2.15949
880.784	2.58882
883.677	3.13671
886.569	4.61305
889.462	3.29021
892.355	1.66927
895.248	0.063143
898.14	0.153931
901.033	0.047468
903.926	0.136635
906.818	0.122486
909.711	0.17584
912.604	0.830486
915.496	1.30545
918.389	1.81112
921.282	3.05408
924.175	3.64173
927.067	4.45875
929.96	4.88394
932.853	5.45155
935.745	4.81969
938.638	4.91036
941.531	7.43492
944.423	3.49752
947.316	2.18039
950.209	3.14556
953.102	3.78859
955.994	4.2144
958.887	4.46551
961.78	3.98258
964.672	4.23883
967.565	2.67548
970.458	2.06994
973.351	0.857573
976.243	0.205288
979.136	0.210079
982.029	0.695963
984.921	0.18412
987.814	0.544497
990.707	0.507185
993.599	0.330736
996.492	0.027422
999.385	0.388527
1002.28	0.35914
1005.17	0.461786
1008.06	0.86952
1010.96	0.68614
1013.85	0.657623
1016.74	0.958048
1019.63	0.116081
1022.53	0.112053
1025.42	0.87162
1028.31	0.471088
1031.2	1.16957
1034.1	3.80991
1036.99	6.46371
1039.88	10.5142
1042.78	17.6768
1045.67	25.956
1048.56	34.3731
1051.45	34.3345
1054.35	34.9014
1057.24	48.0153
1060.13	61.3656
1063.02	107.752
1065.92	195.861
1068.81	262.033
1071.7	34.6921
1074.6	5.63599
1077.49	3.15682
1080.38	1.39014
1083.27	0.904308
1086.17	0.614939
1089.06	0.7096
1091.95	0.602116
1094.84	0.405577
1097.74	0.30097
1100.63	0.244665
1103.52	1.4205
1106.41	0.763161
1109.31	1.29347
1112.2	1.88901
1115.09	1.18962
1117.98	0.81222
1120.88	1.24053
1123.77	0.075869
1126.66	0.470957
1129.56	0.260221
1132.45	0.391207
1135.34	0.220062
1138.23	0.154121
1141.13	0.179289
1144.02	0.243263
1146.91	0.558002
1149.81	0.143574
1152.7	0.435707
1155.59	0.152037
1158.48	0.025381
1161.38	0.144917
1164.27	0.392776
1167.16	0.349977
1170.05	0.408813
1172.95	0.262604
1175.84	0.055641
1178.73	0.732952
1181.62	1.26051
1184.52	0.9147
1187.41	1.06163
1190.3	0.53088
1193.2	0.60582
1196.09	0.458258
1198.98	0.535131
1201.87	0.308111
1204.77	0.336542
1207.66	0.795784
1210.55	0.21085
1213.44	0.59432
1216.34	0.573305
1219.23	0.313126
1222.12	0.944279
1225.02	0.656162
1227.91	0.847235
1230.8	0.77981
1233.69	0.968872
1236.59	0.674528
1239.48	0.989294
1242.37	0.397108
1245.26	0.428198
1248.16	0.609404
1251.05	0.399464
1253.94	0.303587
1256.84	1.17105
1259.73	0.668982
1262.62	0.063311
1265.51	0.436676
1268.41	0.471432
1271.3	0.761517
1274.19	0.338684
1277.08	0.470688
