Measurement: Raman, 532 nm, unoriented, Raman Data Processed
Mineral: Iquiqueite
Rruff sample: R060822
Ideal chemistry: K_3_Na_4_Mg(CrO_4_)B_24_O_39_(OH)12H_2_O
Locality: Salar de Miraje, Pampa de Tamanigal, Atacama, Chile
Source: Michael Scott
Description: Transparent pale yellow crystals imbedded in nitratine
Raman shift (cm-1)	intensity
160.729	0
163.622	2.23346
166.514	17.5715
169.407	41.0687
172.3	71.2535
175.192	101.791
178.085	140.929
180.978	174.348
183.871	197.363
186.763	200.579
189.656	174.029
192.549	140.698
195.441	106.966
198.334	76.3206
201.227	54.8721
204.119	34.9882
207.012	21.1966
209.905	9.86104
212.798	5.41211
215.69	0.840332
218.583	0.281693
221.476	4.7488
224.368	2.70531
227.261	0.008301
230.154	0.662079
233.047	4.13239
235.939	9.24599
238.832	13.6329
241.725	18.2041
244.617	23.3591
247.51	29.1617
250.403	28.7832
253.295	23.8153
256.188	18.0839
259.081	13.2825
261.974	12.9527
264.866	13.3985
267.759	11.6396
270.652	15.7192
273.544	15.9159
276.437	15.8037
279.33	14.8886
282.222	14.0441
285.115	14.486
288.008	15.1168
290.901	13.351
293.793	17.8805
296.686	19.1274
299.579	25.406
302.471	28.3777
305.364	32.4113
308.257	37.5828
311.149	37.3066
314.042	39.3919
316.935	43.2365
319.827	42.1386
322.72	35.3689
325.613	24.8644
328.506	18.3911
331.398	12.0115
334.291	7.59421
337.184	4.11798
340.076	2.21671
342.969	1.70456
345.862	0.037476
348.755	1.95868
351.647	0.554596
354.54	1.25067
357.433	0.047546
360.325	0.424805
363.218	2.8307
366.111	3.91699
369.003	6.16319
371.896	9.07736
374.789	9.05464
377.682	6.20471
380.574	6.13609
383.467	6.74078
386.36	10.6385
389.252	12.6526
392.145	17.3185
395.038	22.3891
397.93	28.0511
400.823	40.1239
403.716	51.4098
406.608	58.8065
409.501	70.259
412.394	79.7127
415.287	84.8503
418.179	70.9949
421.072	47.1723
423.965	27.2212
426.857	16.3473
429.75	11.3141
432.643	6.38878
435.536	1.80487
438.428	4.29102
441.321	0.236099
444.214	0.8703
447.106	0.393768
449.999	2.01556
452.892	1.74326
455.784	3.99539
458.677	5.13356
461.57	9.48308
464.462	13.5303
467.355	11.187
470.248	14.0403
473.141	23.2678
476.033	27.3206
478.926	34.5777
481.819	38.154
484.711	33.2636
487.604	22.199
490.497	14.8869
493.389	12.499
496.282	6.71553
499.175	6.63324
502.068	4.5318
504.96	4.60843
507.853	3.01393
510.746	0.797455
513.638	1.67906
516.531	2.36523
519.424	0.180878
522.317	0.876312
525.209	2.65115
528.102	3.98906
530.995	1.76112
533.887	3.7766
536.78	3.87617
539.673	4.25679
542.565	5.28153
545.458	4.65556
548.351	5.68802
551.244	7.25957
554.136	9.80643
557.029	8.95888
559.922	6.8933
562.814	4.40439
565.707	4.7187
568.6	1.89699
571.492	3.53996
574.385	0.782272
577.278	1.69009
580.17	0.479431
583.063	0.919144
585.956	0.891296
588.848	0.056625
591.741	0.975449
594.634	0.192963
597.527	1.43552
600.419	3.68983
603.312	3.37074
606.205	4.12505
609.097	3.60001
611.99	7.26671
614.883	8.53479
617.775	13.2131
620.668	17.281
623.561	19.269
626.454	24.8055
629.346	28.7458
632.239	31.2884
635.132	31.4467
638.024	27.2629
640.917	21.4919
643.81	12.1951
646.702	7.4411
649.595	3.73933
652.488	3.53375
655.381	1.79013
658.273	6.69608
661.166	4.13808
664.059	3.28833
666.951	4.2524
669.844	3.84467
672.737	2.87857
675.63	4.94986
678.522	7.47603
681.415	6.72646
684.308	5.48344
687.2	4.13219
690.093	4.89868
692.986	6.01778
695.878	8.3685
698.771	11.0268
701.664	15.3996
704.557	21.4647
707.449	26.4208
710.342	31.674
713.235	38.4742
716.127	39.6069
719.02	53.7551
721.913	72.9478
724.805	85.3546
727.698	37.3502
730.591	6.53642
733.484	4.25906
736.376	0.838516
739.269	0.206345
742.162	0.763931
745.054	0.870407
747.947	0.824783
750.84	0.578735
753.732	0.419434
756.625	1.06023
759.518	0.31366
762.41	1.0343
765.303	0.638351
768.196	1.15257
771.089	1.52257
773.981	2.51024
776.874	0.465515
779.767	0.564743
782.659	1.84192
785.552	1.77788
788.445	1.9276
791.337	0.957397
794.23	3.74081
797.123	4.0789
800.016	3.8856
802.908	7.1958
805.801	6.16571
808.694	6.74219
811.586	9.07538
814.479	7.7028
817.372	8.8929
820.264	8.11137
823.157	9.34019
826.05	8.01788
828.943	6.38324
831.835	5.13933
834.728	7.0347
837.621	4.76561
840.513	4.43649
843.406	2.68993
846.299	1.37175
849.192	3.79971
852.084	3.78062
854.977	5.74469
857.87	3.19727
860.762	4.91853
863.655	3.82492
866.548	4.71223
869.44	6.94307
872.333	5.28867
875.226	5.35901
878.119	7.88861
881.011	10.7767
883.904	16.259
886.797	19.0396
889.689	17.3116
892.582	9.66417
895.475	4.22734
898.367	0.74707
901.26	0.938293
904.153	0.374435
907.045	1.05446
909.938	1.65511
912.831	4.15065
915.724	4.70586
918.616	10.0146
921.509	14.9028
924.402	18.6037
927.294	23.0973
930.187	23.6038
933.08	26.7969
935.972	24.4019
938.865	25.7938
941.758	30.434
944.651	19.8761
947.543	13.4848
950.436	15.4202
953.329	18.5458
956.221	21.546
959.114	22.2141
962.007	20.1506
964.899	19.8729
967.792	13.5516
970.685	11.2328
973.578	7.56116
976.47	3.95309
979.363	2.50229
982.256	1.13364
985.148	0.722504
988.041	0.199646
990.934	1.2251
993.826	0.972961
996.719	0.502167
999.612	0.855438
1002.5	1.75464
1005.4	0.924835
1008.29	1.88959
1011.18	2.13861
1014.08	1.93161
1016.97	1.35471
1019.86	0.438263
1022.75	0.140808
1025.65	1.95343
1028.54	3.96957
1031.43	9.19373
1034.32	12.6847
1037.22	30.0727
1040.11	54.9688
1043	92.3702
1045.89	143.16
1048.79	194.027
1051.68	197.816
1054.57	166.905
1057.47	190.688
1060.36	280.083
1063.25	438.164
1066.14	792.341
1069.04	1024.3
1071.93	292.317
1074.82	41.641
1077.71	14.1886
1080.61	6.32425
1083.5	4.40112
1086.39	0.974243
1089.29	1.58963
1092.18	1.04102
1095.07	1.99487
1097.96	0.414856
1100.86	3.04077
1103.75	3.31876
1106.64	5.88818
1109.53	6.64438
1112.43	11.6298
1115.32	11.4672
1118.21	8.11484
1121.11	7.44421
1124	5.39291
1126.89	1.87671
1129.78	1.21814
1132.68	0.631653
1135.57	1.26468
1138.46	1.0986
1141.35	0.658234
1144.25	1.09976
1147.14	0.741241
1150.03	2.54324
1152.92	0.248016
1155.82	1.25653
1158.71	0.401398
1161.6	0.298309
1164.5	1.61435
1167.39	0.345276
1170.28	0.096527
1173.17	1.30017
1176.07	3.20319
1178.96	3.51669
1181.85	5.33331
1184.74	7.10599
1187.64	5.36966
1190.53	3.97717
1193.42	3.71005
1196.32	0.809113
1199.21	0.256256
1202.1	1.25671
1204.99	2.08914
1207.89	2.11774
1210.78	3.86148
1213.67	2.84375
1216.56	3.4227
1219.46	4.51617
1222.35	7.32163
1225.24	4.83771
1228.13	5.37207
1231.03	4.82278
1233.92	5.07858
1236.81	3.22037
1239.71	1.03491
1242.6	5.67026
1245.49	4.11691
1248.38	2.79135
1251.28	2.10263
1254.17	1.64413
1257.06	0.826385
1259.95	2.81909
1262.85	2.49432
1265.74	0.020508
1268.63	0.821075
1271.53	2.3924
1274.42	2.11453
1277.31	0.579681
1280.2	1.3165
1283.1	2.21435
1285.99	1.90595
1288.88	1.03961
1291.77	0.183136
