Measurement: Raman, 532 nm, unoriented, Raman Data Processed
Mineral: Iranite
Rruff sample: R060781
Ideal chemistry: Pb_10_Cu(CrO_4_)_6_(SiO_4_)_2_(OH)_2_
Locality: Chapacase mine, Sierra Cerillos district, Tocopilla, Chile
Source: Michael Scott
Description: Corroded aggregate of orange platy crystals associated with red wulfenite; structure type sample.
Measured chemistry: Cu_1.00_Pb_10.00_((Cr_0.99_[box]_0.01_)_Σ=1_(O_3.82_(OH)_0.18_)_Σ=4_)_6_(Si_1.00_O_4_)_2_(OH)_2_
Raman shift (cm-1)	intensity
116.669	0
120.044	124.685
123.419	1260.25
126.794	2581.89
130.169	4043.09
133.543	5260.5
136.918	6282.03
140.293	6812.85
143.668	7143.02
147.043	6958
150.417	6285.33
153.792	6007.99
157.167	5214.27
160.542	4804.02
163.917	4451.54
167.292	3959.28
170.666	3415.4
174.041	2918.78
177.416	2369.07
180.791	1991.07
184.166	1591.43
187.541	1207.07
190.915	966.295
194.29	753.538
197.665	670.06
201.04	504.078
204.415	480.618
207.789	423.359
211.164	367.133
214.539	362.916
217.914	333.752
221.289	318.323
224.663	224.649
228.038	232.676
231.413	210.386
234.788	158.978
238.163	63.7222
241.537	27.9219
244.912	41.6919
248.287	127.304
251.662	114.874
255.037	162.249
258.412	217.981
261.786	217.928
265.161	196.957
268.536	105.253
271.911	133.231
275.286	90.9751
278.66	199.934
282.035	412.61
285.41	694.301
288.785	901.333
292.16	1188.58
295.534	1561.31
298.909	1897.12
302.284	2028.05
305.659	2186.44
309.034	2358.68
312.409	3095.21
315.783	4389.61
319.158	6486.48
322.533	9291.07
325.908	12764.5
329.283	16976.3
332.658	20532.4
336.032	22756.1
339.407	23589.9
342.782	24380.4
346.157	24152.6
349.532	22118.9
352.906	20833.7
356.281	19262.5
359.656	16282.2
363.031	14219.3
366.406	13214.2
369.78	13423.1
373.155	12328.3
376.53	10837.5
379.905	10645.7
383.28	10122.9
386.654	9176.25
390.029	8235.58
393.404	7300.5
396.779	6348.78
400.154	5397.44
403.529	4268.64
406.903	2660.86
410.278	1575.09
413.653	868.758
417.028	343.6
420.403	226.248
423.777	7.71973
427.152	65.9385
430.527	124.924
433.902	45.8638
437.277	190.446
440.652	91.7954
444.026	87.3027
447.401	47.8989
450.776	16.0513
454.151	11.001
457.526	74.7939
460.9	154.687
464.275	197.92
467.65	282.944
471.025	303.575
474.4	489.257
477.774	640.296
481.149	828.759
484.524	998.516
487.899	1126.89
491.274	1058.52
494.649	1026.39
498.023	808.269
501.398	551.636
504.773	333.06
508.148	203.622
511.523	118.001
514.898	96.2637
518.272	89.0347
521.647	116.844
525.022	177.244
528.397	176.65
531.771	114.362
535.146	128.11
538.521	35.1152
541.896	10.0396
545.271	11.811
548.646	53.583
552.02	10.8037
555.395	18.8748
558.77	46.7561
562.145	41.498
565.52	33.5449
568.894	98.3447
572.269	98.1934
575.644	4.00317
579.019	90.2307
582.394	177.457
585.769	237.065
589.143	264.211
592.518	339.382
595.893	419.486
599.268	405.278
602.643	492.66
606.018	548.237
609.392	663.91
612.767	724.874
616.142	856.132
619.517	845.18
622.891	955.028
626.266	1011.54
629.641	1149.37
633.016	1217.45
636.391	1360.02
639.766	1497.54
643.14	1604.45
646.515	1782.78
649.89	1896.02
653.265	2002.94
656.64	2107.62
660.014	2165.59
663.389	2244.19
666.764	2321.91
670.139	2346.25
673.514	2502.66
676.889	2622.84
680.263	2782.35
683.638	2963.01
687.013	3185.65
690.388	3279.92
693.763	3308.04
697.138	3174.38
700.512	2907.84
703.887	2717.26
707.262	2433.57
710.637	2122.48
714.011	1784.86
717.386	1403.39
720.761	1052.97
724.136	726.639
727.511	467.127
730.886	20.75
734.26	227.784
737.635	475.345
741.01	725.394
744.385	890.956
747.76	841.266
751.135	729.547
754.509	302.609
757.884	280.926
761.259	1488.1
764.634	3174.84
768.009	5466.29
771.383	8136.74
774.758	10818.8
778.133	13594.5
781.508	16500
784.883	19984.1
788.257	24246.3
791.632	30851.3
795.007	41151.3
798.382	54078.9
801.757	69040
805.131	83509.7
808.506	92480.6
811.881	91961.9
815.256	85520.4
818.631	77912.1
822.006	73578.6
825.38	73559.9
828.755	79856.5
832.13	91109.2
835.505	104142
838.88	115756
842.255	124202
845.629	126807
849.004	119921
852.379	108949
855.754	100765
859.129	90968.8
862.503	76788.3
865.878	59326.5
869.253	41180.7
872.628	25243.4
876.003	14149.5
879.377	7607.73
882.752	4124.3
886.127	1820.89
889.502	192.51
892.877	485.074
896.251	608.068
899.626	519.465
903.001	2321.42
906.376	4085.58
909.751	5833.35
913.126	6518.84
916.5	5750.31
919.875	4659.72
923.25	2962.93
926.625	1171.79
930	231.811
933.375	871.344
936.749	927.092
940.124	768.692
943.499	514.672
946.874	81.8496
950.249	366.598
953.623	701.908
956.998	1062.4
960.373	1607.2
963.748	1780.72
967.123	2163.76
970.497	2419.76
973.872	2760.58
977.247	3174.5
980.622	3479.43
983.997	3692.74
987.371	4016.02
990.746	3934.88
994.121	3749.93
997.496	3464.26
1000.87	3025.04
1004.25	2761.17
1007.62	2622.53
1011	2384.75
1014.37	2252.23
1017.75	2179.87
1021.12	2134.92
1024.49	2044.22
1027.87	1921.75
1031.24	1810.85
1034.62	1672.56
1037.99	1627.17
1041.37	1494.48
1044.74	1352.2
1048.12	1279.48
1051.49	1109.85
1054.87	925.947
1058.24	839.51
1061.62	774.956
1064.99	692.412
1068.37	571.955
1071.74	519.339
1075.12	452.696
1078.49	350.329
1081.87	310.796
1085.24	251.295
1088.62	181.109
1091.99	154.446
1095.37	139.424
1098.74	71.2188
1102.12	4.5874
1105.49	6.09521
1108.87	6.01318
1112.24	19.1968
1115.62	36.6899
1118.99	34.9736
1122.36	29.5322
1125.74	97.2139
1129.11	32.6719
1132.49	41.5273
1135.86	44.7734
1139.24	0.689453
1142.61	28.9526
1145.99	29.8496
1149.36	37.4243
1152.74	22.4268
1156.11	18.9009
1159.49	66.6719
1162.86	40.0054
1166.24	27.4854
1169.61	42.9731
1172.99	34.083
1176.36	98.6143
1179.74	67.2061
1183.11	126.294
1186.49	75.7212
1189.86	94.1782
1193.23	87.3096
1196.61	179.158
1199.98	167.878
1203.36	215.952
1206.73	230.348
1210.11	245.098
1213.48	254.812
1216.86	236.93
1220.23	262.87
1223.61	305.564
1226.98	288.075
1230.36	277.4
1233.73	250.288
1237.11	274.293
1240.48	179.561
1243.86	118.664
1247.23	155.913
1250.61	143.025
1253.98	130.958
1257.36	173.238
1260.73	103.275
1264.11	14.9692
1267.48	0.935059
1270.86	27.8486
1274.23	13.4487
1277.61	75.7349
1280.98	24.1255
1284.36	44.2852
1287.73	2.70312
1291.11	51.6738
1294.48	12.9536
1297.85	42.291
