Measurement: Raman, 780 nm, unoriented, Raman Data Processed
Mineral: Iranite
Rruff sample: R060781
Ideal chemistry: Pb_10_Cu(CrO_4_)_6_(SiO_4_)_2_(OH)_2_
Locality: Chapacase mine, Sierra Cerillos district, Tocopilla, Chile
Source: Michael Scott
Description: Corroded aggregate of orange platy crystals associated with red wulfenite; structure type sample.
Measured chemistry: Cu_1.00_Pb_10.00_((Cr_0.99_[box]_0.01_)_Σ=1_(O_3.82_(OH)_0.18_)_Σ=4_)_6_(Si_1.00_O_4_)_2_(OH)_2_
Raman shift (cm-1)	intensity
114.107	0
117	600.487
119.892	172.53
122.785	187.558
125.678	102.505
128.57	254.34
131.463	247.658
134.356	405.824
137.249	267.521
140.141	644.807
143.034	1053.32
145.927	1467.31
148.819	2075.09
151.712	2719.27
154.605	3116.32
157.497	3276.08
160.39	3162.73
163.283	2771.25
166.175	2323.07
169.068	1695.74
171.961	1255.87
174.854	1007.35
177.746	666.253
180.639	467.935
183.532	367.49
186.424	295.786
189.317	253.5
192.21	217.028
195.102	179.866
197.995	62.897
200.888	73.7725
203.781	177.83
206.673	319.715
209.566	507.054
212.459	691.931
215.351	812.554
218.244	948.659
221.137	1071.62
224.03	1223.17
226.922	1368.16
229.815	1467.67
232.708	1500.75
235.6	1334.62
238.493	1198.69
241.386	1040.72
244.279	734.49
247.171	524.623
250.064	289.277
252.957	168.505
255.849	0.04541
258.742	106.238
261.635	252.021
264.527	311.514
267.42	279.12
270.313	246.708
273.205	187.872
276.098	148.534
278.991	22.1909
281.884	111.728
284.776	357.812
287.669	653.2
290.562	1009.86
293.454	1354.86
296.347	1861.98
299.24	2332.66
302.132	2802.05
305.025	3218.16
307.918	3458.68
310.81	3877.91
313.703	4893.87
316.596	6749.47
319.489	10134.2
322.381	15114.4
325.274	21606.4
328.167	29682.8
331.059	39704.2
333.952	48850.2
336.845	52706.4
339.738	52720.2
342.63	54645.5
345.523	56835
348.416	54694.5
351.308	50945.1
354.201	47902.9
357.094	42022.3
359.986	32923.2
362.879	25098.2
365.772	20758.4
368.665	20046.5
371.557	19583.7
374.45	17263
377.343	15741
380.235	16308.2
383.128	16009.1
386.021	14422
388.913	14673.6
391.806	13890
394.699	12775.6
397.592	12666.2
400.484	12189.6
403.377	10014.1
406.27	7215.25
409.162	4502.18
412.055	2645.29
414.948	1398.56
417.841	771.159
420.733	293.237
423.626	77.2451
426.519	42.4758
429.411	54.1753
432.304	145.761
435.197	226.851
438.089	283.296
440.982	254.926
443.875	215.822
446.767	143.606
449.66	81.4398
452.553	3.52014
455.446	95.8646
458.338	186.447
461.231	288.509
464.124	386.766
467.016	444.646
469.909	605.672
472.802	687.345
475.695	834.185
478.587	1057.72
481.48	1216.68
484.373	1393.27
487.265	1518.99
490.158	1476.77
493.051	1391.89
495.943	1221.88
498.836	982.655
501.729	806.455
504.622	570.074
507.514	458.137
510.407	400.226
513.3	285.649
516.192	288.422
519.085	298.081
521.978	337.115
524.87	384.002
527.763	383.249
530.656	376.868
533.548	373.871
536.441	342.508
539.334	218.962
542.227	197.951
545.119	122.425
548.012	118.483
550.905	86.5671
553.797	40.7795
556.69	31.0643
559.583	19.5347
562.476	20.5033
565.368	19.598
568.261	18.4989
571.154	20.9037
574.046	16.493
576.939	13.8135
579.832	13.0378
582.724	13.4219
585.617	28.8044
588.51	30.9661
591.403	59.6134
594.295	86.5553
597.188	88.9279
600.081	111.881
602.973	136.448
605.866	174.779
608.759	187.192
611.651	170.815
614.544	188.845
617.437	248.622
620.33	292.407
623.222	250.99
626.115	334.719
629.008	360.427
631.9	385.825
634.793	417.972
637.686	446.643
640.578	494.522
643.471	571.507
646.364	578.174
649.256	695.883
652.149	770.515
655.042	799.023
657.935	849.132
660.827	899.258
663.72	934.752
666.613	937.808
669.505	1019.27
672.398	1026.39
675.291	1052.35
678.183	1088.97
681.076	1162.55
683.969	1227.84
686.862	1343.79
689.754	1422.6
692.647	1553.3
695.54	1655.14
698.432	1713.22
701.325	1755.05
704.218	1749.67
707.111	1674.87
710.003	1572.12
712.896	1438.74
715.789	1331.56
718.681	1174.37
721.574	1046.86
724.467	878.568
727.359	732.445
730.252	577.821
733.145	470.82
736.038	271.231
738.93	111.698
741.823	23.2854
744.716	178.959
747.608	264.502
750.501	407.557
753.394	499.612
756.286	507.514
759.179	472.802
762.072	308.859
764.965	144.01
767.857	195.906
770.75	644.395
773.643	967.628
776.535	1444.11
779.428	1771.23
782.321	2250.55
785.213	2979.72
788.106	3946.41
790.999	5418.67
793.891	7614.8
796.784	10928.3
799.677	15423.8
802.57	20824.7
805.462	26531.1
808.355	30246.3
811.248	31063.5
814.14	29129
817.033	26201
819.926	23520.8
822.818	21439.2
825.711	21137.6
828.604	22441.3
831.497	25470.7
834.389	30045.7
837.282	35480.4
840.175	41024.1
843.067	46103.1
845.96	49407.7
848.853	49353.4
851.745	48136.4
854.638	47890
857.531	48355.6
860.424	46664
863.316	42515.8
866.209	35986.5
869.102	27287.2
871.994	18814.9
874.887	12387
877.78	8071.22
880.673	5806.34
883.565	4722.33
886.458	4105.81
889.351	3566.91
892.243	2963.57
895.136	2437.57
898.029	2486.85
900.921	3300.01
903.814	4720.67
906.707	6535.38
909.6	8180.93
912.492	8628.49
915.385	7685.83
918.278	6340.71
921.17	4863.83
924.063	3199.06
926.956	1596.38
929.848	400.373
932.741	281.228
935.634	566.043
938.527	668.208
941.419	628.852
944.312	503.769
947.205	343.355
950.097	172.358
952.99	62.2327
955.883	262.318
958.775	425.733
961.668	643.752
964.561	717.77
967.454	852.085
970.346	956.191
973.239	1096.56
976.132	1233.78
979.024	1380.22
981.917	1520.27
984.81	1650.2
987.702	1768.47
990.595	1854.73
993.488	1822.27
996.381	1717.93
999.273	1567.36
1002.17	1429.6
1005.06	1270.3
1007.95	1157.21
1010.84	1037.04
1013.74	1037.34
1016.63	1005.39
1019.52	971.081
1022.41	941.891
1025.31	898.05
1028.2	856.112
1031.09	850.745
1033.99	829.908
1036.88	788.338
1039.77	756.831
1042.66	693.412
1045.56	667.001
1048.45	619.972
1051.34	548.06
1054.23	475.925
1057.13	412.58
1060.02	338.708
1062.91	312.929
1065.81	309.349
1068.7	257.295
1071.59	230.319
1074.48	194.466
1077.38	163.616
1080.27	143.106
1083.16	124.834
1086.05	124.538
1088.95	84.5017
1091.84	60.8985
1094.73	56.8755
1097.62	39.2805
1100.52	39.3667
1103.41	60.9732
1106.3	23.6033
1109.2	12.85
1112.09	15.3308
1114.98	4.06839
1117.87	1.00226
1120.77	25.4581
1123.66	16.6249
1126.55	1.46921
1129.44	9.24869
1132.34	0.364105
1135.23	0.459839
1138.12	12.5537
1141.02	7.866
1143.91	10.2847
1146.8	22.8403
1149.69	0.226837
1152.59	5.37967
1155.48	12.9588
1158.37	6.78891
1161.27	5.01718
1164.16	15.6625
1167.05	22.2039
1169.94	19.808
1172.84	28.9248
1175.73	43.9943
1178.62	40.3383
1181.51	33.1326
1184.41	32.04
1187.3	48.4767
1190.19	38.6292
1193.08	26.9367
1195.98	25.7986
1198.87	20.9729
1201.76	39.7696
1204.65	29.6547
1207.55	4.91412
1210.44	17.2545
1213.33	37.0303
1216.23	27.7579
1219.12	14.6602
1222.01	6.75415
1224.9	56.5075
1227.8	44.0723
1230.69	23.0938
1233.58	14.8812
1236.47	33.0382
1239.37	20.067
1242.26	56.4965
1245.15	35.9546
1248.05	10.5162
1250.94	47.0639
1253.83	19.3725
1256.72	12.244
1259.62	38.2228
1262.51	6.60831
1265.4	12.457
