Measurement: Raman, 780 nm, unoriented, Raman Data Processed
Mineral: Iriginite
Rruff sample: R060269
Ideal chemistry: (UO_2_)Mo^6+^_2_O_7_3H_2_O
Locality: Hervey's Range Deposit, 55 kilometers west of Townsville, Queensland, Australia
Source: Michael Scott
Description: Tan colored radial group of acicular prismatic crystals
Measured chemistry: (UO_2_)Mo^6+^_2_O_7_Â·3H_2_O
Raman shift (cm-1)	intensity
91.5332	0
94.908	41.8747
98.2828	22.3544
101.658	9.38306
105.032	25.6891
108.407	12.9523
111.782	1.93079
115.157	5.65949
118.532	5.35791
121.907	2.44678
125.281	17.7986
128.656	39.5959
132.031	33.3415
135.406	54.9102
138.781	75.2471
142.155	99.208
145.53	115.771
148.905	128.243
152.28	130.246
155.655	118.105
159.03	115.57
162.404	108.793
165.779	115.279
169.154	100.264
172.529	98.4341
175.904	93.3639
179.278	103.859
182.653	115.835
186.028	132.074
189.403	136.085
192.778	148.891
196.153	150.616
199.527	153.054
202.902	130.165
206.277	103.258
209.652	86.6561
213.027	71.0717
216.401	67.6868
219.776	69.832
223.151	64.5276
226.526	74.1483
229.901	92.5008
233.275	106.632
236.65	116.874
240.025	119.87
243.4	117.841
246.775	99.0676
250.15	76.2618
253.524	47.4243
256.899	26.49
260.274	15.8099
263.649	7.88074
267.024	0.563232
270.399	6.00369
273.773	12.4354
277.148	5.0274
280.523	2.42166
283.898	5.50192
287.273	14.2402
290.647	24.347
294.022	26.0944
297.397	31.6837
300.772	34.719
304.147	33.154
307.522	33.3411
310.896	23.5886
314.271	15.6601
317.646	15.0531
321.021	11.8097
324.396	9.02084
327.77	6.99652
331.145	7.30179
334.52	5.68826
337.895	7.4989
341.27	12.7609
344.644	19.0691
348.019	24.099
351.394	31.7559
354.769	33.8492
358.144	38.5864
361.519	40.1418
364.893	39.9617
368.268	33.0948
371.643	26.833
375.018	20.9492
378.393	13.297
381.767	10.3758
385.142	3.32834
388.517	6.0058
391.892	2.31967
395.267	3.64053
398.642	4.37344
402.016	4.1109
405.391	9.89227
408.766	9.62317
412.141	17.5209
415.516	18.7132
418.89	12.4011
422.265	14.3113
425.64	8.88889
429.015	7.68973
432.39	6.3764
435.765	12.2123
439.139	17.4147
442.514	30.8808
445.889	49.4103
449.264	71.5842
452.639	87.9344
456.014	106.434
459.388	121.453
462.763	146.88
466.138	135.131
469.513	94.7357
472.887	78.6512
476.262	75.5077
479.637	79.8585
483.012	79.4518
486.387	79.6881
489.762	63.5487
493.136	50.7964
496.511	34.8395
499.886	27.3465
503.261	20.5292
506.636	16.0098
510.01	8.20132
513.385	11.4681
516.76	5.65872
520.135	4.60562
523.51	3.46564
526.885	2.87427
530.259	3.19531
533.634	1.00638
537.009	2.5109
540.384	2.64362
543.759	2.05414
547.134	1.11075
550.508	2.92026
553.883	2.36606
557.258	1.22144
560.633	5.40109
564.008	1.39621
567.382	9.81876
570.757	1.35437
574.132	2.69595
577.507	3.81558
580.882	5.42926
584.256	3.233
587.631	6.35043
591.006	4.23471
594.381	1.25491
597.756	0.232208
601.131	2.38458
604.505	4.56339
607.88	4.49625
611.255	1.18436
614.63	2.83426
618.005	5.86539
621.38	9.28775
624.754	12.8662
628.129	17.1743
631.504	26.2797
634.879	27.8154
638.254	37.9169
641.628	51.8393
645.003	63.9269
648.378	86.4745
651.753	102.736
655.128	120.076
658.503	142.943
661.877	155.401
665.252	158
668.627	154.866
672.002	136.284
675.377	104.728
678.751	76.3093
682.126	62.7033
685.501	52.0372
688.876	44.5628
692.251	38.4751
695.625	29.7631
699	19.7411
702.375	9.12897
705.75	10.4359
709.125	8.35498
712.5	4.34607
715.874	4.23477
719.249	5.32028
722.624	6.29587
725.999	7.21722
729.374	2.36017
732.749	4.07794
736.123	4.75287
739.498	4.33118
742.873	5.81494
746.248	3.05545
749.623	1.19815
752.997	1.62631
756.372	4.09204
759.747	2.0206
763.122	3.00854
766.497	1.10568
769.871	0.884521
773.246	3.23874
776.621	0.286835
779.996	2.36191
783.371	3.15189
786.745	14.1531
790.12	21.0097
793.495	35.1882
796.87	62.4535
800.245	93.4419
803.62	145.387
806.994	212.447
810.369	274.971
813.744	339.853
817.119	390.637
820.494	402.267
823.869	381.71
827.243	339.023
830.618	265.115
833.993	180.352
837.368	120.507
840.743	80.4402
844.117	63.5425
847.492	53.0333
850.867	48.632
854.242	33.3044
857.617	27.3431
860.991	17.0815
864.366	14.8451
867.741	27.564
871.116	49.7455
874.491	77.9272
877.866	118.843
881.24	143.863
884.615	157.903
887.99	150.458
891.365	129.789
894.74	87.4139
898.115	48.3734
901.489	29.1544
904.864	9.31802
908.239	0.594208
911.614	0.163269
914.989	6.30356
918.363	4.65247
921.738	13.3758
925.113	31.7326
928.488	63.5054
931.863	111.681
935.237	174.023
938.612	229.693
941.987	294.269
945.362	326.739
948.737	325.629
952.112	282.414
955.486	225.633
958.861	175.805
962.236	130.516
965.611	90.4132
968.986	56.6948
972.361	32.4111
975.735	14.0529
979.11	7.98825
982.485	3.80737
985.86	2.72408
989.235	1.17381
992.609	0.844833
995.984	2.22714
999.359	0.886246
1002.73	5.56387
1006.11	6.85191
1009.48	1.00002
1012.86	4.83417
1016.23	4.40309
1019.61	4.73111
1022.98	5.94013
1026.36	11.6563
1029.73	4.45146
1033.11	10.9083
1036.48	12.1003
1039.86	12.4392
1043.23	12.1872
1046.61	7.87547
1049.98	10.724
1053.36	9.96248
1056.73	6.01559
1060.11	7.4722
1063.48	9.4122
1066.86	7.52756
1070.23	9.52829
1073.61	9.06869
1076.98	9.13364
1080.36	8.78821
1083.73	6.06097
1087.1	11.3633
1090.48	3.8205
1093.85	5.53097
1097.23	3.85506
1100.6	3.28844
1103.98	4.10188
1107.35	4.3998
1110.73	3.5116
1114.1	3.39142
1117.48	2.63979
1120.85	1.57599
1124.23	3.2363
1127.6	5.07005
1130.98	0.648544
1134.35	1.43825
1137.73	1.42438
1141.1	3.72469
1144.48	5.20059
1147.85	2.95729
1151.23	2.51785
1154.6	3.26065
1157.97	6.24687
1161.35	6.11157
1164.72	2.21526
1168.1	0.722473
1171.47	0.179306
1174.85	1.44931
1178.22	4.67168
1181.6	3.2318
1184.97	21.8248
1188.35	30.6477
1191.72	25.2768
1195.1	28.1517
1198.47	37.3789
1201.85	22.9146
1205.22	20.4672
1208.6	1.61494
1211.97	2.56366
1215.35	3.67882
1218.72	3.5717
1222.1	5.41277
1225.47	2.98338
1228.85	6.47755
1232.22	3.47789
1235.6	2.02086
1238.97	2.14693
1242.35	1.94525
1245.72	2.61647
1249.1	4.43262
1252.47	2.84688
1255.85	4.46886
1259.22	2.41618
1262.6	2.87984
1265.97	6.21155
1269.34	3.39322
1272.72	1.71881
1276.09	5.84071
1279.47	5.39073
1282.84	7.24303
