Measurement: Raman, 532 nm, unoriented, Raman Data Processed
Mineral: Iriginite
Rruff sample: R060269
Ideal chemistry: (UO_2_)Mo^6+^_2_O_7_3H_2_O
Locality: Hervey's Range Deposit, 55 kilometers west of Townsville, Queensland, Australia
Source: Michael Scott
Description: Tan colored radial group of acicular prismatic crystals
Measured chemistry: (UO_2_)Mo^6+^_2_O_7_Â·3H_2_O
Raman shift (cm-1)	intensity
160.881	0
163.774	77.6645
166.667	178.187
169.559	199.775
172.452	146.071
175.345	64.6737
178.237	0.816895
181.13	3.26135
184.023	2.51843
186.916	22.6636
189.808	45.0024
192.701	76.2721
195.594	120.186
198.486	167.448
201.379	174.792
204.272	121.504
207.164	71.1826
210.057	45.2767
212.95	20.0984
215.843	22.5264
218.735	35.9585
221.628	44.493
224.521	54.0996
227.413	86.9959
230.306	137.097
233.199	213.243
236.091	284.788
238.984	349.03
241.877	387.547
244.769	406.365
247.662	406.866
250.555	348.002
253.448	276.945
256.34	222.994
259.233	168.101
262.126	125.997
265.018	73.7241
267.911	34.7666
270.804	11.8823
273.697	3.95538
276.589	6.47369
279.482	0.110413
282.375	19.0834
285.267	41.0466
288.16	72.5757
291.053	110.014
293.945	135.78
296.838	169.078
299.731	188.515
302.623	197.023
305.516	188.302
308.409	170.21
311.302	125.786
314.194	91.6583
317.087	54.0118
319.98	26.9715
322.872	15.1523
325.765	7.50146
328.658	8.32593
331.55	11.0931
334.443	18.8423
337.336	28.2946
340.229	23.7447
343.121	13.5584
346.014	3.68927
348.907	5.74689
351.799	1.12634
354.692	1.79883
357.585	12.1265
360.478	23.5249
363.37	34.5338
366.263	42.9009
369.156	47.4615
372.048	47.7816
374.941	54.4825
377.834	58.1842
380.726	46.8324
383.619	26.6713
386.512	4.11902
389.404	3.54804
392.297	2.82715
395.19	1.74866
398.083	5.91742
400.975	14.7789
403.868	35.7253
406.761	49.223
409.653	58.5554
412.546	68.6115
415.439	75.7468
418.332	71.0436
421.224	64.6307
424.117	52.5808
427.01	39.7831
429.902	17.8874
432.795	8.10754
435.688	10.2976
438.58	21.8176
441.473	31.0301
444.366	53.0746
447.259	77.2986
450.151	113.301
453.044	135.522
455.937	155.271
458.829	177.49
461.722	189.654
464.615	183.374
467.507	159.28
470.4	143.899
473.293	157.427
476.185	179.003
479.078	226.572
481.971	268.586
484.864	315.716
487.756	331.378
490.649	291.751
493.542	225.596
496.434	147.238
499.327	97.9908
502.22	70.9591
505.113	49.094
508.005	43.5805
510.898	30.5128
513.791	25.7042
516.683	21.5514
519.576	17.088
522.469	15.4568
525.361	12.4139
528.254	7.52789
531.147	11.8087
534.04	7.28644
536.932	5.38257
539.825	0.861877
542.718	0.450012
545.61	0.764954
548.503	0.806702
551.396	0.496826
554.288	2.0191
557.181	6.76386
560.074	7.22498
562.967	1.98132
565.859	2.71796
568.752	4.7218
571.645	4.24805
574.537	6.46716
577.43	0.895813
580.323	2.1463
583.216	3.5636
586.108	3.19183
589.001	2.0921
591.894	4.22626
594.786	1.33862
597.679	3.151
600.572	0.625122
603.464	4.28375
606.357	0.616943
609.25	3.6029
612.142	6.32355
615.035	4.97192
617.928	12.7133
620.821	17.0576
623.713	21.9185
626.606	36.9609
629.499	43.9206
632.391	64.7487
635.284	77.7197
638.177	95.1369
641.069	129.74
643.962	163.3
646.855	212.33
649.747	267.881
652.64	329.275
655.533	393.467
658.426	470.805
661.318	542.432
664.211	597.794
667.104	645.342
669.996	664.195
672.889	622.029
675.782	558.782
678.674	485.155
681.567	440.742
684.46	432.505
687.353	426.619
690.245	414.925
693.138	369.575
696.031	306.917
698.923	246.003
701.816	184.978
704.709	135.821
707.601	104.594
710.494	78.8365
713.387	72.7268
716.28	54.6916
719.172	46.9128
722.065	43.845
724.958	37.7332
727.85	32.6213
730.743	36.8193
733.636	27.4238
736.529	26.1794
739.421	19.8411
742.314	21.988
745.207	20.6694
748.099	15.2731
750.992	14.1727
753.885	6.232
756.777	1.54944
759.67	1.49426
762.563	1.0769
765.456	7.86902
768.348	4.05633
771.241	11.9193
774.134	4.65155
777.026	6.83514
779.919	0.592712
782.812	2.17487
785.704	6.97998
788.597	18.5776
791.49	43.923
794.383	71.2695
797.275	107.563
800.168	169.21
803.061	267.135
805.953	390.332
808.846	562.478
811.739	772.236
814.631	997.621
817.524	1205.16
820.417	1316.29
823.309	1346.7
826.202	1325.05
829.095	1217.39
831.988	988.361
834.88	704.454
837.773	480.982
840.666	348.869
843.558	278.511
846.451	244.741
849.344	225.99
852.236	211.831
855.129	178.894
858.022	129.131
860.915	75.4331
863.807	33.6798
866.7	10.5718
869.593	6.89777
872.485	43.407
875.378	121.452
878.271	218.445
881.163	314.702
884.056	405.56
886.949	463.298
889.842	470.025
892.734	409.586
895.627	310.756
898.52	201.7
901.412	119.202
904.305	65.6422
907.198	33.9426
910.091	10.5002
912.983	6.85065
915.876	9.03449
918.769	2.60791
921.661	9.68439
924.554	41.2267
927.447	98.1965
930.339	171.715
933.232	300.59
936.125	483.781
939.018	709.038
941.91	964.276
944.803	1201.39
947.696	1360.79
950.588	1344.67
953.481	1171.34
956.374	973.008
959.266	813.363
962.159	672.261
965.052	525.43
967.944	370.21
970.837	237.804
973.73	143.426
976.623	85.5918
979.515	42.6165
982.408	15.5123
985.301	2.82721
988.193	1.62421
991.086	5.25958
993.979	3.09051
996.871	5.12793
999.764	3.20496
1002.66	3.55267
1005.55	3.75934
1008.44	10.2706
1011.34	13.4223
1014.23	13.7267
1017.12	14.7377
1020.01	15.4899
1022.91	22.0031
1025.8	18.7035
1028.69	19.9696
1031.58	22.8773
1034.48	25.2012
1037.37	30.4487
1040.26	24.7254
1043.15	30.4067
1046.05	29.0812
1048.94	22.6914
1051.83	24.1329
1054.73	22.8474
1057.62	16.2831
1060.51	15.9565
1063.4	15.2228
1066.3	11.711
1069.19	12.3967
1072.08	29.08
1074.97	16.2712
1077.87	10.8474
1080.76	11.1197
1083.65	11.6275
1086.55	7.90497
1089.44	9.81513
1092.33	9.61136
1095.22	10.0586
1098.12	9.44263
1101.01	7.52359
1103.9	7.22082
1106.79	8.29102
1109.69	5.55179
1112.58	3.42264
1115.47	10.5831
1118.37	7.53873
1121.26	2.69513
1124.15	6.09158
1127.04	6.20441
1129.94	2.09305
1132.83	0.919678
1135.72	6.43857
1138.61	3.78143
1141.51	1.0784
1144.4	0.7547
1147.29	5.2261
1150.18	2.88477
1153.08	2.56189
1155.97	2.04904
1158.86	1.44385
1161.76	5.51706
1164.65	4.51562
1167.54	4.80685
1170.43	0.450623
1173.33	0.411224
1176.22	0.328003
1179.11	1.09384
1182	5.73337
1184.9	0.428986
1187.79	2.18375
1190.68	1.12341
1193.58	1.98648
1196.47	0.263245
1199.36	0.95639
1202.25	1.62234
1205.15	0.796814
1208.04	3.2399
1210.93	3.11633
1213.82	5.20013
1216.72	1.40045
1219.61	0.074432
1222.5	2.38583
1225.39	2.69739
1228.29	1.50736
1231.18	3.68436
1234.07	4.86371
1236.97	7.68088
1239.86	0.870697
1242.75	2.24875
1245.64	4.30188
1248.54	1.1582
1251.43	10.2292
1254.32	2.9075
1257.21	1.93857
1260.11	2.17325
1263	1.41922
1265.89	6.75101
1268.79	3.98731
1271.68	8.38284
1274.57	5.15738
1277.46	2.056
1280.36	4.11661
1283.25	4.93426
1286.14	2.15457
1289.03	0.170776
1291.93	3.95139
1294.82	1.30081
1297.71	5.78659
1300.61	8.12799
