Measurement: Raman, 532 nm, unoriented, Raman Data Processed
Mineral: Jacobsite
Rruff sample: R070719
Ideal chemistry: Mn^2+^Fe^3+^_2_O_4_
Locality: Kombat mine, Kombat, Grootfontein District, Otjozondjupa Region, Namibia
Source: William W. Pinch
Description: Black, with reddish highlights, octahedra associated with kombatite, R070720, and colorless barysilite, R070651
Raman shift (cm-1)	intensity
155.322	0
158.214	41.0286
161.107	54.3606
164	52.4684
166.893	28.9198
169.785	36.8602
172.678	31.0253
175.571	12.9349
178.463	4.97571
181.356	55.3491
184.249	64.4072
187.142	115.369
190.034	105.729
192.927	93.0969
195.82	52.395
198.712	1.38238
201.605	54.6309
204.498	19.891
207.39	5.42932
210.283	22.1693
213.176	26.4736
216.069	17.4823
218.961	61.5915
221.854	51.8806
224.747	66.7823
227.639	20.0449
230.532	58.73
233.425	103.423
236.317	120.037
239.21	49.5817
242.103	109.521
244.995	125.95
247.888	45.3837
250.781	78.8151
253.674	120.294
256.566	132.299
259.459	132.12
262.352	77.2722
265.244	50.4796
268.137	92.8697
271.03	77.0369
273.923	95.6044
276.815	72.2272
279.708	22.6745
282.601	55.2386
285.493	51.5259
288.386	84.6641
291.279	99.8851
294.171	75.2659
297.064	127.41
299.957	135.13
302.849	200.396
305.742	173.863
308.635	201.396
311.528	264.966
314.42	267.294
317.313	262.19
320.206	272.209
323.098	224.702
325.991	229.002
328.884	245.438
331.776	272.077
334.669	286.023
337.562	317.224
340.455	365.003
343.347	276.662
346.24	240.845
349.133	183.697
352.025	142.512
354.918	115.381
357.811	113.267
360.704	89.5672
363.596	108.107
366.489	146.136
369.382	152.079
372.274	112.427
375.167	95.3311
378.06	33.044
380.952	18.1335
383.845	9.849
386.738	18.524
389.63	25.8144
392.523	3.47565
395.416	35.9315
398.308	19.6545
401.201	35.2746
404.094	22.9382
406.987	88.4299
409.879	129.735
412.772	125.799
415.665	171.411
418.557	135.187
421.45	158.201
424.343	167.344
427.236	145.825
430.128	150.434
433.021	131.059
435.914	163.959
438.806	184.349
441.699	161.763
444.592	218.375
447.484	241.274
450.377	235.357
453.27	259.461
456.163	270.585
459.055	234.494
461.948	251.179
464.841	238.698
467.733	233.357
470.626	218.171
473.519	217.558
476.411	207.509
479.304	201.061
482.197	178.184
485.089	228.867
487.982	161.909
490.875	155.703
493.768	118.585
496.66	138.119
499.553	94.3727
502.446	94.2731
505.338	77.1082
508.231	34.0282
511.124	37.9493
514.016	46.6262
516.909	45.7692
519.802	8.6546
522.695	10.0327
525.587	32.8
528.48	46.6895
531.373	9.52484
534.265	30.2587
537.158	46.8195
540.051	7.9303
542.943	27.4797
545.836	33.3818
548.729	109.988
551.622	179.781
554.514	217.115
557.407	314.932
560.3	342.993
563.192	337.128
566.085	264.021
568.978	176.756
571.87	135.577
574.763	115.774
577.656	74.141
580.549	98.9351
583.441	190.598
586.334	239.523
589.227	335.671
592.119	498.969
595.012	601.365
597.905	811.431
600.798	1041.6
603.69	1267.55
606.583	1496.08
609.476	1751.29
612.368	2040.3
615.261	2237.98
618.154	2464.31
621.046	2647.95
623.939	2709.64
626.832	2955.29
629.725	3135.37
632.617	3311.62
635.51	3510.1
638.403	3669.4
641.295	3769.05
644.188	3921.37
647.081	3963.41
649.973	3797.45
652.866	3542.07
655.759	3199.41
658.651	2817.81
661.544	2382.37
664.437	1947.5
667.33	1518.05
670.222	1189.39
673.115	994.715
676.008	780.774
678.9	655.913
681.793	546.576
684.686	410.614
687.578	322.608
690.471	266.228
693.364	217.042
696.256	149.713
699.149	163.1
702.042	108.804
704.935	98.504
707.827	43.0703
710.72	9.95703
713.613	4.61389
716.505	4.08276
719.398	46.3687
722.291	38.0289
725.183	48.9527
728.076	35.911
730.969	66.6415
733.862	10.9014
736.754	20.7435
739.647	1.45343
742.54	43.1815
745.432	59.5942
748.325	65.2258
751.218	83.0209
754.111	104.834
757.003	127.821
759.896	140.931
762.789	129.921
765.681	132.429
768.574	168.496
771.467	207.922
774.359	195.815
777.252	220.677
780.145	235.863
783.038	246.253
785.93	225.847
788.823	252.428
791.716	268.742
794.608	295.991
797.501	374.887
800.394	476.846
803.286	627.668
806.179	626.208
809.072	600.461
811.965	650.736
814.857	719.805
817.75	657.404
820.643	507.629
823.535	360.887
826.428	238.39
829.321	167.762
832.213	142.191
835.106	103.961
837.999	89.4273
840.891	40.432
843.784	61.0652
846.677	51.4144
849.57	25.6307
852.462	50.6648
855.355	6.4259
858.248	6.17468
861.14	17.2705
864.033	9.74164
866.926	0.734985
869.818	2.69531
872.711	14.1705
875.604	4.26135
878.497	27.6489
881.389	28.8018
884.282	20.6688
887.175	7.33295
890.067	28.4494
892.96	14.9593
895.853	29.2701
898.745	67.8795
901.638	33.2587
904.531	12.4861
907.424	52.7925
910.316	40.5198
913.209	16.0568
916.102	34.5704
918.994	65.6054
921.887	35.2316
924.78	49.6759
927.673	29.6888
930.565	50.6443
933.458	39.7173
936.351	21.8021
939.243	62.1161
942.136	50.9965
945.029	37.9888
947.921	19.7797
950.814	11.777
953.707	37.1005
956.6	11.836
959.492	18.3543
962.385	21.1075
965.278	33.6895
968.17	6.71747
971.063	31.5859
973.956	33.3224
976.848	49.098
979.741	5.83087
982.634	45.4323
985.526	48.3249
988.419	49.0211
991.312	10.5164
994.205	13.1621
997.097	9.56946
999.99	37.4479
1002.88	18.515
1005.77	8.36444
1008.67	9.03662
1011.56	13.6478
1014.45	3.7948
1017.35	18.1769
1020.24	2.3529
1023.13	8.99841
1026.02	11.4116
1028.92	23.1426
1031.81	13.7445
1034.7	37.9779
1037.6	47.6838
1040.49	13.0612
1043.38	23.0116
1046.27	24.9025
1049.17	5.3454
1052.06	16.9806
1054.95	12.1893
1057.84	28.0639
1060.74	0.301453
1063.63	15.2343
1066.52	19.487
1069.41	28.2925
1072.31	39.3951
1075.2	42.3735
1078.09	44.6179
1080.98	16.7315
1083.88	29.7433
1086.77	27.7671
1089.66	24.6422
1092.56	23.6176
1095.45	5.28003
1098.34	17.9477
1101.23	27.3123
1104.13	20.7173
1107.02	11.8579
1109.91	1.36328
1112.81	1.63013
1115.7	6.30176
1118.59	30.1489
1121.48	25.5037
1124.38	41.5898
1127.27	43.3998
1130.16	77.8447
1133.05	84.0498
1135.95	99.7971
1138.84	118.995
1141.73	97.8019
1144.62	124.947
1147.52	149.361
1150.41	145.795
1153.3	148.551
1156.2	133.133
1159.09	137.148
1161.98	137.896
1164.87	109.039
1167.77	116.581
1170.66	117.3
1173.55	108.142
1176.44	70.9933
1179.34	91.947
1182.23	118.018
1185.12	94.811
1188.02	70.7976
1190.91	81.9814
1193.8	51.9506
1196.69	76.4751
1199.59	85.5554
1202.48	50.9547
1205.37	73.5555
1208.26	47.83
1211.16	47.1429
1214.05	48.8771
1216.94	62.9778
1219.84	64.3346
1222.73	56.2539
1225.62	72.4019
1228.51	78.9969
1231.41	45.8998
1234.3	40.0758
1237.19	75.3081
1240.08	50.4908
1242.98	39.7953
1245.87	65.6891
1248.76	56.0095
1251.65	51.897
1254.55	66.2896
1257.44	52.3394
1260.33	20.5693
1263.23	0.786011
1266.12	16.0166
1269.01	4.67041
1271.9	25.655
1274.8	8.28796
1277.69	30.3081
1280.58	1.526
1283.47	0.713623
1286.37	19.2568
1289.26	1.21033
1292.15	2.84241
