Measurement: Raman, 532 nm, unoriented, Raman Data Processed
Mineral: Jacobsite
Rruff sample: R060780
Ideal chemistry: Mn^2+^Fe^3+^_2_O_4_
Locality: Jakobsberg, Sweden
Source: Michael Scott
Description: Black grains
Measured chemistry: (Mn^2+^_0.75_Mg_0.25_)_Σ=1_(Fe^3+^_1.92_Mn^3+^_0.08_)_Σ=2_O_4_
Raman shift (cm-1)	intensity
143.7	0
146.593	27.4322
149.486	13.0873
152.378	2.43451
155.271	34.2398
158.164	1.57593
161.057	29.9184
163.949	66.2738
166.842	42.8798
169.735	56.4835
172.627	64.7107
175.52	35.0179
178.413	33.4079
181.305	45.481
184.198	44.5882
187.091	57.8013
189.984	52.629
192.876	55.3933
195.769	63.088
198.662	41.2099
201.554	58.4238
204.447	41.3015
207.34	36.5261
210.232	80.3576
213.125	46.2163
216.018	38.2428
218.911	21.322
221.803	6.94028
224.696	6.66736
227.589	18.8558
230.481	13.2587
233.374	10.7574
236.267	6.48157
239.159	4.06686
242.052	8.08652
244.945	1.91684
247.837	4.79279
250.73	15.3558
253.623	15.3688
256.516	11.5655
259.408	27.1461
262.301	9.44983
265.194	16.2162
268.086	16.5062
270.979	2.2233
273.872	17.5751
276.764	18.864
279.657	32.6558
282.55	14.667
285.443	23.5778
288.335	32.6228
291.228	36.141
294.121	25.2703
297.013	23.3713
299.906	56.656
302.799	53.948
305.691	37.3424
308.584	33.6386
311.477	50.4498
314.37	76.7575
317.262	65.2931
320.155	98.1269
323.048	85.0774
325.94	108.345
328.833	135.483
331.726	174.124
334.618	173.881
337.511	194.616
340.404	180.116
343.297	198.898
346.189	167.389
349.082	152.178
351.975	154.858
354.867	120.847
357.76	106.372
360.653	86.506
363.545	88.2118
366.438	69.3783
369.331	40.4731
372.224	60.1171
375.116	34.236
378.009	21.5289
380.902	17.8425
383.794	3.87772
386.687	14.3594
389.58	34.5444
392.472	9.8067
395.365	9.29843
398.258	18.8786
401.151	20.3048
404.043	19.2801
406.936	6.90219
409.828	7.61057
412.721	4.96747
415.614	2.46783
418.507	17.1091
421.399	24.8511
424.292	18.2033
427.185	35.2407
430.077	39.6187
432.97	31.8313
435.863	47.0673
438.755	36.7445
441.648	61.8473
444.541	84.2189
447.434	84.2916
450.326	110.678
453.219	116.31
456.112	135.739
459.004	123.346
461.897	154.32
464.79	152.181
467.682	149.281
470.575	145.612
473.468	140.081
476.361	164.956
479.253	153.963
482.146	125.864
485.039	121.042
487.931	130.355
490.824	101.409
493.717	83.3597
496.609	66.2053
499.502	57.4976
502.395	40.3646
505.288	24.8872
508.18	12.3448
511.073	31.5907
513.966	13.8055
516.858	1.68958
519.751	10.2991
522.644	6.2132
525.536	25.2553
528.429	5.69678
531.322	33.9257
534.214	24.3339
537.107	16.35
540	34.7316
542.893	16.5379
545.785	13.1636
548.678	45.5267
551.571	39.3795
554.463	74.7587
557.356	114.366
560.249	133.959
563.141	144.314
566.034	198.199
568.927	192.068
571.82	171.898
574.712	199.71
577.605	221.349
580.498	284.574
583.39	352.376
586.283	464.531
589.176	523.831
592.068	637.262
594.961	835.443
597.854	972.601
600.747	1154.79
603.639	1378.35
606.532	1589.33
609.425	1745.03
612.317	1904.83
615.21	2120.32
618.103	2214.95
620.995	2248.94
623.888	2247.18
626.781	2155.23
629.674	2011.73
632.566	1862.01
635.459	1680.81
638.352	1540.03
641.244	1421.42
644.137	1276.47
647.03	1154.71
649.922	1041.82
652.815	916.255
655.708	820.234
658.601	712.338
661.493	608.3
664.386	510.392
667.279	439.503
670.171	378.106
673.064	310.987
675.957	275.458
678.849	213.719
681.742	164.529
684.635	136.853
687.528	104.323
690.42	74.7261
693.313	60.9946
696.206	68.8515
699.098	15.6876
701.991	17.0849
704.884	3.42438
707.776	1.5235
710.669	36.6072
713.562	23.7864
716.455	17.7268
719.347	25.4224
722.24	7.60358
725.133	3.60053
728.025	1.36231
730.918	4.88196
733.811	7.60199
736.703	13.5321
739.596	30.8995
742.489	23.3659
745.381	27.3129
748.274	52.8571
751.167	21.1432
754.06	36.5771
756.952	45.6
759.845	66.0149
762.738	47.5317
765.63	70.3145
768.523	70.8478
771.416	52.8636
774.308	74.4566
777.201	60.009
780.094	69.8659
782.987	73.6494
785.879	59.1701
788.772	56.2494
791.665	54.4365
794.557	67.7336
797.45	63.7915
800.343	44.7198
803.235	33.2415
806.128	60.0265
809.021	68.3144
811.914	34.346
814.806	42.4963
817.699	51.8015
820.592	42.587
823.484	51.2035
826.377	35.8449
829.27	19.8864
832.162	56.4982
835.055	42.6264
837.948	0.955109
840.841	30.9298
843.733	34.3072
846.626	38.2475
849.519	41.9551
852.411	19.1706
855.304	13.2959
858.197	24.5277
861.089	27.7413
863.982	15.4051
866.875	22.0122
869.767	25.0745
872.66	5.8089
875.553	20.5771
878.445	6.61883
881.338	6.67248
884.231	3.16229
887.124	8.06293
890.016	10.0588
892.909	30.3972
895.802	15.9273
898.694	6.58655
901.587	12.1748
904.48	10.8853
907.372	8.00986
910.265	25.4402
913.158	24.5678
916.051	0.451263
918.943	12.873
921.836	9.37994
924.729	6.4465
927.621	9.03653
930.514	17.2083
933.407	22.3497
936.299	12.6169
939.192	33.3097
942.085	10.2177
944.977	10.7258
947.87	15.475
950.763	6.06943
953.656	20.8661
956.548	17.6021
959.441	15.6094
962.334	25.4053
965.226	23.2021
968.119	11.7692
971.012	0.624573
973.904	25.6069
976.797	22.2352
979.69	19.6151
982.583	27.8533
985.475	6.3645
988.368	4.19345
991.261	17.8795
994.153	32.7363
997.046	4.82941
999.939	25.1832
1002.83	6.21774
1005.72	2.88916
1008.62	22.714
1011.51	47.0805
1014.4	18.6271
1017.29	3.15118
1020.19	18.1626
1023.08	30.2554
1025.97	36.58
1028.87	19.3328
1031.76	18.7967
1034.65	37.5698
1037.54	40.7669
1040.44	30.4187
1043.33	22.0994
1046.22	18.262
1049.12	45.1382
1052.01	24.8193
1054.9	31.3159
1057.79	15.5519
1060.68	10.8135
1063.58	22.5498
1066.47	13.0487
1069.36	1.63089
1072.26	12.5105
1075.15	9.59076
1078.04	1.78842
1080.93	30.2996
1083.83	16.7447
1086.72	5.32004
1089.61	22.4005
1092.51	25.5666
1095.4	20.0809
1098.29	39.7267
1101.18	0.427094
1104.08	31.9809
1106.97	27.8684
1109.86	29.3562
1112.75	10.7071
1115.65	3.86945
1118.54	16.2845
1121.43	4.24579
1124.33	4.49847
1127.22	21.036
1130.11	18.9376
1133	12.4944
1135.9	19.3359
1138.79	1.59351
1141.68	19.4099
1144.57	34.4205
1147.47	7.01825
1150.36	12.9222
1153.25	26.0734
1156.14	40.8444
1159.04	23.4127
1161.93	25.0249
1164.82	57.853
1167.71	17.4553
1170.61	47.577
1173.5	43.8914
1176.39	33.1841
1179.29	36.0977
1182.18	21.1285
1185.07	8.73877
1187.96	34.3495
1190.86	35.1322
1193.75	49.1368
1196.64	61.02
1199.54	48.278
1202.43	33.9772
1205.32	39.2817
1208.21	75.6753
1211.11	50.9887
1214	63.0089
1216.89	65.4586
1219.78	64.95
1222.68	37.6832
1225.57	31.377
1228.46	49.1498
1231.36	53.3251
1234.25	34.2305
1237.14	51.9366
1240.03	48.7971
1242.92	42.443
1245.82	56.4994
1248.71	67.2005
1251.6	40.2407
1254.5	40.0071
1257.39	36.3951
1260.28	45.8065
1263.17	46.2764
1266.07	6.9115
1268.96	25.3215
1271.85	21.5044
1274.74	36.1572
1277.64	17.5004
1280.53	8.33463
1283.42	23.8306
1286.32	15.8561
1289.21	27.278
