Measurement: Raman, 532 nm, unoriented, Raman Data Processed
Mineral: Jacobsite
Rruff sample: R120170
Ideal chemistry: Mn^2+^Fe^3+^_2_O_4_
Locality: N'Chwaning Mine III, Kalahari manganese fields, Northern Cape Province, South Africa
Source: Marshall Sussman
Description: Black octahedra
Raman shift (cm-1)	intensity
90.808	0
94.1828	1.90057
97.5576	0.326508
100.932	2.42369
104.307	1.22965
107.682	2.41579
111.057	2.65735
114.432	3.21282
117.806	1.92302
121.181	3.74926
124.556	3.60932
127.931	4.05666
131.306	3.22184
134.681	2.43035
138.055	2.78523
141.43	1.44892
144.805	0.247299
148.18	0.656815
151.555	0.538387
154.929	0.756435
158.304	0.879475
161.679	1.45324
165.054	2.21977
168.429	1.8354
171.804	2.00039
175.178	2.07008
178.553	2.7207
181.928	5.12089
185.303	6.95131
188.678	5.65959
192.053	7.53713
195.427	6.21012
198.802	6.42883
202.177	5.60908
205.552	5.49527
208.927	4.90345
212.301	5.01178
215.676	4.06912
219.051	3.99761
222.426	3.25057
225.801	2.65565
229.175	3.56837
232.55	2.6083
235.925	1.88575
239.3	2.9188
242.675	1.44636
246.05	1.86736
249.424	1.34092
252.799	1.48571
256.174	0.497299
259.549	0.798244
262.924	0.849085
266.298	0.374865
269.673	0.68959
273.048	0.65143
276.423	0.021336
279.798	0.924004
283.173	0.685692
286.547	0.466705
289.922	0.271732
293.297	0.077673
296.672	0.122391
300.047	0.170784
303.421	0.246012
306.796	0.555067
310.171	0.850959
313.546	1.07083
316.921	0.738775
320.296	0.462934
323.67	1.08967
327.045	1.47753
330.42	1.69656
333.795	2.4064
337.17	2.34053
340.544	2.60858
343.919	2.49323
347.294	1.97042
350.669	1.72687
354.044	0.881825
357.418	0.924079
360.793	0.685915
364.168	0.815295
367.543	0.650972
370.918	0.509447
374.293	0.388834
377.667	0.416808
381.042	0.086863
384.417	0.38935
387.792	0.362626
391.167	0.660634
394.541	0.643248
397.916	0.370003
401.291	0.377995
404.666	1.14068
408.041	0.460354
411.416	0.391471
414.79	0.64352
418.165	1.06936
421.54	0.729041
424.915	0.866444
428.29	1.43248
431.664	1.56875
435.039	2.11987
438.414	2.36406
441.789	2.81821
445.164	3.40892
448.539	3.72383
451.913	3.76439
455.288	3.68756
458.663	3.57427
462.038	3.85893
465.413	3.74821
468.788	4.04819
472.162	3.27524
475.537	3.32014
478.912	3.04636
482.287	3.12236
485.662	2.01282
489.036	2.28131
492.411	1.79591
495.786	0.561293
499.161	1.47664
502.536	0.64195
505.911	0.669868
509.285	0.62614
512.66	0.020483
516.035	0.011722
519.41	0.245917
522.784	0.475746
526.159	0.227119
529.534	0.000806
532.909	0.346524
536.284	0.679028
539.659	0.351661
543.033	0.017054
546.408	0.209768
549.783	1.3207
553.158	2.08655
556.533	3.83331
559.908	3.51049
563.282	3.56367
566.657	3.3687
570.032	3.6583
573.407	2.79902
576.782	2.74763
580.156	3.23752
583.531	3.91968
586.906	5.15287
590.281	6.81705
593.656	9.59651
597.03	11.9477
600.405	15.055
603.78	19.1452
607.155	22.5219
610.53	27.3211
613.905	31.6623
617.279	35.1554
620.654	40.4362
624.029	43.3371
627.404	46.233
630.779	47.1294
634.154	48.3268
637.528	46.597
640.903	44.6099
644.278	40.6807
647.653	35.8924
651.028	31.4439
654.402	26.3311
657.777	21.6284
661.152	17.0429
664.527	13.5408
667.902	10.8287
671.277	8.26051
674.651	5.8047
678.026	5.31936
681.401	3.69001
684.776	2.68958
688.151	1.58799
691.525	1.90369
694.9	1.10937
698.275	0.39595
701.65	0.128605
705.025	0.230247
708.399	0.887379
711.774	0.415336
715.149	0.083479
718.524	0.13783
721.899	0.422682
725.274	0.433351
728.648	0.959661
732.023	0.545178
735.398	0.369949
738.773	0.164662
742.148	0.343339
745.523	0.274373
748.897	0.514797
752.272	0.802327
755.647	0.780899
759.022	1.81775
762.396	2.20003
765.771	1.36055
769.146	1.73723
772.521	1.54876
775.896	2.50015
779.271	2.03136
782.645	1.85544
786.02	1.01228
789.395	1.77
792.77	1.46318
796.145	1.44229
799.519	2.26046
802.894	1.52256
806.269	1.4015
809.644	1.65178
813.019	1.87889
816.394	1.7662
819.768	1.58215
823.143	1.97754
826.518	2.25685
829.893	1.31907
833.268	1.78589
836.643	1.635
840.017	1.54339
843.392	1.73803
846.767	1.77214
850.142	1.926
853.517	1.75466
856.891	1.74711
860.266	1.50453
863.641	1.63289
867.016	1.19892
870.391	1.50647
873.765	1.46179
877.14	0.299945
880.515	0.723542
883.89	0.343902
887.265	1.01527
890.64	0.943706
894.014	0.876453
897.389	0.372656
900.764	0.081263
904.139	0.068916
907.514	0.114513
910.889	0.480591
914.263	0.028415
917.638	0.000603
921.013	0.063002
924.388	0.710613
927.763	0.011838
931.137	0.016298
934.512	0.176022
937.887	0.344272
941.262	0.250258
944.637	0.305601
948.011	0.02227
951.386	1.01195
954.761	0.835176
958.136	0.484863
961.511	0.438164
964.886	0.820938
968.26	0.26451
971.635	0.380329
975.01	0.3113
978.385	0.585998
981.76	0.596888
985.135	0.692403
988.509	0.572708
991.884	0.727425
995.259	0.727509
998.634	1.01723
1002.01	0.041389
1005.38	0.633791
1008.76	0.354218
1012.13	0.548048
1015.51	0.866226
1018.88	0.311789
1022.26	0.892124
1025.63	0.47564
1029.01	0.914804
1032.38	0.861731
1035.76	0.491268
1039.13	0.701881
1042.51	0.675109
1045.88	0.487906
1049.26	1.088
1052.63	0.463861
1056.01	0.312149
1059.38	0.287021
1062.76	0.122193
1066.13	0.324788
1069.51	0.76804
1072.88	0.171983
1076.26	0.292468
1079.63	0.173636
1083	0.31277
1086.38	0.372067
1089.75	0.248817
1093.13	0.082603
1096.5	0.403928
1099.88	0.525651
1103.25	0.15841
1106.63	0.748319
1110	0.320628
1113.38	0.22403
1116.75	0.779881
1120.13	0.210625
1123.5	0.09061
1126.88	0.237797
1130.25	0.51652
1133.63	0.074923
1137	0.605651
1140.38	0.796145
1143.75	0.621867
1147.13	1.10043
1150.5	0.723056
1153.88	1.09118
1157.25	0.938175
1160.62	1.0988
1164	0.721786
1167.38	0.88566
1170.75	0.697721
1174.12	1.22488
1177.5	0.514344
1180.87	0.389319
1184.25	0.66776
1187.62	0.62597
1191	0.908027
1194.37	0.607741
1197.75	1.3617
1201.12	0.776173
1204.5	0.304222
1207.87	0.491548
1211.25	1.03924
1214.62	0.82394
1218	0.5968
1221.37	0.541533
1224.75	0.60708
1228.12	1.12044
1231.5	0.452554
1234.87	0.478334
1238.25	0.843134
1241.62	0.76189
1244.99	1.0935
1248.37	0.16224
1251.74	0.138218
1255.12	0.566433
1258.49	0.317231
1261.87	0.360739
1265.24	0.700005
1268.62	0.578001
1271.99	0.570182
1275.37	0.773654
1278.74	0.205881
1282.12	0.711814
1285.49	0.541745
1288.87	0.459545
1292.24	0.994681
1295.62	0.389528
1298.99	0.094419
