Measurement: Raman, 780 nm, unoriented, Raman Data Processed
Mineral: Jacobsite
Rruff sample: R120170
Ideal chemistry: Mn^2+^Fe^3+^_2_O_4_
Locality: N'Chwaning Mine III, Kalahari manganese fields, Northern Cape Province, South Africa
Source: Marshall Sussman
Description: Black octahedra
Raman shift (cm-1)	intensity
153.875	0
156.767	0.004425
159.66	1.43627
162.553	0.879543
165.446	2.09529
168.338	0.417435
171.231	1.67021
174.124	1.457
177.016	1.19957
179.909	1.53686
182.802	2.42814
185.694	2.10432
188.587	1.80134
191.48	1.92296
194.373	1.27852
197.265	0.831017
200.158	0.260899
203.051	0.041771
205.943	0.03632
208.836	0.2966
211.729	0.458591
214.621	0.035717
217.514	0.381931
220.407	0.317135
223.299	0.058121
226.192	0.264755
229.085	2.53156
231.978	2.23398
234.87	2.33702
237.763	2.95198
240.656	2.93324
243.548	3.92009
246.441	3.25244
249.334	2.71506
252.226	2.91633
255.119	2.53714
258.012	2.31873
260.904	2.25375
263.797	3.05019
266.69	2.78897
269.583	3.67931
272.475	3.99071
275.368	3.8124
278.261	4.55166
281.153	4.53375
284.046	5.70902
286.939	5.97678
289.832	5.51041
292.724	6.28613
295.617	6.20036
298.51	6.72354
301.402	6.39622
304.295	6.82581
307.188	7.82014
310.08	7.26459
312.973	7.83116
315.866	8.63614
318.759	9.09557
321.651	8.42966
324.544	9.06852
327.437	9.49969
330.329	9.11096
333.222	8.43837
336.115	7.20066
339.007	6.75455
341.9	6.39264
344.793	5.41127
347.685	5.20075
350.578	3.5217
353.471	3.08806
356.364	3.27313
359.256	2.42699
362.149	2.21687
365.042	1.765
367.934	1.09591
370.827	1.19198
373.72	0.538006
376.613	0.23032
379.505	0.022532
382.398	0.97139
385.291	0.637081
388.183	0.105768
391.076	0.367237
393.969	0.718298
396.861	0.378834
399.754	0.085091
402.647	0.285425
405.539	0.781052
408.432	1.34904
411.325	1.88467
414.217	2.50488
417.11	3.98231
420.003	4.11469
422.896	4.34539
425.788	6.20174
428.681	8.08236
431.574	9.69243
434.466	11.0116
437.359	12.0797
440.252	12.9435
443.144	14.7831
446.037	13.1792
448.93	13.0412
451.823	12.8166
454.715	12.6003
457.608	10.9482
460.501	10.5915
463.393	10.0463
466.286	9.13043
469.179	7.98506
472.072	7.17091
474.964	6.1504
477.857	6.45202
480.75	5.71724
483.642	5.06142
486.535	4.10684
489.428	3.39682
492.32	3.22839
495.213	1.70358
498.106	1.9517
500.998	1.34356
503.891	1.04791
506.784	0.496384
509.677	0.364647
512.569	0.730049
515.462	0.393089
518.355	0.389061
521.247	0.44619
524.14	0.433357
527.033	0.449013
529.926	0.232658
532.818	0.214573
535.711	0.631073
538.604	0.49313
541.496	0.054909
544.389	0.388981
547.282	0.915733
550.174	0.172562
553.067	0.906281
555.96	0.652096
558.852	0.787483
561.745	0.688255
564.638	1.12153
567.53	0.154881
570.423	1.41541
573.316	0.043804
576.209	1.66564
579.101	3.07584
581.994	4.95029
584.887	6.69713
587.779	9.89429
590.672	11.3125
593.565	15.1387
596.457	16.8965
599.35	21.2587
602.243	24.3488
605.136	29.2636
608.028	33.4034
610.921	37.6193
613.814	42.1051
616.706	45.8356
619.599	49.5053
622.492	52.5725
625.385	55.896
628.277	57.1394
631.17	58.0591
634.063	56.9015
636.955	55.2713
639.848	51.0437
642.741	47.9457
645.633	42.6097
648.526	38.5895
651.419	33.05
654.312	27.9072
657.204	24.6231
660.097	21.4026
662.99	17.7089
665.882	15.0191
668.775	13.2285
671.668	12.15
674.56	10.6491
677.453	9.0068
680.346	8.25823
683.239	6.87629
686.131	6.6288
689.024	5.11272
691.917	4.33762
694.809	3.85893
697.702	2.98913
700.595	2.36452
703.487	1.08461
706.38	0.890285
709.273	0.06105
712.165	0.361219
715.058	0.497953
717.951	0.349661
720.843	0.597681
723.736	0.395134
726.629	0.284147
729.522	0.360846
732.414	0.241844
735.307	0.693914
738.2	0.622942
741.092	0.118761
743.985	0.749689
746.878	0.879263
749.77	1.2562
752.663	0.970694
755.556	1.41317
758.449	2.28231
761.341	1.77326
764.234	1.53932
767.127	2.37439
770.019	2.64583
772.912	2.39308
775.805	2.30559
778.697	3.26284
781.59	2.03605
784.483	2.02836
787.376	1.94576
790.268	1.9971
793.161	2.51188
796.054	2.12957
798.946	1.98239
801.839	2.17761
804.732	1.64118
807.625	1.99138
810.517	2.23853
813.41	1.71335
816.303	1.90245
819.195	1.24818
822.088	1.86618
824.981	1.56124
827.873	2.13598
830.766	2.01737
833.659	2.42361
836.552	2.73589
839.444	2.84089
842.337	2.1169
845.23	2.02346
848.122	2.0508
851.015	2.16678
853.908	1.94076
856.8	1.58925
859.693	1.74855
862.586	1.83431
865.479	1.50418
868.371	1.91539
871.264	1.80019
874.157	1.60508
877.049	1.67214
879.942	1.61985
882.835	0.742672
885.727	1.25491
888.62	0.676674
891.513	0.855057
894.405	0.127314
897.298	0.274382
900.191	0.300615
903.083	0.41523
905.976	0.355564
908.869	0.134487
911.762	0.54496
914.654	0.419008
917.547	0.59914
920.44	0.131256
923.332	0.507544
926.225	0.136116
929.118	0.329269
932.01	0.383949
934.903	0.236822
937.796	0.141157
940.689	0.400995
943.581	0.395599
946.474	0.908978
949.367	0.526665
952.259	0.814785
955.152	0.325888
958.045	0.383709
960.937	0.499931
963.83	0.209179
966.723	0.632116
969.615	0.604204
972.508	0.896933
975.401	0.671202
978.294	0.678474
981.186	0.439594
984.079	0.555453
986.972	0.680046
989.864	0.818513
992.757	0.075094
995.65	0.952691
998.543	0.419708
1001.43	1.03414
1004.33	0.897058
1007.22	0.500186
1010.11	0.580251
1013.01	1.25697
1015.9	0.276797
1018.79	0.541879
1021.68	0.822675
1024.58	0.318123
1027.47	0.544968
1030.36	0.388287
1033.26	1.58428
1036.15	1.09451
1039.04	0.907501
1041.93	1.08641
1044.83	0.883818
1047.72	0.824211
1050.61	0.418184
1053.5	0.868203
1056.4	0.206492
1059.29	0.429401
1062.18	0.863997
1065.08	0.516855
1067.97	0.236145
1070.86	0.462053
1073.75	0.790619
1076.64	0.188415
1079.54	0.719395
1082.43	0.545794
1085.32	0.832408
1088.22	0.991675
1091.11	0.332417
1094	0.293488
1096.89	0.952744
1099.79	0.350092
1102.68	0.182099
1105.57	0.340376
1108.46	0.016083
1111.36	0.278254
1114.25	0.302506
1117.14	0.444886
1120.04	0.040271
1122.93	0.147379
1125.82	0.079774
1128.71	0.931252
1131.61	0.340352
1134.5	0.476997
1137.39	0.574944
1140.29	0.882192
1143.18	0.565355
1146.07	0.030034
1148.96	0.125791
1151.86	0.409422
1154.75	0.490489
1157.64	0.434675
1160.53	1.29216
1163.43	0.464661
1166.32	0.243413
1169.21	0.772401
1172.1	1.18073
1175	0.703905
1177.89	1.0571
1180.78	0.355995
1183.67	0.771218
1186.57	0.017302
1189.46	0.339471
1192.35	0.401684
1195.25	0.946434
1198.14	0.615715
1201.03	0.812327
1203.92	0.186049
1206.82	0.656873
1209.71	0.496497
1212.6	0.38269
1215.49	0.391617
1218.39	0.568108
1221.28	0.235023
1224.17	0.916337
1227.07	1.55016
1229.96	0.923822
1232.85	0.499065
1235.74	0.785427
1238.64	0.544747
1241.53	0.439899
1244.42	0.381556
1247.32	0.440151
1250.21	0.537131
1253.1	1.12287
1255.99	1.05557
1258.88	0.898847
1261.78	0.440724
1264.67	0.951787
1267.56	0.676394
1270.46	0.940683
1273.35	1.47842
1276.24	1.14005
1279.13	1.49204
1282.03	0.45854
