Measurement: Raman, 785 nm, unoriented, Raman Data Processed
Mineral: Jacobsite
Rruff sample: R060780
Ideal chemistry: Mn^2+^Fe^3+^_2_O_4_
Locality: Jakobsberg, Sweden
Source: Michael Scott
Description: Black grains
Measured chemistry: (Mn^2+^_0.75_Mg_0.25_)_Σ=1_(Fe^3+^_1.92_Mn^3+^_0.08_)_Σ=2_O_4_
Raman shift (cm-1)	intensity
126.831	0
129.724	414.051
132.616	1042.12
135.509	1488.46
138.402	1480.21
141.294	876.558
144.187	866.077
147.08	1287.83
149.973	1612.86
152.865	1883.78
155.758	1567.47
158.651	1202.56
161.543	1174.77
164.436	920.581
167.329	993.006
170.221	943.675
173.114	811.334
176.007	732.096
178.9	598.406
181.792	495.054
184.685	451.422
187.578	435.485
190.47	422.329
193.363	303.259
196.256	268.56
199.148	165.266
202.041	139.956
204.934	35.193
207.827	2.051
210.719	14.854
213.612	55.098
216.505	32.128
219.397	66.634
222.29	33.579
225.183	71.029
228.076	28.668
230.968	3.789
233.861	34.235
236.754	39.495
239.646	26.099
242.539	2.615
245.432	1.485
248.324	26.667
251.217	68.281
254.11	82.524
257.003	130.684
259.895	149.737
262.788	158.414
265.681	210.612
268.573	264.287
271.466	334.672
274.359	412.225
277.251	464.423
280.144	593.531
283.037	695.402
285.93	833.09
288.822	894.762
291.715	962.73
294.608	1094.42
297.5	1138.45
300.393	1188.02
303.286	1245.13
306.178	1253.98
309.071	1299.12
311.964	1337.35
314.857	1359.35
317.749	1424.47
320.642	1468.52
323.535	1568.76
326.427	1728.86
329.32	1869
332.213	1999.77
335.105	2082.11
337.998	2112.31
340.891	1972.71
343.784	1904.52
346.676	1693.65
349.569	1505.73
352.462	1264.75
355.354	1079.73
358.247	919.722
361.14	754.31
364.032	635.105
366.925	492.458
369.818	354.584
372.711	258.88
375.603	143.264
378.496	81.147
381.389	22.408
384.281	45.286
387.174	94.534
390.067	134.884
392.959	101.945
395.852	115.291
398.745	90.634
401.638	93.944
404.53	95.322
407.423	83.363
410.316	47.246
413.208	36.677
416.101	85.295
418.994	152.898
421.886	291.041
424.779	419.93
427.672	578.076
430.565	751.292
433.457	915.982
436.35	1098.89
439.243	1242.15
442.135	1455.65
445.028	1578.39
447.921	1661.92
450.813	1766.81
453.706	1741.97
456.599	1802.69
459.491	1806.33
462.384	1760.86
465.277	1604.43
468.17	1480.44
471.062	1289
473.955	1132.49
476.848	1028.08
479.74	868.861
482.633	766.938
485.526	643.491
488.418	619.972
491.311	508.383
494.204	446.045
497.097	376.059
499.989	270.712
502.882	129.469
505.775	93.216
508.667	38.935
511.56	21.192
514.453	24.089
517.346	27.601
520.238	29.178
523.131	4.193
526.024	29.345
528.916	47.141
531.809	99.215
534.702	150.089
537.594	264.384
540.487	314.484
543.38	411.312
546.273	559.544
549.165	719.271
552.058	903.44
554.951	1199.29
557.843	1438.24
560.736	1702.96
563.629	1948.08
566.521	2119.28
569.414	2247.97
572.307	2446.61
575.2	2597.53
578.092	2858.69
580.985	3229.93
583.878	3736.81
586.77	4400.93
589.663	5244.18
592.556	6279.08
595.448	7449.17
598.341	8808.36
601.234	10456.4
604.127	12045.6
607.019	13652.7
609.912	15122.3
612.805	16497.8
615.697	17614.2
618.59	18272
621.483	18338.3
624.375	17895.2
627.268	16970.5
630.161	15597.7
633.054	14255.1
635.946	13080.9
638.839	11873.3
641.732	10779.3
644.624	9847.17
647.517	9016.62
650.41	8284.98
653.302	7531.11
656.195	6870.89
659.088	6334.3
661.981	5725.15
664.873	5185.83
667.766	4678.76
670.659	4280.42
673.551	3935.53
676.444	3519.88
679.337	3169.22
682.229	2872.65
685.122	2485.82
688.015	2215.06
690.907	1933.02
693.8	1652.82
696.693	1406.8
699.586	1212.79
702.478	984.472
705.371	803.212
708.264	655.541
711.156	539.219
714.049	370.038
716.942	328.955
719.834	244.715
722.727	153.48
725.62	126.714
728.513	55.565
731.405	31.695
734.298	14.522
737.191	50.218
740.083	37.01
742.976	41.493
745.869	120.005
748.761	72.003
751.654	64.125
754.547	112.67
757.44	84.897
760.332	104.731
763.225	106.362
766.118	72.573
769.01	110.996
771.903	78.481
774.796	73.066
777.688	71.736
780.581	55.8
783.474	59.349
786.367	50.195
789.259	19.469
792.152	46.529
795.045	62.075
797.937	45.018
800.83	66.781
803.723	74.21
806.615	32.782
809.508	19.006
812.401	37.753
815.294	7.549
818.186	26.069
821.079	26.745
823.972	31.949
826.864	1.333
829.757	26.762
832.65	36.104
835.542	9.622
838.435	28.645
841.328	7.716
844.221	4.846
847.113	35.102
850.006	2.818
852.899	24.915
855.791	13.614
858.684	6.262
861.577	33.652
864.469	14.486
867.362	4.159
870.255	44.211
873.148	7.958
876.04	18.713
878.933	14.835
881.826	16.46
884.718	2.489
887.611	7.96
890.504	9.509
893.396	29.656
896.289	9.126
899.182	21.04
902.075	40.314
904.967	11.895
907.86	5.406
910.753	25.988
913.645	29.358
916.538	1.299
919.431	8.358
922.323	14.038
925.216	23.175
928.109	15.323
931.002	19.141
933.894	21.505
936.787	15.874
939.68	13.792
942.572	5.339
945.465	7.611
948.358	17.117
951.25	14.12
954.143	17.979
957.036	27.92
959.929	34.027
962.821	28.666
965.714	31.867
968.607	35.748
971.499	49.131
974.392	27.606
977.285	37.299
980.177	33.491
983.07	5.106
985.963	1.518
988.856	10.105
991.748	7.359
994.641	34.732
997.534	16.362
1000.43	8.437
1003.32	28.939
1006.21	4.282
1009.1	0.132
1012	4.275
1014.89	20.242
1017.78	3.009
1020.67	0.263
1023.57	30.242
1026.46	67.459
1029.35	8.561
1032.25	11.381
1035.14	2.355
1038.03	12.258
1040.92	11.417
1043.82	4.34
1046.71	33.477
1049.6	2.621
1052.49	22.875
1055.39	2.388
1058.28	20.931
1061.17	28.513
1064.07	3.99
1066.96	15.118
1069.85	9.367
1072.74	31.619
1075.64	5.424
1078.53	35.834
1081.42	22.817
1084.32	59.192
1087.21	39.283
1090.1	41.18
1092.99	39.347
1095.88	44.552
1098.78	65.803
1101.67	43.812
1104.56	37.44
1107.46	90.006
1110.35	81.22
1113.24	75.878
1116.13	72.48
1119.03	94.326
1121.92	61.014
1124.81	87.005
1127.7	100.131
1130.6	67.791
1133.49	95.751
1136.38	115.636
1139.28	108.835
1142.17	112.556
1145.06	122.053
1147.95	149.048
1150.85	124.789
1153.74	158.988
1156.63	151.554
1159.53	150.311
1162.42	152.672
1165.31	128.402
1168.2	159.351
1171.1	177.483
1173.99	156.155
1176.88	139.918
1179.77	147.667
1182.67	154.417
1185.56	145.081
1188.45	153.269
1191.34	142.144
1194.24	170.224
1197.13	127.068
1200.02	92.646
1202.91	118.203
1205.81	100.856
1208.7	61.598
1211.59	99.163
1214.49	115.575
1217.38	61.696
1220.27	124.792
1223.16	104.88
1226.06	94.014
1228.95	98.82
1231.84	100.45
1234.73	69.285
1237.63	54.63
1240.52	18.2
1243.41	62.726
1246.31	26.577
1249.2	49.289
1252.09	4.121
1254.98	2.952
1257.88	7.995
1260.77	22.754
1263.66	23.541
1266.56	12.765
