Measurement: Raman, 780 nm, unoriented, Raman Data Processed
Mineral: Jacobsite
Rruff sample: R070719
Ideal chemistry: Mn^2+^Fe^3+^_2_O_4_
Locality: Kombat mine, Kombat, Grootfontein District, Otjozondjupa Region, Namibia
Source: William W. Pinch
Description: Black, with reddish highlights, octahedra associated with kombatite, R070720, and colorless barysilite, R070651
Raman shift (cm-1)	intensity
135.915	0
138.808	206.765
141.701	301.769
144.594	348.275
147.486	273.423
150.379	165.508
153.272	85.1096
156.164	84.2369
159.057	56.2214
161.95	53.3272
164.842	0.302002
167.735	5.03101
170.628	30.9795
173.52	42.1404
176.413	121.107
179.306	130.168
182.199	188.548
185.091	274.342
187.984	371.293
190.877	362.127
193.769	185.11
196.662	35.7485
199.555	23.9379
202.447	5.96314
205.34	14.0314
208.233	9.18127
211.126	22.2953
214.018	2.18579
216.911	8.55664
219.804	19.1029
222.696	0.616699
225.589	9.91565
228.482	15.8149
231.375	18.4188
234.267	48.4364
237.16	10.3444
240.053	16.3286
242.945	14.9938
245.838	27.8274
248.731	23.3572
251.623	43.0902
254.516	35.0002
257.409	93.958
260.301	33.6526
263.194	70.5043
266.087	94.9982
268.98	115.48
271.872	165.315
274.765	147.299
277.658	154.653
280.55	207.833
283.443	193.911
286.336	221.861
289.228	225.816
292.121	252.224
295.014	245.767
297.907	297.07
300.799	356.253
303.692	340.796
306.585	420.623
309.477	497.099
312.37	529.626
315.263	641.418
318.156	793.721
321.048	927.818
323.941	1156.2
326.834	1379.52
329.726	1615.95
332.619	1927.73
335.512	2169.25
338.404	2284.9
341.297	2289.75
344.19	1904.12
347.082	1553.4
349.975	1157.85
352.868	889.331
355.761	632.07
358.653	454.595
361.546	335.092
364.439	240.379
367.331	162.912
370.224	75.0269
373.117	53.2229
376.01	19.0498
378.902	21.7614
381.795	16.4092
384.688	9.93774
387.58	30.7877
390.473	20.7385
393.366	0.380249
396.258	8.74085
399.151	6.08557
402.044	38.4613
404.937	82.6313
407.829	100.971
410.722	172.796
413.615	254.286
416.507	364.195
419.4	404.573
422.293	540.837
425.185	672.625
428.078	835.7
430.971	1019.72
433.863	1240.32
436.756	1373.3
439.649	1564.84
442.542	1697.16
445.434	1670.07
448.327	1701.12
451.22	1613.39
454.112	1532.82
457.005	1407.1
459.898	1269.09
462.791	1178.46
465.683	1030.8
468.576	990.925
471.469	886.617
474.361	802.009
477.254	790.939
480.147	718.276
483.039	675.365
485.932	614.037
488.825	562.486
491.717	520.118
494.61	409.137
497.503	358.999
500.396	317.609
503.288	271.543
506.181	164.126
509.074	195.74
511.966	108.01
514.859	117.744
517.752	24.2571
520.644	27.4723
523.537	32.9838
526.43	41.2513
529.323	35.5702
532.215	50.4961
535.108	62.0686
538.001	81.4406
540.893	48.2627
543.786	36.0537
546.679	14.3567
549.572	102.816
552.464	208.088
555.357	266.846
558.25	305.7
561.142	307.877
564.035	299.359
566.928	213.436
569.82	182.095
572.713	180.904
575.606	164.264
578.499	251.505
581.391	404.661
584.284	582.813
587.177	826.646
590.069	1094.92
592.962	1472.84
595.855	1897.75
598.747	2352.32
601.64	2830.01
604.533	3284.18
607.426	3742.19
610.318	4320.48
613.211	4722.29
616.104	5228.6
618.996	5617.17
621.889	6068.32
624.782	6498.37
627.674	7013.02
630.567	7490.5
633.46	7935.4
636.352	8425.76
639.245	8809.35
642.138	9234.85
645.031	9365.69
647.923	9387.45
650.816	9064.76
653.709	8617.78
656.601	7796.64
659.494	7038.76
662.387	6040.81
665.279	5118.45
668.172	4326.59
671.065	3477.16
673.958	2871.26
676.85	2360.55
679.743	1937.21
682.636	1534.46
685.528	1218.05
688.421	1025.41
691.314	826.821
694.207	594.67
697.099	493.11
699.992	402.516
702.885	264.574
705.777	192.963
708.67	110.374
711.563	58.4714
714.455	12.1461
717.348	78.9172
720.241	76.7666
723.134	98.1552
726.026	87.2272
728.919	69.4576
731.812	56.975
734.704	19.6024
737.597	4.12451
740.49	23.0099
743.382	61.1874
746.275	80.4759
749.168	118.591
752.061	134.022
754.953	165.386
757.846	176.895
760.739	213.988
763.631	243.194
766.524	270.437
769.417	331.036
772.309	286.712
775.202	334.57
778.095	333.648
780.987	348.808
783.88	347.682
786.773	342.336
789.666	297.171
792.558	304.007
795.451	323.873
798.344	283.693
801.236	276.074
804.129	266.636
807.022	275.94
809.914	281.13
812.807	256.803
815.7	245.01
818.593	236.023
821.485	188.529
824.378	140.546
827.271	144.574
830.163	130.175
833.056	135.392
835.949	87.1075
838.841	45.837
841.734	64.7393
844.627	54.0566
847.519	68.3915
850.412	19.8212
853.305	49.4272
856.198	43.6266
859.09	37.2136
861.983	8.26904
864.876	24.1909
867.768	12.2881
870.661	35.6183
873.554	23.4227
876.447	5.48633
879.339	10.9326
882.232	22.7228
885.125	10.2246
888.017	7.56238
890.91	2.56183
893.803	9.50983
896.695	37.3127
899.588	11.9405
902.481	14.546
905.374	26.3669
908.266	0.606628
911.159	6.57361
914.052	8.39819
916.944	9.34106
919.837	30.8542
922.73	23.0121
925.622	12.3985
928.515	21.3865
931.408	9.14648
934.301	8.55017
937.193	34.0944
940.086	11.6113
942.979	35.3852
945.871	13.6617
948.764	20.1381
951.657	22.4264
954.549	2.8241
957.442	26.5649
960.335	30.7484
963.227	25.3812
966.12	13.8816
969.013	5.58533
971.906	9.75372
974.798	10.5669
977.691	7.5318
980.584	7.93903
983.476	18.5743
986.369	28.137
989.262	5.67108
992.154	1.26276
995.047	25.4206
997.94	9.10864
1000.83	2.21918
1003.73	8.44281
1006.62	26.4273
1009.51	15.1403
1012.4	15.6474
1015.3	2.87292
1018.19	3.41669
1021.08	21.0234
1023.97	8.32056
1026.87	32.5151
1029.76	2.24774
1032.65	40.6574
1035.55	47.5074
1038.44	54.0484
1041.33	44.8967
1044.22	33.4266
1047.12	7.4917
1050.01	47.0057
1052.9	37.5718
1055.79	30.5104
1058.69	22.6796
1061.58	26.5993
1064.47	27.2347
1067.37	25.927
1070.26	27.3552
1073.15	17.2871
1076.04	19.7064
1078.94	2.24243
1081.83	15.3119
1084.72	20.8651
1087.61	4.41089
1090.51	1.44128
1093.4	21.7418
1096.29	3.24945
1099.18	2.61231
1102.08	6.35992
1104.97	2.66351
1107.86	2.84821
1110.76	7.3335
1113.65	16.6331
1116.54	16.0898
1119.43	11.1321
1122.33	21.3368
1125.22	10.2217
1128.11	51.1948
1131	36.8493
1133.9	30.6598
1136.79	73.3244
1139.68	83.9848
1142.58	81.701
1145.47	74.9997
1148.36	90.7141
1151.25	82.3779
1154.15	76.6116
1157.04	98.5015
1159.93	99.6472
1162.82	75.9974
1165.72	75.1279
1168.61	90.2286
1171.5	72.4553
1174.39	51.8253
1177.29	56.1071
1180.18	66.458
1183.07	50.7848
1185.96	61.0286
1188.86	41.9552
1191.75	61.5685
1194.64	47.9898
1197.54	30.7668
1200.43	20.6144
1203.32	34.8513
1206.21	24.7719
1209.11	39.0752
1212	38.8536
1214.89	52.6136
1217.79	53.836
1220.68	36.2529
1223.57	26.8574
1226.46	48.6986
1229.36	30.2892
1232.25	20.7557
1235.14	48.7385
1238.03	40.6742
1240.93	29.4642
1243.82	42.2402
1246.71	37.7135
1249.61	29.0062
1252.5	11.0175
1255.39	31.6105
1258.28	15.7248
1261.18	22.3278
1264.07	24.5661
1266.96	19.3972
1269.85	10.6219
1272.75	11.2645
1275.64	8.22711
1278.53	8.28473
1281.42	28.581
1284.32	18.4409
