Measurement: Raman, 532 nm, unoriented, Raman Data Processed
Mineral: Jadeite
Rruff sample: R050220
Ideal chemistry: NaAlSi_2_O_6_
Locality: Clear Creek, San Benito County, California, USA
Source: Hatt Yoder
Description: Aggregate of colorless bladed crystals
Measured chemistry: Na_1.00_Al_1.00_(Si_0.99_Al_0.01_)_2_O_6_
Raman shift (cm-1)	intensity
133.762	0
136.655	6.40101
139.547	19.9041
142.44	50.6986
145.333	117.681
148.225	49.567
151.118	10.3165
154.011	3.59057
156.903	2.44431
159.796	0.081375
162.689	0.48716
165.582	1.07607
168.474	1.85342
171.367	0.190346
174.26	0.665527
177.152	0.980209
180.045	5.4093
182.938	13.9355
185.83	46.0563
188.723	71.649
191.616	96.6138
194.508	130.015
197.401	159.504
200.294	251.385
203.187	520.684
206.079	468.59
208.972	166.794
211.865	55.053
214.757	36.9541
217.65	35.6757
220.543	46.8319
223.435	82.6026
226.328	46.8126
229.221	6.30302
232.113	1.02689
235.006	0.251663
237.899	2.20557
240.792	8.82389
243.684	8.59165
246.577	13.2237
249.47	21.3702
252.362	36.9378
255.255	66.89
258.148	62.7356
261.041	11.5564
263.933	0.589439
266.826	0.330231
269.719	1.5036
272.611	2.17218
275.504	7.30607
278.397	14.9969
281.289	21.9037
284.182	33.3647
287.075	51.6645
289.967	75.1874
292.86	91.634
295.753	77.4023
298.646	51.6775
301.538	39.46
304.431	39.9574
307.324	47.705
310.216	66.5109
313.109	57.9607
316.002	30.7127
318.894	22.3476
321.787	23.6212
324.68	32.9333
327.573	46.5841
330.465	46.8459
333.358	19.0196
336.251	0.309814
339.143	2.59587
342.036	2.24435
344.929	0.488632
347.822	2.43117
350.714	11.8978
353.607	23.5577
356.5	51.8689
359.392	96.1889
362.285	144.957
365.178	203.219
368.07	288.412
370.963	437.002
373.856	605.954
376.748	575.397
379.641	336.645
382.534	204.469
385.427	155.972
388.319	117.592
391.212	67.8889
394.105	37.1167
396.997	21.7561
399.89	15.5306
402.783	17.1889
405.675	19.2377
408.568	24.6195
411.461	34.7511
414.354	51.1702
417.246	66.1918
420.139	77.3739
423.032	84.0176
425.924	94.9856
428.817	121.124
431.71	149.277
434.603	149.32
437.495	110.446
440.388	65.52
443.281	36.1668
446.173	21.1445
449.066	11.6535
451.959	5.42532
454.851	1.8356
457.744	0.648499
460.637	1.51654
463.529	2.16356
466.422	0.544418
469.315	0.351501
472.208	1.77542
475.1	0.576904
477.993	1.08266
480.886	0.66629
483.778	1.9706
486.671	1.13268
489.564	1.66808
492.457	2.56125
495.349	2.59239
498.242	5.07886
501.135	5.63217
504.027	7.94485
506.92	17.2576
509.813	26.0458
512.705	37.9298
515.598	51.5572
518.491	74.4206
521.384	103.49
524.276	130.322
527.169	105.543
530.062	46.8725
532.954	22.9089
535.847	9.99521
538.74	7.24655
541.632	3.09149
544.525	3.40878
547.418	1.83388
550.311	4.50117
553.203	7.87724
556.096	13.6899
558.989	22.9526
561.881	35.3211
564.774	50.1656
567.667	68.2634
570.559	101.605
573.452	140.162
576.345	150.463
579.237	92.8872
582.13	47.7479
585.023	28.8246
587.915	25.3109
590.808	21.7535
593.701	12.8339
596.594	6.36746
599.486	3.77678
602.379	3.98936
605.272	2.42606
608.164	2.4451
611.057	0.237411
613.95	2.23782
616.842	0.828278
619.735	1.76445
622.628	0.369247
625.521	1.37846
628.413	0.592407
631.306	0.092194
634.199	0.13353
637.091	1.2193
639.984	0.413589
642.877	0.179672
645.769	3.80441
648.662	2.81458
651.555	2.29326
654.448	3.54022
657.34	5.01538
660.233	7.98088
663.126	9.56807
666.018	13.298
668.911	17.3271
671.804	24.8659
674.697	34.9706
677.589	48.0404
680.482	69.3673
683.375	113.695
686.267	182.918
689.16	273.403
692.053	398.799
694.945	587.798
697.838	811.154
700.731	886.49
703.624	611.017
706.516	320.491
709.409	172.078
712.302	105.025
715.194	67.2831
718.087	46.5173
720.98	32.1494
723.872	23.1026
726.765	18.0595
729.658	12.9357
732.551	10.6605
735.443	7.90457
738.336	5.58781
741.229	4.25146
744.121	3.68518
747.014	3.39224
749.907	1.41977
752.799	0.780838
755.692	1.88094
758.585	2.4713
761.477	1.82419
764.37	2.71793
767.263	3.88651
770.156	6.8157
773.048	8.59491
775.941	13.4582
778.834	17.6806
781.726	15.0029
784.619	6.88197
787.512	2.82256
790.404	0.548615
793.297	0.049789
796.19	0.33519
799.083	0.941376
801.975	1.57899
804.868	0.82486
807.761	0.716949
810.653	0.805786
813.546	0.286041
816.439	0.739059
819.332	0.876221
822.224	1.47412
825.117	1.27586
828.01	0.93222
830.902	1.46417
833.795	1.80708
836.688	0.44783
839.58	1.40135
842.473	2.38159
845.366	2.6483
848.259	2.06129
851.151	2.83485
854.044	2.60635
856.937	3.78497
859.829	5.47406
862.722	4.47751
865.615	2.68217
868.507	5.38089
871.4	5.97647
874.293	8.64357
877.186	10.5519
880.078	11.683
882.971	14.5214
885.864	18.6264
888.756	17.761
891.649	14.5742
894.542	7.22557
897.434	7.13095
900.327	4.08543
903.22	2.43695
906.112	3.85828
909.005	1.28856
911.898	2.04392
914.791	1.43085
917.683	1.23781
920.576	0.864136
923.469	1.66014
926.361	1.38167
929.254	1.77069
932.147	0.684036
935.039	0.664093
937.932	0.495743
940.825	2.08139
943.718	0.935547
946.61	1.91635
949.503	2.39145
952.396	3.14899
955.288	4.39152
958.181	6.73744
961.074	8.17085
963.966	10.9256
966.859	15.8137
969.752	24.2755
972.645	37.6761
975.537	60.2844
978.43	89.7417
981.323	134.383
984.215	189.807
987.108	226.359
990.001	217.443
992.893	196.043
995.786	137.179
998.679	76.1737
1001.57	42.4638
1004.46	25.3574
1007.36	15.9034
1010.25	11.4546
1013.14	9.85356
1016.03	10.2517
1018.93	13.7362
1021.82	20.2917
1024.71	32.4215
1027.61	54.3854
1030.5	84.003
1033.39	124.442
1036.28	179.94
1039.18	239.807
1042.07	217.981
1044.96	129.981
1047.86	66.6528
1050.75	36.4405
1053.64	20.9124
1056.53	12.0037
1059.43	8.54327
1062.32	7.37001
1065.21	6.36613
1068.1	6.58209
1071	3.40739
1073.89	6.36656
1076.78	10.8541
1079.67	12.5909
1082.57	14.4863
1085.46	6.44961
1088.35	1.54042
1091.24	0.197891
1094.14	1.44551
1097.03	0.339859
1099.92	1.0723
1102.82	0.970123
1105.71	0.767151
1108.6	0.620483
1111.49	0.346039
1114.39	0.268219
1117.28	0.906754
1120.17	1.30568
1123.07	0.060074
1125.96	0.787933
1128.85	0.147034
1131.74	1.9462
1134.64	3.40988
1137.53	1.91359
1140.42	4.12537
1143.31	2.20311
1146.21	2.69923
1149.1	4.20279
1151.99	4.50533
1154.88	3.21301
1157.78	2.82297
1160.67	2.99483
1163.56	4.36742
1166.45	3.7917
1169.35	2.89964
1172.24	2.08502
1175.13	3.42943
1178.03	2.18402
1180.92	3.21756
1183.81	3.44141
1186.7	2.23802
1189.6	1.386
1192.49	0.111099
1195.38	2.31101
1198.28	1.64581
1201.17	1.6087
1204.06	1.0976
1206.95	0.641983
1209.85	1.56915
1212.74	1.76793
1215.63	1.29987
1218.52	2.48004
1221.42	1.00372
1224.31	1.02812
1227.2	1.38507
1230.1	2.32994
1232.99	0.939346
1235.88	1.25212
1238.77	0.103958
1241.67	0.812302
1244.56	0.699692
1247.45	2.69218
1250.34	0.832596
1253.24	1.94813
1256.13	0.88942
1259.02	1.6935
1261.91	0.337097
1264.81	2.27205
1267.7	1.17015
1270.59	0.39624
1273.48	2.51511
1276.38	1.46846
