Measurement: Raman, 532 nm, unoriented, Raman Data Processed
Mineral: Jadeite
Rruff sample: R070117
Ideal chemistry: NaAlSi_2_O_6_
Locality: Tawmaw (Tawhmaw; Taw Maw), Myitkyina-Mogaung District, Kachin State, Myanmar (Burma)
Source: Michael Scott
Description: Green massive
Measured chemistry: Na_1.00_(Al_0.86_Cr_0.09_Fe^3+^_0.05_)_Î£=1_Si_2.00_O_6_
Raman shift (cm-1)	intensity
169.466	0
172.359	110.371
175.252	28.9844
178.144	187.754
181.037	13.5117
183.93	319.16
186.822	684.969
189.715	1377.21
192.608	1621.09
195.501	2230.21
198.393	3344.83
201.286	5012.97
204.179	6415.48
207.071	2425.46
209.964	1329.25
212.857	1001.93
215.75	1036.53
218.642	1207.12
221.535	1153.08
224.428	814.859
227.32	523.496
230.213	496.262
233.106	520.496
235.999	380.688
238.891	319.812
241.784	334.754
244.677	188.41
247.569	236.621
250.462	308.648
253.355	287.305
256.247	201.606
259.14	175.894
262.033	184.578
264.925	26.9609
267.818	17.8945
270.711	0.632813
273.604	81.4531
276.496	60.4844
279.389	405.406
282.282	341.019
285.174	650.508
288.067	658.867
290.96	418.242
293.853	394.441
296.745	470.703
299.638	289.613
302.531	369.883
305.423	427.703
308.316	690.156
311.209	806.445
314.101	514.223
316.994	344.066
319.887	355.07
322.779	529.805
325.672	403.406
328.565	268.035
331.458	240.746
334.35	74.0547
337.243	94.2422
340.136	8.94531
343.028	19.9102
345.921	28.8633
348.814	166.684
351.707	482.148
354.599	921.785
357.492	1540.88
360.385	2384.89
363.277	3441.72
366.17	4595.94
369.063	5311.99
371.955	4960.32
374.848	3506.23
377.741	2053.61
380.634	1469
383.526	1968.19
386.419	1386.49
389.312	994.16
392.204	558.82
395.097	350.363
397.99	173.523
400.882	139.106
403.775	249.445
406.668	296.148
409.56	278.68
412.453	566.078
415.346	777.898
418.239	1270.35
421.131	1578.67
424.024	2019.89
426.917	2284.54
429.81	2380.03
432.702	1733.31
435.595	1170.51
438.488	643.106
441.38	247.184
444.273	70.4375
447.166	321.754
450.058	97.8164
452.951	90.793
455.844	132.984
458.736	37.9766
461.629	38.9023
464.522	56.6914
467.415	39.6641
470.307	46.0352
473.2	2.83984
476.093	118.797
478.985	58.8086
481.878	55.4453
484.771	4.85156
487.663	36.7539
490.556	85.2695
493.449	138.203
496.342	195.695
499.234	234.285
502.127	410.152
505.02	519.832
507.912	474.481
510.805	921.723
513.698	1390.83
516.591	1752.5
519.483	2111.42
522.376	2453.58
525.269	2098.61
528.161	1209.63
531.054	698.066
533.947	324.945
536.839	317.625
539.732	120.934
542.625	37.8281
545.518	115.004
548.41	154.863
551.303	158.668
554.196	634.008
557.088	564.34
559.981	627.965
562.874	966.516
565.766	1252.94
568.659	1429.01
571.552	1359.46
574.444	954.586
577.337	633.641
580.23	533.348
583.123	410.363
586.015	477.738
588.908	355.938
591.801	46.3867
594.693	280.809
597.586	165.359
600.479	264.488
603.372	256.938
606.264	92.75
609.157	252.992
612.05	46.125
614.942	204.809
617.835	96.332
620.728	162.234
623.62	185.449
626.513	29.2539
629.406	66.5117
632.299	18.8945
635.191	145.348
638.084	272.5
640.977	99.168
643.869	122.734
646.762	66.9297
649.655	374.773
652.548	197.492
655.44	280.352
658.333	160.656
661.226	441.418
664.118	293.969
667.011	291.848
669.904	1004.92
672.796	432.617
675.689	809.512
678.582	1174.08
681.475	1843.94
684.367	3173.72
687.26	4837.09
690.153	6819.22
693.045	8780.66
695.938	10083.9
698.831	8241.38
701.723	5244.98
704.616	3090.51
707.509	1768.14
710.402	1118.64
713.294	989.945
716.187	793.922
719.08	650.676
721.972	574.5
724.865	369.816
727.758	503.238
730.65	492.215
733.543	522.977
736.436	356.824
739.329	474.406
742.221	365.301
745.114	452.731
748.007	405.176
750.899	351.664
753.792	246.481
756.685	318.402
759.577	193.273
762.47	197.672
765.363	124.648
768.256	22.1094
771.148	198.289
774.041	183.894
776.934	319.797
779.826	178.66
782.719	17.6992
785.612	79.1289
788.505	34.9688
791.397	0.265625
794.29	0.484375
797.183	256.887
800.075	21.7773
802.968	58.7812
805.861	77.0508
808.753	46.9688
811.646	59.0352
814.539	45.4844
817.432	138.75
820.324	214.734
823.217	158.094
826.11	50.0938
829.002	70.9102
831.895	126.938
834.788	16.8164
837.68	336.856
840.573	179.41
843.466	259.973
846.359	167.269
849.251	33.4414
852.144	209.648
855.037	396.816
857.929	295.019
860.822	364.648
863.715	590.781
866.607	610.324
869.5	564.207
872.393	485.691
875.285	594.078
878.178	442.156
881.071	387.336
883.964	385.816
886.856	393.383
889.749	352.359
892.642	328.297
895.534	304.312
898.427	300.406
901.32	315
904.212	289.637
907.105	239.391
909.998	117.312
912.891	191.324
915.783	177.285
918.676	135.125
921.569	35.0352
924.461	173.496
927.354	68.3711
930.247	31.1133
933.139	34.4336
936.032	133.926
938.925	146.606
941.818	98.1133
944.71	115.914
947.603	287.426
950.496	56.5664
953.388	192.457
956.281	81.4023
959.174	130.793
962.067	223.633
964.959	248.902
967.852	219.387
970.745	515.742
973.637	825.777
976.53	1597.59
979.423	1997.95
982.315	2469.06
985.208	2333.55
988.101	1682.99
990.994	1177.62
993.886	916.777
996.779	683
999.672	410.195
1002.56	217.156
1005.46	355.637
1008.35	249.922
1011.24	252.231
1014.13	348.207
1017.03	368.34
1019.92	458.258
1022.81	709.609
1025.71	829.144
1028.6	1240.78
1031.49	1740.88
1034.38	2300.41
1037.28	2636.77
1040.17	2050
1043.06	1327.14
1045.95	821.465
1048.85	545.922
1051.74	349.055
1054.63	72.7812
1057.53	201.606
1060.42	119.086
1063.31	164.977
1066.2	159.816
1069.1	201.856
1071.99	261.856
1074.88	279.137
1077.78	366.027
1080.67	143.523
1083.56	45.1641
1086.45	0.675781
1089.35	8.65625
1092.24	46.0078
1095.13	18.6641
1098.02	147.801
1100.92	93.3359
1103.81	118.949
1106.7	24.1289
1109.59	24.0859
1112.49	177.898
1115.38	221.082
1118.27	175.961
1121.16	233.668
1124.06	53.0312
1126.95	205.082
1129.84	90.3594
1132.74	207.777
1135.63	45.293
1138.52	42.7773
1141.41	27.1016
1144.31	116.348
1147.2	210.523
1150.09	187.711
1152.98	49.418
1155.88	114.211
1158.77	285.137
1161.66	302.125
1164.56	108.769
1167.45	168.297
1170.34	90.0938
1173.23	184.094
1176.13	209.457
1179.02	212.891
1181.91	187.141
1184.81	146.414
1187.7	128.594
1190.59	179.309
1193.48	261.473
1196.38	68.5078
1199.27	126.106
1202.16	124.223
1205.05	99.6289
1207.95	53.043
1210.84	289.688
1213.73	280.394
1216.62	103.731
1219.52	16.6992
1222.41	64.8711
1225.3	152.102
1228.19	68.0352
1231.09	162.973
1233.98	5.37109
1236.87	233.422
1239.77	117.402
1242.66	238.961
1245.55	30.1211
1248.44	200.422
1251.34	258.734
1254.23	177.434
1257.12	127.32
1260.02	224.906
1262.91	194.379
1265.8	87.6484
1268.69	207.699
1271.59	210.691
1274.48	244.496
1277.37	57.5742
1280.26	58.7773
1283.16	3.90625
1286.05	227.516
1288.94	121.617
1291.83	78.1172
1294.73	60.1016
1297.62	68.1641
1300.51	6.00391
1303.4	40.9297
