Measurement: Raman, 514 nm, unoriented, Raman Data Processed
Mineral: Jadeite
Rruff sample: R050220
Ideal chemistry: NaAlSi_2_O_6_
Locality: Clear Creek, San Benito County, California, USA
Source: Hatt Yoder
Description: Aggregate of colorless bladed crystals
Measured chemistry: Na_1.00_Al_1.00_(Si_0.99_Al_0.01_)_2_O_6_
Raman shift (cm-1)	intensity
110.082	0
114.254	518.479
118.424	699.739
122.592	224.646
126.758	248.979
130.922	446.604
135.083	49.704
139.243	819.892
143.401	1974.77
147.557	1228.29
151.711	355.005
155.863	67.984
160.013	16.1
164.161	129.339
168.308	35.729
172.452	99.25
176.594	35.908
180.734	233.852
184.872	257.018
189.008	675.309
193.143	2058.59
197.275	2823.93
201.405	9017.68
205.534	10985
209.66	4092.19
213.784	1110.35
217.907	835.354
222.027	1538.11
226.146	1022.6
230.263	144.798
234.377	20.66
238.49	96.844
242.601	35.265
246.709	163.974
250.816	1158.27
254.921	3427.14
259.024	1743.31
263.125	275.932
267.224	35.088
271.321	26.232
275.416	89.277
279.51	36.878
283.601	448.046
287.69	1188.64
291.778	2325.5
295.863	2050.54
299.947	2247.6
304.029	3195.76
308.108	6995.73
312.186	7708.74
316.262	3556.44
320.336	2389.01
324.408	4003.12
328.478	6913.67
332.546	4091.65
336.612	1501.01
340.677	619.725
344.739	506.429
348.799	362.516
352.858	612.943
356.915	958.443
360.969	2325.19
365.022	5806.25
369.073	12113.6
373.122	25456.4
377.169	24013.4
381.215	14343.7
385.258	12136.5
389.299	8632.33
393.339	4126.47
397.376	1998.87
401.412	1045.04
405.446	885.234
409.478	902.371
413.508	920.734
417.536	1353.32
421.562	1867.11
425.586	2486.12
429.609	4189.32
433.629	6142.1
437.648	4348.2
441.665	2154.1
445.68	1025.4
449.693	242.445
453.704	422.973
457.713	70.506
461.721	51.93
465.726	51.219
469.73	4.818
473.731	160.086
477.731	107.404
481.729	329.861
485.725	275.295
489.72	239.336
493.712	273.613
497.703	5.924
501.691	112.926
505.678	257.369
509.663	579.943
513.646	1013.61
517.627	2311.36
521.607	5156.18
525.584	6785.06
529.56	3324.99
533.534	1171.02
537.506	528.207
541.476	221.551
545.444	233.006
549.41	377.543
553.375	420.123
557.337	779.752
561.298	712.477
565.257	713.271
569.214	1215.06
573.17	2575.82
577.123	2809.56
581.075	1908.26
585.024	890.922
588.972	1314.54
592.918	678.18
596.863	290.836
600.805	161.463
604.746	120.002
608.685	19.408
612.621	37.439
616.557	101.779
620.49	27.441
624.421	162.969
628.351	117.803
632.279	125.398
636.205	54.641
640.129	67.902
644.051	13.066
647.972	80.281
651.89	54.102
655.807	301.037
659.722	420.207
663.636	404.045
667.547	583.568
671.457	680.75
675.365	960.695
679.271	1290.28
683.175	2048.72
687.077	3270.18
690.978	6747
694.877	16177.4
698.774	31337.9
702.669	26717
706.562	12917.3
710.454	5943.08
714.344	3097.05
718.232	2013.1
722.118	1329.95
726.002	952.623
729.885	937.123
733.766	584.453
737.645	709.609
741.522	471.598
745.397	603.42
749.271	470.066
753.143	418.543
757.013	269.85
760.881	483.902
764.748	618.578
768.613	402.203
772.476	881.105
776.337	2444.95
780.196	3749.23
784.054	1766.76
787.91	628.719
791.764	308.674
795.616	103.82
799.467	61.605
803.316	1.143
807.163	244.32
811.008	7.562
814.851	241.006
818.693	53.916
822.533	23.322
826.371	41.287
830.208	222.795
834.042	345.652
837.875	62.75
841.706	395.281
845.536	179.592
849.363	167.355
853.189	55.664
857.013	21.455
860.836	223.17
864.656	295.414
868.475	82.52
872.292	209.623
876.108	130.693
879.922	227.996
883.733	462.938
887.544	811.105
891.352	456.248
895.159	465.375
898.964	588.488
902.767	183.586
906.568	221.668
910.368	81.725
914.166	271.805
917.962	268.492
921.757	199.117
925.55	194.662
929.341	321.045
933.13	261.785
936.918	32.637
940.703	400.668
944.488	462.775
948.27	497.658
952.051	386.709
955.83	477.875
959.607	591.33
963.383	476.07
967.156	859.85
970.928	839.098
974.699	1147.61
978.468	1530.12
982.234	3373.18
986	6395.07
989.763	5192.97
993.525	3961.23
997.285	2586.14
1001.04	1736.35
1004.8	1235.34
1008.55	957.463
1012.31	1196.06
1016.06	1278.43
1019.81	1287.34
1023.56	1980.89
1027.31	2979.12
1031.05	4935.94
1034.79	9361.22
1038.53	17424.4
1042.27	16435.3
1046.01	8346.09
1049.75	4309.02
1053.48	2712.41
1057.22	2031.49
1060.95	1314.06
1064.68	1075.23
1068.4	1162.35
1072.13	1104.9
1075.86	920.432
1079.58	1318.21
1083.3	1145.06
1087.02	555.938
1090.74	527.971
1094.45	308.918
1098.17	309.5
1101.88	242.209
1105.59	459.736
1109.3	262.715
1113.01	117.225
1116.71	95.836
1120.42	51.736
1124.12	141.549
1127.82	428.32
1131.52	77.824
1135.22	163.592
1138.91	254.279
1142.61	10.264
1146.3	219.809
1149.99	184.895
1153.68	283.82
1157.37	194.91
1161.06	292.904
1164.74	99.129
1168.42	339.697
1172.1	130.025
1175.78	419.547
1179.46	381.182
1183.14	392.58
1186.81	133.232
1190.48	169.896
1194.15	205.492
1197.83	421.816
1201.49	363.137
1205.16	337.02
1208.82	65.287
1212.49	351.531
1216.15	360.791
1219.81	478.762
1223.46	252.041
1227.12	186.357
1230.78	338.691
1234.43	404.145
1238.08	433.156
1241.73	614.004
1245.38	232.977
1249.03	196.742
1252.67	358.219
1256.31	256.211
1259.95	58.445
1263.6	287.824
1267.23	388.816
1270.87	36.668
1274.51	37.566
1278.14	4.906
1281.77	282.961
1285.4	284.02
1289.03	93.48
1292.66	15.176
1296.28	247.656
1299.91	204.336
1303.53	23.48
1307.15	44.719
1310.77	330.758
1314.38	257.492
1318	179.145
1321.61	38.289
1325.23	30.82
1328.84	283.84
1332.45	99.715
1336.06	149.711
1339.66	114.176
1343.27	80.445
1346.87	130.461
1350.47	48.84
1354.07	474.449
1357.67	378.766
1361.26	402.656
1364.86	314.832
1368.45	498.93
1372.04	486.664
1375.63	390.66
1379.22	236.512
1382.81	485.484
1386.39	458.746
1389.98	426.098
1393.56	379.699
1397.14	382.5
1400.72	350.102
1404.3	288.664
1407.87	131.859
1411.45	200.934
1415.02	240.477
1418.59	278.961
1422.16	252.449
1425.73	341.926
1429.29	360.691
1432.86	376.883
1436.42	428.48
1439.98	364.805
1443.54	139.043
1447.1	429.148
1450.66	12.484
1454.21	325.359
1457.77	524.25
1461.32	522.117
1464.87	511.527
1468.42	671.93
1471.96	487.973
1475.51	217.449
1479.06	297.48
1482.6	70.84
1486.14	120.961
1489.68	92.691
1493.22	0
