Measurement: Raman, 780 nm, unoriented, Raman Data Processed
Mineral: Jadeite
Rruff sample: R050220
Ideal chemistry: NaAlSi_2_O_6_
Locality: Clear Creek, San Benito County, California, USA
Source: Hatt Yoder
Description: Aggregate of colorless bladed crystals
Measured chemistry: Na_1.00_Al_1.00_(Si_0.99_Al_0.01_)_2_O_6_
Raman shift (cm-1)	intensity
133.333	0
136.226	3.58337
139.119	9.13304
142.012	23.0742
144.904	29.8368
147.797	7.41808
150.69	3.26862
153.582	0.928207
156.475	0.886047
159.368	1.64793
162.26	0.715393
165.153	0.469223
168.046	0.178787
170.939	1.2923
173.831	0.92717
176.724	4.95619
179.617	10.5138
182.509	35.7156
185.402	57.7321
188.295	64.925
191.187	85.7114
194.08	109.665
196.973	137.507
199.865	207.877
202.758	364.933
205.651	215.674
208.544	73.66
211.436	32.9211
214.329	25.4339
217.222	27.6314
220.114	38.1154
223.007	56.3026
225.9	16.3574
228.792	2.09825
231.685	1.11594
234.578	1.39873
237.471	2.03389
240.363	0.313934
243.256	0.835663
246.149	3.38663
249.041	5.64671
251.934	9.03963
254.827	18.2791
257.719	10.7427
260.612	0.098495
263.505	1.94629
266.398	0.410019
269.29	3.00021
272.183	11.6378
275.076	17.4823
277.968	21.2186
280.861	30.8489
283.754	43.6613
286.647	62.9671
289.539	87.7802
292.432	97.0606
295.325	77.6853
298.217	58.6853
301.11	54.118
304.003	60.3731
306.895	77.0834
309.788	91.1071
312.681	67.9597
315.574	42.1643
318.466	34.0227
321.359	34.943
324.252	47.7963
327.144	61.9918
330.037	51.2085
332.93	16.2994
335.822	0.944199
338.715	2.21431
341.608	4.18398
344.5	0.066986
347.393	4.317
350.286	15.1471
353.179	38.5574
356.071	73.1957
358.964	107.918
361.857	146.668
364.749	205.094
367.642	278.33
370.535	383.216
373.428	478.063
376.32	416.53
379.213	285.609
382.106	235.857
384.998	217.071
387.891	138.711
390.784	64.1331
393.676	29.4316
396.569	15.3395
399.462	9.19809
402.354	8.34769
405.247	10.907
408.14	16.1758
411.033	26.9084
413.925	40.0727
416.818	54.2381
419.711	61.9023
422.603	77.4437
425.496	94.8717
428.389	114.8
431.281	137.476
434.174	125.21
437.067	85.4029
439.96	47.9676
442.852	25.253
445.745	15.0933
448.638	10.0646
451.53	7.66516
454.423	5.32732
457.316	2.1934
460.209	0.157211
463.101	1.2845
465.994	1.78958
468.887	0.128342
471.779	0.692169
474.672	0.01326
477.565	0.043335
480.457	1.77714
483.35	1.47877
486.243	0.521866
489.135	2.60713
492.028	3.49741
494.921	4.68921
497.814	6.61668
500.706	12.2824
503.599	21.7774
506.492	37.7157
509.384	53.0883
512.277	67.0429
515.17	88.3266
518.062	118.106
520.955	158.516
523.848	181.646
526.741	118.636
529.633	50.0835
532.526	22.4465
535.419	12.8444
538.311	3.75032
541.204	1.87201
544.097	0.456818
546.99	2.30839
549.882	1.0124
552.775	3.17535
555.668	4.45764
558.56	10.7741
561.453	12.0182
564.346	16.22
567.238	19.5984
570.131	27.0446
573.024	36.8781
575.917	36.532
578.809	22.1669
581.702	13.3629
584.595	15.0021
587.487	15.1298
590.38	13.0482
593.273	6.44127
596.165	2.17325
599.058	1.63174
601.951	2.54918
604.843	1.95674
607.736	0.004532
610.629	1.19388
613.521	1.90233
616.414	0.909149
619.307	2.50726
622.2	0.018265
625.092	0.159836
627.985	0.648193
630.878	1.22562
633.77	1.7588
636.663	1.77167
639.556	1.72319
642.448	1.32237
645.341	3.65251
648.234	4.23547
651.127	4.20636
654.019	4.87158
656.912	5.43756
659.805	9.48682
662.697	13.5115
665.59	16.4536
668.483	21.2263
671.375	29.4017
674.268	39.5523
677.161	63.0921
680.054	94.7412
682.946	156.996
685.839	233.52
688.732	313.485
691.625	425.507
694.517	587.816
697.41	755.014
700.303	715.586
703.195	444.844
706.088	230.657
708.981	130.185
711.873	80.2125
714.766	53.0436
717.659	34.0321
720.552	25.1197
723.444	19.2182
726.337	14.1732
729.23	10.0241
732.122	9.74793
735.015	5.67749
737.908	4.38278
740.8	5.24704
743.693	2.2944
746.586	1.34311
749.479	0.034637
752.371	1.87872
755.264	0.068634
758.157	0.613098
761.049	3.17319
763.942	4.1586
766.835	2.77338
769.727	6.75089
772.62	10.3701
775.513	14.5987
778.405	20.0153
781.298	13.4692
784.191	5.7059
787.084	2.36682
789.976	0.280518
792.869	0.928436
795.762	1.24463
798.654	2.3168
801.547	1.82571
804.44	1.27618
807.332	2.23587
810.225	4.82513
813.118	2.98785
816.011	1.69
818.903	5.35049
821.796	4.34152
824.689	4.72391
827.581	6.71646
830.474	6.49029
833.367	6.60486
836.26	5.64426
839.152	7.30884
842.045	6.09152
844.938	8.17065
847.83	7.176
850.723	7.62723
853.616	8.65808
856.508	6.93106
859.401	9.45868
862.294	6.08972
865.187	10.7323
868.079	10.417
870.972	10.5342
873.865	8.17438
876.757	10.1752
879.65	11.449
882.543	10.9157
885.435	12.397
888.328	10.2507
891.221	9.50971
894.114	4.53494
897.006	2.20135
899.899	0.304077
902.792	0.803711
905.684	1.21954
908.577	0.173462
911.47	2.18048
914.362	1.16806
917.255	0.324432
920.148	0.702423
923.04	0.950684
925.933	1.00159
928.826	2.1095
931.718	2.56476
934.611	2.23807
937.504	4.58115
940.397	5.58905
943.289	9.29477
946.182	7.23404
949.075	9.20267
951.967	10.3942
954.86	11.146
957.753	12.405
960.645	12.0428
963.538	15.4435
966.431	13.6615
969.324	20.2035
972.216	24.2161
975.109	29.0981
978.002	40.7247
980.894	54.5357
983.787	76.0321
986.68	87.8991
989.572	90.4681
992.465	74.8462
995.358	42.6401
998.251	21.5966
1001.14	12.9844
1004.04	3.43121
1006.93	2.51263
1009.82	1.03815
1012.71	2.80963
1015.61	5.93799
1018.5	6.40924
1021.39	18.3791
1024.29	26.6393
1027.18	49.4392
1030.07	71.3143
1032.96	101.252
1035.86	133.662
1038.75	155.044
1041.64	118.319
1044.53	62.8593
1047.43	29.1301
1050.32	17.7987
1053.21	8.888
1056.11	6.18372
1059	2.87024
1061.89	6.92371
1064.78	4.33002
1067.67	1.9519
1070.57	4.4527
1073.46	3.86011
1076.35	3.47083
1079.25	6.0285
1082.14	4.47168
1085.03	4.53742
1087.92	4.58307
1090.82	0.505615
1093.71	1.47327
1096.6	0.188843
1099.49	0.411194
1102.39	0.954651
1105.28	2.75745
1108.17	2.08844
1111.07	2.72174
1113.96	0.768982
1116.85	2.73468
1119.74	2.1394
1122.64	2.08411
1125.53	6.7691
1128.42	5.31506
1131.32	4.9682
1134.21	7.03345
1137.1	8.14771
1139.99	3.94543
1142.89	9.0661
1145.78	8.76117
1148.67	8.38519
1151.56	10.3293
1154.46	7.81061
1157.35	6.52911
1160.24	5.80371
1163.13	5.5885
1166.03	7.64172
1168.92	6.68555
1171.81	10.4907
1174.7	5.07104
1177.6	5.72675
1180.49	6.57086
1183.38	4.67004
1186.28	6.38782
1189.17	5.55835
1192.06	7.3761
1194.95	5.49646
1197.85	8.12317
1200.74	3.81274
1203.63	4.65967
1206.53	4.90088
1209.42	0.466919
1212.31	2.021
1215.2	3.50537
1218.1	5.07617
1220.99	2.35193
1223.88	1.67969
1226.77	1.42175
1229.67	4.51856
1232.56	4.40771
1235.45	8.38171
1238.35	7.27014
1241.24	6.63208
1244.13	4.2279
1247.02	7.24402
1249.92	4.4071
1252.81	2.89197
1255.7	1.49707
1258.59	2.96887
1261.49	1.3717
1264.38	4.39294
1267.27	5.32544
1270.16	5.20068
1273.06	4.91382
1275.95	4.30396
1278.84	5.95276
1281.73	2.78076
1284.63	5.78735
