Measurement: Raman, 785 nm, unoriented, Raman Data Processed
Mineral: Jagowerite
Rruff sample: R070327
Ideal chemistry: BaAl_2_(PO_4_)_2_(OH)_2_
Locality: Jagowerite occurrence, Hess River area, Yukon Territory, Canada
Source: Mark Mauthner
Description: Vitreous, light green crystals
Raman shift (cm-1)	intensity
159.589	0
162.481	7.64429
165.374	6.65173
168.267	29.7932
171.16	15.613
174.052	17.0027
176.945	13.2203
179.838	39.717
182.73	152.654
185.623	239.726
188.516	338.584
191.408	591.421
194.301	1105.41
197.194	1139.86
200.087	497.817
202.979	297.211
205.872	390.921
208.765	681.434
211.657	1002.46
214.55	847.467
217.443	795.948
220.335	1153.28
223.228	2106.07
226.121	2026.12
229.013	626.665
231.906	122.392
234.799	15.2114
237.692	83.1414
240.584	264.766
243.477	578.002
246.37	1025.12
249.262	1731.3
252.155	2959.39
255.048	4439.27
257.941	4781.95
260.833	4518.57
263.726	2589.73
266.619	1151.07
269.511	606.624
272.404	348.05
275.297	278.305
278.19	328.394
281.082	452.047
283.975	742.892
286.868	1054.46
289.76	1492.71
292.653	2148.65
295.546	2839.83
298.438	2373.12
301.331	1428.5
304.224	1056.58
307.116	1142.51
310.009	1207.79
312.902	595.41
315.795	180.141
318.687	32.2188
321.58	80.5144
324.473	30.5432
327.365	15.0083
330.258	36.7327
333.151	118.715
336.043	219.244
338.936	396.185
341.829	643.885
344.721	918.436
347.614	1348.53
350.507	1745.03
353.4	1514.23
356.292	850.351
359.185	366.479
362.078	163.843
364.97	88.7942
367.863	3.79517
370.756	31.2219
373.649	10.5955
376.541	17.5288
379.434	13.9827
382.327	23.6628
385.219	72.5867
388.112	14.9087
391.005	11.1721
393.897	15.0049
396.79	0.778809
399.683	37.2202
402.575	19.3667
405.468	52.0535
408.361	71.2876
411.254	114.781
414.146	171.181
417.039	258.142
419.932	384.795
422.824	594.358
425.717	699.218
428.61	768.192
431.502	722.933
434.395	652.757
437.288	779.849
440.181	1010.03
443.073	1423.59
445.966	2023.71
448.859	2958.31
451.751	3752.49
454.644	3908.83
457.537	3373.29
460.43	2512.67
463.322	1817.14
466.215	1419.1
469.108	1320.54
472	1424.81
474.893	1414.83
477.786	1041.81
480.678	578.316
483.571	378.333
486.464	280.507
489.356	205.664
492.249	198.202
495.142	155.122
498.035	185.95
500.927	225.974
503.82	256.784
506.713	320.512
509.605	394.773
512.498	486.55
515.391	526.349
518.284	428.75
521.176	309.826
524.069	156.005
526.962	100.055
529.854	46.8057
532.747	6.19482
535.64	46.8481
538.533	25.8097
541.425	17.6135
544.318	27.3682
547.211	12.0035
550.103	3.16467
552.996	23.0861
555.889	78.925
558.781	144.696
561.674	216.825
564.567	288.457
567.459	387.19
570.352	460.297
573.245	516.658
576.138	494.265
579.03	477.661
581.923	475.273
584.816	594.763
587.708	767.453
590.601	1140.51
593.494	1528.98
596.386	1931.44
599.279	1923.82
602.172	1216.47
605.064	604.765
607.957	358.201
610.85	315.719
613.743	423.3
616.635	648.562
619.528	1002.08
622.421	1236.08
625.313	1221.56
628.206	899.574
631.099	646.885
633.991	460.168
636.884	408.35
639.777	505.075
642.67	636.383
645.562	848.379
648.455	987.676
651.348	875.931
654.24	526.416
657.133	311.853
660.026	173.078
662.918	51.1794
665.811	29.8895
668.704	6.35242
671.597	3.8844
674.489	2.56213
677.382	5.97656
680.275	47.0514
683.167	55.9794
686.06	68.0267
688.953	99.4387
691.846	89.9209
694.738	95.3173
697.631	111.329
700.524	120.685
703.416	102.71
706.309	148.238
709.202	118.906
712.094	72.1352
714.987	79.1155
717.88	42.9717
720.773	8.04675
723.665	3.82629
726.558	0.289063
729.451	2.00208
732.343	1.32446
735.236	33.261
738.129	12.4661
741.021	0.151978
743.914	7.29956
746.807	16.0702
749.699	24.9818
752.592	56.0538
755.485	54.0942
758.378	59.6018
761.27	98.1377
764.163	155.805
767.056	162.175
769.948	202.434
772.841	263.083
775.734	299.875
778.626	288.122
781.519	295.293
784.412	272.564
787.305	240.968
790.197	223.03
793.09	211.012
795.983	163.257
798.875	114.292
801.768	78.3466
804.661	54.4651
807.553	18.4921
810.446	34.5324
813.339	13.0638
816.232	20.0736
819.124	34.9735
822.017	16.9575
824.91	21.1154
827.802	42.7505
830.695	28.3824
833.588	49.9456
836.481	7.38599
839.373	56.5466
842.266	20.4618
845.159	31.0718
848.051	61.8376
850.944	48.6312
853.837	76.8527
856.729	80.5586
859.622	71.5781
862.515	92.1498
865.408	77.0854
868.3	90.9664
871.193	89.1348
874.086	69.8509
876.978	90.3005
879.871	68.2222
882.764	56.668
885.656	57.6679
888.549	46.9657
891.442	47.4539
894.335	57.4261
897.227	34.3057
900.12	21.0735
903.013	40.3295
905.905	2.49341
908.798	20.8487
911.691	29.9579
914.583	9.7876
917.476	4.37012
920.369	28.2357
923.261	11.2593
926.154	11.1926
929.047	33.785
931.94	15.4251
934.832	19.349
937.725	23.3201
940.618	4.85962
943.51	13.2227
946.403	16.9327
949.296	6.70056
952.188	13.9493
955.081	17.9109
957.974	13.4321
960.867	43.6198
963.759	54.2537
966.652	96.8276
969.545	115.801
972.437	215.333
975.33	218.996
978.223	336.708
981.115	417.929
984.008	501.862
986.901	704.816
989.794	931.081
992.686	1262
995.579	1869.41
998.472	2862.97
1001.36	4557.72
1004.26	6966.19
1007.15	9931.28
1010.04	10954.1
1012.93	8262.61
1015.83	4910.41
1018.72	2870.54
1021.61	2015.86
1024.51	1758.99
1027.4	1822.32
1030.29	1840.48
1033.18	1701.57
1036.08	1171.77
1038.97	747.844
1041.86	565.955
1044.76	497.84
1047.65	619.567
1050.54	761.651
1053.43	985.014
1056.33	1252.6
1059.22	1363.41
1062.11	1079.77
1065	697.15
1067.9	438.278
1070.79	228.231
1073.68	149.457
1076.58	117.059
1079.47	40.4908
1082.36	24.7435
1085.25	24.0756
1088.14	4.41772
1091.04	8.75244
1093.93	30.5859
1096.82	16.7927
1099.72	22.8059
1102.61	25.03
1105.5	16.4839
1108.39	22.3722
1111.29	11.6793
1114.18	38.2535
1117.07	89.292
1119.96	79.6132
1122.86	95.0791
1125.75	113.448
1128.64	167.824
1131.54	194.759
1134.43	282.536
1137.32	322.379
1140.21	410.189
1143.11	496.531
1146	567.312
1148.89	680.704
1151.79	672.88
1154.68	675.478
1157.57	607.955
1160.46	490.946
1163.36	387.428
1166.25	318.051
1169.14	228.989
1172.03	185.731
1174.93	154.504
1177.82	124.562
1180.71	112.524
1183.6	104.086
1186.5	69.0362
1189.39	55.5793
1192.28	15.9815
1195.17	7.49902
1198.07	37.1195
1200.96	10.9006
1203.85	13.7535
1206.75	3.552
1209.64	40.1155
1212.53	12.5618
1215.42	23.1808
1218.32	12.938
1221.21	26.0053
1224.1	41.3937
1226.99	35.9112
1229.89	35.5694
1232.78	23.8925
1235.67	11.0578
1238.57	41.8973
1241.46	61.9025
