Measurement: Raman, 532 nm, unoriented, Raman Data Processed
Mineral: Jagowerite
Rruff sample: R070327
Ideal chemistry: BaAl_2_(PO_4_)_2_(OH)_2_
Locality: Jagowerite occurrence, Hess River area, Yukon Territory, Canada
Source: Mark Mauthner
Description: Vitreous, light green crystals
Raman shift (cm-1)	intensity
173.768	0
176.66	29.6538
179.553	23.0815
182.446	62.187
185.339	165.125
188.231	257.364
191.124	577.96
194.017	924.575
196.909	1216.5
199.802	469.109
202.695	252.003
205.587	333.615
208.48	679.14
211.373	963.313
214.266	824.192
217.158	643.722
220.051	1060.93
222.944	1640.17
225.836	2077.97
228.729	732.87
231.622	135.903
234.514	20.2246
237.407	0.063477
240.3	185.964
243.192	506.356
246.085	834.555
248.978	1752.61
251.871	3039.62
254.763	4999.03
257.656	5362.1
260.549	5424.74
263.441	3300.44
266.334	1587.71
269.227	748.551
272.12	500.291
275.012	434.021
277.905	428.393
280.798	657.193
283.69	838.703
286.583	1141.68
289.476	1773.39
292.368	2437.93
295.261	3288.16
298.154	3007.65
301.046	1917.85
303.939	1480.13
306.832	1660.89
309.725	1923.22
312.617	1170.79
315.51	376.543
318.403	65.8813
321.295	4.40771
324.188	112.549
327.081	31.5312
329.974	41.1611
332.866	84.1856
335.759	165.359
338.652	329.438
341.544	637.337
344.437	1020.67
347.33	1475.42
350.223	1951.5
353.115	1819.51
356.008	1039.22
358.901	506.093
361.793	234.009
364.686	122.541
367.579	88.1211
370.471	60.2305
373.364	77.5576
376.257	9.23633
379.149	65.083
382.042	4.32129
384.935	37.6826
387.828	1.7334
390.72	63.4922
393.613	9.94434
396.506	26.3242
399.398	0.786133
402.291	56.0137
405.184	49.8272
408.077	80.708
410.969	130.343
413.862	206.455
416.755	376.453
419.647	626.238
422.54	813.481
425.433	1145.18
428.325	1199.57
431.218	1091.76
434.111	912.894
437.003	939.136
439.896	1175.7
442.789	1662.54
445.682	2416.59
448.574	3510.51
451.467	4571.85
454.36	4809.74
457.252	4258.46
460.145	3413.28
463.038	2463.25
465.93	2137.74
468.823	2162.97
471.716	2318.4
474.609	2563.07
477.501	1989.46
480.394	1039.11
483.287	622.267
486.179	405.938
489.072	424.591
491.965	328.885
494.858	272.823
497.75	205.67
500.643	300.882
503.536	347.526
506.428	374.445
509.321	502.616
512.214	616.711
515.106	683.938
517.999	541.56
520.892	362.106
523.784	229.023
526.677	87.5596
529.57	3.00977
532.463	41.1435
535.355	27.1074
538.248	54.8848
541.141	20.3545
544.033	44.0127
546.926	24.502
549.819	76.3887
552.712	52.6973
555.604	135.387
558.497	166.004
561.39	249.043
564.282	375.716
567.175	480.39
570.068	694.737
572.96	734.533
575.853	756.604
578.746	784.411
581.639	953.377
584.531	1140.42
587.424	1714.99
590.317	2458.47
593.209	3451.22
596.102	4456.17
598.995	4489
601.888	3043.89
604.78	1553.18
607.673	859.387
610.566	569.414
613.458	730.89
616.351	987.961
619.244	1342.06
622.136	1665.27
625.029	1634.56
627.922	1311.73
630.814	926.934
633.707	751.734
636.6	683.95
639.493	782.715
642.385	1073.98
645.278	1284.68
648.171	1380.07
651.063	1305.35
653.956	861.998
656.849	462.234
659.741	263.438
662.634	187.586
665.527	123.289
668.42	25.4004
671.312	12.8467
674.205	23.748
677.098	49.4199
679.99	49.585
682.883	16.3154
685.776	97.4121
688.668	122.827
691.561	89.3516
694.454	137.251
697.347	146.062
700.239	152.861
703.132	210.571
706.025	195.931
708.917	167.606
711.81	143.932
714.703	48.9795
717.596	103.265
720.488	52.0996
723.381	8.77832
726.274	6.43359
729.166	38.6816
732.059	22.9619
734.952	37.3379
737.844	50.1328
740.737	23.8096
743.63	42.0488
746.523	57.2295
749.415	65.584
752.308	105.565
755.201	127.696
758.093	98.5332
760.986	171.622
763.879	175.752
766.771	330.201
769.664	398.644
772.557	422.47
775.45	491.948
778.342	449.008
781.235	505.385
784.128	450.573
787.02	490.428
789.913	440.61
792.806	281.715
795.698	278.47
798.591	205.124
801.484	163.822
804.377	97.2178
807.269	92.7959
810.162	129.119
813.055	84.1738
815.947	43.0225
818.84	105.933
821.733	113.817
824.625	99.4766
827.518	79.6728
830.411	88.5732
833.304	91.8506
836.196	12.043
839.089	28.8125
841.982	65.3857
844.874	106.112
847.767	174.321
850.66	154.113
853.553	125.279
856.445	184.983
859.338	180.323
862.231	176.008
865.123	232.443
868.016	224.456
870.909	255.943
873.801	154.225
876.694	230.649
879.587	188.17
882.48	47.2471
885.372	145.815
888.265	174.023
891.158	152.223
894.05	88.665
896.943	63.6387
899.836	144.252
902.729	129.108
905.621	80.71
908.514	16.2061
911.407	118.778
914.299	124.899
917.192	41.9844
920.085	32.5527
922.977	21.8486
925.87	29.5752
928.763	23.5674
931.655	75.2148
934.548	20.0283
937.441	47.415
940.334	30.6934
943.226	19.6309
946.119	31.5674
949.012	9.10352
951.904	13.9316
954.797	25.5781
957.69	68.2305
960.582	34.6494
963.475	94.0117
966.368	178.141
969.261	254.431
972.153	315.775
975.046	502.591
977.939	596.94
980.831	739.464
983.724	819.539
986.617	1051.43
989.51	1443.36
992.402	1922.31
995.295	2817.9
998.188	4239.12
1001.08	6767.72
1003.97	10533.3
1006.87	14691.4
1009.76	16700.5
1012.65	13423.6
1015.54	8029.94
1018.44	4794.31
1021.33	3477.73
1024.22	3264.8
1027.12	3617.68
1030.01	4106.19
1032.9	3941.1
1035.79	2837.56
1038.68	1808.64
1041.58	1162.53
1044.47	1052.82
1047.36	1138.44
1050.26	1488
1053.15	1955.46
1056.04	2334.28
1058.93	2513.43
1061.83	2145.64
1064.72	1411.53
1067.61	827.372
1070.51	482.608
1073.4	313.161
1076.29	115.489
1079.18	197.006
1082.08	23.8086
1084.97	35.2285
1087.86	16.9922
1090.75	13.5547
1093.65	54.9121
1096.54	7.43359
1099.43	19.666
1102.33	23.2998
1105.22	22.2939
1108.11	29.4658
1111	36.5205
1113.9	124.988
1116.79	140.875
1119.68	193.956
1122.57	281.438
1125.47	366.09
1128.36	442.059
1131.25	474.422
1134.14	682.041
1137.04	809.161
1139.93	886.486
1142.82	1134.29
1145.71	1358.29
1148.61	1473.19
1151.5	1737.84
1154.39	1588.87
1157.29	1520.69
1160.18	1233.77
1163.07	1085.26
1165.96	721.539
1168.86	681.686
1171.75	529.888
1174.64	400.58
1177.54	329.846
1180.43	226.018
1183.32	189.615
1186.21	235.154
1189.11	129.417
1192	163.054
1194.89	109.244
1197.78	31.0059
1200.68	101.58
1203.57	17.958
1206.46	8.8291
1209.36	36.5977
1212.25	49.7461
1215.14	36.5986
1218.03	22.042
1220.93	21.2373
1223.82	17.4229
1226.71	46.0654
1229.6	86.3164
1232.5	16.1514
1235.39	70.5762
1238.28	86.3897
1241.17	6.08789
1244.07	129.171
1246.96	124.265
1249.85	112.582
1252.74	63.5381
1255.64	94.7891
1258.53	130.423
1261.42	110.991
1264.32	97.0147
1267.21	47.251
1270.1	109.998
1272.99	79.1328
1275.89	127.915
1278.78	162.137
1281.67	86.6924
1284.57	73.5039
1287.46	122.671
1290.35	67.3447
1293.24	74.4248
1296.14	156.067
1299.03	118.957
1301.92	8.30859
1304.81	49.4346
1307.71	58.0693
1310.6	23.2588
1313.49	13.5967
