Measurement: Raman, 532 nm, unoriented, Raman Data Processed
Mineral: Jahnsite-(CaMnMg)
Rruff sample: R060213
Ideal chemistry: CaMn^2+^Mg_2_Fe^3+^_2_(PO_4_)_4_(OH)_2_8H_2_O
Locality: Tip Top mine, Custer County, South Dakota, USA
Source: Marcus Origlieri
Description: Brown tabular crystals associated with black prismatic rockbridgeite, R060858
Raman shift (cm-1)	intensity
153.307	0
156.2	11.8577
159.092	9.10638
161.985	15.001
164.878	29.8575
167.77	52.1141
170.663	87.2249
173.556	102.33
176.448	83.4273
179.341	52.5062
182.234	22.4345
185.127	0.150513
188.019	11.5526
190.912	10.5634
193.805	8.04486
196.697	4.47424
199.59	15.9408
202.483	43.0567
205.375	56.909
208.268	63.8171
211.161	67.3342
214.054	53.3794
216.946	43.3669
219.839	35.7139
222.732	22.9363
225.624	34.6433
228.517	32.2479
231.41	33.7137
234.303	32.4362
237.195	39.8975
240.088	49.0582
242.981	62.7203
245.873	85.6298
248.766	105.925
251.659	138.002
254.551	165.094
257.444	189.728
260.337	202.533
263.229	203.368
266.122	196.451
269.015	193.093
271.908	189.138
274.8	184.79
277.693	171.654
280.586	172.095
283.478	168.072
286.371	171.326
289.264	180.466
292.156	190.541
295.049	194.255
297.942	203.997
300.835	201.632
303.727	196.893
306.62	192.717
309.513	169.55
312.405	160.757
315.298	149.706
318.191	151.411
321.084	156.93
323.976	168.788
326.869	191.809
329.762	199.086
332.654	209.42
335.547	212.86
338.44	203.643
341.332	191.355
344.225	158.456
347.118	141.316
350.01	120.623
352.903	101.164
355.796	83.4963
358.689	66.8199
361.581	51.3372
364.474	42.3999
367.367	30.139
370.259	9.87836
373.152	1.88519
376.045	0.479736
378.938	12.6621
381.83	12.5883
384.723	16.5388
387.616	9.85046
390.508	9.44742
393.401	1.80356
396.294	8.10458
399.186	21.8314
402.079	35.6009
404.972	57.9145
407.865	80.7987
410.757	93.2361
413.65	114.918
416.543	123.802
419.435	138.735
422.328	147.672
425.221	156.757
428.113	160.436
431.006	167.621
433.899	171.347
436.791	173.472
439.684	169.815
442.577	169.788
445.469	173.711
448.362	188.968
451.255	224.338
454.148	266.361
457.04	323.078
459.933	387.583
462.826	468.909
465.718	540.881
468.611	612.924
471.504	686.793
474.397	749.648
477.289	790.294
480.182	787.104
483.075	754.095
485.967	687.18
488.86	602.068
491.753	510.583
494.645	419.406
497.538	333.277
500.431	260.199
503.324	200.703
506.216	149.271
509.109	108.409
512.002	67.6394
514.894	42.3274
517.787	20.1
520.68	3.27594
523.572	4.38971
526.465	5.96725
529.358	10.5418
532.25	4.4288
535.143	9.8253
538.036	26.2305
540.929	48.5162
543.821	79.5392
546.714	112.056
549.607	137.255
552.5	155.482
555.392	159.345
558.285	145.715
561.178	138.395
564.07	130.146
566.963	118.891
569.856	113.76
572.748	97.3767
575.641	89.7859
578.534	74.8801
581.427	58.9399
584.319	35.4038
587.212	21.3111
590.105	11.3917
592.997	6.92404
595.89	0.660309
598.783	1.19412
601.675	3.19128
604.568	0.622955
607.461	1.7773
610.353	0.783401
613.246	4.20435
616.139	7.46197
619.032	9.32576
621.924	11.9836
624.817	14.7365
627.71	13.9415
630.602	21.3528
633.495	24.309
636.388	26.7656
639.28	28.2935
642.173	24.6887
645.066	22.3224
647.958	23.4205
650.851	20.4624
653.744	18.4123
656.637	16.088
659.529	15.0635
662.422	10.9483
665.315	8.89375
668.207	6.65149
671.1	2.68947
673.993	9.8676
676.885	4.54555
679.778	1.17876
682.671	5.0609
685.564	5.28421
688.456	6.66036
691.349	2.7805
694.242	6.48006
697.134	2.4545
700.027	4.23085
702.92	4.41969
705.812	2.12468
708.705	4.54985
711.598	2.24503
714.491	4.59985
717.383	0.453918
720.276	4.8067
723.169	0.203995
726.061	2.71419
728.954	3.65389
731.847	1.07888
734.74	0.179047
737.632	3.01896
740.525	4.22597
743.418	5.75474
746.31	3.8789
749.203	3.59409
752.096	2.43384
754.988	3.97243
757.881	2.70333
760.774	1.32812
763.667	1.97664
766.559	3.91991
769.452	2.95301
772.345	0.373772
775.237	0.860825
778.13	2.70876
781.023	0.607368
783.915	3.23281
786.808	2.14298
789.701	0.631447
792.593	2.15955
795.486	1.28888
798.379	4.64259
801.271	3.63487
804.164	5.32008
807.057	6.62206
809.95	3.34115
812.842	8.63203
815.735	4.89111
818.628	6.36329
821.52	3.32896
824.413	9.24156
827.306	6.02206
830.198	7.05837
833.091	6.50469
835.984	5.43951
838.877	6.33415
841.769	4.94841
844.662	6.81191
847.555	5.65785
850.447	2.38548
853.34	2.68411
856.233	1.53574
859.125	0.133766
862.018	3.52675
864.911	3.16591
867.804	3.61507
870.696	0.6483
873.589	2.85661
876.482	2.45963
879.375	1.56271
882.267	0.008514
885.16	4.44144
888.053	1.73126
890.945	1.22766
893.838	0.395073
896.731	3.04278
899.623	7.22825
902.516	8.65039
905.409	8.54715
908.302	11.9143
911.194	15.9502
914.087	14.2991
916.98	20.2507
919.872	21.9325
922.765	24.3017
925.658	33.364
928.55	30.9131
931.443	44.0427
934.336	50.8026
937.229	65.8111
940.121	82.1091
943.014	113.011
945.907	153.08
948.799	211.13
951.692	302.731
954.585	425.446
957.477	569.875
960.37	743.219
963.263	913.712
966.155	1095.45
969.048	1266.77
971.941	1325.6
974.834	1209.52
977.726	1019.09
980.619	902.793
983.512	846.925
986.404	799.809
989.297	716.437
992.19	578.649
995.082	434.894
997.975	301.166
1000.87	206.838
1003.76	138.357
1006.65	95.0308
1009.55	64.2954
1012.44	41.5598
1015.33	25.3348
1018.22	11.7826
1021.12	5.95889
1024.01	1.75798
1026.9	3.81555
1029.8	5.42593
1032.69	7.55637
1035.58	6.86876
1038.47	3.16238
1041.37	1.89096
1044.26	5.11285
1047.15	10.8368
1050.04	31.0161
1052.94	46.2046
1055.83	64.2126
1058.72	86.0314
1061.62	107.306
1064.51	129.175
1067.4	145.007
1070.29	163.063
1073.18	197.538
1076.08	226.427
1078.97	270.381
1081.86	307.609
1084.76	323.811
1087.65	310.37
1090.54	282.274
1093.43	250.383
1096.33	225.209
1099.22	204.245
1102.11	189.875
1105.01	176.054
1107.9	153.272
1110.79	134.56
1113.68	108.638
1116.58	88.9112
1119.47	68.5254
1122.36	53.4439
1125.25	41.5769
1128.15	39.9994
1131.04	39.9126
1133.93	44.5278
1136.83	47.6627
1139.72	58.0303
1142.61	68.2044
1145.5	83.0674
1148.4	104.275
1151.29	131.76
1154.18	163.608
1157.07	200.714
1159.97	233.756
1162.86	276.356
1165.75	296.603
1168.64	297.558
1171.54	271.974
1174.43	222.162
1177.32	175.716
1180.21	126.639
1183.11	91.5045
1186	64.5773
1188.89	43.4758
1191.79	26.4317
1194.68	19.6869
1197.57	5.71136
1200.46	4.90735
1203.36	0.213753
1206.25	0.857086
1209.14	2.65655
1212.04	4.48738
1214.93	1.74235
1217.82	8.08391
1220.71	3.03619
1223.61	5.08956
1226.5	1.75601
1229.39	1.64476
1232.28	0.48098
1235.18	0.968231
1238.07	5.808
1240.96	5.20225
1243.86	9.20316
1246.75	7.15922
1249.64	13.2991
1252.53	11.2644
1255.42	16.3276
1258.32	18.6508
1261.21	18.0433
1264.1	11.2718
1267	12.584
1269.89	6.49501
1272.78	6.09549
1275.67	7.31311
1278.57	7.19435
1281.46	7.72423
1284.35	2.67495
1287.24	5.28204
1290.14	0.943916
1293.03	3.19492
1295.92	2.79731
1298.82	2.97884
1301.71	1.33699
