Measurement: Raman, 532 nm, unoriented, Raman Data Processed
Mineral: Jahnsite-(CaMnMn)
Rruff sample: R080072
Ideal chemistry: CaMn^2+^Mn^2+^_2_Fe^3+^_2_(PO_4_)_4_(OH)_2_8H_2_O
Locality: Tip Top mine, Custer Country, South Dakota, USA
Source: Tom Loomis
Description: Pale yellow blocky to thick tabular crystals associated with scholzite, R080068
Raman shift (cm-1)	intensity
140.565	0
143.94	0.310791
147.315	5.31726
150.69	10.2402
154.065	21.2084
157.439	21.9113
160.814	26.0043
164.189	33.8042
167.564	40.0993
170.939	48.8943
174.313	59.154
177.688	63.4404
181.063	67.7208
184.438	63.8947
187.813	48.7451
191.187	28.0288
194.562	21.0369
197.937	21.7809
201.312	29.5216
204.687	33.9368
208.061	30.6689
211.436	25.0851
214.811	3.97681
218.186	6.41437
221.561	8.02637
224.936	5.22131
228.31	2.6228
231.685	17.1437
235.06	20.1851
238.435	29.2408
241.81	38.119
245.185	48.3038
248.559	68.1545
251.934	93.2279
255.309	125.679
258.684	159.223
262.059	200.175
265.433	244.563
268.808	287.44
272.183	321.57
275.558	324.568
278.933	286.568
282.308	232.249
285.682	186.395
289.057	147.52
292.432	120.17
295.807	105.458
299.182	100.086
302.556	95.0216
305.931	93.1672
309.306	84.2196
312.681	68.6887
316.056	50.8953
319.43	44.2533
322.805	40.9616
326.18	48.321
329.555	68.5195
332.93	86.8157
336.305	100.297
339.679	105.646
343.054	98.3306
346.429	82.0643
349.804	64.9746
353.179	51.4755
356.553	34.6585
359.928	21.5394
363.303	18.0717
366.678	13.1293
370.053	5.80792
373.428	0.440002
376.802	8.28967
380.177	8.57574
383.552	8.64081
386.927	5.69159
390.302	2.6145
393.676	6.84949
397.051	16.1773
400.426	24.0149
403.801	40.7921
407.176	55.1326
410.55	69.1363
413.925	87.0173
417.3	100.35
420.675	109.549
424.05	126.754
427.425	148.489
430.799	180.314
434.174	211.402
437.549	233.149
440.924	237.782
444.299	239.718
447.673	254.995
451.048	266.602
454.423	278.668
457.798	273.917
461.173	264.868
464.548	242.365
467.922	220.734
471.297	213.273
474.672	201.32
478.047	196.99
481.422	195.465
484.796	195.676
488.171	193.987
491.546	186.086
494.921	166.627
498.296	147.151
501.671	125.034
505.045	100.011
508.42	70.9653
511.795	48.0505
515.17	28.3639
518.545	12.4205
521.919	1.92029
525.294	6.58972
528.669	7.33008
532.044	5.04443
535.419	3.38562
538.794	18.2491
542.168	40.3159
545.543	69.2873
548.918	101.652
552.293	131.293
555.668	148.907
559.043	160.984
562.417	162.582
565.792	153.831
569.167	133.054
572.542	108.168
575.917	84.5226
579.291	65.1726
582.666	47.3177
586.041	30.0444
589.416	15.8213
592.791	8.03784
596.165	4.50238
599.54	2.20282
602.915	3.47577
606.29	4.91827
609.665	8.2901
613.04	6.42297
616.414	5.8269
619.789	3.30621
623.164	1.10052
626.539	1.39587
629.914	1.92401
633.288	2.2868
636.663	1.0343
640.038	7.54578
643.413	11.9293
646.788	19.9874
650.163	33.5667
653.537	49.9719
656.912	70.1484
660.287	95.2476
663.662	118.216
667.037	131.694
670.411	132.474
673.786	119.304
677.161	99.6224
680.536	75.5233
683.911	55.3116
687.285	40.2219
690.66	25.0225
694.035	17.1304
697.41	9.33112
700.785	7.58771
704.16	8.91492
707.534	3.07971
710.909	1.43817
714.284	1.15216
717.659	1.3017
721.034	0.263672
724.409	0.500366
727.783	2.10553
731.158	1.37543
734.533	2.58569
737.908	5.00507
741.283	5.29767
744.657	8.6767
748.032	8.61054
751.407	10.6333
754.782	10.2468
758.157	9.86591
761.532	11.5403
764.906	9.99188
768.281	8.4693
771.656	8.5448
775.031	9.40851
778.406	6.64276
781.78	10.6541
785.155	11.1717
788.53	10.2167
791.905	12.7748
795.28	12.244
798.654	12.4196
802.029	12.6647
805.404	15.5237
808.779	16.2149
812.154	15.6921
815.529	16.4328
818.903	14.2227
822.278	11.9624
825.653	8.11084
829.028	3.89539
832.403	0.917908
835.778	0.481995
839.152	2.16785
842.527	0.872681
845.902	1.25177
849.277	1.22083
852.652	0.941772
856.026	3.39014
859.401	0.489746
862.776	1.27716
866.151	0.245728
869.526	0.418152
872.9	3.08283
876.275	7.23773
879.65	16.7812
883.025	31.3114
886.4	45.5819
889.774	66.7519
893.149	88.3942
896.524	112.675
899.899	131.186
903.274	144.297
906.649	128.384
910.023	95.0795
913.398	58.7292
916.773	28.8393
920.148	15.7269
923.523	3.88013
926.898	1.61334
930.272	1.29584
933.647	0.733704
937.022	10.0458
940.397	22.1058
943.772	36.541
947.146	64.5731
950.521	90.9603
953.896	130.396
957.271	182.691
960.646	221.513
964.02	250.926
967.395	295.62
970.77	344.47
974.145	382.278
977.52	399.791
980.895	384.821
984.269	323.64
987.644	259.541
991.019	206.881
994.394	177.388
997.769	161.329
1001.14	157.965
1004.52	161.555
1007.89	170.988
1011.27	183.301
1014.64	172.737
1018.02	126.119
1021.39	72.473
1024.77	33.5635
1028.14	9.73621
1031.52	2.97144
1034.89	7.30414
1038.27	4.7486
1041.64	3.05798
1045.02	8.02148
1048.39	19.867
1051.77	37.1212
1055.14	60.645
1058.52	82.0424
1061.89	94.462
1065.27	94.3345
1068.64	81.9688
1072.02	67.9616
1075.39	53.1245
1078.76	53.5635
1082.14	65.7417
1085.51	86.5122
1088.89	112.05
1092.26	133.208
1095.64	155.41
1099.01	167.518
1102.39	170.55
1105.76	160.484
1109.14	136.802
1112.51	118.664
1115.89	94.8299
1119.26	70.6114
1122.64	46.4654
1126.01	26.7822
1129.39	14.5601
1132.76	5.67114
1136.14	2.11462
1139.51	0.61676
1142.89	0.950867
1146.26	2.31042
1149.63	5.73505
1153.01	6.93884
1156.38	13.712
1159.76	20.4081
1163.13	31.7898
1166.51	46.2735
1169.88	63.6754
1173.26	80.7184
1176.63	93.6107
1180.01	105.342
1183.38	104.586
1186.76	97.433
1190.13	84.5143
1193.51	59.0706
1196.88	38.4344
1200.26	23.9648
1203.63	14.0394
1207.01	7.49976
1210.38	2.93286
1213.76	1.42365
1217.13	0.103516
1220.51	0.827332
1223.88	1.48999
1227.26	1.55042
1230.63	1.36108
1234.01	0.845093
1237.38	1.67365
1240.76	1.90131
1244.13	2.86261
1247.51	3.44287
1250.88	7.38293
1254.26	8.36957
1257.63	8.54382
1261	8.98596
1264.38	11.0983
1267.75	7.48352
1271.13	8.83826
1274.5	6.08337
1277.88	6.27521
1281.25	4.51025
1284.63	7.91406
1288	4.58173
1291.38	2.90772
1294.75	2.42267
1298.13	3.2196
1301.5	1.53961
