Measurement: Raman, 780 nm, unoriented, Raman Data Processed
Mineral: Jahnsite-(CaMnFe)
Rruff sample: R060310
Ideal chemistry: CaMn^2+^Fe^2+^_2_Fe^3+^_2_(PO_4_)_4_(OH)_2_8H_2_O
Locality: Hagendorf Sud, Hessen, Bavaria, Germany
Source: Michael Scott
Description: Reddish-brown prismatic crystals
Raman shift (cm-1)	intensity
150.422	0
153.315	1.31873
156.207	7.51175
159.1	1.74063
161.993	0.094757
164.885	2.80087
167.778	1.25006
170.671	4.95816
173.563	6.40982
176.456	3.00458
179.349	9.39511
182.242	6.38318
185.134	7.76758
188.027	7.17258
190.92	11.3808
193.812	13.0189
196.705	15.9182
199.598	19.2337
202.49	23.6009
205.383	32.1402
208.276	36.4202
211.168	39.9795
214.061	41.1263
216.954	38.5554
219.847	35.0805
222.739	31.4003
225.632	27.0948
228.525	23.2969
231.417	18.7943
234.31	17.7328
237.203	16.1618
240.095	13.9662
242.988	14.5803
245.881	20.0039
248.774	22.5388
251.666	26.6782
254.559	30.5449
257.452	34.3942
260.344	35.5005
263.237	38.825
266.13	37.6498
269.022	34.1264
271.915	26.9515
274.808	24.0153
277.701	21.9015
280.593	15.8698
283.486	12.8617
286.379	9.99179
289.271	6.97998
292.164	5.46719
295.057	1.84708
297.95	2.44507
300.842	0.455902
303.735	0.844376
306.628	0.836487
309.52	2.16109
312.413	1.12633
315.306	0.582764
318.198	0.587036
321.091	3.51625
323.984	4.48177
326.877	9.13509
329.769	12.7685
332.662	15.8951
335.555	19.6288
338.447	23.0086
341.34	26.2717
344.233	31.7169
347.125	31.8377
350.018	39.0084
352.911	43.37
355.803	41.2379
358.696	40.6591
361.589	35.7525
364.482	30.0447
367.374	22.4063
370.267	19.6255
373.16	13.4371
376.052	9.19208
378.945	4.72508
381.838	1.16824
384.731	3.08133
387.623	2.06305
390.516	0.547714
393.409	1.56531
396.301	1.23381
399.194	0.875122
402.087	3.62457
404.979	9.6722
407.872	14.5107
410.765	18.3572
413.658	20.9849
416.55	30.6433
419.443	31.9263
422.336	34.0418
425.228	38.1586
428.121	40.0398
431.014	39.7715
433.906	39.1368
436.799	37.256
439.692	40.755
442.584	40.8547
445.477	39.0467
448.37	42.9397
451.263	43.8677
454.155	50.7661
457.048	55.7628
459.941	63.6279
462.833	69.9856
465.726	73.1328
468.619	82.063
471.512	84.2661
474.404	90.0263
477.297	88.6037
480.19	88.5375
483.082	89.6639
485.975	87.7421
488.868	84.8808
491.76	81.8317
494.653	77.3294
497.546	70.1101
500.438	62.9509
503.331	57.1007
506.224	47.0979
509.117	36.5382
512.009	23.6753
514.902	17.9754
517.795	6.81331
520.687	3.47655
523.58	1.21954
526.473	3.27281
529.365	3.03442
532.258	1.81741
535.151	1.37505
538.044	7.02174
540.936	10.5288
543.829	14.9575
546.722	18.1191
549.614	23.7895
552.507	26.0959
555.4	26.8587
558.293	27.4511
561.185	33.0235
564.078	30.9968
566.971	33.0117
569.863	36.2275
572.756	36.7621
575.649	35.8067
578.541	33.17
581.434	29.3149
584.327	28.861
587.22	21.8132
590.112	15.1855
593.005	10.4885
595.898	9.60323
598.79	7.51721
601.683	8.42728
604.576	6.50261
607.468	7.68684
610.361	5.93314
613.254	6.26642
616.146	6.62318
619.039	6.34994
621.932	4.51572
624.825	4.81259
627.717	2.08131
630.61	0.628403
633.503	2.33476
636.395	0.848343
639.288	3.81871
642.181	0.074066
645.073	0.641556
647.966	0.680222
650.859	0.852493
653.752	4.19515
656.644	1.74803
659.537	3.76642
662.43	2.35886
665.322	3.66685
668.215	3.20363
671.108	1.1059
674	2.27512
676.893	1.50558
679.786	1.13738
682.679	2.57704
685.571	0.499313
688.464	1.86037
691.357	1.52835
694.249	1.10851
697.142	0.48793
700.035	0.320358
702.928	0.000458
705.82	0.563873
708.713	2.41956
711.606	0.867294
714.498	0.572266
717.391	1.26791
720.284	1.11511
723.176	1.41785
726.069	4.74576
728.962	4.54993
731.855	5.9706
734.747	3.43486
737.64	5.55629
740.533	1.5154
743.425	3.60213
746.318	5.16504
749.211	4.85727
752.103	4.48996
754.996	4.40994
757.889	2.58809
760.782	2.59421
763.674	4.59644
766.567	4.51198
769.46	5.4641
772.352	2.06662
775.245	3.0236
778.138	4.67654
781.03	4.36256
783.923	7.53574
786.816	3.86224
789.708	3.0014
792.601	6.29894
795.494	3.64697
798.387	3.97006
801.279	3.38442
804.172	5.71422
807.065	7.45393
809.957	7.91881
812.85	8.77629
815.743	6.4364
818.635	2.47972
821.528	4.98282
824.421	4.96847
827.314	2.63969
830.206	2.39033
833.099	3.23302
835.992	4.21954
838.884	5.96375
841.777	8.28085
844.67	11.8863
847.562	21.0923
850.455	29.1262
853.348	44.6262
856.241	53.4677
859.133	54.5523
862.026	45.524
864.919	30.2362
867.811	21.0957
870.704	13.6158
873.597	8.2392
876.49	8.21684
879.382	5.08414
882.275	2.87053
885.168	1.66856
888.06	1.29262
890.953	0.252197
893.846	0.663284
896.738	0.560501
899.631	0.8452
902.524	1.64128
905.417	0.856979
908.309	0.105148
911.202	0.573563
914.095	1.04265
916.987	2.64964
919.88	2.73503
922.773	5.42715
925.665	6.91016
928.558	10.2243
931.451	10.2668
934.343	16.5941
937.236	18.9628
940.129	24.0506
943.022	34.9654
945.914	48.4225
948.807	64.1907
951.7	90.3191
954.592	119.879
957.485	165.179
960.378	215.252
963.27	267.502
966.163	325.888
969.056	384.164
971.949	404.911
974.841	367.563
977.734	287.216
980.627	220.053
983.519	173.515
986.412	146.104
989.305	120.949
992.197	101.708
995.09	87.5353
997.983	67.5151
1000.88	54.079
1003.77	39.9543
1006.66	34.7842
1009.55	25.789
1012.45	17.5624
1015.34	14.8728
1018.23	8.70895
1021.12	1.71396
1024.02	1.03218
1026.91	6.59586
1029.8	1.25441
1032.69	1.10634
1035.59	0.000198
1038.48	0.828323
1041.37	0.726929
1044.27	2.50514
1047.16	1.16508
1050.05	1.71648
1052.94	4.50972
1055.84	10.5531
1058.73	17.3505
1061.62	20.2525
1064.52	23.4313
1067.41	19.1716
1070.3	18.4559
1073.19	15.5255
1076.09	13.8381
1078.98	11.8703
1081.87	15.2273
1084.76	14.6011
1087.66	17.4284
1090.55	20.7566
1093.44	20.5802
1096.34	20.3908
1099.23	26.2635
1102.12	24.881
1105.01	24.8358
1107.91	32.4833
1110.8	32.9482
1113.69	29.8046
1116.58	30.1611
1119.48	20.9887
1122.37	16.5225
1125.26	14.1178
1128.15	11.4713
1131.05	8.35391
1133.94	9.946
1136.83	7.45117
1139.72	10.6342
1142.62	11.0216
1145.51	14.5692
1148.4	18.477
1151.3	20.9368
1154.19	20.9726
1157.08	24.3399
1159.97	20.926
1162.87	21.6165
1165.76	17.6487
1168.65	17.2984
1171.55	13.1529
1174.44	7.78856
1177.33	5.98714
1180.22	7.59764
1183.12	2.18091
1186.01	1.70276
1188.9	0.571533
1191.79	1.21449
1194.69	0.536942
1197.58	1.84576
1200.47	1.36472
1203.37	1.24789
1206.26	1.17603
1209.15	2.6584
1212.04	2.43715
1214.93	3.1373
1217.83	5.02141
1220.72	6.37137
1223.61	6.13563
1226.51	8.06477
1229.4	10.887
1232.29	9.41431
1235.18	12.1916
1238.08	11.7256
1240.97	6.48891
1243.86	10.3918
1246.76	8.03557
1249.65	7.29584
1252.54	6.91168
1255.43	3.84935
1258.33	6.01218
1261.22	8.23383
1264.11	5.6993
1267	6.54027
1269.9	6.82231
1272.79	3.08325
1275.68	4.3833
1278.58	2.97868
1281.47	1.82968
1284.36	3.1991
