Measurement: Raman, 532 nm, unoriented, Raman Data Processed
Mineral: Jahnsite-(CaMnFe)
Rruff sample: R060310
Ideal chemistry: CaMn^2+^Fe^2+^_2_Fe^3+^_2_(PO_4_)_4_(OH)_2_8H_2_O
Locality: Hagendorf Sud, Hessen, Bavaria, Germany
Source: Michael Scott
Description: Reddish-brown prismatic crystals
Raman shift (cm-1)	intensity
208.611	0
211.504	2.83878
214.396	6.75055
217.289	6.26495
220.182	3.70514
223.074	6.31461
225.967	5.01334
228.86	5.02011
231.752	1.28027
234.645	5.59763
237.538	5.88754
240.43	10.6229
243.323	6.37219
246.216	11.6493
249.109	14.8215
252.001	20.4063
254.894	25.7391
257.787	31.651
260.679	34.0855
263.572	36.9399
266.465	32.5131
269.358	32.5958
272.25	27.6191
275.143	33.2903
278.036	24.5166
280.928	20.5504
283.821	13.8419
286.714	11.7349
289.606	7.90839
292.499	7.13641
295.392	4.75787
298.284	3.83572
301.177	2.55759
304.07	4.50952
306.963	2.92142
309.855	1.90259
312.748	1.25821
315.641	0.59668
318.533	0.103699
321.426	5.93695
324.319	5.08298
327.212	8.61969
330.104	11.2122
332.997	15.158
335.89	23.6556
338.782	26.5688
341.675	30.4032
344.568	31.8538
347.46	31.8928
350.353	36.1911
353.246	37.5567
356.139	37.4753
359.031	31.7526
361.924	27.1863
364.817	21.3441
367.709	19.5001
370.602	15.5709
373.495	9.21341
376.387	7.00745
379.28	5.05127
382.173	0.084686
385.065	0.6297
387.958	0.649719
390.851	1.09018
393.744	2.59256
396.636	1.42795
399.529	1.87732
402.422	5.13959
405.314	7.59509
408.207	13.0766
411.1	16.0235
413.993	24.3852
416.885	24.2521
419.778	26.6918
422.671	27.5596
425.563	29.0608
428.456	31.1776
431.349	30.7371
434.241	29.4994
437.134	30.3332
440.027	32.6461
442.92	33.8535
445.812	36.1395
448.705	42.2667
451.598	44.1672
454.49	53.2285
457.383	61.0646
460.276	74.0587
463.168	83.5765
466.061	91.577
468.954	101.756
471.846	112.175
474.739	118.518
477.632	123.376
480.525	126.718
483.417	145.094
486.31	137.976
489.203	131.149
492.095	123.572
494.988	115.515
497.881	105.858
500.774	98.1993
503.666	60.2746
506.559	51.2379
509.452	41.7473
512.344	27.9266
515.237	14.9387
518.13	10.9592
521.022	8.00652
523.915	8.31643
526.808	8.81529
529.701	7.02068
532.593	5.1762
535.486	4.08102
538.379	2.73901
541.271	3.0723
544.164	8.38736
547.057	16.2149
549.949	24.0278
552.842	30.0785
555.735	34.375
558.628	37.3289
561.52	40.1479
564.413	41.4456
567.306	48.8121
570.198	49.8813
573.091	50.0177
575.984	48.25
578.876	46.6938
581.769	40.7832
584.662	33.7265
587.554	25.6551
590.447	18.3406
593.34	13.8978
596.232	8.2544
599.125	2.82483
602.018	2.75925
604.911	1.21185
607.803	0.355194
610.696	0.748688
613.589	1.20657
616.481	1.67401
619.374	0.847046
622.267	1.18695
625.159	0.867462
628.052	0.134033
630.945	2.05481
633.838	1.94623
636.73	0.480072
639.623	2.53467
642.516	0.43335
645.408	1.16672
648.301	3.73804
651.194	0.552521
654.087	5.83902
656.979	4.98343
659.872	4.78418
662.765	2.94577
665.657	3.95108
668.55	4.83624
671.443	4.06409
674.335	4.67127
677.228	4.49551
680.121	3.80707
683.014	3.80499
685.906	4.04562
688.799	4.0358
691.692	5.15332
694.584	2.01208
697.477	3.34222
700.37	3.40476
703.263	0.977814
706.155	0.785187
709.048	2.4455
711.941	2.2944
714.833	0.012939
717.726	0.262238
720.619	0.335602
723.511	2.52603
726.404	2.92825
729.297	2.93481
732.189	2.75442
735.082	2.01312
737.975	1.89975
740.868	0.900143
743.76	0.480133
746.653	1.7468
749.546	1.38129
752.438	1.02493
755.331	1.83478
758.224	2.4173
761.116	1.1568
764.009	0.720825
766.902	1.93683
769.795	1.56366
772.687	0.131012
775.58	0.33963
778.473	1.97568
781.365	2.75955
784.258	1.16968
787.151	0.971191
790.043	1.79047
792.936	0.97113
795.829	1.74109
798.722	0.98111
801.614	1.17993
804.507	2.48544
807.4	4.02743
810.292	3.75125
813.185	4.98846
816.078	3.94281
818.971	2.23377
821.863	4.33664
824.756	0.361633
827.649	3.42404
830.541	1.9812
833.434	2.79047
836.327	3.4169
839.219	2.70929
842.112	6.51947
845.005	9.08511
847.898	13.3181
850.79	15.7489
853.683	21.5584
856.576	24.0645
859.468	21.5365
862.361	18.6745
865.254	11.0609
868.146	7.59735
871.039	4.40814
873.932	4.18399
876.824	2.67139
879.717	0.971924
882.61	0.782928
885.503	0.023987
888.395	1.34412
891.288	1.01154
894.181	0.462463
897.073	1.2359
899.966	0.340454
902.859	1.04889
905.751	0.261932
908.644	1.76904
911.537	1.62485
914.43	2.43686
917.322	2.86978
920.215	3.93561
923.108	3.28995
926	7.77524
928.893	8.37854
931.786	11.0776
934.678	15.6102
937.571	19.6254
940.464	25.8662
943.357	35.5419
946.249	49.6314
949.142	70.5483
952.035	93.6231
954.927	128.579
957.82	170.463
960.713	221.574
963.606	278.455
966.498	344.588
969.391	397.735
972.284	411.312
975.176	365.285
978.069	291.687
980.962	222.269
983.854	175.48
986.747	144.709
989.64	121.489
992.533	98.8906
995.425	80.6034
998.318	62.7316
1001.21	47.5835
1004.1	35.1102
1007	28.9675
1009.89	20.2082
1012.78	18.352
1015.67	12.311
1018.57	4.54343
1021.46	3.23965
1024.35	0.385468
1027.24	1.61706
1030.14	3.12985
1033.03	1.673
1035.92	0.073486
1038.82	0.238495
1041.71	0.410706
1044.6	0.848389
1047.49	2.3902
1050.39	6.11017
1053.28	9.72772
1056.17	15.7793
1059.07	19.6722
1061.96	21.1219
1064.85	24.2982
1067.74	23.1873
1070.63	26.0324
1073.53	28.6319
1076.42	31.9052
1079.31	37.8782
1082.21	41.9643
1085.1	44.1977
1087.99	44.9943
1090.88	45.9244
1093.78	49.1929
1096.67	47.5088
1099.56	49.3006
1102.45	49.7169
1105.35	46.021
1108.24	48.2565
1111.13	49.4788
1114.03	45.7305
1116.92	41.4301
1119.81	38.9259
1122.7	34.6062
1125.6	32.6976
1128.49	30.7553
1131.38	28.686
1134.28	33.2054
1137.17	34.6124
1140.06	36.3698
1142.95	39.1213
1145.85	42.2888
1148.74	45.139
1151.63	42.6246
1154.52	45.8077
1157.42	46.6077
1160.31	45.5449
1163.2	43.6929
1166.09	39.6149
1168.99	32.469
1171.88	24.5282
1174.77	17.6559
1177.66	13.6097
1180.56	9.12265
1183.45	2.9729
1186.34	3.57809
1189.24	0.242828
1192.13	0.918335
1195.02	0.691345
1197.91	1.42886
1200.81	2.25168
1203.7	0.076569
1206.59	0.163696
1209.48	2.30881
1212.38	0.387421
1215.27	0.198486
1218.16	1.23602
1221.06	0.343964
1223.95	3.66843
1226.84	3.86865
1229.73	3.34656
1232.63	1.30731
1235.52	2.55783
1238.41	4.67545
1241.31	4.3948
1244.2	5.60611
1247.09	6.37357
1249.98	8.96103
1252.88	4.5737
1255.77	7.33521
1258.66	6.60525
1261.55	6.33157
1264.45	5.70813
1267.34	5.27429
1270.23	3.77133
1273.12	5.00571
1276.02	3.12723
1278.91	4.55511
1281.8	4.40869
1284.69	3.2554
1287.59	3.58106
1290.48	0.388672
1293.37	2.89529
1296.27	3.26468
1299.16	0.041748
1302.05	0.450867
