Measurement: Raman, 780 nm, unoriented, Raman Data Processed
Mineral: Jahnsite-(CaMnMn)
Rruff sample: R080072
Ideal chemistry: CaMn^2+^Mn^2+^_2_Fe^3+^_2_(PO_4_)_4_(OH)_2_8H_2_O
Locality: Tip Top mine, Custer Country, South Dakota, USA
Source: Tom Loomis
Description: Pale yellow blocky to thick tabular crystals associated with scholzite, R080068
Raman shift (cm-1)	intensity
140.735	0
143.628	1.03235
146.52	1.75217
149.413	0.292969
152.306	0.431641
155.199	2.71234
158.091	1.33084
160.984	1.40826
163.877	2.19699
166.769	2.99835
169.662	3.12576
172.555	1.0557
175.447	4.13773
178.34	5.36255
181.233	6.11646
184.126	4.34875
187.018	2.96921
189.911	0.070801
192.804	1.89343
195.696	0.199646
198.589	1.5668
201.482	5.57233
204.375	7.14432
207.267	8.99023
210.16	6.31775
213.053	2.85483
215.945	2.06918
218.838	0.096741
221.731	0.441895
224.623	3.01981
227.516	2.38031
230.409	3.88321
233.302	2.69522
236.194	3.298
239.087	1.96408
241.98	3.85922
244.872	6.66614
247.765	10.0453
250.658	16.5362
253.55	22.4059
256.443	31.7515
259.336	39.0422
262.228	51.7104
265.121	62.6599
268.014	73.4192
270.907	82.2235
273.799	84.139
276.692	77.4314
279.585	65.0595
282.477	50.2734
285.37	38.6167
288.263	29.5367
291.156	21.1704
294.048	18.588
296.941	14.9023
299.834	15.1713
302.726	12.5957
305.619	11.1816
308.512	11.4755
311.404	9.65552
314.297	7.89233
317.19	6.50931
320.082	8.70261
322.975	10.9801
325.868	15.4894
328.761	20.0574
331.653	25.8293
334.546	28.7392
337.439	34.3165
340.331	33.1629
343.224	31.1537
346.117	28.9503
349.01	23.1299
351.902	17.9883
354.795	13.5369
357.688	10.253
360.58	7.55763
363.473	6.16022
366.366	4.37181
369.258	2.09454
372.151	1.89052
375.044	0.645569
377.937	1.3273
380.829	2.42047
383.722	1.99075
386.615	1.70998
389.507	0.628708
392.4	0.238541
395.293	2.31659
398.185	6.30946
401.078	7.45812
403.971	9.78458
406.863	12.8358
409.756	16.1176
412.649	18.5967
415.542	21.4204
418.434	23.76
421.327	26.675
424.22	29.0696
427.112	31.557
430.005	36.2351
432.898	40.9412
435.791	44.2309
438.683	49.7487
441.576	47.6432
444.469	46.6295
447.361	45.9459
450.254	49.6587
453.147	51.9414
456.039	51.4654
458.932	52.4807
461.825	49.8647
464.717	46.3754
467.61	43.0399
470.503	39.7823
473.396	37.2481
476.288	36.4697
479.181	35.0018
482.074	35.7004
484.966	34.4778
487.859	34.8491
490.752	32.2294
493.644	30.2405
496.537	26.062
499.43	24.3669
502.323	19.3641
505.215	16.85
508.108	12.9192
511.001	9.71402
513.893	5.31885
516.786	2.61452
519.679	1.83276
522.572	0.037369
525.464	1.63515
528.357	1.25183
531.25	0.499924
534.142	0.79689
537.035	1.37604
539.928	4.42007
542.82	8.4626
545.713	12.8405
548.606	16.7037
551.499	19.0916
554.391	23.0557
557.284	25.8399
560.177	24.4625
563.069	22.9222
565.962	23.225
568.855	18.8961
571.747	17.3986
574.64	13.8041
577.533	11.4386
580.426	9.50197
583.318	6.30046
586.211	5.10048
589.104	3.82564
591.996	2.17152
594.889	0.145065
597.782	0.380173
600.674	0.113647
603.567	0.222427
606.46	0.914108
609.352	0.424896
612.245	0.130615
615.138	0.221741
618.03	1.14346
620.923	0.725388
623.816	1.50227
626.709	0.685059
629.601	0.571152
632.494	0.229065
635.387	0.520538
638.279	1.83522
641.172	2.65901
644.065	3.05193
646.957	4.20819
649.85	6.52591
652.743	8.62152
655.636	9.89034
658.528	12.4089
661.421	13.8849
664.314	16.0264
667.206	16.558
670.099	17.2445
672.992	15.2812
675.885	13.851
678.777	11.8445
681.67	9.1396
684.563	7.40102
687.455	3.79205
690.348	4.61163
693.241	2.27913
696.133	1.94833
699.026	1.71841
701.919	1.31004
704.812	1.36401
707.704	1.27188
710.597	1.3322
713.49	0.830124
716.382	0.964172
719.275	0.274902
722.168	0.506012
725.06	0.235214
727.953	0.728745
730.846	0.646667
733.739	0.47464
736.631	0.781113
739.524	0.165878
742.417	0.325714
745.309	0.33667
748.202	1.36414
751.095	1.6149
753.987	0.217072
756.88	0.827866
759.773	1.37744
762.665	0.878784
765.558	0.571243
768.451	1.40763
771.344	1.02843
774.236	0.963669
777.129	0.306969
780.022	1.20692
782.914	0.429688
785.807	1.65348
788.7	1.60331
791.592	0.957146
794.485	1.78301
797.378	2.85132
800.271	1.55135
803.163	2.91794
806.056	1.91406
808.949	2.42747
811.841	3.37426
814.734	3.47875
817.627	2.61477
820.519	3.35479
823.412	2.33271
826.305	0.735435
829.198	1.11095
832.09	0.889534
834.983	1.79707
837.876	0.262962
840.768	0.083191
843.661	0.379433
846.554	0.232895
849.447	0.064384
852.339	0.152313
855.232	0.687744
858.125	0.14608
861.017	0.063683
863.91	0.496948
866.803	0.522423
869.695	1.14064
872.588	0.062332
875.481	0.956223
878.374	1.50954
881.266	1.98577
884.159	3.36139
887.052	5.1317
889.944	6.67416
892.837	8.6453
895.73	9.8494
898.622	11.7411
901.515	12.3714
904.408	14.0579
907.301	11.6915
910.193	9.00239
913.086	5.65017
915.979	2.99973
918.871	2.0625
921.764	0.855148
924.657	0.055145
927.549	0.002762
930.442	0.074997
933.335	1.12376
936.227	3.22887
939.12	3.57261
942.013	7.04049
944.906	11.5758
947.798	15.4698
950.691	22.1503
953.584	29.9177
956.476	39.1345
959.369	47.1433
962.262	53.1596
965.154	59.027
968.047	66.4568
970.94	74.0593
973.833	80.2072
976.725	84.8347
979.618	84.2512
982.511	73.5896
985.403	61.9023
988.296	49.1492
991.189	40.9081
994.082	35.5138
996.974	30.8395
999.867	29.6801
1002.76	27.7275
1005.65	27.2193
1008.54	26.6513
1011.44	26.4507
1014.33	24.8919
1017.22	18.1266
1020.12	11.281
1023.01	6.68761
1025.9	1.97157
1028.79	0.449348
1031.69	0.856567
1034.58	1.71028
1037.47	0.900307
1040.37	0.18293
1043.26	1.18572
1046.15	2.55061
1049.04	3.21422
1051.94	8.30566
1054.83	10.1207
1057.72	14.0501
1060.61	14.7253
1063.51	15.5413
1066.4	14.6615
1069.29	13.2568
1072.18	10.6694
1075.08	8.42261
1077.97	8.81196
1080.86	9.9064
1083.76	11.8866
1086.65	15.9588
1089.54	16.3904
1092.43	19.9748
1095.33	21.4221
1098.22	22.8539
1101.11	22.9284
1104	20.2047
1106.9	19.8591
1109.79	16.7212
1112.68	14.4839
1115.58	11.4023
1118.47	8.64513
1121.36	6.26814
1124.25	3.58229
1127.15	1.38851
1130.04	1.8501
1132.93	0.123459
1135.82	0.406532
1138.72	0.322548
1141.61	0.156693
1144.5	0.377647
1147.39	1.44451
1150.29	2.58336
1153.18	4.16592
1156.07	4.37588
1158.96	7.01737
1161.86	8.58895
1164.75	11.0372
1167.64	13.3332
1170.54	16.8686
1173.43	19.1786
1176.32	21.4937
1179.21	23.7535
1182.11	24.8029
1185	23.891
1187.89	21.4692
1190.79	17.8614
1193.68	12.969
1196.57	9.07387
1199.46	6.76165
1202.36	4.84675
1205.25	3.40169
1208.14	2.43796
1211.03	1.40721
1213.93	1.17233
1216.82	0.071907
1219.71	0.378998
1222.61	0.337929
1225.5	0.492393
1228.39	0.396713
1231.28	0.245422
1234.18	0.65406
1237.07	0.536026
1239.96	0.657806
1242.85	1.28532
1245.75	0.836418
1248.64	1.33439
1251.53	1.42902
1254.42	2.38774
1257.32	2.16098
1260.21	1.35301
1263.1	0.9235
1265.99	0.990601
1268.89	1.41759
1271.78	0.590019
1274.67	0.706017
1277.57	0.397064
1280.46	0.706154
1283.35	1.41071
1286.24	0
