Measurement: Raman, 780 nm, unoriented, Raman Data Processed
Mineral: Jahnsite-(CaMnMg)
Rruff sample: R060213
Ideal chemistry: CaMn^2+^Mg_2_Fe^3+^_2_(PO_4_)_4_(OH)_2_8H_2_O
Locality: Tip Top mine, Custer County, South Dakota, USA
Source: Marcus Origlieri
Description: Brown tabular crystals associated with black prismatic rockbridgeite, R060858
Raman shift (cm-1)	intensity
91.8272	0
95.202	9.38828
98.5768	8.91605
101.952	5.07446
105.326	20.5391
108.701	13.1984
112.076	6.58221
115.451	1.55325
118.826	2.19742
122.201	0.856018
125.575	0.76709
128.95	7.16965
132.325	7.89078
135.7	9.854
139.075	25.2451
142.449	15.5855
145.824	23.7539
149.199	25.5216
152.574	23.2876
155.949	13.7276
159.323	21.2806
162.698	21.881
166.073	17.4324
169.448	21.0435
172.823	25.137
176.198	29.5229
179.572	26.5099
182.947	20.541
186.322	28.7489
189.697	29.7629
193.072	39.2301
196.446	54.8898
199.821	57.4586
203.196	69.5793
206.571	64.5277
209.946	58.647
213.321	48.5662
216.695	42.8098
220.07	36.4915
223.445	23.3716
226.82	27.1081
230.195	28.0586
233.569	17.934
236.944	28.5884
240.319	33.1602
243.694	32.7293
247.069	45.0542
250.444	53.2561
253.818	63.0022
257.193	60.8237
260.568	56.777
263.943	48.4244
267.318	48.7343
270.692	44.5774
274.067	34.4607
277.442	19.5102
280.817	15.1285
284.192	7.4346
287.567	4.07754
290.941	1.51453
294.316	2.76251
297.691	2.84228
301.066	0.847122
304.441	0.723175
307.815	8.98987
311.19	3.66095
314.565	0.217316
317.94	3.57017
321.315	10.4835
324.69	15.6062
328.064	26.2645
331.439	29.5631
334.814	29.5747
338.189	36.4225
341.564	32.0178
344.938	24.3552
348.313	22.0087
351.688	21.2879
355.063	15.9859
358.438	9.48306
361.812	4.94112
365.187	10.8079
368.562	2.27103
371.937	0.333832
375.312	2.62345
378.687	0.761276
382.061	6.31759
385.436	1.17552
388.811	0.128983
392.186	9.33399
395.561	11.0491
398.935	19.9862
402.31	24.4599
405.685	30.9169
409.06	39.1696
412.435	48.2043
415.81	40.7477
419.184	48.0786
422.559	46.8245
425.934	51.2365
429.309	44.7288
432.684	44.3704
436.058	37.3936
439.433	38.3459
442.808	47.3525
446.183	56.7492
449.558	67.0078
452.933	84.0854
456.307	108.509
459.682	120.163
463.057	151.871
466.432	163.13
469.807	175.995
473.181	194.102
476.556	205.294
479.931	197.403
483.306	183.558
486.681	167.963
490.055	138.412
493.43	114.156
496.805	92.4692
500.18	66.7594
503.555	44.0865
506.93	37.5534
510.304	12.7148
513.679	8.56212
517.054	0.485946
520.429	2.13089
523.804	0.464233
527.178	4.52884
530.553	0.272552
533.928	10.8111
537.303	15.1012
540.678	19.153
544.053	37.5641
547.427	39.6347
550.802	49.9632
554.177	49.3829
557.552	51.3856
560.927	48.4323
564.302	41.165
567.676	43.1522
571.051	31.1075
574.426	31.1404
577.801	29.2542
581.176	12.4404
584.55	10.736
587.925	3.95942
591.3	5.02044
594.675	5.51591
598.05	0.012657
601.424	2.59722
604.799	0.984749
608.174	0.429237
611.549	0.638016
614.924	4.58759
618.298	2.79139
621.673	6.33247
625.048	0.652107
628.423	7.04459
631.798	5.16791
635.173	10.792
638.547	5.04244
641.922	6.48332
645.297	9.95026
648.672	6.70493
652.047	4.81057
655.422	3.30897
658.796	2.08535
662.171	3.61233
665.546	4.18264
668.921	2.73186
672.296	5.72475
675.67	1.08348
679.045	7.53809
682.42	8.39814
685.795	10.7123
689.17	2.6859
692.544	12.6441
695.919	5.64861
699.294	7.10886
702.669	2.53642
706.044	7.1008
709.419	1.10521
712.793	9.32751
716.168	11.5827
719.543	2.81553
722.918	3.09626
726.293	0.578854
729.668	3.35896
733.042	4.74143
736.417	3.685
739.792	6.68385
743.167	4.6127
746.542	6.74903
749.916	7.7304
753.291	7.28073
756.666	5.19653
760.041	4.27631
763.416	7.88496
766.79	0.350819
770.165	0.408703
773.54	5.41875
776.915	2.5309
780.29	0.827293
783.665	3.67416
787.039	3.33654
790.414	0.765152
793.789	2.83131
797.164	1.37674
800.539	7.26337
803.913	3.73206
807.288	11.8537
810.663	6.95238
814.038	3.53301
817.413	10.4184
820.788	4.12638
824.162	6.49501
827.537	10.7529
830.912	2.01882
834.287	4.06678
837.662	7.10555
841.036	9.2803
844.411	7.15399
847.786	8.76317
851.161	8.36008
854.536	3.88965
857.91	3.81544
861.285	7.24543
864.66	2.26343
868.035	0.943501
871.41	1.99819
874.784	1.03291
878.159	1.13139
881.534	0.693707
884.909	0.043831
888.284	1.58413
891.659	3.74636
895.033	0.560196
898.408	0.609486
901.783	0.327179
905.158	5.79516
908.533	2.70907
911.908	4.82916
915.282	6.32086
918.657	12.2211
922.032	8.68803
925.407	8.79975
928.782	14.0299
932.156	14.6715
935.531	22.6133
938.906	30.2884
942.281	43.4724
945.656	63.2649
949.03	85.5105
952.405	126.836
955.78	175.85
959.155	239.973
962.53	304.484
965.905	356.899
969.279	403.022
972.654	388.158
976.029	326.312
979.404	253.918
982.779	212.562
986.154	186.397
989.528	149.063
992.903	105.581
996.278	70.8474
999.653	47.9896
1003.03	29.7001
1006.4	16.8738
1009.78	13.6425
1013.15	8.50046
1016.53	3.35618
1019.9	1.84061
1023.28	0.374489
1026.65	4.18428
1030.03	2.71437
1033.4	3.28441
1036.78	1.61817
1040.15	7.66027
1043.53	8.55724
1046.9	17.3405
1050.28	29.3243
1053.65	41.8441
1057.03	52.7532
1060.4	60.7468
1063.77	59.4459
1067.15	66.1104
1070.52	68.8275
1073.9	67.2615
1077.27	72.1243
1080.65	78.4516
1084.02	75.5793
1087.4	67.1754
1090.77	56.0343
1094.15	43.7587
1097.52	40.3686
1100.9	33.4886
1104.27	26.6292
1107.65	26.6712
1111.02	17.3546
1114.4	12.5503
1117.77	10.8858
1121.15	10.5632
1124.52	2.129
1127.9	4.14822
1131.27	5.02004
1134.64	5.48295
1138.02	7.56213
1141.39	6.87486
1144.77	0.498196
1148.14	14.723
1151.52	21.7695
1154.89	27.2947
1158.27	29.995
1161.64	37.4314
1165.02	40.0375
1168.39	41.0999
1171.77	36.8421
1175.14	28.2045
1178.52	29.4581
1181.89	15.1359
1185.27	15.1242
1188.64	7.78271
1192.02	10.5578
1195.39	7.05518
1198.77	2.12421
1202.14	6.29353
1205.52	3.26023
1208.89	2.29705
1212.27	3.45024
1215.64	1.24104
1219.02	2.78803
1222.39	3.57492
1225.77	9.29279
1229.14	3.39696
1232.52	7.61694
1235.89	2.41517
1239.27	7.05164
1242.64	8.76434
1246.01	6.92976
1249.39	10.6474
1252.76	0.891541
1256.14	5.39176
1259.51	5.87964
1262.89	2.81558
1266.26	0.796597
1269.64	7.36496
1273.01	1.64182
1276.39	3.48813
1279.76	0.413368
1283.14	3.74926
