Measurement: Raman, 532 nm, unoriented, Raman Data Processed
Mineral: Jamborite
Rruff sample: R070619
Ideal chemistry: Ni(OH,S,O)_2_nH_2_O
Locality: Eugenia mine, Bellmunt del Priorat, Tarragona, Catalonia, Spain
Source: Joan Abella i Creus
Description: Spinach-green radiating aggregates, associated with dolomite. Sample appears to be amorphous.
Raman shift (cm-1)	intensity
144.735	0
147.627	69.6493
150.52	25.2076
153.413	31.3365
156.305	11.0931
159.198	57.9573
162.091	57.6631
164.984	63.2605
167.876	15.5547
170.769	93.3618
173.662	64.858
176.554	21.6602
179.447	57.7795
182.34	66.9066
185.232	94.8982
188.125	68.3425
191.018	34.5048
193.911	31.1096
196.803	36.3119
199.696	23.7881
202.589	48.306
205.481	43.7778
208.374	34.2947
211.267	3.07996
214.159	41.3596
217.052	40.3917
219.945	17.0938
222.838	21.7531
225.73	14.0063
228.623	31.0685
231.516	82.6471
234.408	68.0337
237.301	77.6315
240.194	65.1796
243.086	70.3419
245.979	66.343
248.872	24.4415
251.764	116.936
254.657	32.5529
257.55	44.6656
260.443	36.3014
263.335	68.954
266.228	46.8683
269.121	44.9085
272.013	68.8718
274.906	33.2749
277.799	24.0576
280.692	111.504
283.584	131.319
286.477	134.091
289.37	164.783
292.262	247.238
295.155	241.258
298.048	294.799
300.94	204.988
303.833	303.54
306.726	294.919
309.618	310.868
312.511	303.312
315.404	323.752
318.296	292.376
321.189	318.983
324.082	372.416
326.975	319.809
329.867	334.434
332.76	333.434
335.653	358.06
338.545	252.504
341.438	276.01
344.331	322.06
347.224	243.987
350.116	261.686
353.009	185.667
355.902	214.316
358.794	157.452
361.687	114.462
364.58	112.918
367.472	118.719
370.365	83.8925
373.258	25.9727
376.151	18.137
379.043	34.4983
381.936	37.7948
384.829	0.103516
387.721	67.3922
390.614	28.8518
393.507	44.2629
396.399	5.25427
399.292	42.9269
402.185	3.64502
405.077	36.9759
407.97	45.4907
410.863	29.6475
413.756	93.4338
416.648	164.012
419.541	184.71
422.434	267.422
425.326	384.75
428.219	432.464
431.112	595.698
434.004	697.193
436.897	796.444
439.79	946.035
442.683	1103.76
445.575	1196.56
448.468	1287.28
451.361	1363.7
454.253	1398.78
457.146	1354.46
460.039	1356.68
462.931	1273.95
465.824	1261.01
468.717	1093.55
471.61	928.496
474.502	870.925
477.395	760.871
480.288	641.29
483.18	554.743
486.073	521.368
488.966	575.918
491.858	663.02
494.751	985.385
497.644	1368.43
500.536	1890.01
503.429	2544.34
506.322	3429.38
509.215	4274.02
512.107	5263.68
515	6167.92
517.893	6828.56
520.785	7078.34
523.678	7251.27
526.571	7044.45
529.463	6507.84
532.356	5851.53
535.249	5124.08
538.141	4494.67
541.034	3755.87
543.927	3157.08
546.82	2592.91
549.712	2134.22
552.605	1734.31
555.498	1317.51
558.39	997.143
561.283	713.79
564.176	479.276
567.068	338.44
569.961	201.486
572.854	83.5297
575.747	12.1299
578.639	22.17
581.532	96.8398
584.425	63.5652
587.317	51.1766
590.21	9.57214
593.103	26.3102
595.995	28.0867
598.888	37.5832
601.781	53.5306
604.674	10.0409
607.566	87.0081
610.459	80.9428
613.352	132.04
616.244	170.475
619.137	158.528
622.03	200.968
624.923	175.777
627.815	189.149
630.708	221.071
633.601	237.8
636.493	240.443
639.386	230.251
642.279	200.205
645.171	137.626
648.064	176.532
650.957	122.618
653.849	144.17
656.742	137.167
659.635	121.936
662.528	88.0985
665.42	108.609
668.313	120.51
671.206	101.091
674.098	68.4086
676.991	142.583
679.884	36.9738
682.776	95.4591
685.669	83.6627
688.562	56.956
691.455	93.1043
694.347	60.805
697.24	63.2819
700.133	105.321
703.025	29.4518
705.918	88.348
708.811	91.2814
711.703	57.3817
714.596	46.3779
717.489	48.5072
720.381	52.0722
723.274	104.797
726.167	24.9855
729.06	61.3763
731.952	71.2677
734.845	57.1189
737.738	60.9373
740.63	46.3196
743.523	31.2452
746.416	53.8466
749.308	20.6668
752.201	23.2187
755.094	31.7523
757.987	14.0905
760.879	27.5844
763.772	25.2873
766.665	32.2208
769.557	15.5381
772.45	40.5985
775.343	6.83466
778.235	6.83514
781.128	26.4735
784.021	34.3477
786.913	52.5274
789.806	45.1212
792.699	63.7802
795.592	54.892
798.484	41.6116
801.377	24.8757
804.27	29.937
807.162	41.3788
810.055	50.8179
812.948	64.6274
815.841	63.7136
818.733	61.4736
821.626	31.8894
824.519	31.313
827.411	55.6851
830.304	47.5461
833.197	45.033
836.089	30.023
838.982	14.3401
841.875	32.0726
844.768	40.4133
847.66	48.6056
850.553	9.70892
853.446	30.3839
856.338	24.1635
859.231	33.2988
862.124	24.9951
865.016	17.5234
867.909	21.624
870.802	13.1705
873.694	17.0287
876.587	34.834
879.48	72.957
882.373	27.6432
885.265	65.7966
888.158	27.7053
891.051	80.6228
893.943	5.60809
896.836	38.6842
899.729	53.7801
902.621	23.8251
905.514	8.79541
908.407	39.5325
911.299	61.7438
914.192	50.6878
917.085	6.62219
919.978	44.0405
922.87	13.2747
925.763	13.9886
928.656	12.9395
931.548	33.8853
934.441	18.6588
937.334	3.59943
940.226	35.2918
943.119	41.3239
946.012	48.306
948.905	44.3188
951.797	78.3794
954.69	73.0095
957.583	112.007
960.475	126.332
963.368	142.777
966.261	165.24
969.153	229.869
972.046	184.353
974.939	259.175
977.832	257.498
980.724	211.493
983.617	205.42
986.51	193.872
989.402	177.885
992.295	162.928
995.188	171.493
998.08	125.958
1000.97	119.812
1003.87	112.696
1006.76	136.024
1009.65	163.063
1012.54	136.411
1015.44	210.167
1018.33	208.327
1021.22	257.268
1024.12	261.172
1027.01	219.04
1029.9	198.839
1032.79	165.155
1035.69	107.489
1038.58	69.7561
1041.47	62.6417
1044.36	81.0394
1047.26	51.1481
1050.15	42.0046
1053.04	73.8652
1055.93	59.9104
1058.83	43.0673
1061.72	42.9839
1064.61	72.5599
1067.51	61.9059
1070.4	34.9349
1073.29	31.1423
1076.18	18.395
1079.08	51.1407
1081.97	43.8873
1084.86	30.2706
1087.75	78.7021
1090.65	89.9883
1093.54	40.7236
1096.43	56.7473
1099.33	3.54108
1102.22	15.2208
1105.11	6.6051
1108	6.25714
1110.9	2.03082
1113.79	13.6649
1116.68	12.0724
1119.57	0.132813
1122.47	2.34467
1125.36	41.6318
1128.25	38.6297
1131.14	33.2095
1134.04	27.7556
1136.93	53.4765
1139.82	20.523
1142.71	4.49383
1145.61	61.1617
1148.5	42.8705
1151.39	57.4578
1154.29	34.3263
1157.18	37.7073
1160.07	41.5799
1162.96	60.9168
1165.86	6.56476
1168.75	63.1811
1171.64	32.6653
1174.54	25.1913
1177.43	44.0377
1180.32	83.9791
1183.21	45.5175
1186.11	57.0594
1189	65.2188
1191.89	61.7402
1194.78	48.1748
1197.68	91.8988
1200.57	74.2817
1203.46	30.7526
1206.36	19.6033
1209.25	31.1007
1212.14	66.5139
1215.03	76.5414
1217.92	59.5132
1220.82	54.6947
1223.71	21.6981
1226.6	20.0418
1229.5	52.8353
1232.39	31.5269
1235.28	27.0753
1238.17	7.29767
1241.07	23.3518
1243.96	42.7181
1246.85	31.9756
1249.74	16.6017
1252.64	6.32849
1255.53	61.0723
1258.42	34.272
1261.32	54.9303
1264.21	38.1103
1267.1	29.2197
1269.99	26.9616
1272.89	14.3781
1275.78	36.0031
1278.67	75.3933
1281.57	3.38837
1284.46	18.3119
1287.35	22.1778
1290.24	0.47583
