Measurement: Raman, 532 nm, unoriented, Raman Data Processed
Mineral: Jamesonite
Rruff sample: R050481
Ideal chemistry: Pb_4_FeSb_6_S_14_
Locality: Itos mine, Oruro City, Bolivia
Source: California Institute of Technology
Description: A group of gray-black thickly acicular crystals
Measured chemistry: Pb_4.00_Fe_1.00_(Sb_5.97_As_0.03_)_Î£=6_S_14.00_
Raman shift (cm-1)	intensity
105.131	0
108.506	854.518
111.881	4668.65
115.256	6635.5
118.63	6700.22
122.005	8448.47
125.38	11510
128.755	13028.8
132.13	12017.4
135.504	9435.99
138.879	6769.52
142.254	4556.69
145.629	3215.1
149.004	2213.11
152.378	1471.07
155.753	699.339
159.128	565.652
162.503	420.142
165.878	171.318
169.253	28.475
172.627	168.257
176.002	240.266
179.377	167.212
182.752	39.861
186.127	216.305
189.501	521.487
192.876	978.565
196.251	1928.3
199.626	4448.03
203.001	7835.15
206.376	5874.1
209.75	2531.13
213.125	1215.27
216.5	491.068
219.875	132.048
223.25	292.498
226.624	15.291
229.999	86.944
233.374	48.388
236.749	58.011
240.124	62.156
243.499	266.468
246.873	618.97
250.248	790.731
253.623	854.441
256.998	994.329
260.373	1391.33
263.747	1686.08
267.122	1949.54
270.497	2162.32
273.872	2489.79
277.247	3012.19
280.621	3362.79
283.996	3724.87
287.371	3804.85
290.746	3518.47
294.121	3570.21
297.496	4082.49
300.87	5557.2
304.245	6720.15
307.62	5285.93
310.995	3324.15
314.37	2521.4
317.744	1961.18
321.119	1760.14
324.494	1489.44
327.869	1374.13
331.244	1154.49
334.618	912.069
337.993	767.491
341.368	659.484
344.743	421.996
348.118	430.042
351.493	394.96
354.867	340.084
358.242	269.755
361.617	281.496
364.992	103.939
368.367	65.958
371.741	124.931
375.116	109.188
378.491	159.633
381.866	37.378
385.241	49.801
388.616	6.246
391.99	29.076
395.365	6.818
398.74	92.045
402.115	186.082
405.49	45.755
408.864	47.063
412.239	119.736
415.614	281.389
418.989	439.635
422.364	664.716
425.738	917.396
429.113	1171.23
432.488	1404.03
435.863	1591.96
439.238	1707.48
442.612	1809.43
445.987	1919.52
449.362	1671.38
452.737	1697.76
456.112	1584.81
459.487	1593.9
462.862	1408.68
466.236	1427.82
469.611	1386.66
472.986	1517.96
476.361	1627.57
479.736	1863.24
483.11	1829.35
486.485	2085.78
489.86	2348.99
493.235	2665.56
496.61	2701.26
499.984	2775.28
503.359	3029.41
506.734	2939.58
510.109	2694.86
513.484	2238.88
516.859	1772.21
520.233	1384.74
523.608	975.006
526.983	671.605
530.358	378.431
533.732	228.68
537.107	93.372
540.482	28.092
543.857	60.518
547.232	79.491
550.607	96.851
553.981	38.635
557.356	72.843
560.731	60.763
564.106	20.054
567.481	130.37
570.856	195.35
574.23	371.964
577.605	410.387
580.98	650.902
584.355	818.988
587.73	1078.15
591.104	1276.22
594.479	1559.87
597.854	1797.92
601.229	2174.28
604.604	2489.74
607.979	2777.95
611.353	3490.63
614.728	4112.55
618.103	5032.45
621.478	6168.39
624.852	7800.46
628.227	9869.25
631.602	13227.4
634.977	17853
638.352	23912.4
641.727	29131.8
645.101	29232.6
648.476	23572.6
651.851	17188.1
655.226	12114.2
658.601	8443.45
661.976	5880.12
665.35	3975.42
668.725	2822.19
672.1	1970.07
675.475	1382.12
678.849	869.989
682.224	645.502
685.599	463.873
688.974	361.847
692.349	270.449
695.724	125.084
699.098	69.368
702.473	49.866
705.848	52.435
709.223	42.247
712.598	22.017
715.972	18.473
719.347	108.491
722.722	84.732
726.097	31.096
729.472	38.792
732.847	75.86
736.221	5.996
739.596	149.538
742.971	19.816
746.346	10.8
749.721	1.937
753.096	14.388
756.47	16.276
759.845	24.463
763.22	64.851
766.595	121.324
769.969	143.22
773.344	120.349
776.719	95.067
780.094	124.716
783.469	170.583
786.844	174.14
790.218	177.548
793.593	158.899
796.968	167.338
800.343	143.047
803.718	173.541
807.093	72.07
810.467	160.918
813.842	62.857
817.217	80.681
820.592	136.271
823.967	149.896
827.341	108.878
830.716	227.656
834.091	109.812
837.466	193.141
840.841	190.187
844.216	75.629
847.59	180.716
850.965	123.697
854.34	120.605
857.715	77.59
861.089	162.527
864.464	114.47
867.839	157.152
871.214	50.283
874.589	72.564
877.964	82.327
881.338	107.314
884.713	115.674
888.088	94.675
891.463	69.393
894.838	41.551
898.213	15.96
901.587	0.562
904.962	20.473
908.337	31.616
911.712	22.299
915.087	14.357
918.461	50.584
921.836	85.269
925.211	133.749
928.586	124.666
931.961	23.773
935.336	152.479
938.71	291.09
942.085	313.251
945.46	324.16
948.835	449.778
952.209	593.375
955.584	686.5
958.959	878.463
962.334	935.162
965.709	817.209
969.084	693.221
972.458	475.602
975.833	406.17
979.208	313.784
982.583	267.211
985.958	68.503
989.333	117.833
992.707	103.861
996.082	118.081
999.457	123.934
1002.83	68.083
1006.21	53.211
1009.58	78.806
1012.96	39.333
1016.33	56.553
1019.71	76.337
1023.08	11.867
1026.45	63.657
1029.83	12.7
1033.2	47.721
1036.58	76.509
1039.95	64.42
1043.33	49.27
1046.7	85.875
1050.08	32.665
1053.45	69.745
1056.83	90.18
1060.2	93.495
1063.58	73.459
1066.95	0.488
1070.33	49.633
1073.7	56.7
1077.08	90.946
1080.45	27.654
1083.83	91.2
1087.2	107.029
1090.58	38.924
1093.95	153.002
1097.33	48.902
1100.7	98.703
1104.08	121.263
1107.45	89.793
1110.83	102.761
1114.2	48.698
1117.58	68.07
1120.95	128.809
1124.33	94.766
1127.7	75.498
1131.08	144.523
1134.45	114.021
1137.82	134.208
1141.2	113.128
1144.57	67.054
1147.95	80.262
1151.32	62.561
1154.7	81.323
1158.07	144.331
1161.45	81.08
1164.82	73.252
1168.2	113.815
1171.57	62.211
1174.95	106.754
1178.32	97.27
1181.7	78.504
1185.07	87.338
1188.45	97.983
1191.82	11.138
1195.2	10.202
1198.57	19.601
1201.95	35.978
1205.32	137.007
1208.69	0.222
1212.07	86.621
1215.44	55.473
1218.82	3.944
1222.19	39.882
1225.57	47.245
1228.94	19.319
1232.32	22.202
1235.69	34.114
1239.07	89.559
1242.44	85.146
1245.82	116.287
1249.19	84.353
1252.57	63.337
1255.94	120.857
1259.32	77.381
1262.69	59.229
1266.07	36.923
1269.44	58.476
1272.82	52.841
1276.19	104.782
1279.57	165.64
1282.94	149.304
1286.32	88.509
1289.69	114.062
1293.07	135.178
1296.44	68.312
1299.82	92.132
