Measurement: Raman, 532 nm, unoriented, Raman Data Processed
Mineral: Jamesonite
Rruff sample: R050481
Ideal chemistry: Pb_4_FeSb_6_S_14_
Locality: Itos mine, Oruro City, Bolivia
Source: California Institute of Technology
Description: A group of gray-black thickly acicular crystals
Measured chemistry: Pb_4.00_Fe_1.00_(Sb_5.97_As_0.03_)_Î£=6_S_14.00_
Raman shift (cm-1)	intensity
155.129	0.409187
158.022	0.86203
160.915	0.775574
163.807	0.457626
166.7	0.3992
169.593	0.118599
172.486	0.727386
175.378	0.785408
178.271	0.993141
181.164	1.26984
184.056	1.27423
186.949	3.4422
189.842	4.08134
192.734	5.18894
195.627	5.85918
198.52	6.98306
201.412	8.12032
204.305	7.92773
207.198	9.53897
210.091	10.8722
212.983	11.2762
215.876	12.0943
218.769	12.1275
221.661	12.9071
224.554	14.0396
227.447	15.5212
230.339	13.8333
233.232	15.0918
236.125	15.6224
239.018	13.7744
241.91	13.8137
244.803	13.9133
247.696	11.7811
250.588	11.4178
253.481	10.5148
256.374	8.64492
259.267	8.27823
262.159	8.08866
265.052	5.77884
267.945	6.49139
270.837	4.95201
273.73	4.60188
276.623	3.37495
279.515	2.09462
282.408	2.31337
285.301	0.71067
288.193	0.585735
291.086	0.87949
293.979	1.90026
296.872	2.50339
299.764	4.17154
302.657	6.8536
305.55	9.58179
308.442	13.195
311.335	17.6374
314.228	23.4276
317.12	30.4932
320.013	35.9067
322.906	40.9468
325.799	40.8147
328.691	36.5006
331.584	26.8115
334.477	18.5289
337.369	11.1078
340.262	7.16228
343.155	3.20753
346.048	2.10386
348.94	1.15999
351.833	0.804392
354.726	0.545328
357.618	0.165283
360.511	0.707523
363.404	0.343088
366.296	0.797012
369.189	0.760147
372.082	0.152082
374.974	0.718592
377.867	0.732611
380.76	0.03546
383.653	0.818306
386.545	0.85701
389.438	1.6321
392.331	1.67562
395.223	2.54043
398.116	1.9033
401.009	1.50656
403.901	2.50871
406.794	2.22399
409.687	2.32267
412.58	1.9798
415.472	2.30833
418.365	2.59719
421.258	2.00373
424.15	1.81961
427.043	1.42943
429.936	2.06053
432.829	2.1716
435.721	2.04189
438.614	0.934525
441.507	1.46825
444.399	1.00334
447.292	0.600071
450.185	0.556152
453.077	1.29796
455.97	1.26258
458.863	1.34616
461.755	0.252243
464.648	0.568235
467.541	0.785641
470.434	0.734472
473.326	1.22481
476.219	0.880796
479.112	0.891043
482.004	0.465973
484.897	1.0802
487.79	0.821037
490.683	0.544005
493.575	0.673796
496.468	0.638692
499.361	0.435706
502.253	0.599757
505.146	1.15239
508.039	0.608774
510.931	0.447206
513.824	0.752093
516.717	0.216561
519.61	0.012785
522.502	0.244545
525.395	0.32359
528.288	0.150534
531.18	0.317846
534.073	0.827948
536.966	0.471541
539.859	0.484658
542.751	1.18226
545.644	0.943602
548.537	0.612907
551.429	0.357107
554.322	0.201425
557.215	0.365517
560.107	0.32723
563	0.501866
565.893	0.846753
568.785	1.04647
571.678	0.956939
574.571	0.362511
577.464	0.114073
580.356	0.328349
583.249	0.920329
586.142	0.93954
589.034	0.129025
591.927	0.187325
594.82	0.420047
597.712	0.163339
600.605	0.247009
603.498	0.614906
606.39	0.637757
609.283	0.260633
612.176	0.67681
615.069	0.481169
617.961	0.279297
620.854	0.656439
623.747	0.704348
626.639	1.0452
629.532	0.924073
632.425	0.753335
635.317	0.613302
638.21	0.957455
641.103	0.937817
643.996	1.03297
646.888	1.11467
649.781	0.799799
652.674	0.658326
655.566	0.491569
658.459	0.776281
661.352	0.952879
664.245	0.990545
667.137	1.3266
670.03	0.582918
672.923	0.630477
675.815	0.53852
678.708	0.408343
681.601	0.891473
684.493	0.194514
687.386	0.743058
690.279	0.034496
693.172	0.403411
696.064	1.02983
698.957	1.38777
701.85	0.651229
704.742	0.686646
707.635	0.540064
710.528	0.990614
713.42	0.691257
716.313	0.793562
719.206	1.38861
722.098	0.552517
724.991	0.170232
727.884	0.776009
730.777	1.18355
733.669	0.391849
736.562	0.86167
739.455	1.10724
742.347	0.96084
745.24	0.918693
748.133	1.30682
751.025	0.579784
753.918	0.570119
756.811	1.00815
759.704	0.595456
762.596	0.00163
765.489	1.06535
768.382	0.433815
771.274	0.137251
774.167	0.745344
777.06	0.529143
779.952	0.752404
782.845	0.734889
785.738	0.694801
788.631	0.742901
791.523	0.559051
794.416	0.037754
797.309	0.183989
800.201	0.005369
803.094	1.05921
805.987	0.601698
808.88	0.239563
811.772	0.021311
814.665	0.329304
817.558	0.330296
820.45	1.09738
823.343	0.744089
826.236	0.806374
829.128	0.413946
832.021	0.862381
834.914	1.20963
837.807	0.916459
840.699	0.65603
843.592	0.834255
846.485	1.2135
849.377	0.968013
852.27	1.22941
855.163	1.27327
858.055	0.370929
860.948	0.901754
863.841	0.650679
866.734	1.19277
869.626	0.324397
872.519	1.23309
875.412	1.33814
878.304	0.291781
881.197	0.340201
884.09	0.848574
886.982	0.627579
889.875	0.879934
892.768	0.426092
895.66	0.723687
898.553	0.808996
901.446	0.541205
904.339	0.962863
907.231	0.851458
910.124	0.617487
913.017	0.295624
915.909	0.304266
918.802	0.038833
921.695	0.050168
924.587	0.285893
927.48	1.43189
930.373	0.952715
933.266	0.41409
936.158	0.399647
939.051	0.398589
941.944	0.791909
944.836	0.197773
947.729	0.431223
950.622	0.997828
953.514	0.750326
956.407	0.837008
959.3	0.711791
962.193	0.159365
965.085	0.503805
967.978	0.432784
970.871	0.616943
973.763	0.929976
976.656	0.755806
979.549	0.669176
982.442	0.801995
985.334	0.683218
988.227	0.529356
991.12	0.510718
994.012	1.27073
996.905	0.707266
999.798	0.738736
1002.69	0.464633
1005.58	1.19554
1008.48	0.343279
1011.37	0.074247
1014.26	0.905775
1017.15	0.87785
1020.05	0.720662
1022.94	0.657371
1025.83	0.358207
1028.72	0.810833
1031.62	0.212979
1034.51	0.654724
1037.4	0.604033
1040.3	0.992357
1043.19	0.757103
1046.08	1.05093
1048.97	0.611837
1051.87	0.927455
1054.76	0.516971
1057.65	0.491619
1060.54	0.094562
1063.44	0.178528
1066.33	0.746969
1069.22	0.043447
1072.12	0.394641
1075.01	0.151907
1077.9	1.56638
1080.79	0.258097
1083.69	0.811891
1086.58	1.05182
1089.47	0.666661
1092.36	0.847161
1095.26	0.231794
1098.15	0.508871
1101.04	0.123118
1103.93	0.44547
1106.83	0.491061
1109.72	0.855973
1112.61	0.953773
1115.51	0.863626
1118.4	0.75771
1121.29	0.381431
1124.18	0.03511
1127.08	0.862665
1129.97	0.586897
1132.86	0.255073
1135.76	0.300463
1138.65	0.648129
1141.54	0.581935
1144.43	0.515545
1147.33	0.206866
1150.22	1.04347
1153.11	0.337052
1156	0.402437
1158.9	0.702431
1161.79	0.748736
1164.68	0.491902
1167.57	0.366194
1170.47	0.213532
1173.36	0.864877
1176.25	0.721362
1179.14	0.438121
1182.04	0.873335
1184.93	0.328159
1187.82	0.78436
1190.72	0.782756
1193.61	0.523002
1196.5	0.754761
1199.39	0.799806
1202.29	1.06867
1205.18	0.157939
1208.07	0.578305
1210.96	0.134409
1213.86	1.21897
1216.75	0.787063
1219.64	0.965695
1222.54	0.709221
1225.43	0.965645
1228.32	0.180521
1231.21	0.573651
1234.11	0.796858
1237	1.37284
1239.89	0.721121
1242.79	0.613685
1245.68	0.11771
1248.57	0.669029
1251.46	0.669728
1254.36	0.481033
1257.25	0.026363
1260.14	1.23131
1263.03	0.119819
1265.93	0.724064
1268.82	1.23703
1271.71	0.296801
1274.6	1.13665
1277.5	0.75857
1280.39	0.732575
1283.28	0.35828
1286.17	0.642131
1289.07	0.59794
1291.96	1.38671
1294.85	0.843377
1297.75	0.939374
1300.64	0.568213
1303.53	0
