Measurement: Raman, 532 nm, unoriented, Raman Data Processed
Mineral: Jamesonite
Rruff sample: R050481
Ideal chemistry: Pb_4_FeSb_6_S_14_
Locality: Itos mine, Oruro City, Bolivia
Source: California Institute of Technology
Description: A group of gray-black thickly acicular crystals
Measured chemistry: Pb_4.00_Fe_1.00_(Sb_5.97_As_0.03_)_Î£=6_S_14.00_
Raman shift (cm-1)	intensity
102.238	0
105.613	23.247
108.988	44.641
112.363	378.637
115.738	591.563
119.113	537.948
122.487	516.489
125.862	643.797
129.237	847.526
132.612	839.564
135.986	859.667
139.361	770.762
142.736	649.62
146.111	657.212
149.486	524.134
152.861	514.001
156.235	419.353
159.61	433.837
162.985	434.915
166.36	461.647
169.735	392.227
173.109	368.414
176.484	301.316
179.859	219.498
183.234	260.378
186.609	250.99
189.984	282.11
193.358	271.594
196.733	276.694
200.108	360.269
203.483	495.605
206.858	520.716
210.232	453.914
213.607	526.958
216.982	556.704
220.357	549.062
223.732	580.035
227.107	688.025
230.481	652.425
233.856	733.222
237.231	698.516
240.606	659.971
243.981	663.464
247.355	632.495
250.73	530.171
254.105	482.535
257.48	369.932
260.855	309.5
264.229	317.05
267.604	245.17
270.979	207.091
274.354	132.876
277.729	130.99
281.104	32.392
284.478	33.907
287.853	43.084
291.228	24.08
294.603	22.147
297.978	4.74
301.352	94.98
304.727	231.827
308.102	361.252
311.477	570.831
314.852	899.97
318.227	1256.78
321.601	1612.3
324.976	1675.19
328.351	1575.18
331.726	1115.33
335.101	701.234
338.475	462.594
341.85	317.508
345.225	210.305
348.6	115.841
351.975	21.199
355.349	38.202
358.724	36.052
362.099	61.748
365.474	2.75
368.849	11.403
372.224	10.814
375.598	70.964
378.973	87.158
382.348	82.805
385.723	137.835
389.098	110.137
392.472	108.381
395.847	119.459
399.222	122.097
402.597	116.155
405.972	123.372
409.346	86.349
412.721	131.986
416.096	86.343
419.471	45.448
422.846	138.388
426.221	72.795
429.595	81.616
432.97	84.897
436.345	32.869
439.72	29.879
443.095	43.015
446.47	26.792
449.844	61.379
453.219	49.301
456.594	43.403
459.969	40.739
463.344	23.739
466.718	49.19
470.093	41.841
473.468	48.78
476.843	32.129
480.218	35.809
483.592	51.189
486.967	5.812
490.342	18.752
493.717	45.992
497.092	39.364
500.466	20.525
503.841	47.63
507.216	31.014
510.591	44.163
513.966	32.589
517.341	47.628
520.715	60.984
524.09	8.802
527.465	14.102
530.84	9.799
534.215	34.693
537.589	19.874
540.964	8.956
544.339	10.741
547.714	10.127
551.089	53.962
554.464	93.381
557.838	3.048
561.213	1.991
564.588	35.129
567.963	14.754
571.338	15.903
574.713	3.522
578.087	49.664
581.462	12.758
584.837	21.561
588.212	41.405
591.586	48.073
594.961	72.238
598.336	58.563
601.711	57.446
605.086	58.916
608.461	0.011
611.835	36.5
615.21	63.789
618.585	41.822
621.96	57.833
625.335	97.035
628.709	66.569
632.084	46.201
635.459	45.436
638.834	53.423
642.209	72.587
645.584	83.399
648.958	79.976
652.333	82.918
655.708	58.645
659.083	30.245
662.458	0.783
665.833	19.83
669.207	28.804
672.582	39.422
675.957	63.33
679.332	33.266
682.706	71.365
686.081	57.271
689.456	60.967
692.831	49.59
696.206	7.785
699.581	44.502
702.955	19.726
706.33	48.853
709.705	61.001
713.08	89.065
716.455	26.535
719.83	65.159
723.204	120.558
726.579	59.821
729.954	35.507
733.329	37.881
736.704	41.816
740.078	31.768
743.453	65.084
746.828	62.838
750.203	11.771
753.578	61.444
756.952	61.258
760.327	63.252
763.702	33.778
767.077	79.294
770.452	28.121
773.826	71.02
777.201	66.091
780.576	60.257
783.951	49.058
787.326	60.716
790.701	39.643
794.075	24.807
797.45	31.466
800.825	41.233
804.2	81.56
807.575	34.948
810.95	53.349
814.324	29.817
817.699	41.205
821.074	23.53
824.449	56.62
827.823	31.861
831.198	82.091
834.573	13.042
837.948	82.007
841.323	75.063
844.698	6.301
848.072	65.565
851.447	36.452
854.822	32.709
858.197	0.71
861.572	20.5
864.946	14.495
868.321	15.25
871.696	7.584
875.071	28.775
878.446	7.849
881.821	45.903
885.195	61.92
888.57	85.614
891.945	68.878
895.32	17.767
898.695	98.539
902.07	64.434
905.444	35.816
908.819	28.405
912.194	28.527
915.569	48.055
918.943	19.884
922.318	47.937
925.693	50.895
929.068	97.459
932.443	5.972
935.818	18.116
939.192	52.606
942.567	45.168
945.942	41.59
949.317	59.573
952.692	41.072
956.067	28.108
959.441	59.088
962.816	81.803
966.191	68.44
969.566	61.485
972.941	58.43
976.315	55.91
979.69	48.322
983.065	57.402
986.44	35.722
989.815	36.002
993.19	63.655
996.564	89.739
999.939	75.368
1003.31	95.866
1006.69	49.646
1010.06	98.944
1013.44	82.46
1016.81	59.558
1020.19	90.736
1023.56	12.163
1026.94	64.406
1030.31	37.721
1033.69	57.004
1037.06	90.297
1040.44	85.415
1043.81	111.473
1047.19	115.757
1050.56	87.179
1053.94	66.755
1057.31	16.249
1060.69	33.857
1064.06	25.893
1067.43	82.016
1070.81	60.592
1074.18	56.688
1077.56	57.883
1080.93	4.964
1084.31	42.369
1087.68	38.386
1091.06	38.988
1094.43	36.853
1097.81	18.877
1101.18	29.911
1104.56	61.212
1107.93	46.9
1111.31	76.501
1114.68	46.51
1118.06	62.227
1121.43	71.093
1124.81	40.385
1128.18	30.869
1131.56	84.024
1134.93	82.95
1138.31	49.962
1141.68	66.832
1145.06	72.555
1148.43	78.222
1151.81	79.936
1155.18	87.612
1158.56	105.244
1161.93	33.561
1165.31	48.039
1168.68	54.994
1172.06	55.18
1175.43	83.549
1178.8	4.344
1182.18	26.374
1185.55	79.899
1188.93	24.288
1192.3	39.476
1195.68	22.58
1199.05	52.204
1202.43	61.628
1205.8	70.003
1209.18	57.28
1212.55	71.581
1215.93	24.855
1219.3	74.765
1222.68	18.968
1226.05	110.596
1229.43	109.475
1232.8	34.363
1236.18	100.224
1239.55	100.339
1242.93	50.578
1246.3	60.448
1249.67	124.788
1253.05	54.857
1256.42	82.062
1259.8	1.253
1263.17	51.987
1266.55	107.498
1269.92	18.344
1273.3	69.755
1276.67	77.111
1280.05	141.902
1283.42	93.758
1286.8	60.253
1290.17	94.931
1293.55	103.096
1296.92	79.833
1300.3	2.705
