Measurement: Raman, 780 nm, unoriented, Raman Data Processed
Mineral: Jamesonite
Rruff sample: R050481
Ideal chemistry: Pb_4_FeSb_6_S_14_
Locality: Itos mine, Oruro City, Bolivia
Source: California Institute of Technology
Description: A group of gray-black thickly acicular crystals
Measured chemistry: Pb_4.00_Fe_1.00_(Sb_5.97_As_0.03_)_Î£=6_S_14.00_
Raman shift (cm-1)	intensity
110.657	0
114.032	1.19322
117.407	2.64449
120.782	6.25608
124.157	7.14925
127.531	7.19402
130.906	6.86044
134.281	6.45178
137.656	4.53914
141.031	3.25867
144.405	0.688831
147.78	0.352684
151.155	0.644806
154.53	0.125778
157.905	0.622181
161.28	1.38811
164.654	2.13398
168.029	2.90977
171.404	4.32206
174.779	3.95864
178.154	3.9308
181.529	3.96267
184.903	4.07998
188.278	5.70756
191.653	6.49297
195.028	6.23595
198.403	7.22871
201.777	8.73833
205.152	9.33002
208.527	10.0709
211.902	11.0333
215.277	12.6644
218.651	13.4558
222.026	14.0356
225.401	14.2589
228.776	14.8597
232.151	14.8233
235.526	14.7065
238.9	12.9929
242.275	11.2594
245.65	9.49028
249.025	8.41675
252.4	6.38509
255.774	5.90737
259.149	5.57783
262.524	5.42256
265.899	5.28243
269.274	5.50388
272.649	5.00877
276.023	4.11816
279.398	2.22371
282.773	1.13606
286.148	0.312855
289.523	0.394094
292.897	0.656595
296.272	0.136955
299.647	0.463124
303.022	2.33525
306.397	3.12709
309.772	4.79798
313.146	6.25692
316.521	8.57617
319.896	9.49305
323.271	9.27118
326.646	9.12497
330.021	6.63582
333.395	4.64926
336.77	2.91723
340.145	1.2658
343.52	0.666036
346.895	0.71274
350.269	1.0084
353.644	0.658432
357.019	0.071979
360.394	0.897325
363.769	0.006559
367.144	0.859879
370.518	0.489813
373.893	0.726336
377.268	0.517057
380.643	0.737952
384.018	0.032147
387.392	0.82861
390.767	0.739364
394.142	0.888286
397.517	0.503387
400.892	0.855687
404.267	0.633168
407.641	1.37485
411.016	0.653784
414.391	0.901908
417.766	0.077778
421.141	0.291728
424.515	0.058414
427.89	0.656834
431.265	0.904271
434.64	0.765087
438.015	0.565472
441.39	0.890178
444.764	0.141084
448.139	0.329939
451.514	0.391852
454.889	0.313908
458.264	0.470704
461.639	0.523068
465.013	0.124048
468.388	0.245732
471.763	0.48791
475.138	0.460057
478.513	0.582938
481.887	0.759004
485.262	0.830939
488.637	0.516343
492.012	0.3868
495.387	0.007766
498.762	0.107793
502.136	0.75814
505.511	0.842911
508.886	0.831065
512.261	0.691903
515.636	0.692647
519.01	0.50219
522.385	0.465103
525.76	0.231492
529.135	0.424991
532.51	0.497393
535.885	0.884979
539.259	0.555
542.634	1.09953
546.009	0.800079
549.384	0.316594
552.759	0.94778
556.133	0.844661
559.508	1.20115
562.883	0.660263
566.258	0.669931
569.633	0.869785
573.008	0.885299
576.382	0.14367
579.757	0.277833
583.132	0.418049
586.507	0.143919
589.882	0.181268
593.256	0.180297
596.631	0.305903
600.006	0.019701
603.381	0.103602
606.756	0.644405
610.13	0.725077
613.505	0.076856
616.88	0.021474
620.255	0.491565
623.63	0.300495
627.005	0.265066
630.379	0.615292
633.754	0.330733
637.129	0.504271
640.504	0.156459
643.879	0.614677
647.254	0.997615
650.628	0.256742
654.003	0.619086
657.378	0.904026
660.753	0.345716
664.128	0.253602
667.502	0.641675
670.877	0.34013
674.252	0.623355
677.627	0.09975
681.002	0.459281
684.376	0.574007
687.751	0.709321
691.126	0.126588
694.501	0.589947
697.876	0.733907
701.251	0.772807
704.625	0.561646
708	0.377138
711.375	0.673856
714.75	0.625039
718.125	0.354954
721.5	0.137803
724.874	0.159651
728.249	0.364324
731.624	0.462557
734.999	0.396983
738.374	0.674105
741.749	0.401207
745.123	0.093502
748.498	0.555631
751.873	0.573694
755.248	0.867843
758.623	0.626822
761.997	0.436892
765.372	0.44271
768.747	0.114134
772.122	0.35284
775.497	0.582043
778.871	0.452081
782.246	0.609146
785.621	0.515752
788.996	0.649207
792.371	0.293715
795.745	0.006868
799.12	0.616823
802.495	0.676916
805.87	0.145858
809.245	0.112306
812.62	0.417237
815.994	1.07109
819.369	0.714238
822.744	0.26076
826.119	0.582182
829.494	0.375114
832.869	0.514455
836.243	0.678747
839.618	0.597118
842.993	0.800566
846.368	0.328601
849.743	0.228837
853.117	0.072834
856.492	0.694644
859.867	0.492275
863.242	0.501776
866.617	0.866024
869.992	1.01172
873.366	0.156695
876.741	0.140553
880.116	0.569688
883.491	0.380685
886.866	0.515603
890.24	0.652538
893.615	0.449263
896.99	0.813152
900.365	0.493114
903.74	0.649052
907.115	0.332934
910.489	0.478898
913.864	0.433706
917.239	0.369025
920.614	0.712183
923.989	0.784117
927.364	0.467968
930.738	0.344204
934.113	0.46503
937.488	0.072408
940.863	0.145171
944.238	0.960371
947.612	0.622219
950.987	0.167965
954.362	0.295013
957.737	0.395603
961.112	0.382148
964.486	0.42935
967.861	0.058001
971.236	0.224646
974.611	0.463451
977.986	0.569762
981.361	0.538973
984.735	0.545619
988.11	1.26653
991.485	0.203604
994.86	0.338076
998.235	1.03723
1001.61	0.189471
1004.98	0.741957
1008.36	0.914685
1011.73	0.894862
1015.11	0.452469
1018.48	0.871989
1021.86	0.552185
1025.23	0.769395
1028.61	0.609026
1031.98	0.516817
1035.36	0.873278
1038.73	0.87556
1042.11	0.610555
1045.48	0.770532
1048.86	0.312086
1052.23	0.394799
1055.61	1.011
1058.98	0.281873
1062.36	0.08195
1065.73	0.548609
1069.11	0.449634
1072.48	0.249936
1075.86	0.639153
1079.23	0.308345
1082.61	0.591018
1085.98	0.326092
1089.36	0.915661
1092.73	0.146349
1096.1	0.844364
1099.48	0.459644
1102.85	0.699763
1106.23	0.960174
1109.6	0.632344
1112.98	0.12574
1116.35	0.687294
1119.73	0.789714
1123.1	0.475576
1126.48	0.74762
1129.85	0.325282
1133.23	0.36457
1136.6	0.023154
1139.98	0.688208
1143.35	0.22428
1146.73	0.87244
1150.1	0.919208
1153.48	0.712816
1156.85	0.602061
1160.23	0.903661
1163.6	0.235625
1166.98	0.488836
1170.35	0.873329
1173.72	0.466389
1177.1	0.295826
1180.47	0.858432
1183.85	0.700358
1187.22	0.794983
1190.6	0.677001
1193.97	0.885695
1197.35	0.458797
1200.72	0.40977
1204.1	0.734788
1207.47	1.09058
1210.85	0.690738
1214.22	1.16119
1217.6	0.596556
1220.97	0.948087
1224.35	0.650312
1227.72	0.523394
1231.1	0.518482
1234.47	0.801605
1237.85	0.860376
1241.22	0.431368
1244.6	0.315943
1247.97	0.025126
1251.35	0.536103
1254.72	0.676332
1258.1	0.463749
1261.47	0.112114
1264.85	0.290274
1268.22	0.401658
1271.6	0.171979
1274.97	0.772007
1278.35	0.819502
1281.72	0.40209
1285.09	0.024753
