Measurement: Raman, 532 nm, unoriented, Raman Data Processed
Mineral: Jamesonite
Rruff sample: R050432
Ideal chemistry: Pb_4_FeSb_6_S_14_
Locality: San Jose mine, Oruro District, Bolivia
Source: University of Arizona Mineral Museum
Description: Grayish black coarse acicular crystals
Measured chemistry: Pb_4.00_Fe_1.00_(Sb_5.95_As_0.05_)_Î£=6_S_14.00_
Raman shift (cm-1)	intensity
156.576	0
159.468	0.481735
162.361	0.137283
165.254	0.439873
168.147	1.10287
171.039	3.99516
173.932	4.06404
176.825	2.65028
179.717	2.93505
182.61	4.13438
185.503	4.65299
188.395	6.40631
191.288	7.41567
194.181	9.72191
197.073	10.7446
199.966	13.7591
202.859	16.4703
205.752	18.1691
208.644	20.532
211.537	24.1286
214.43	28.8185
217.322	28.5675
220.215	33.6768
223.108	36.3056
226	36.3872
228.893	40.3612
231.786	40.5404
234.679	40.8498
237.571	39.1642
240.464	37.9047
243.357	34.4037
246.249	29.7132
249.142	27.252
252.035	24.7326
254.928	21.1955
257.82	17.8494
260.713	12.7904
263.606	12.2673
266.498	8.98815
269.391	7.80244
272.284	5.41134
275.176	4.08436
278.069	3.02589
280.962	1.13869
283.854	0.577782
286.747	0.755699
289.64	0.674652
292.533	0.105331
295.425	0.567856
298.318	0.954704
301.211	2.82635
304.103	4.19975
306.996	6.44675
309.889	10.1631
312.781	13.4641
315.674	15.6045
318.567	21.8407
321.46	25.0009
324.352	28.7426
327.245	28.4249
330.138	22.7974
333.03	16.8685
335.923	10.4306
338.816	6.15978
341.709	3.53763
344.601	3.08813
347.494	1.29919
350.387	0.988987
353.279	0.934814
356.172	0.116936
359.065	0.641987
361.957	0.652527
364.85	0.08078
367.743	0.645737
370.635	0.489437
373.528	0.235657
376.421	0.180061
379.314	0.576366
382.206	0.657005
385.099	0.956444
387.992	1.19947
390.884	1.29456
393.777	2.61723
396.67	1.71289
399.562	0.787209
402.455	0.483631
405.348	1.3712
408.241	0.868465
411.133	2.22519
414.026	2.02675
416.919	1.32631
419.811	1.28692
422.704	1.66697
425.597	1.05455
428.49	0.939857
431.382	1.92993
434.275	0.725651
437.168	1.01771
440.06	1.93277
442.953	0.036411
445.846	0.636192
448.738	0.746861
451.631	0.888126
454.524	1.22174
457.416	0.849518
460.309	0.901981
463.202	0.46933
466.095	0.540581
468.987	1.64674
471.88	0.879566
474.773	0.444286
477.665	0.68111
480.558	0.048962
483.451	1.41898
486.344	0.547379
489.236	0.515858
492.129	0.285946
495.022	0.838371
497.914	0.636333
500.807	0.092869
503.7	0.385109
506.592	0.380295
509.485	0.858608
512.378	0.844479
515.27	1.78116
518.163	0.814499
521.056	0.964233
523.949	0.515289
526.841	0.603672
529.734	0.381798
532.627	1.24744
535.519	0.293633
538.412	0.773682
541.305	0.43483
544.197	0.519947
547.09	0.248154
549.983	1.54349
552.876	1.8508
555.768	0.716927
558.661	0.089085
561.554	1.23671
564.446	1.37312
567.339	0.979145
570.232	0.264748
573.125	0.317581
576.017	0.065998
578.91	0.448059
581.803	0.329468
584.695	0.997932
587.588	0.675453
590.481	1.03515
593.373	0.553082
596.266	1.48182
599.159	0.605877
602.052	1.62941
604.944	0.291851
607.837	1.42615
610.73	0.661102
613.622	0.725407
616.515	0.639832
619.408	0.827824
622.3	1.05172
625.193	0.841621
628.086	1.47125
630.979	1.42702
633.871	0.558643
636.764	0.865726
639.657	1.71087
642.549	0.815277
645.442	1.10313
648.335	1.14748
651.227	0.531425
654.12	0.544281
657.013	0.797615
659.905	0.821049
662.798	0.817596
665.691	0.261787
668.584	0.126034
671.476	1.45601
674.369	0.551819
677.262	0.327217
680.154	0.899376
683.047	1.06884
685.94	0.812668
688.832	0.37027
691.725	0.157162
694.618	0.697914
697.511	0.276577
700.403	0.162251
703.296	0.569748
706.189	0.572895
709.081	1.19769
711.974	0.276768
714.867	0.903198
717.76	0.810776
720.652	0.359642
723.545	0.133713
726.438	0.819
729.33	0.698997
732.223	0.264416
735.116	0.457458
738.008	1.13933
740.901	1.06936
743.794	0.896801
746.687	0.437103
749.579	0.063847
752.472	0.489227
755.365	0.287868
758.257	0.734619
761.15	0.456142
764.043	0.729561
766.935	0.84103
769.828	0.337475
772.721	0.428104
775.614	0.199635
778.506	0.687416
781.399	0.950947
784.292	0.377113
787.184	0.679497
790.077	0.891529
792.97	0.774036
795.862	0.732578
798.755	0.429779
801.648	1.02905
804.54	0.429207
807.433	1.1002
810.326	1.2574
813.219	0.911526
816.111	0.490517
819.004	0.781189
821.897	1.16847
824.789	1.48383
827.682	0.786495
830.575	0.913036
833.467	1.4763
836.36	0.20052
839.253	0.917919
842.146	1.64452
845.038	1.01242
847.931	1.09129
850.824	0.600834
853.716	1.11461
856.609	0.650425
859.502	1.01927
862.394	0.169964
865.287	0.160858
868.18	0.459652
871.073	1.82554
873.965	0.516907
876.858	0.536068
879.751	1.19985
882.643	0.978935
885.536	1.16723
888.429	0.220751
891.322	0.720877
894.214	0.766106
897.107	1.48583
900	1.00105
902.892	1.0113
905.785	1.44223
908.678	0.521978
911.57	0.699818
914.463	0.047916
917.356	0.455879
920.249	0.520866
923.141	0.09848
926.034	1.13396
928.927	0.540705
931.819	0.291525
934.712	1.05964
937.605	0.766348
940.497	0.06241
943.39	0.519634
946.283	0.357538
949.176	1.40553
952.068	0.110106
954.961	0.870861
957.854	1.06645
960.746	0.564444
963.639	0.608637
966.532	0.582396
969.424	0.332666
972.317	1.03007
975.21	0.744135
978.102	0.036963
980.995	0.67606
983.888	1.41956
986.781	1.29395
989.673	0.11129
992.566	0.16777
995.459	1.36721
998.351	0.464088
1001.24	0.776583
1004.14	0.04616
1007.03	1.32916
1009.92	0.823183
1012.82	1.30481
1015.71	0.22876
1018.6	0.68078
1021.49	0.699175
1024.39	0.695326
1027.28	0.376753
1030.17	0.032173
1033.06	1.21977
1035.96	1.66054
1038.85	0.749653
1041.74	0.053959
1044.63	2.12941
1047.53	0.50193
1050.42	1.01732
1053.31	0.507118
1056.2	0.819456
1059.1	0.81073
1061.99	1.23524
1064.88	1.55256
1067.78	0.99733
1070.67	1.269
1073.56	0.941345
1076.45	0.884039
1079.35	0.360519
1082.24	1.2577
1085.13	0.389957
1088.03	0.338181
1090.92	0.714437
1093.81	1.00801
1096.7	0.030481
1099.6	1.10362
1102.49	0.130175
1105.38	0.347288
1108.27	1.39557
1111.17	0.393257
1114.06	0.904871
1116.95	1.12268
1119.85	1.37327
1122.74	0.037083
1125.63	0.871742
1128.52	0.495209
1131.42	0.503872
1134.31	0.083206
1137.2	0.238468
1140.09	1.26038
1142.99	1.10828
1145.88	1.07766
1148.77	0.080511
1151.66	0.585899
1154.56	0.381493
1157.45	0.339783
1160.34	0.901939
1163.23	1.13889
1166.13	1.27929
1169.02	0.374432
1171.91	1.19134
1174.81	1.44177
1177.7	0.953247
1180.59	0.95369
1183.48	0.614655
1186.38	1.64904
1189.27	0.460938
1192.16	0.73547
1195.06	1.06161
1197.95	0.079205
1200.84	0.638111
1203.73	1.37389
1206.63	0.415699
1209.52	1.49424
1212.41	1.26799
1215.3	0.12212
1218.2	0.674305
1221.09	0.293732
1223.98	0.951805
1226.88	0.512749
1229.77	0.284378
1232.66	0.909164
1235.55	0.684975
1238.44	0.597466
1241.34	0.717842
1244.23	0.913231
1247.12	0.632336
1250.02	1.28253
1252.91	1.05589
1255.8	0.425282
1258.69	0.613964
1261.59	0.042717
1264.48	0.757
1267.37	0.520836
1270.27	1.11545
1273.16	1.29873
1276.05	2.00207
1278.94	0.177235
1281.84	1.09452
1284.73	0.605694
1287.62	0.169765
