Measurement: Raman, 785 nm, unoriented, Raman Data Processed
Mineral: Jamesonite
Rruff sample: R050481
Ideal chemistry: Pb_4_FeSb_6_S_14_
Locality: Itos mine, Oruro City, Bolivia
Source: California Institute of Technology
Description: A group of gray-black thickly acicular crystals
Measured chemistry: Pb_4.00_Fe_1.00_(Sb_5.97_As_0.03_)_Î£=6_S_14.00_
Raman shift (cm-1)	intensity
116.706	0
119.599	38.388
122.492	341.833
125.385	1252.65
128.277	1832.42
131.17	1079.28
134.063	510.677
136.955	449.302
139.848	977.8
142.741	1690.39
145.633	2165.97
148.526	2168.99
151.419	1709.54
154.312	1186.74
157.204	1043.59
160.097	1183.3
162.99	1530.21
165.882	1913.73
168.775	2323.61
171.668	2674.93
174.561	2759.43
177.453	2574.74
180.346	2133.14
183.239	1761.7
186.131	1711.44
189.024	1701.49
191.917	1711.54
194.809	1826.33
197.702	1998.65
200.595	1850.8
203.488	1883.16
206.38	1890.61
209.273	1909.24
212.166	2040.41
215.058	2244.68
217.951	2524.34
220.844	2709.15
223.736	2992.22
226.629	3167.18
229.522	3385.64
232.415	3535.64
235.307	3464.54
238.2	3419.36
241.093	3191.03
243.985	2892.03
246.878	2542.22
249.771	2146.79
252.663	1837.91
255.556	1637.23
258.449	1522.29
261.341	1427.78
264.234	1640.07
267.127	1892.38
270.02	2318.48
272.912	2871.24
275.805	3293.33
278.698	3151.92
281.59	2455.86
284.483	1379.22
287.376	515.699
290.268	42.062
293.161	272.244
296.054	361.739
298.947	254.873
301.839	127.107
304.732	117.714
307.625	493.248
310.517	863.481
313.41	1335.26
316.303	2172.94
319.195	3240.35
322.088	4413.18
324.981	5628.3
327.874	5968.36
330.766	4863.44
333.659	3215.93
336.552	1974.59
339.444	1130.39
342.337	788.011
345.23	615.683
348.122	399.984
351.015	267.696
353.908	163.44
356.801	30.288
359.693	0.987
362.586	26.503
365.479	45.216
368.371	36.412
371.264	46.75
374.157	57.281
377.049	117.482
379.942	168.152
382.835	130.061
385.728	195.366
388.62	186.23
391.513	172.856
394.406	284.798
397.298	251.626
400.191	298.607
403.084	255.33
405.977	280.293
408.869	235.982
411.762	321.812
414.655	267.988
417.547	209.682
420.44	184.8
423.333	255.846
426.225	171.573
429.118	139.908
432.011	96.493
434.904	127.326
437.796	242.434
440.689	95.432
443.582	120.317
446.474	69.064
449.367	80.397
452.26	103.896
455.152	88.166
458.045	65.652
460.938	60.947
463.831	47.425
466.723	56.138
469.616	18.376
472.509	16.29
475.401	1.703
478.294	51.891
481.187	2.469
484.079	55.467
486.972	15.958
489.865	8.305
492.758	51.652
495.65	24.604
498.543	12.058
501.436	61.481
504.328	9.321
507.221	7.671
510.114	63.865
513.006	54.071
515.899	41.445
518.792	55.192
521.685	24.347
524.577	20.365
527.47	68.457
530.363	74.763
533.255	54.012
536.148	1.81
539.041	10.079
541.933	2.911
544.826	56.093
547.719	40.072
550.612	78.729
553.504	70.321
556.397	102.76
559.29	25.101
562.182	64.488
565.075	39.151
567.968	26.009
570.86	23.45
573.753	34.036
576.646	17.942
579.539	37.726
582.431	36.924
585.324	11.802
588.217	35.093
591.109	64.399
594.002	70.908
596.895	10.111
599.787	10.835
602.68	22.709
605.573	20.119
608.466	11.456
611.358	41.668
614.251	24.161
617.144	38.622
620.036	75.492
622.929	84.584
625.822	92.111
628.714	69.181
631.607	51.456
634.5	89.784
637.393	85.677
640.285	130.709
643.178	17.448
646.071	42.758
648.963	137.504
651.856	91.995
654.749	50.204
657.641	42.516
660.534	33.958
663.427	18.466
666.32	11.594
669.212	65.312
672.105	54.993
674.998	26.715
677.89	58.988
680.783	40.72
683.676	36.61
686.568	55.641
689.461	21.514
692.354	100.375
695.247	45.094
698.139	31.299
701.032	73.757
703.925	74.519
706.817	119.019
709.71	25.869
712.603	100.698
715.495	103.859
718.388	66.08
721.281	56.572
724.174	39.524
727.066	79.701
729.959	32.634
732.852	69.883
735.744	113.359
738.637	85.911
741.53	55.913
744.422	106.816
747.315	56.748
750.208	75.147
753.101	19.581
755.993	14.995
758.886	67.132
761.779	58.717
764.671	53.359
767.564	88.208
770.457	110.163
773.349	102.32
776.242	123.412
779.135	111.914
782.028	47.067
784.92	63.45
787.813	40.919
790.706	63.178
793.598	23.124
796.491	42.7
799.384	28.794
802.276	13.004
805.169	62.812
808.062	76.308
810.955	33.492
813.847	55.749
816.74	72.301
819.633	54.309
822.525	38.124
825.418	78.954
828.311	92.501
831.203	69.228
834.096	23.114
836.989	85.337
839.881	57.006
842.774	56.47
845.667	74.088
848.56	107.721
851.452	38.888
854.345	45.548
857.238	30.21
860.13	20.357
863.023	41.102
865.916	62.164
868.808	91.082
871.701	41.245
874.594	8.885
877.487	61.65
880.379	51.611
883.272	65.583
886.165	96.194
889.057	102.584
891.95	66.618
894.843	40.885
897.735	50.872
900.628	71.095
903.521	16.897
906.414	1.63
909.306	14.517
912.199	41.308
915.092	83.331
917.984	62.265
920.877	104.519
923.77	59.298
926.662	105.58
929.555	30.82
932.448	52.709
935.341	107.717
938.233	73.661
941.126	66.877
944.019	56.349
946.911	75.981
949.804	95.845
952.697	23.089
955.589	66
958.482	93.125
961.375	104.838
964.268	113.45
967.16	78.831
970.053	86.464
972.946	93.566
975.838	73.331
978.731	61.641
981.624	57.527
984.516	60.983
987.409	61.984
990.302	48.274
993.195	72.053
996.087	49.629
998.98	45.769
1001.87	119.415
1004.76	68.596
1007.66	92.605
1010.55	55.733
1013.44	87.938
1016.34	56.045
1019.23	83.075
1022.12	92.456
1025.01	35.069
1027.91	80.201
1030.8	12.037
1033.69	16.077
1036.59	46.205
1039.48	8.347
1042.37	79.541
1045.26	36.469
1048.16	113.808
1051.05	67.143
1053.94	58.585
1056.83	60.303
1059.73	54.143
1062.62	33.602
1065.51	108.071
1068.4	51.1
1071.3	2.491
1074.19	83.615
1077.08	31.036
1079.98	131.285
1082.87	16.545
1085.76	79.39
1088.65	46.154
1091.55	94.461
1094.44	58.308
1097.33	69.007
1100.22	71.529
1103.12	86.535
1106.01	2.496
1108.9	6.409
1111.8	45.144
1114.69	30.313
1117.58	70.493
1120.47	76.249
1123.37	26.06
1126.26	95.206
1129.15	104.778
1132.04	9.057
1134.94	88.488
1137.83	117.494
1140.72	51.906
1143.62	44.622
1146.51	33.745
1149.4	91.725
1152.29	114.318
1155.19	68.019
1158.08	52.344
1160.97	31.451
1163.86	28.805
1166.76	32.615
1169.65	8.307
1172.54	55.379
1175.43	136.277
1178.33	46.909
1181.22	101.012
1184.11	19.095
1187.01	86.501
1189.9	86.899
1192.79	43.678
1195.68	127.641
1198.58	119.355
1201.47	23.062
1204.36	39.041
1207.25	11.975
1210.15	104.02
1213.04	79.847
1215.93	168.192
1218.83	73.126
1221.72	45.654
1224.61	80.48
1227.5	112.259
1230.4	65.33
1233.29	40.843
1236.18	116.421
1239.07	104.365
1241.97	85.868
1244.86	60.845
1247.75	142.938
1250.64	77.567
1253.54	52.512
1256.43	113.378
1259.32	47.806
1262.22	119.807
1265.11	123.333
1268	82.241
1270.89	49.109
