Measurement: Raman, 785 nm, unoriented, Raman Data Processed
Mineral: Jamesonite
Rruff sample: R050481
Ideal chemistry: Pb_4_FeSb_6_S_14_
Locality: Itos mine, Oruro City, Bolivia
Source: California Institute of Technology
Description: A group of gray-black thickly acicular crystals
Measured chemistry: Pb_4.00_Fe_1.00_(Sb_5.97_As_0.03_)_Î£=6_S_14.00_
Raman shift (cm-1)	intensity
132.134	0
135.027	46.128
137.92	250.167
140.812	1800
143.705	3631.96
146.598	4985.4
149.49	4907.32
152.383	4240.61
155.276	3541.44
158.169	3604.45
161.061	3964.27
163.954	4490.31
166.847	4688.92
169.739	4598.72
172.632	4220.64
175.525	3857.3
178.417	3643.53
181.31	3597.96
184.203	3506.54
187.096	3499.77
189.988	3434.64
192.881	3029.42
195.774	3130.9
198.666	2891.67
201.559	2724.27
204.452	2544.38
207.344	2541.53
210.237	2146.16
213.13	1936.19
216.023	1966.92
218.915	1748.14
221.808	1522.68
224.701	1295.78
227.593	1120.13
230.486	1087.17
233.379	1060.1
236.271	887.184
239.164	801.355
242.057	606.387
244.95	368.439
247.842	272.19
250.735	265.384
253.628	136.626
256.52	103.107
259.413	179.517
262.306	268.37
265.198	70.63
268.091	134.581
270.984	90.731
273.877	68.529
276.769	75.564
279.662	62.02
282.555	122.432
285.447	119.892
288.34	202.736
291.233	149.787
294.125	30.618
297.018	36.002
299.911	181.942
302.804	230.164
305.696	277.926
308.589	379.254
311.482	398.711
314.374	398.03
317.267	666.025
320.16	838.794
323.052	1088.06
325.945	1024.9
328.838	885.44
331.731	580.511
334.623	359.112
337.516	187.111
340.409	89.39
343.301	40.843
346.194	41.382
349.087	17.552
351.979	21.689
354.872	49.755
357.765	81.837
360.658	30.646
363.55	51.028
366.443	20.349
369.336	74.767
372.228	201.888
375.121	228.815
378.014	285.499
380.906	304.623
383.799	264.666
386.692	351.254
389.585	333.165
392.477	370.927
395.37	517.15
398.263	537.528
401.155	463.442
404.048	452.248
406.941	415.26
409.833	370.86
412.726	478.66
415.619	498.143
418.512	433.553
421.404	491.584
424.297	442.646
427.19	519.306
430.082	602.287
432.975	712.367
435.868	810.844
438.76	866.8
441.653	908.281
444.546	788.562
447.439	812.652
450.331	728.649
453.224	608.891
456.117	611.465
459.009	600.961
461.902	657.542
464.795	637.509
467.687	531.461
470.58	533.044
473.473	464.193
476.366	446.081
479.258	441.66
482.151	438.148
485.044	489.077
487.936	329.892
490.829	416.988
493.722	435.311
496.614	397.297
499.507	409.671
502.4	296.146
505.293	330.814
508.185	289.951
511.078	381.563
513.971	311.471
516.863	333.754
519.756	302.533
522.649	196.927
525.541	150.397
528.434	102.283
531.327	132.692
534.219	49.916
537.112	88.265
540.005	21.283
542.898	20.494
545.79	38.068
548.683	45.784
551.576	50.375
554.468	18.919
557.361	54.667
560.254	13.935
563.146	9.151
566.039	67.676
568.932	89.871
571.825	14.45
574.717	59.536
577.61	102.008
580.503	78.551
583.395	113.186
586.288	144.549
589.181	110.491
592.073	145.091
594.966	173.463
597.859	217.88
600.752	247.737
603.644	224.364
606.537	249.511
609.43	214.662
612.322	281.441
615.215	210.263
618.108	193.076
621	247.208
623.893	172.831
626.786	194.301
629.679	186.167
632.571	100.232
635.464	226.788
638.357	151.442
641.25	103.856
644.142	158.504
647.035	205.765
649.928	150.774
652.82	128.228
655.713	95.213
658.606	129.76
661.498	128.719
664.391	124.515
667.284	105.197
670.177	102.642
673.069	122.818
675.962	163.749
678.855	82.498
681.747	175.923
684.64	9.152
687.533	108.393
690.425	118.655
693.318	125.205
696.211	137.29
699.104	122.138
701.996	156.668
704.889	115.685
707.782	138.26
710.674	85.069
713.567	115.42
716.46	185.632
719.352	62.998
722.245	46.935
725.138	99.297
728.031	43.724
730.923	75.885
733.816	52.618
736.709	3.913
739.601	64.801
742.494	9.411
745.387	144.424
748.279	81.282
751.172	117.73
754.065	65.472
756.958	108.349
759.85	64.211
762.743	69.918
765.636	79.21
768.528	1.336
771.421	66.305
774.314	58.695
777.206	136.263
780.099	116.413
782.992	125.61
785.885	107.022
788.777	111.716
791.67	121.318
794.563	75.417
797.455	36.431
800.348	8.495
803.241	1.248
806.133	38.994
809.026	112.062
811.919	107.818
814.812	119.43
817.704	133.278
820.597	109.347
823.49	110.319
826.382	95.932
829.275	138.124
832.168	101.601
835.06	98.98
837.953	103.294
840.846	123.792
843.738	112.498
846.631	95.159
849.524	130.967
852.417	152.584
855.309	134.743
858.202	101
861.095	73.613
863.987	61.739
866.88	103.739
869.773	66.206
872.665	38.492
875.558	71.44
878.451	80.968
881.344	23.456
884.236	23.091
887.129	39.287
890.022	39.382
892.914	62.045
895.807	2.682
898.7	19.051
901.592	65.65
904.485	119.267
907.378	61.265
910.271	159.236
913.163	13.486
916.056	69.613
918.949	28.328
921.841	8.18
924.734	107.171
927.627	171.992
930.519	200.151
933.412	98.362
936.305	125.072
939.198	201.496
942.09	126.475
944.983	239.576
947.876	255.564
950.768	444.51
953.661	436.482
956.554	474.452
959.446	603.909
962.339	709.549
965.232	763.195
968.125	731.501
971.017	490.742
973.91	442.15
976.803	366.232
979.695	289.983
982.588	194.316
985.481	87.594
988.373	90.64
991.266	45.413
994.159	1.623
997.052	194.094
999.944	182.927
1002.84	178.878
1005.73	185.264
1008.62	195.931
1011.51	113.089
1014.41	53.288
1017.3	79.065
1020.19	112.576
1023.09	11.578
1025.98	19.689
1028.87	85.561
1031.76	32.936
1034.66	47.713
1037.55	164.801
1040.44	55.068
1043.34	114.965
1046.23	92.729
1049.12	140.691
1052.01	72.608
1054.91	124.343
1057.8	105.281
1060.69	70.011
1063.58	78.859
1066.48	95.192
1069.37	48.484
1072.26	140.285
1075.15	94.273
1078.05	81.173
1080.94	41.502
1083.83	13.126
1086.72	76.152
1089.62	9.671
1092.51	9.955
1095.4	18.261
1098.3	178.015
1101.19	79.247
1104.08	4.98
1106.97	50.928
1109.87	118.923
1112.76	37.368
1115.65	83.185
1118.55	63.611
1121.44	113.665
1124.33	97.021
1127.22	94.55
1130.12	35.825
1133.01	16.007
1135.9	91.729
1138.79	148.338
1141.69	123.473
1144.58	115.083
1147.47	66.054
1150.37	169.201
1153.26	189.944
1156.15	40.641
1159.04	81.152
1161.93	130.863
1164.83	100.363
1167.72	25.464
1170.61	50.741
1173.51	90.279
1176.4	119.585
1179.29	36.668
1182.18	0.257
1185.08	35.292
1187.97	117.52
1190.86	116.406
1193.76	95.133
1196.65	205.569
1199.54	172.49
1202.43	73.756
1205.33	7.467
1208.22	120.744
1211.11	97.808
1214	153
1216.9	149.672
1219.79	134.495
1222.68	108.321
1225.58	141.839
1228.47	182.834
1231.36	47.12
1234.25	62.689
1237.15	119.779
1240.04	128.78
1242.93	182.902
1245.82	116.186
1248.72	205.353
1251.61	119.179
1254.5	206.09
1257.39	132.806
1260.29	3.625
1263.18	229.147
1266.07	191.332
1268.96	453.754
1271.86	52.396
