Measurement: Raman, 532 nm, unoriented, Raman Data Processed
Mineral: Jamesonite
Rruff sample: R050430
Ideal chemistry: Pb_4_FeSb_6_S_14_
Locality: Zacatecas, Mexico
Source: University of Arizona Mineral Museum
Description: Grayish black coarsely acicular crystals
Measured chemistry: Pb_4.02_Fe_1.00_Sb_5.98_S_14.00_
Raman shift (cm-1)	intensity
158.986	0
161.879	0.908035
164.772	0.002441
167.664	1.09616
170.557	3.56752
173.45	3.17773
176.343	4.29903
179.235	5.29791
182.128	8.033
185.021	7.43373
187.913	9.77483
190.806	10.5237
193.699	11.7089
196.591	14.6352
199.484	18.6526
202.377	21.719
205.269	24.0523
208.162	31.9404
211.055	32.1629
213.948	36.5706
216.84	43.1708
219.733	45.541
222.626	51.4927
225.518	53.4569
228.411	58.7594
231.304	63.641
234.196	60.297
237.089	62.2542
239.982	58.4736
242.875	56.4479
245.767	51.5697
248.66	46.2916
251.553	42.7439
254.445	35.2595
257.338	28.3977
260.231	25.7936
263.123	20.8775
266.016	14.7752
268.909	12.0408
271.802	9.3365
274.694	9.70096
277.587	3.59833
280.48	4.37424
283.372	2.13157
286.265	0.348
289.158	0.937378
292.05	0.457443
294.943	0.417397
297.836	0.793953
300.729	4.6266
303.621	7.46043
306.514	15.5768
309.407	22.7197
312.299	31.7135
315.192	39.9781
318.085	50.4541
320.978	61.5581
323.87	68.3172
326.763	68.6489
329.656	56.9642
332.548	38.8241
335.441	26.8721
338.334	16.8501
341.226	9.8921
344.119	5.30833
347.012	3.08434
349.904	1.53312
352.797	1.01136
355.69	0.935383
358.583	0.604038
361.475	0.33176
364.368	0.821445
367.261	0.062672
370.153	0.249157
373.046	0.660019
375.939	0.000801
378.832	0.289043
381.724	0.761299
384.617	0.311008
387.51	1.47445
390.402	0.569111
393.295	1.83121
396.188	1.76513
399.08	2.10665
401.973	2.77642
404.866	2.51117
407.759	2.68268
410.651	3.89377
413.544	3.1316
416.437	1.36721
419.329	3.18757
422.222	3.06642
425.115	2.9956
428.007	2.02969
430.9	1.57179
433.793	2.05907
436.685	2.25151
439.578	1.20607
442.471	2.91375
445.364	2.4104
448.256	1.65519
451.149	0.873375
454.042	1.33678
456.934	2.11195
459.827	1.74616
462.72	1.10346
465.613	3.4381
468.505	2.33902
471.398	1.90181
474.291	1.79049
477.183	0.902641
480.076	2.19627
482.969	0.634045
485.861	0.526443
488.754	1.00975
491.647	0.612778
494.539	3.1968
497.432	1.49578
500.325	0.063114
503.218	1.74163
506.11	0.552677
509.003	1.07611
511.896	0.365005
514.788	1.8864
517.681	0.12949
520.574	0.868767
523.466	0.675457
526.359	1.73555
529.252	1.60187
532.145	0.582985
535.037	0.664566
537.93	0.592758
540.823	1.8801
543.715	1.08328
546.608	1.21556
549.501	0.472948
552.394	1.07634
555.286	2.34315
558.179	0.48514
561.072	2.50065
563.964	0.138794
566.857	0.210432
569.75	1.3311
572.642	0.520113
575.535	0.857096
578.428	0.320156
581.321	0.359041
584.213	0.841923
587.106	1.24999
589.999	0.154152
592.891	1.09774
595.784	0.23473
598.677	2.01709
601.569	2.60095
604.462	1.06553
607.355	0.908154
610.247	1.88842
613.14	1.51164
616.033	1.43917
618.926	0.824244
621.818	2.7754
624.711	0.672871
627.604	1.2095
630.496	1.16521
633.389	2.3447
636.282	1.34334
639.174	1.78936
642.067	2.65244
644.96	1.14854
647.852	2.27004
650.745	0.489157
653.638	1.62579
656.531	2.00923
659.423	1.36283
662.316	1.00347
665.209	1.24703
668.101	0.157078
670.994	0.117798
673.887	1.13858
676.779	2.9008
679.672	0.958706
682.565	1.44228
685.458	0.828501
688.35	0.281433
691.243	1.23386
694.136	0.945463
697.028	0.716808
699.921	0.516331
702.814	0.142262
705.707	0.579033
708.599	0.835161
711.492	1.19192
714.385	1.38959
717.277	0.8146
720.17	0.528727
723.063	0.725435
725.955	0.993582
728.848	0.628454
731.741	0.758709
734.634	1.02176
737.526	1.64799
740.419	0.879879
743.312	0.532715
746.204	1.69017
749.097	1.48224
751.99	2.31113
754.882	1.72754
757.775	1.83387
760.668	2.03303
763.561	1.34307
766.453	0.629627
769.346	0.492701
772.239	2.38629
775.131	0.951881
778.024	2.16376
780.917	1.06743
783.809	0.416805
786.702	1.7408
789.595	1.15312
792.487	1.39568
795.38	0.10433
798.273	1.15933
801.166	0.685144
804.058	2.21029
806.951	0.587706
809.844	1.36704
812.736	0.727509
815.629	1.23007
818.522	2.65107
821.415	2.19503
824.307	0.797411
827.2	1.12344
830.093	0.615786
832.985	1.70834
835.878	1.52891
838.771	1.07534
841.663	1.49565
844.556	1.84597
847.449	2.26605
850.342	1.79481
853.234	1.01681
856.127	2.12603
859.02	1.7278
861.912	1.55142
864.805	1.68521
867.698	1.62399
870.591	1.84894
873.483	1.8622
876.376	2.41964
879.269	1.80026
882.161	1.48803
885.054	1.05041
887.947	1.55911
890.839	0.98823
893.732	2.2736
896.625	1.43918
899.518	1.93666
902.41	1.05947
905.303	1.54105
908.196	1.91389
911.088	0.102388
913.981	2.22313
916.874	1.14016
919.766	2.27191
922.659	0.971981
925.552	1.05367
928.444	2.30006
931.337	0.027023
934.23	1.34045
937.123	0.622696
940.015	1.89878
942.908	0.851675
945.801	1.35229
948.693	0.514288
951.586	1.08903
954.479	0.170753
957.371	0.800146
960.264	0.961666
963.157	0.398243
966.05	0.50284
968.942	1.186
971.835	0.561193
974.728	0.172832
977.62	1.32805
980.513	0.609518
983.406	0.053185
986.298	1.71315
989.191	0.837708
992.084	0.550735
994.977	2.03372
997.869	1.22328
1000.76	0.802807
1003.65	0.901627
1006.55	1.72106
1009.44	1.33175
1012.33	2.27853
1015.23	0.541178
1018.12	0.859657
1021.01	1.71728
1023.9	1.57242
1026.8	1.19688
1029.69	1.22629
1032.58	0.968748
1035.47	1.40904
1038.37	1.2426
1041.26	0.331522
1044.15	2.63261
1047.05	0.744354
1049.94	2.36561
1052.83	1.60416
1055.72	0.949795
1058.62	1.54164
1061.51	1.94189
1064.4	1.94856
1067.29	1.8088
1070.19	0.541718
1073.08	0.772522
1075.97	1.07366
1078.87	0.275339
1081.76	1.25705
1084.65	1.5227
1087.54	1.51319
1090.44	0.191942
1093.33	1.80032
1096.22	1.65938
1099.11	2.53723
1102.01	0.930189
1104.9	0.714979
1107.79	1.19029
1110.68	1.57422
1113.58	0.49892
1116.47	1.3737
1119.36	0.289991
1122.26	1.11249
1125.15	1.60815
1128.04	1.04424
1130.93	1.69925
1133.83	1.54979
1136.72	0.820278
1139.61	1.1925
1142.5	0.490683
1145.4	1.59909
1148.29	1.23141
1151.18	2.12859
1154.08	0.378616
1156.97	0.734243
1159.86	0.432388
1162.75	1.1225
1165.65	2.08864
1168.54	0.780308
1171.43	0.087986
1174.32	0.162239
1177.22	1.57528
1180.11	1.02527
1183	0.960442
1185.89	0.802975
1188.79	1.48127
1191.68	1.07558
1194.57	1.40309
1197.47	0.674431
1200.36	0.506361
1203.25	0.310978
1206.14	1.03089
1209.04	0.826801
1211.93	0.579432
1214.82	1.03296
1217.71	0.990318
1220.61	0.756615
1223.5	1.13206
1226.39	1.91964
1229.29	0.588326
1232.18	0.778143
1235.07	1.71672
1237.96	1.08981
1240.86	1.39997
1243.75	1.15884
1246.64	0.110216
1249.53	0.498804
1252.43	1.02376
1255.32	0.826275
1258.21	0.524572
1261.11	0.056889
1264	1.6949
1266.89	1.35478
1269.78	1.35359
1272.68	1.51322
1275.57	0.140446
1278.46	0.574087
1281.35	0.952589
1284.25	0.280813
1287.14	1.23507
1290.03	1.37036
