Measurement: Raman, 532 nm, unoriented, Raman Data Processed
Mineral: Jarosite
Rruff sample: R070493
Ideal chemistry: KFe^3+^_3_(SO_4_)_2_(OH)_6_
Locality: Maria Josefa mine, Rhodalquilar, Almeria Province, Spain
Source: Bob Jenkins
Description: Dark brown rhombohedral crystals
Raman shift (cm-1)	intensity
127.496	0
130.871	0.993713
134.246	30.3353
137.621	173.206
140.995	196.966
144.37	300.295
147.745	329.655
151.12	331.637
154.495	336.16
157.869	362.653
161.244	326.696
164.619	306.642
167.994	232.633
171.369	208.537
174.744	218.033
178.118	189.795
181.493	208.118
184.868	200.972
188.243	186.39
191.618	254.232
194.993	301.42
198.367	446.083
201.742	751.038
205.117	1485.84
208.492	2590.34
211.867	3742.77
215.241	5924.06
218.616	9299.66
221.991	11955.8
225.366	8109.73
228.741	3409.42
232.115	1517.72
235.49	792.652
238.865	457.334
242.24	240.228
245.615	156.893
248.99	76.3942
252.364	25.1978
255.739	9.30145
259.114	0.610962
262.489	15.2602
265.864	19.7091
269.238	7.25452
272.613	55.0808
275.988	98.8841
279.363	191.769
282.738	333.905
286.113	527.124
289.487	841.818
292.862	1267.67
296.237	1732.47
299.612	1836.8
302.987	1036.59
306.361	478.239
309.736	208.521
313.111	152.271
316.486	107.13
319.861	110.333
323.236	77.901
326.61	68.1672
329.985	13.9356
333.36	20.4819
336.735	8.99649
340.11	4.60712
343.485	15.2141
346.859	24.0898
350.234	40.0588
353.609	77.5703
356.984	99.7829
360.359	59.8172
363.733	42.9343
367.108	38.4083
370.483	25.9099
373.858	1.06146
377.233	3.67746
380.608	17.2653
383.982	15.0197
387.357	24.3337
390.732	58.7618
394.107	52.0239
397.481	58.4513
400.856	108.881
404.231	153.36
407.606	259.074
410.981	406.339
414.356	697.665
417.73	1273.8
421.105	2447.67
424.48	4285.73
427.855	7030.57
431.23	9832.44
434.604	11198
437.979	7015.55
441.354	3913.15
444.729	2511.33
448.104	1714.75
451.479	1206.15
454.853	852.379
458.228	467.69
461.603	314.97
464.978	204.508
468.353	155.612
471.728	104.275
475.102	78.844
478.477	49.6017
481.852	42.8694
485.227	17.5704
488.602	17.5139
491.976	2.44412
495.351	20.5937
498.726	3.29224
502.101	9.39465
505.476	2.03751
508.851	21.8045
512.225	5.60782
515.6	14.1845
518.975	44.6173
522.35	27.5467
525.725	25.2426
529.099	60.6405
532.474	82.048
535.849	100.407
539.224	123.624
542.599	156.956
545.973	159.549
549.348	187.748
552.723	192.443
556.098	267.317
559.473	372.188
562.848	561.957
566.222	782.806
569.597	996.372
572.972	1097.08
576.347	944.253
579.722	674.932
583.096	374.416
586.471	201.278
589.846	96.7684
593.221	48.8556
596.596	11.3089
599.971	27.8158
603.345	20.9591
606.72	101.95
610.095	476.229
613.47	1376.89
616.845	2453.4
620.22	3700.03
623.594	5315.26
626.969	2295.32
630.344	736.187
633.719	665.379
637.094	829
640.468	1055.28
643.843	880.765
647.218	516.353
650.593	307.768
653.968	178.897
657.342	105.892
660.717	71.2215
664.092	41.6738
667.467	8.81274
670.842	2.48303
674.217	17.8716
677.591	9.6683
680.966	2.10147
684.341	2.11481
687.716	7.91885
691.091	2.72165
694.466	10.5664
697.84	11.0973
701.215	13.4537
704.59	27.5641
707.965	38.4757
711.34	39.4414
714.714	57.6483
718.089	45.0985
721.464	50.6566
724.839	46.4031
728.214	36.3155
731.588	47.4789
734.963	42.8196
738.338	34.3143
741.713	15.2728
745.088	12.7419
748.462	24.5397
751.837	11.3767
755.212	10.5866
758.587	10.2287
761.962	3.46924
765.337	20.1167
768.711	22.7873
772.086	4.74783
775.461	27.411
778.836	28.7343
782.211	34.1092
785.586	15.4605
788.96	12.065
792.335	19.1774
795.71	14.509
799.085	12.9625
802.46	17.7601
805.834	10.6574
809.209	5.1875
812.584	2.69687
815.959	0.808563
819.334	13.3311
822.708	11.1984
826.083	27.4933
829.458	50.4265
832.833	36.3074
836.208	34.3542
839.583	43.3736
842.957	54.1544
846.332	49.1782
849.707	49.3928
853.082	47.4773
856.457	46.2929
859.832	28.0164
863.206	21.6166
866.581	9.23978
869.956	17.291
873.331	16.1398
876.706	11.5917
880.08	3.93048
883.455	6.63379
886.83	9.24588
890.205	7.20367
893.58	12.3117
896.955	11.7705
900.329	2.09647
903.704	4.0871
907.079	16.8907
910.454	9.15576
913.829	20.4744
917.203	31.5987
920.578	17.9723
923.953	47.2119
927.328	26.3631
930.703	23.6857
934.077	35.1133
937.452	29.0461
940.827	35.1097
944.202	26.6262
947.577	5.20718
950.952	12.2101
954.326	22.9764
957.701	14.4005
961.076	8.82669
964.451	2.26697
967.826	6.45325
971.201	5.34772
974.575	12.2017
977.95	9.1973
981.325	0.484131
984.7	34.7932
988.075	55.114
991.449	113.936
994.824	368.09
998.199	1156.82
1001.57	2487.89
1004.95	4068.54
1008.32	3392.71
1011.7	1869.8
1015.07	928.774
1018.45	497.195
1021.82	315.56
1025.2	232.158
1028.57	157.55
1031.95	104.614
1035.32	47.8715
1038.7	33.154
1042.07	1.58563
1045.45	2.83579
1048.82	32.7686
1052.2	21.0137
1055.57	3.06567
1058.95	8.33231
1062.32	14.6416
1065.69	61.4556
1069.07	67.9709
1072.44	118.882
1075.82	195.904
1079.19	291.1
1082.57	450.794
1085.94	800.012
1089.32	1607.74
1092.69	3188.06
1096.07	5518.22
1099.44	7432.32
1102.82	6800.66
1106.19	4204.29
1109.57	2496.64
1112.94	1498.79
1116.32	805.113
1119.69	492.322
1123.07	352.639
1126.44	319.053
1129.82	368.902
1133.19	441.918
1136.57	657.395
1139.94	1008.54
1143.32	1626.94
1146.69	2288.85
1150.07	2730.78
1153.44	2619.15
1156.82	2004.18
1160.19	1318.43
1163.57	885.737
1166.94	598.588
1170.32	425.877
1173.69	317.366
1177.06	244.308
1180.44	169.707
1183.81	125.121
1187.19	69.9357
1190.56	38.2094
1193.94	6.83041
1197.31	11.2659
1200.69	3.81162
1204.06	11.1145
1207.44	1.08197
1210.81	2.64761
1214.19	25.7105
1217.56	12.7487
1220.94	5.76297
1224.31	3.59683
1227.69	3.01599
1231.06	2.5965
1234.44	3.99066
1237.81	9.116
1241.19	21.4506
1244.56	31.0586
1247.94	33.9616
1251.31	30.0263
1254.68	25.3314
1258.06	32.3701
1261.43	30.4494
1264.81	23.9895
1268.18	20.1032
1271.56	16.4337
1274.93	23.149
1278.31	5.42023
1281.68	26.1006
1285.06	13.6465
1288.43	6.03214
