Measurement: Raman, 532 nm, unoriented, Raman Data Processed
Mineral: Jarosite
Rruff sample: R060113
Ideal chemistry: KFe^3+^_3_(SO_4_)_2_(OH)_6_
Locality: Iron Blossom mine, East Tintic District, Eureka, Utah, USA
Source: University of Arizona Mineral Museum
Description: Amber-yellow to dark brown rhombohedral crystals
Measured chemistry: (K_0.88_Sr_0.12_)(Fe^3+^_0.96_Al_0.04_)_3_((S_0.94_P_0.06_)O_4_)_2_(OH)_6_
Raman shift (cm-1)	intensity
125.94	0
129.315	27.1772
132.69	105.029
136.065	348.804
139.44	496.607
142.815	76.4103
146.189	12.2441
149.564	12.7839
152.939	17.1239
156.314	4.7915
159.689	0.697815
163.063	4.64893
166.438	1.82642
169.813	2.05121
173.188	2.27539
176.563	0.584595
179.938	12.5878
183.312	28.0686
186.687	52.6949
190.062	95.7386
193.437	139.98
196.812	202.928
200.186	336.427
203.561	595.842
206.936	871.835
210.311	1043.04
213.686	1294.93
217.06	1784.29
220.435	2251.25
223.81	1778.39
227.185	826.217
230.56	374.641
233.935	193.186
237.309	108.772
240.684	65.5835
244.059	37.6225
247.434	16.6374
250.809	6.01773
254.184	0.430542
257.558	4.37387
260.933	8.38611
264.308	1.30959
267.683	12.412
271.058	15.552
274.433	36.1336
277.807	69.0154
281.182	137.639
284.557	216.68
287.932	290.241
291.307	392.15
294.681	545.088
298.056	679.759
301.431	549.332
304.806	279.273
308.181	136.5
311.555	77.9643
314.93	56.8934
318.305	41.6766
321.68	36.2964
325.055	40.1579
328.43	47.1964
331.804	70.0422
335.179	109.537
338.554	156.293
341.929	210.537
345.304	284.801
348.678	380.061
352.053	426.612
355.428	329.257
358.803	198.213
362.178	116.667
365.553	74.83
368.928	51.9998
372.302	31.8127
375.677	13.2187
379.052	2.67962
382.427	2.89509
385.802	5.55107
389.176	4.83378
392.551	2.03596
395.926	6.71335
399.301	18.8501
402.676	36.1996
406.05	60.609
409.425	100.701
412.8	180.805
416.175	336.862
419.55	564.539
422.925	799.74
426.299	1115.39
429.674	1592.71
433.049	1950.29
436.424	1548.21
439.799	942.313
443.173	688.054
446.548	657.211
449.923	736.816
453.298	709.833
456.673	379.382
460.048	186.989
463.423	112.326
466.797	74.0702
470.172	56.521
473.547	42.7918
476.922	31.6648
480.297	19.7718
483.671	8.94622
487.046	3.70269
490.421	0.136139
493.796	1.27621
497.171	3.48988
500.546	3.79172
503.92	4.2804
507.295	3.27644
510.67	0.132668
514.045	3.58173
517.42	8.02867
520.794	15.8602
524.169	27.3417
527.544	41.1265
530.919	58.803
534.294	82.4304
537.668	111.906
541.043	140.106
544.418	168.759
547.793	195.437
551.168	215.805
554.543	235.355
557.917	266.341
561.292	309.231
564.667	355.239
568.042	393.071
571.417	408.088
574.792	365.857
578.166	277.231
581.541	191.942
584.916	120.872
588.291	76.2583
591.666	52.2878
595.04	37.6049
598.415	28.4912
601.79	30.7115
605.165	37.8027
608.54	83.5003
611.915	155.618
615.289	226.803
618.664	382.449
622.039	579.328
625.414	524.945
628.789	174.367
632.163	81.1311
635.538	74.2084
638.913	84.396
642.288	70.8788
645.663	34.2826
649.038	14.3003
652.412	2.50799
655.787	1.73649
659.162	2.8423
662.537	0.012215
665.912	2.13961
669.287	2.90907
672.661	1.87145
676.036	0.764862
679.411	0.131569
682.786	1.50913
686.161	0.438156
689.535	0.012981
692.91	3.63895
696.285	2.88035
699.66	5.84203
703.035	6.29468
706.409	7.06361
709.784	9.26155
713.159	10.8716
716.534	9.16873
719.909	8.58687
723.284	9.73367
726.659	8.94043
730.033	6.74397
733.408	5.74376
736.783	6.34819
740.158	3.35908
743.533	3.32442
746.907	2.97101
750.282	3.1338
753.657	1.97967
757.032	1.73505
760.407	0.604233
763.782	1.05336
767.156	2.93131
770.531	3.16776
773.906	3.71013
777.281	2.98435
780.656	2.19371
784.03	4.3931
787.405	3.61681
790.78	0.705345
794.155	2.53044
797.53	1.29174
800.904	0.475689
804.279	0.468887
807.654	0.365723
811.029	1.53563
814.404	0.049889
817.779	1.96888
821.154	5.09142
824.528	3.76658
827.903	8.32539
831.278	10.1138
834.653	13.8306
838.028	15.8901
841.402	20.2933
844.777	18.4378
848.152	17.0746
851.527	13.5763
854.902	12.8117
858.277	10.0898
861.651	5.64593
865.026	9.2588
868.401	4.65165
871.776	6.62212
875.151	5.89214
878.525	5.9457
881.9	6.9829
885.275	6.49492
888.65	6.43945
892.025	6.45957
895.399	4.41471
898.774	5.91674
902.149	5.08182
905.524	6.26255
908.899	6.20766
912.274	5.34035
915.649	1.75885
919.023	2.11507
922.398	1.55881
925.773	0.425354
929.148	1.02547
932.523	1.8662
935.897	0.147549
939.272	1.10513
942.647	0.249283
946.022	0.16375
949.397	1.17394
952.771	0.465576
956.146	1.21237
959.521	3.34881
962.896	5.54295
966.271	6.00957
969.646	10.3761
973.02	19.0361
976.395	36.2262
979.77	46.1026
983.145	60.2077
986.52	95.394
989.894	121.783
993.269	239.761
996.644	467.179
1000.02	708.971
1003.39	1188.86
1006.77	1442.26
1010.14	551.337
1013.52	309.217
1016.89	177.544
1020.27	99.2303
1023.64	59.6972
1027.02	38.1669
1030.39	24.0039
1033.77	14.1037
1037.14	3.14307
1040.52	4.10092
1043.89	8.13724
1047.27	7.98769
1050.64	4.55183
1054.02	0.358849
1057.39	13.1955
1060.77	30.3355
1064.14	51.4852
1067.52	67.8859
1070.89	85.6753
1074.27	108.828
1077.64	144.196
1081.02	211.697
1084.39	337.375
1087.76	562.955
1091.14	922.206
1094.51	1360.29
1097.89	1811.82
1101.26	1877.97
1104.64	1278.61
1108.01	709.537
1111.39	416.038
1114.76	267.558
1118.14	189.691
1121.51	143.518
1124.89	119.375
1128.26	103.964
1131.64	101.16
1135.01	121.534
1138.39	171.582
1141.76	258.953
1145.14	369.736
1148.51	492.278
1151.89	549.306
1155.26	480.612
1158.64	347.542
1162.01	227.513
1165.38	152.607
1168.76	101.819
1172.13	68.5932
1175.51	43.2983
1178.88	27.6054
1182.26	17.8557
1185.63	11.7358
1189.01	5.10599
1192.38	2.36227
1195.76	3.19022
1199.13	4.21208
1202.51	2.42897
1205.88	3.51205
1209.26	2.35791
1212.63	0.217575
1216.01	0.277428
1219.38	2.50143
1222.76	5.05936
1226.13	2.14455
1229.51	2.64367
1232.88	0.471931
1236.26	0.450111
1239.63	4.61161
1243.01	0.267353
1246.38	5.3916
1249.76	7.22992
1253.13	10.0033
1256.51	14.2607
1259.88	13.9775
1263.26	16.5063
1266.63	15.6314
1270.01	12.8468
1273.38	10.9108
1276.75	9.01708
1280.13	9.08838
1283.5	3.95825
1286.88	5.42814
1290.25	6.67616
1293.63	2.21992
1297	1.64423
1300.38	0.073353
