Measurement: Raman, 785 nm, unoriented, Raman Data Processed
Mineral: Jarosite
Rruff sample: R070493
Ideal chemistry: KFe^3+^_3_(SO_4_)_2_(OH)_6_
Locality: Maria Josefa mine, Rhodalquilar, Almeria Province, Spain
Source: Bob Jenkins
Description: Dark brown rhombohedral crystals
Raman shift (cm-1)	intensity
98.7402	0
102.115	97.8856
105.49	116.21
108.865	128.211
112.239	7.86694
115.614	0.231873
118.989	11.9048
122.364	22.2
125.739	167.34
129.113	518.691
132.488	885.028
135.863	1642.49
139.238	2387.22
142.613	1491.37
145.988	1256.47
149.362	1808.4
152.737	2277.14
156.112	2114.31
159.487	1580.94
162.862	1374.87
166.237	1242.26
169.611	1047.62
172.986	782.498
176.361	717.732
179.736	606.552
183.111	634.805
186.485	615.095
189.86	748.732
193.235	878.466
196.61	1107.75
199.985	1603.45
203.359	2782.69
206.734	5164.26
210.109	7940.69
213.484	10667.2
216.859	14931.3
220.234	22425
223.608	27264.7
226.983	17710.2
230.358	8187.61
233.733	3758.88
237.108	1981.71
240.482	1166.75
243.857	690.689
247.232	403
250.607	204.426
253.982	68.9976
257.356	15.8497
260.731	48.8754
264.106	82.9072
267.481	49.7936
270.856	53.496
274.231	210.535
277.605	449.808
280.98	777.398
284.355	1246.27
287.73	1858.26
291.105	2525.8
294.479	3427.37
297.854	4461.37
301.229	3964.18
304.604	2057.43
307.979	902.188
311.354	451.718
314.728	243.001
318.103	131.31
321.478	63.7288
324.853	26.3849
328.228	0.499634
331.603	40.9901
334.977	49.3422
338.352	35.2692
341.727	167.305
345.102	367.637
348.477	597.159
351.851	898.387
355.226	952.169
358.601	629.602
361.976	473.074
365.351	317.127
368.726	152.387
372.1	31.3072
375.475	15.0054
378.85	69.0253
382.225	128.576
385.6	214.035
388.974	163.548
392.349	101.935
395.724	89.8981
399.099	98.2024
402.474	157.323
405.849	275.161
409.223	455.424
412.598	816.829
415.973	1594.91
419.348	3040.2
422.723	5224.79
426.097	7803.83
429.472	11842.7
432.847	17423.8
436.222	16976.3
439.597	11526.1
442.971	9023.02
446.346	7134.89
449.721	5110.23
453.096	4021.05
456.471	2365.27
459.846	1230.26
463.22	689.348
466.595	470.475
469.97	294.137
473.345	204.348
476.72	135.918
480.094	91.2579
483.469	45.3672
486.844	33.1998
490.219	7.99036
493.594	23.9785
496.969	36.0682
500.343	23.4326
503.718	14.7898
507.093	3.48517
510.468	17.7183
513.843	11.2414
517.217	19.0214
520.592	11.4943
523.967	40.6153
527.342	134.644
530.717	94.6025
534.091	149.428
537.466	199.86
540.841	305.678
544.216	418.414
547.591	523.573
550.966	667.27
554.34	796.546
557.715	1003.66
561.09	1314.29
564.465	1641.93
567.84	1960.82
571.215	2144.39
574.589	1927.97
577.964	1497.19
581.339	963.312
584.714	554.924
588.089	293.427
591.463	138.362
594.838	82.7131
598.213	40.8253
601.588	40.7596
604.963	171.627
608.337	587.902
611.712	1738.91
615.087	3074.47
618.462	5315.94
621.837	9538.36
625.212	9666.28
628.586	2886.53
631.961	1089.86
635.336	932.25
638.711	1184.99
642.086	1338.38
645.46	986.85
648.835	671.537
652.21	448.873
655.585	285.474
658.96	135.559
662.335	80.7559
665.709	44.2077
669.084	32.22
672.459	41.4274
675.834	0.385498
679.209	20.9472
682.583	8.13715
685.958	1.17944
689.333	9.83768
692.708	2.31802
696.083	10.6324
699.457	26.4527
702.832	16.6597
706.207	38.5164
709.582	56.3719
712.957	50.0055
716.332	61.5284
719.706	63.5887
723.081	81.3157
726.456	70.7009
729.831	70.5606
733.206	71.731
736.581	49.1183
739.955	46.0494
743.33	22.6995
746.705	20.7508
750.08	33.0831
753.455	8.95847
756.829	11.143
760.204	2.79205
763.579	12.9665
766.954	19.7115
770.329	32.9555
773.703	26.5596
777.078	11.4931
780.453	30.5033
783.828	21.5467
787.203	15.3563
790.578	28.3402
793.952	1.53076
797.327	1.77567
800.702	15.4843
804.077	11.0388
807.452	7.19232
810.827	10.4802
814.201	129.753
817.576	6.29681
820.951	6.44543
824.326	10.4812
827.701	27.8395
831.075	43.7277
834.45	42.2179
837.825	54.8188
841.2	43.4711
844.575	58.2316
847.949	40.5275
851.324	56.3978
854.699	35.7446
858.074	48.2606
861.449	43.4096
864.823	46.9183
868.198	25.0773
871.573	21.4973
874.948	36.7205
878.323	26.999
881.698	33.9571
885.072	13.4953
888.447	32.6927
891.822	27.1976
895.197	25.0457
898.572	1.70966
901.947	24.5553
905.321	22.8075
908.696	28.8534
912.071	33.4202
915.446	51.9524
918.821	53.3766
922.195	44.645
925.57	53.8652
928.945	55.0662
932.32	39.7311
935.695	50.4393
939.069	39.0553
942.444	36.7174
945.819	23.4787
949.194	7.24966
952.569	19.0922
955.943	7.80121
959.318	2.21957
962.693	1.9693
966.068	2.90326
969.443	6.71909
972.818	14.3622
976.192	14.7272
979.567	35.6338
982.942	81.4556
986.317	157.873
989.692	272.21
993.067	563.204
996.441	1687.63
999.816	3592.84
1003.19	7378.7
1006.57	12081.5
1009.94	8426.34
1013.32	4216.49
1016.69	1635.71
1020.07	850.389
1023.44	599.223
1026.82	483.396
1030.19	282.931
1033.56	147.977
1036.94	78.3868
1040.31	35.3555
1043.69	18.6144
1047.06	22.4211
1050.44	32.2513
1053.81	15.5759
1057.19	13.3728
1060.56	20.7342
1063.94	8.76752
1067.31	47.4269
1070.69	85.8969
1074.06	162.827
1077.44	215.501
1080.81	360.016
1084.19	567.766
1087.56	1046.76
1090.94	1947.09
1094.31	3476.93
1097.69	5462.89
1101.06	6952.85
1104.43	6068.16
1107.81	4485.78
1111.18	3418.94
1114.56	2034.4
1117.93	1119.8
1121.31	713.956
1124.68	552.393
1128.06	522.392
1131.43	606.446
1134.81	749.196
1138.18	1047.85
1141.56	1556.01
1144.93	2294.59
1148.31	3067.4
1151.68	3481.17
1155.06	3112.11
1158.43	2189.43
1161.81	1448.08
1165.18	937.797
1168.56	631.778
1171.93	446.714
1175.31	310.987
1178.68	195.353
1182.06	152.757
1185.43	106.202
1188.81	41.5774
1192.18	29.1851
1195.56	98.497
1198.93	2.44034
1202.31	13.8749
1205.68	12.2777
1209.06	21.5611
1212.43	26.8854
1215.8	14.7906
1219.18	17.2605
1222.55	24.2864
1225.93	45.3909
1229.3	43.6093
1232.68	46.684
1236.05	45.8623
1239.43	45.1362
1242.8	27.0427
1246.18	26.7728
1249.55	23.9155
1252.93	30.6914
1256.3	44.7903
1259.68	26.0963
1263.05	9.0451
1266.43	7.78844
