Measurement: Raman, 780 nm, unoriented, Raman Data Processed
Mineral: Jarosite
Rruff sample: R060113
Ideal chemistry: KFe^3+^_3_(SO_4_)_2_(OH)_6_
Locality: Iron Blossom mine, East Tintic District, Eureka, Utah, USA
Source: University of Arizona Mineral Museum
Description: Amber-yellow to dark brown rhombohedral crystals
Measured chemistry: (K_0.88_Sr_0.12_)(Fe^3+^_0.96_Al_0.04_)_3_((S_0.94_P_0.06_)O_4_)_2_(OH)_6_
Raman shift (cm-1)	intensity
125.291	0
128.666	14.4737
132.041	41.9878
135.416	89.2736
138.791	158.091
142.166	48.253
145.54	6.99046
148.915	1.78766
152.29	1.99101
155.665	0.59774
159.04	0.767025
162.414	0.37849
165.789	0.141945
169.164	0.051411
172.539	1.11586
175.914	1.43651
179.288	0.634346
182.663	2.94143
186.038	7.96872
189.413	14.0856
192.788	22.4144
196.162	32.3592
199.537	51.5655
202.912	80.523
206.287	113.233
209.662	141.073
213.037	178.502
216.411	240.097
219.786	305.202
223.161	285.789
226.536	167.206
229.911	76.6394
233.286	38.3906
236.66	20.9963
240.035	13.9786
243.41	10.5887
246.785	7.04176
250.16	3.78131
253.534	0.229679
256.909	1.32746
260.284	0.983009
263.659	1.51342
267.034	3.768
270.408	10.4877
273.783	18.3803
277.158	29.3974
280.533	47.1521
283.908	67.5773
287.283	91.6002
290.657	118.521
294.032	133.087
297.407	137.572
300.782	117.738
304.157	67.3879
307.531	33.8468
310.906	18.3275
314.281	9.54547
317.656	5.78582
321.031	4.12981
324.406	4.86401
327.78	6.49803
331.155	8.21749
334.53	14.0809
337.905	20.1699
341.279	28.58
344.654	38.7807
348.029	53.0906
351.404	59.2005
354.779	48.7234
358.154	29.7352
361.528	13.4417
364.903	6.83605
368.278	3.98096
371.653	1.8554
375.028	0.538971
378.402	1.0431
381.777	1.91061
385.152	0.244873
388.527	0.104576
391.902	3.38834
395.277	7.23833
398.651	11.6759
402.026	16.4534
405.401	22.6604
408.776	27.0246
412.151	28.1326
415.526	32.1079
418.9	44.4475
422.275	60.1854
425.65	83.9277
429.025	116.553
432.399	152.175
435.774	140.65
439.149	98.4793
442.524	74.2813
445.899	75.5956
449.274	91.7242
452.648	100.398
456.023	59.8877
459.398	25.6208
462.773	11.9966
466.148	7.17322
469.522	4.40406
472.897	2.06716
476.272	1.54676
479.647	1.69412
483.022	3.42639
486.397	1.69127
489.771	1.65119
493.146	2.308
496.521	0.855143
499.896	1.15625
503.271	0.048361
506.645	0.001095
510.02	0.930161
513.395	0.230253
516.77	1.18621
520.145	0.556694
523.519	1.25085
526.894	3.36757
530.269	5.50924
533.644	8.547
537.019	12.2898
540.394	16.6756
543.768	20.0553
547.143	23.457
550.518	24.4875
553.893	25.6836
557.268	27.7099
560.643	30.8473
564.017	34.1066
567.392	34.3641
570.767	34.6625
574.142	30.5834
577.516	24.0654
580.891	16.15
584.266	10.4971
587.641	7.23479
591.016	5.1489
594.391	4.61885
597.765	5.68737
601.14	5.99144
604.515	8.17047
607.89	10.5755
611.265	14.0431
614.639	14.5886
618.014	20.1026
621.389	31.2265
624.764	34.1834
628.139	15.7243
631.514	6.5787
634.888	4.40445
638.263	5.537
641.638	5.06413
645.013	2.94823
648.388	1.77031
651.763	0.072096
655.137	0.202454
658.512	0.397429
661.887	0.096722
665.262	0.169119
668.636	0.127628
672.011	0.172826
675.386	0.12464
678.761	0.240259
682.136	0.018955
685.511	1.06402
688.885	0.537698
692.26	0.899849
695.635	0.038101
699.01	0.91956
702.385	0.792383
705.76	0.439335
709.134	1.01067
712.509	1.6314
715.884	0.492825
719.259	0.083778
722.634	0.844796
726.008	0.309577
729.383	0.528193
732.758	0.360337
736.133	0.545333
739.508	0.091256
742.882	0.45715
746.257	1.04657
749.632	0.724371
753.007	1.1646
756.382	0.942917
759.756	1.31734
763.131	0.417346
766.506	0.265424
769.881	0.840755
773.256	0.698644
776.631	0.32718
780.005	0.895377
783.38	1.21501
786.755	1.60561
790.13	0.534226
793.505	0.717295
796.88	0.856001
800.254	0.214428
803.629	0.71823
807.004	0.807027
810.379	0.136049
813.754	0.446276
817.128	1.43354
820.503	0.518219
823.878	1.3349
827.253	0.965824
830.628	1.24768
834.002	1.71429
837.377	2.27396
840.752	1.97313
844.127	2.54882
847.502	1.39976
850.876	1.63221
854.251	1.15174
857.626	1.73892
861.001	1.5372
864.376	1.13536
867.751	1.34889
871.125	1.32101
874.5	1.66098
877.875	1.22416
881.25	0.61724
884.625	1.46276
888	1.42845
891.374	0.655622
894.749	1.33678
898.124	0.910814
901.499	1.16804
904.874	0.444908
908.248	0.946588
911.623	0.529743
914.998	0.960519
918.373	0.699004
921.748	0.847453
925.122	0.521049
928.497	0.95713
931.872	0.605163
935.247	0.897082
938.622	0.104452
941.996	0.468874
945.371	0.311376
948.746	0.193316
952.121	0.3631
955.496	1.08246
958.87	0.692403
962.245	0.78438
965.62	0.597507
968.995	1.52962
972.37	1.27968
975.745	2.37133
979.119	3.36815
982.494	5.84076
985.869	7.80567
989.244	13.8345
992.619	26.1999
995.994	53.0495
999.368	86.0507
1002.74	142.346
1006.12	194.828
1009.49	84.0339
1012.87	34.7455
1016.24	16.5163
1019.62	8.55471
1022.99	5.88958
1026.37	4.09456
1029.74	2.0344
1033.12	0.381764
1036.49	0.197319
1039.87	0.362849
1043.24	0.484048
1046.62	0.094158
1049.99	0.469387
1053.37	0.012453
1056.74	0.966415
1060.12	1.90071
1063.49	2.67592
1066.87	4.23567
1070.24	5.41904
1073.61	6.646
1076.99	8.64425
1080.36	12.626
1083.74	20.3877
1087.11	33.2151
1090.49	55.0339
1093.86	81.8082
1097.24	109.357
1100.61	117.184
1103.99	89.551
1107.36	52.3341
1110.74	29.8277
1114.11	19.0246
1117.49	12.0926
1120.86	9.41205
1124.24	7.14711
1127.61	5.87538
1130.99	5.53482
1134.36	7.71766
1137.74	10.7889
1141.11	16.1949
1144.48	23.8514
1147.86	32.9831
1151.23	38.5898
1154.61	36.4721
1157.98	27.5784
1161.36	17.7646
1164.73	11.1371
1168.11	7.0851
1171.48	4.46241
1174.86	2.98349
1178.23	2.12699
1181.61	1.39105
1184.98	0.939542
1188.36	0.380535
1191.73	0.280514
1195.11	0.504973
1198.48	0.549087
1201.86	0.059057
1205.23	0.169195
1208.61	0.530805
1211.98	0.285675
1215.36	0.103588
1218.73	0.750767
1222.11	0.783508
1225.48	0.316302
1228.86	0.02744
1232.23	1.01662
1235.61	0.219965
1238.98	0.786461
1242.36	1.09362
1245.73	1.54039
1249.11	1.26253
1252.48	1.36449
1255.85	0.885219
1259.23	1.66521
1262.6	0.213729
1265.98	1.28238
1269.35	1.82042
1272.73	0.741499
1276.1	0.836319
1279.48	0.356388
1282.85	0.055384
1286.23	0
