Measurement: Raman, 780 nm, unoriented, Raman Data Processed
Mineral: Jarosite
Rruff sample: R060236
Ideal chemistry: KFe^3+^_3_(SO_4_)_2_(OH)_6_
Locality: Gold Hill, Tooele County, Utah, USA
Source: Michael Scott
Description: Spherical groups of brown bladed crystals
Raman shift (cm-1)	intensity
143.896	0
146.788	1.6734
149.681	0.272141
152.574	1.07841
155.466	0.959145
158.359	2.2585
161.252	9.81021
164.145	17.2183
167.037	24.5598
169.93	33.0919
172.823	37.251
175.715	46.8377
178.608	57.2463
181.501	53.196
184.393	33.4484
187.286	20.7866
190.179	11.0281
193.072	10.5543
195.964	13.1237
198.857	21.4335
201.75	37.0454
204.642	60.2459
207.535	78.1105
210.428	91.3456
213.321	108.102
216.213	127.066
219.106	144.312
221.999	143.833
224.891	106.459
227.784	58.193
230.677	31.6093
233.569	21.6526
236.462	14.5072
239.355	9.77896
242.248	6.16688
245.14	6.37319
248.033	7.53712
250.926	7.62456
253.818	2.84866
256.711	1.57702
259.604	2.11181
262.496	0.983311
265.389	1.53461
268.282	5.22459
271.175	8.39603
274.067	11.0572
276.96	17.1951
279.853	23.1458
282.745	31.3575
285.638	39.601
288.531	47.5687
291.423	56.3526
294.316	57.9766
297.209	55.3021
300.101	43.6783
302.994	27.2268
305.887	14.5932
308.78	9.11996
311.672	7.03559
314.565	4.80356
317.458	2.24934
320.35	0.61467
323.243	1.41434
326.136	3.52022
329.029	7.83919
331.921	14.218
334.814	19.1629
337.707	24.6005
340.599	24.4078
343.492	24.4936
346.385	25.7579
349.277	25.6275
352.17	24.3876
355.063	18.9544
357.955	9.7944
360.848	2.31268
363.741	0.974022
366.634	2.41949
369.526	1.11025
372.419	0.92672
375.312	3.3003
378.204	6.18445
381.097	6.93683
383.99	4.35009
386.882	3.25212
389.775	1.40049
392.668	1.30266
395.561	2.04428
398.453	3.69643
401.346	8.32017
404.239	12.4164
407.131	18.525
410.024	24.4507
412.917	33.3568
415.81	44.1782
418.702	57.1443
421.595	69.0197
424.488	81.8887
427.38	95.3746
430.273	109.717
433.166	115.554
436.058	105.754
438.951	92.8355
441.844	82.8427
444.736	80.6844
447.629	83.2086
450.522	84.0196
453.415	73.4943
456.307	48.4144
459.2	32.7867
462.093	24.5743
464.985	20.5101
467.878	16.3082
470.771	13.7718
473.663	12.0698
476.556	11.6623
479.449	11.0609
482.342	9.81151
485.234	8.51841
488.127	7.23504
491.02	5.56175
493.912	3.62743
496.805	1.9183
499.698	0.331085
502.591	0.066418
505.483	0.451183
508.376	0.485306
511.269	0.70097
514.161	1.27569
517.054	0.274929
519.947	0.026726
522.839	1.14252
525.732	2.11344
528.625	4.05769
531.518	5.52807
534.41	7.95289
537.303	10.4213
540.196	13.3116
543.088	16.026
545.981	18.7424
548.874	20.1795
551.766	22.6487
554.659	25.1608
557.552	27.9603
560.444	29.6114
563.337	31.5301
566.23	32.0547
569.123	31.047
572.015	27.5861
574.908	21.8673
577.801	15.5953
580.693	10.5112
583.586	7.82518
586.479	4.23871
589.371	3.29351
592.264	1.89824
595.157	1.29379
598.05	1.38047
600.942	1.37755
603.835	2.55468
606.728	4.33098
609.62	9.87274
612.513	13.4468
615.406	17.225
618.298	23.5824
621.191	32.171
624.084	32.2479
626.977	16.2198
629.869	8.02963
632.762	6.88699
635.655	6.42926
638.547	6.2869
641.44	6.71236
644.333	4.62754
647.226	2.4208
650.118	1.1445
653.011	0.244675
655.904	0.559601
658.796	0.575563
661.689	0.046095
664.582	0.440229
667.474	0.425861
670.367	0.152243
673.26	0.131165
676.153	0.418972
679.045	0.265278
681.938	0.427723
684.831	0.085934
687.723	0.520342
690.616	0.787203
693.509	0.71744
696.401	0.825356
699.294	0.828169
702.187	0.467052
705.08	0.954447
707.972	0.671438
710.865	0.975548
713.758	1.1942
716.65	0.936052
719.543	0.432364
722.436	0.870529
725.328	0.598783
728.221	0.383942
731.114	0.412745
734.006	0.000277
736.899	0.316542
739.792	0.20149
742.685	0.028885
745.577	0.55979
748.47	0.423983
751.363	0.387115
754.255	0.291393
757.148	0.282782
760.041	0.379431
762.933	1.24669
765.826	2.28641
768.719	3.55642
771.612	5.17309
774.504	7.68356
777.397	11.1409
780.29	16.4565
783.182	23.6341
786.075	33.8737
788.968	47.3018
791.861	65.3651
794.753	86.0813
797.646	100.778
800.539	105.139
803.431	99.4617
806.324	94.6098
809.217	87.5117
812.109	73.1151
815.002	56.0907
817.895	41.0884
820.788	31.9393
823.68	25.7111
826.573	23.0222
829.466	22.2153
832.358	16.1879
835.251	9.24982
838.144	4.25527
841.036	2.00503
843.929	0.959972
846.822	0.528511
849.715	1.60664
852.607	2.40551
855.5	4.4352
858.393	5.93213
861.285	7.28641
864.178	10.5673
867.071	13.3831
869.963	15.3362
872.856	16.4139
875.749	20.274
878.641	22.4165
881.534	27.2454
884.427	31.6658
887.32	34.6974
890.212	33.801
893.105	30.1611
895.998	24.145
898.89	18.5125
901.783	15.1652
904.676	10.4932
907.568	8.63355
910.461	5.32695
913.354	3.30247
916.246	2.63853
919.139	1.25654
922.032	0.141485
924.925	0.353621
927.817	0.068089
930.71	0.505432
933.603	0.177608
936.495	0.324696
939.388	0.164778
942.281	0.06884
945.173	0.293808
948.066	0.203136
950.959	0.326296
953.852	0.119684
956.744	0.026451
959.637	0.377089
962.53	1.17878
965.422	0.956001
968.315	1.41792
971.208	1.61809
974.101	1.35774
976.993	2.26357
979.886	2.70683
982.779	4.22119
985.671	5.34765
988.564	7.79938
991.457	13.4082
994.349	30.1842
997.242	48.7776
1000.13	69.4654
1003.03	94.1057
1005.92	109.51
1008.81	68.92
1011.71	34.8402
1014.6	18.3579
1017.49	11.7065
1020.38	8.12819
1023.28	5.49022
1026.17	4.33179
1029.06	3.07685
1031.95	2.54767
1034.85	0.882421
1037.74	0.960606
1040.63	0.792917
1043.53	0.301388
1046.42	0.278414
1049.31	0.587776
1052.2	0.359562
1055.1	0.143799
1057.99	0.089468
1060.88	0.09947
1063.77	0.442505
1066.67	1.56216
1069.56	2.48928
1072.45	3.36806
1075.35	4.42978
1078.24	6.75974
1081.13	10.9793
1084.02	18.0751
1086.92	28.9
1089.81	45.1069
1092.7	64.3006
1095.59	82.388
1098.49	94.4717
1101.38	93.7598
1104.27	74.8052
1107.16	50.5212
1110.06	33.3531
1112.95	20.277
1115.84	13.2161
1118.73	9.13415
1121.63	6.05001
1124.52	4.89454
1127.41	5.39327
1130.31	4.56355
1133.2	5.62619
1136.09	7.88072
1138.98	10.1274
1141.88	14.9493
1144.77	19.3481
1147.66	23.8222
1150.56	24.8065
1153.45	23.9804
1156.34	18.4921
1159.23	16.2429
1162.13	9.90976
1165.02	6.47175
1167.91	4.88563
1170.8	3.52077
1173.7	1.71989
1176.59	1.8567
1179.48	1.16791
1182.38	0.387628
1185.27	0.023067
1188.16	0.271122
1191.05	0.104649
1193.95	0.055096
1196.84	0.031038
1199.73	0.292337
1202.62	0.081222
1205.52	0.163655
1208.41	0.149426
1211.3	0.044332
1214.19	0.220168
1217.09	0.387407
1219.98	0.347401
1222.87	0.505858
1225.77	0.270213
1228.66	0.354278
1231.55	0.52445
1234.44	0.627229
1237.34	0.821971
1240.23	0.00454
1243.12	0.469838
1246.01	0.538891
1248.91	0.816814
1251.8	0.627428
1254.69	0.377247
1257.59	0.759706
1260.48	0.528894
1263.37	0.381832
1266.26	0.021395
1269.16	0.903802
1272.05	0.405103
1274.94	0.369565
1277.83	0.539414
1280.73	0.257668
1283.62	0.53534
