Measurement: Raman, 532 nm, unoriented, Raman Data Processed
Mineral: Jarosite
Rruff sample: R060236
Ideal chemistry: KFe^3+^_3_(SO_4_)_2_(OH)_6_
Locality: Gold Hill, Tooele County, Utah, USA
Source: Michael Scott
Description: Spherical groups of brown bladed crystals
Raman shift (cm-1)	intensity
143.665	0
147.039	1.8299
150.414	0.322159
153.789	5.7243
157.164	8.73002
160.539	8.64073
163.913	15.2745
167.288	25.2923
170.663	38.8372
174.038	47.3571
177.413	64.3532
180.788	83.3014
184.162	66.0465
187.537	46.0313
190.912	32.4328
194.287	31.4834
197.662	39.222
201.036	59.6771
204.411	103.783
207.786	179.727
211.161	254.947
214.536	338.95
217.911	494.712
221.285	698.015
224.66	692.629
228.035	391.139
231.41	183.298
234.785	100.749
238.159	57.3425
241.534	36.0925
244.909	23.8855
248.284	16.1601
251.659	12.6256
255.034	4.87118
258.408	2.23474
261.783	3.80699
265.158	1.15985
268.533	4.5663
271.908	12.4195
275.282	20.9945
278.657	30.5374
282.032	47.7636
285.407	73.8402
288.782	106.447
292.156	145.912
295.531	197.102
298.906	231.447
302.281	188.989
305.656	100.211
309.031	47.3018
312.405	24.8938
315.78	13.8187
319.155	3.4931
322.53	1.63962
325.905	0.371796
329.279	5.60199
332.654	15.4101
336.029	24.8245
339.404	34.3883
342.779	40.894
346.154	53.88
349.528	74.1431
352.903	90.5209
356.278	81.1389
359.653	51.3731
363.028	26.7303
366.402	9.89922
369.777	1.37952
373.152	2.0761
376.527	0.445755
379.902	2.11623
383.276	2.95161
386.651	1.33701
390.026	0.922134
393.401	0.112244
396.776	1.22929
400.151	5.85963
403.525	13.5465
406.9	26.1889
410.275	41.8752
413.65	64.9106
417.025	97.3473
420.399	150.263
423.774	223.766
427.149	323.591
430.524	472.505
433.899	578.992
437.274	513.24
440.648	377.512
444.023	303.333
447.398	281.927
450.773	293.288
454.148	278.303
457.522	167.928
460.897	91.507
464.272	58.0313
467.647	42.7698
471.022	32.7893
474.397	27.4999
477.771	23.7781
481.146	21.3968
484.521	18.8329
487.896	16.3271
491.271	12.243
494.645	7.95547
498.02	2.05888
501.395	0.691742
504.77	1.26649
508.145	1.76819
511.519	0.473755
514.894	1.50502
518.269	0.11528
521.644	0.521011
525.019	3.16586
528.394	7.76656
531.768	13.2889
535.143	20.0586
538.518	29.2176
541.893	38.5746
545.268	49.8804
548.643	56.3009
552.017	67.291
555.392	74.3965
558.767	86.7204
562.142	103.598
565.517	120.218
568.891	129.235
572.266	126.421
575.641	107.098
579.016	77.6565
582.391	51.2493
585.765	31.853
589.14	19.3778
592.515	11.5585
595.89	7.15459
599.265	4.65062
602.639	2.92806
606.014	5.24142
609.389	12.7418
612.764	36.3605
616.139	70.6278
619.514	134.431
622.888	195.479
626.263	180.487
629.638	51.7386
633.013	24.9915
636.388	22.2492
639.763	27.4214
643.137	26.4384
646.512	15.9804
649.887	8.47719
653.262	4.61455
656.637	2.43384
660.011	0.898605
663.386	0.447083
666.761	0.625183
670.136	0.69133
673.511	0.86322
676.885	0.091553
680.26	1.16756
683.635	1.21605
687.01	0.250809
690.385	1.3697
693.76	0.78508
697.134	1.96637
700.509	1.20123
703.884	2.52515
707.259	1.72884
710.634	2.30655
714.009	3.7514
717.383	2.56842
720.758	3.52725
724.133	2.69546
727.508	1.98419
730.883	1.74431
734.257	0.893433
737.632	1.17146
741.007	0.112167
744.382	0.735596
747.757	0.110016
751.131	1.69673
754.506	0.198975
757.881	0.586838
761.256	1.22913
764.631	2.01044
768.006	5.1843
771.38	7.05101
774.755	12.1717
778.13	17.3386
781.505	28.2808
784.88	44.6685
788.254	68.9271
791.629	105.721
795.004	152.691
798.379	197.137
801.754	214.131
805.129	209.666
808.503	188.618
811.878	167.056
815.253	129.29
818.628	91.4414
822.003	66.7728
825.377	57.5586
828.752	55.0099
832.127	47.5413
835.502	29.0561
838.877	15.6316
842.251	7.27338
845.626	3.74669
849.001	1.92537
852.376	1.37453
855.751	2.79643
859.125	6.60988
862.5	10.2321
865.875	14.371
869.25	18.6903
872.625	22.4815
876	25.7078
879.375	32.8573
882.749	41.9868
886.124	50.6898
889.499	56.6699
892.874	55.7195
896.249	46.4084
899.623	34.504
902.998	26.5879
906.373	19.4767
909.748	14.7887
913.123	10.0124
916.497	4.95148
919.872	3.21866
923.247	1.58644
926.622	1.68633
929.997	0.991547
933.371	0.244522
936.746	0.459488
940.121	0.131729
943.496	0.91333
946.871	1.01509
950.246	0.204315
953.62	1.21919
956.995	0.140808
960.37	0.504074
963.745	1.24347
967.12	1.34047
970.495	1.67508
973.869	2.23587
977.244	3.72676
980.619	5.20557
983.994	7.81477
987.369	12.7558
990.743	20.0427
994.118	35.0002
997.493	86.3432
1000.87	171.245
1004.24	337.335
1007.62	493.631
1010.99	280.006
1014.37	135.042
1017.74	72.4051
1021.12	46.5606
1024.49	33.3023
1027.87	21.1595
1031.24	13.4232
1034.62	8.16002
1037.99	6.14035
1041.37	2.34816
1044.74	1.10127
1048.12	0.29892
1051.49	0.791321
1054.87	2.27663
1058.24	1.70007
1061.62	0.685516
1064.99	1.72221
1068.36	5.05786
1071.74	11.4379
1075.11	15.7488
1078.49	24.6729
1081.86	41.1081
1085.24	64.5722
1088.61	109.375
1091.99	191.552
1095.36	325.247
1098.74	488.065
1102.11	574.885
1105.49	481.04
1108.86	328.551
1112.24	202.255
1115.61	116.113
1118.99	70.8867
1122.36	47.4851
1125.74	35.6397
1129.11	31.6478
1132.49	32.2146
1135.86	39.2367
1139.23	54.2013
1142.61	77.8671
1145.98	117.762
1149.36	158.5
1152.73	185.159
1156.11	173.968
1159.48	130.428
1162.86	87.6362
1166.23	60.3064
1169.61	41.3092
1172.98	29.9629
1176.36	21.2656
1179.73	14.5894
1183.11	10.2395
1186.48	5.90793
1189.86	3.44978
1193.23	2.38538
1196.61	0.146576
1199.98	0.218323
1203.36	1.03516
1206.73	1.14572
1210.11	0.437607
1213.48	0.495987
1216.86	0.530838
1220.23	0.741867
1223.61	0.572403
1226.98	0.279358
1230.36	0.710022
1233.73	0.267059
1237.11	0.373947
1240.48	0.483047
1243.86	0.271255
1247.23	0.738647
1250.6	2.05101
1253.98	2.74136
1257.35	2.7473
1260.73	2.50299
1264.1	2.36801
1267.48	3.58608
1270.85	3.037
1274.23	1.78921
1277.6	1.46256
1280.98	1.02188
1284.35	1.33121
1287.73	0.665863
1291.1	0.981216
1294.48	0.538101
1297.85	0.759109
1301.23	0.780228
