Measurement: Raman, 785 nm, unoriented, Raman Data Processed
Mineral: Jasmundite
Rruff sample: R060805
Ideal chemistry: Ca_11_O_2_(SiO_4_)_4_S
Locality: Bellerberg, Eifel Mts., Germany
Source: Michael Scott
Description: Brownish-green irregular grains
Measured chemistry: (Ca_10.64_Mg_0.18_Fe_0.09_Al_0.06_[box]_0.03_)_Σ=11_O_2_((Si_0.99_Ti_0.01_)_Σ=1_O_4_)_4_(S_0.78_P_0.12_O_0.10_)_Σ=1_ ; = gray host
Raman shift (cm-1)	intensity
144.669	0
147.562	81.407
150.455	86.5468
153.347	42.7097
156.24	2.18897
159.133	13.2897
162.025	63.4563
164.918	98.5931
167.811	148.348
170.704	155.874
173.596	183.865
176.489	124.729
179.382	132.862
182.274	127.281
185.167	162.213
188.06	176.352
190.952	161.906
193.845	120.577
196.738	125.876
199.631	114.486
202.523	96.839
205.416	88.5876
208.309	52.8141
211.201	52.4019
214.094	68.1265
216.987	32.342
219.88	26.5447
222.772	34.1326
225.665	21.3157
228.558	28.4243
231.45	19.1782
234.343	8.54285
237.236	41.0918
240.128	38.439
243.021	15.6265
245.914	1.54748
248.806	43.7305
251.699	21.6171
254.592	17.1355
257.485	28.4631
260.377	7.44421
263.27	20.3336
266.163	33.6407
269.055	31.0066
271.948	53.948
274.841	44.261
277.734	64.71
280.626	89.7074
283.519	103.664
286.412	148.549
289.304	125.725
292.197	152.052
295.09	125.792
297.983	109.425
300.875	129.544
303.768	89.5433
306.661	59.0984
309.553	64.5315
312.446	20.924
315.339	11.7289
318.231	19.7794
321.124	62.3989
324.017	19.7423
326.909	6.76526
329.802	9.00391
332.695	25.8536
335.588	15.0489
338.48	36.3575
341.373	82.7006
344.266	120.911
347.158	191.274
350.051	237.985
352.944	290.129
355.837	297.888
358.729	319.219
361.622	344.023
364.515	351.526
367.407	388.143
370.3	404.3
373.193	389.449
376.085	350.268
378.978	334.56
381.871	324.759
384.764	292.37
387.656	267.334
390.549	288.299
393.442	358.699
396.334	382.268
399.227	397.565
402.12	390.265
405.012	375.916
407.905	377.708
410.798	381.275
413.69	389.883
416.583	421.71
419.476	415.577
422.369	477.075
425.261	550.822
428.154	598.696
431.047	600.714
433.939	490.921
436.832	455.774
439.725	378.307
442.618	320.786
445.51	266.307
448.403	239.666
451.296	242.72
454.188	198.373
457.081	219.708
459.974	195.167
462.866	215.679
465.759	185.679
468.652	201.601
471.545	156.61
474.437	150.471
477.33	146.958
480.223	111.482
483.115	71.463
486.008	74.9851
488.901	83.9166
491.793	60.5247
494.686	20.9431
497.579	18.8987
500.471	2.66101
503.364	24.1947
506.257	22.2351
509.15	3.73401
512.042	12.8857
514.935	14.2908
517.828	23.9711
520.72	5.22974
523.613	65.4619
526.506	101.551
529.399	117.968
532.291	204.952
535.184	245.646
538.077	233.843
540.969	253.303
543.862	176.587
546.755	168.898
549.647	187.272
552.54	221.432
555.433	268.808
558.326	296.162
561.218	279.208
564.111	312.491
567.004	282.041
569.896	272.982
572.789	324.407
575.682	327.107
578.574	330.175
581.467	300.702
584.36	296.218
587.253	291.248
590.145	273.322
593.038	259.321
595.931	240.471
598.823	231.154
601.716	214.759
604.609	178.423
607.501	154.217
610.394	163.907
613.287	130.879
616.18	146.988
619.072	86.8049
621.965	94.4475
624.858	78.657
627.75	84.8497
630.643	83.2783
633.536	81.0516
636.428	85.1902
639.321	58.3541
642.214	43.1019
645.107	30.7321
647.999	24.9359
650.892	32.9098
653.785	12.8234
656.677	27.0721
659.57	20.4882
662.463	2.57288
665.356	0.850464
668.248	24.3944
671.141	6.31128
674.034	8.78467
676.926	1.75171
679.819	17.2299
682.712	1.48352
685.604	11.8478
688.497	14.3149
691.39	37.5437
694.283	32.5791
697.175	50.2159
700.068	23.6191
702.961	74.8738
705.853	15.4297
708.746	42.1212
711.639	80.2257
714.531	56.5275
717.424	62.6724
720.317	107.986
723.21	93.4348
726.102	108.974
728.995	70.3227
731.888	111.174
734.78	112.484
737.673	94.8678
740.566	125.249
743.458	85.2308
746.351	33.1852
749.244	81.0769
752.136	69.4796
755.029	69.881
757.922	65.5157
760.815	44.2909
763.707	58.1794
766.6	25.0973
769.493	1.98633
772.385	9.81238
775.278	22.2373
778.171	32.8077
781.063	16.7602
783.956	3.48596
786.849	23.0171
789.742	19.2206
792.634	37.8654
795.527	18.068
798.42	52.3693
801.312	90.8123
804.205	78.9797
807.098	30.2352
809.99	25.2159
812.883	34.7782
815.776	27.6816
818.669	31.928
821.561	10.3733
824.454	19.1586
827.347	25.6001
830.239	50.1169
833.132	115.932
836.025	180.688
838.918	280.112
841.81	482.867
844.703	760.693
847.596	1130.52
850.488	1629.82
853.381	2264.31
856.274	2816.47
859.166	2987.22
862.059	2582.91
864.952	1802.33
867.845	1256.42
870.737	734.784
873.63	409.219
876.523	244.644
879.415	146.315
882.308	118.857
885.201	74.179
888.093	24.2583
890.986	49.0674
893.879	41.1305
896.771	3.71021
899.664	18.7848
902.557	23.7388
905.45	2.29077
908.342	13.7482
911.235	7.41785
914.128	1.91125
917.02	0.964478
919.913	11.7198
922.806	1.7533
925.698	17.3957
928.591	46.3778
931.484	73.8944
934.377	19.7897
937.269	44.8302
940.162	51.8044
943.055	13.1508
945.947	0.765259
948.84	14.8874
951.733	5.70044
954.625	9.3479
957.518	18.589
960.411	28.1537
963.304	28.8126
966.196	11.9413
969.089	31.3561
971.982	34.3737
974.875	24.364
977.767	45.8129
980.66	47.6318
983.553	27.9445
986.445	52.8075
989.338	63.2081
992.231	14.358
995.123	45.5508
998.016	98.4453
1000.91	86.5238
1003.8	123.199
1006.69	91.2781
1009.59	76.6389
1012.48	83.2092
1015.37	102.304
1018.26	94.7319
1021.16	68.3086
1024.05	57.407
1026.94	88.5516
1029.84	80.0898
1032.73	122.843
1035.62	102.666
1038.51	125.296
1041.41	153.502
1044.3	150.3
1047.19	171.329
1050.09	125.535
1052.98	102.962
1055.87	112.182
1058.76	130.884
1061.65	86.1516
1064.55	59.679
1067.44	65.8628
1070.33	28.4087
1073.23	56.4883
1076.12	35.7642
1079.01	23.5801
1081.9	28.7019
1084.8	13.7632
1087.69	6.83472
1090.58	12.8496
1093.47	7.86597
1096.37	22.4197
1099.26	62.0964
1102.15	116.863
1105.05	223.811
1107.94	433.449
1110.83	655.947
1113.72	464.506
1116.62	315.812
1119.51	184.638
1122.4	103.231
1125.3	95.9507
1128.19	53.3921
1131.08	80.2988
1133.97	65.2427
1136.87	93.3135
1139.76	42.5972
1142.65	89.1367
1145.54	117.601
1148.44	92.1108
1151.33	50.061
1154.22	27.4512
1157.12	20.5244
1160.01	4.17871
