Measurement: Raman, 532 nm, unoriented, Raman Data Processed
Mineral: Jasmundite
Rruff sample: R060805
Ideal chemistry: Ca_11_O_2_(SiO_4_)_4_S
Locality: Bellerberg, Eifel Mts., Germany
Source: Michael Scott
Description: Brownish-green irregular grains
Measured chemistry: (Ca_10.64_Mg_0.18_Fe_0.09_Al_0.06_[box]_0.03_)_Σ=11_O_2_((Si_0.99_Ti_0.01_)_Σ=1_O_4_)_4_(S_0.78_P_0.12_O_0.10_)_Σ=1_ ; = gray host
Raman shift (cm-1)	intensity
132.13	0
135.504	157.636
138.879	433.305
142.254	472.651
145.629	577.18
149.004	581.7
152.378	672.407
155.753	807.381
159.128	791.932
162.503	1038.35
165.878	1076.38
169.253	1130.06
172.627	1194.82
176.002	1277.7
179.377	1457.02
182.752	1574.7
186.127	1733.43
189.501	1651.16
192.876	1493.46
196.251	1241.07
199.626	1139.29
203.001	1082.22
206.376	1056.98
209.75	1014.39
213.125	910.223
216.5	881.884
219.875	850.368
223.25	722.249
226.624	697.427
229.999	679.274
233.374	620.925
236.749	540.251
240.124	406.899
243.498	397.371
246.873	368.441
250.248	242.209
253.623	211.426
256.998	180.813
260.372	170.609
263.747	171.818
267.122	253.176
270.497	211.692
273.872	295.116
277.247	302.85
280.621	325.034
283.996	424.495
287.371	371.512
290.746	399.017
294.121	296.999
297.496	342.831
300.87	224.89
304.245	187.876
307.62	128.178
310.995	142.601
314.37	92.826
317.744	36.584
321.119	21.687
324.494	16.484
327.869	30.813
331.244	9.51
334.618	40.369
337.993	18.622
341.368	69.371
344.743	65.754
348.118	23.638
351.492	101.56
354.867	199.315
358.242	135.72
361.617	410.145
364.992	439.749
368.366	486.166
371.741	487.683
375.116	333.258
378.491	202.926
381.866	118.179
385.241	83.906
388.615	45.296
391.99	52.453
395.365	70.696
398.74	76.96
402.115	89.462
405.49	220.29
408.864	347.285
412.239	580.777
415.614	912.832
418.989	1266.27
422.364	1799.28
425.738	2179.1
429.113	2554.23
432.488	2489.09
435.863	2124.14
439.238	1588.06
442.612	1200.59
445.987	857.31
449.362	535.587
452.737	428.014
456.112	340.77
459.487	185.046
462.861	120.096
466.236	26.712
469.611	0.905
472.986	14.721
476.361	31.368
479.735	31.72
483.11	0.948
486.485	27.402
489.86	38.16
493.235	44.079
496.609	48.813
499.984	53.258
503.359	51.833
506.734	57.205
510.109	183.586
513.484	224.487
516.858	322.232
520.233	558.345
523.608	744.526
526.983	1089.63
530.358	1459.34
533.732	1733.05
537.107	1810.8
540.482	1432.75
543.857	999.695
547.232	792.97
550.606	688.326
553.981	760.197
557.356	781.197
560.731	770.469
564.106	812.061
567.481	780.26
570.855	672.6
574.23	610.214
577.605	453.398
580.98	308.497
584.355	129.028
587.729	103.854
591.104	2.526
594.479	56.607
597.854	86.817
601.229	74.518
604.604	25.408
607.978	19.644
611.353	51.241
614.728	12.29
618.103	83.068
621.477	9.004
624.852	84.188
628.227	77.638
631.602	54.716
634.977	88.401
638.352	90.551
641.726	99.966
645.101	87.304
648.476	61.337
651.851	102.628
655.226	128.639
658.601	68.72
661.975	109.262
665.35	57.912
668.725	120.746
672.1	109.412
675.474	146.833
678.849	48.656
682.224	81.47
685.599	126.367
688.974	238.989
692.349	329.465
695.723	311.934
699.098	320.162
702.473	417.933
705.848	446.114
709.223	660.927
712.597	732.798
715.972	883.418
719.347	963.086
722.722	970.573
726.097	969.562
729.472	842.194
732.846	731.494
736.221	705.264
739.596	658.921
742.971	501.657
746.346	390.309
749.721	307.812
753.095	227.675
756.47	151.728
759.845	83.169
763.22	1.83
766.594	2.502
769.969	52.964
773.344	42.304
776.719	45.096
780.094	74.022
783.469	34.533
786.843	16.548
790.218	77.862
793.593	216.115
796.968	227.558
800.343	394.849
803.718	409.76
807.092	334.532
810.467	383.016
813.842	407.294
817.217	354.774
820.592	350.137
823.966	385.967
827.341	614.605
830.716	1005.52
834.091	1321.54
837.466	2089.21
840.841	3434.39
844.215	5279.85
847.59	8020.25
850.965	11388.3
854.34	14950.3
857.714	17170.6
861.089	15772
864.464	11403.1
867.839	7224.21
871.214	4239.24
874.589	2455.03
877.963	1678.91
881.338	1232.83
884.713	1034.68
888.088	966.604
891.463	934.338
894.838	930.352
898.212	834.583
901.587	794.72
904.962	758.079
908.337	728.097
911.711	890.381
915.086	827.495
918.461	863.755
921.836	933.297
925.211	905.107
928.586	857.348
931.96	913.102
935.335	761.557
938.71	675.283
942.085	618.282
945.46	558.498
948.834	468.616
952.209	462.781
955.584	402.31
958.959	365.738
962.334	254.686
965.709	177.214
969.083	65.086
972.458	62.618
975.833	62.043
979.208	31.049
982.583	7.892
985.957	42.23
989.332	66.008
992.707	16.913
996.082	44.849
999.457	22.725
1002.83	41.686
1006.21	28.027
1009.58	14.678
1012.96	15.232
1016.33	12.212
1019.71	13.136
1023.08	21.198
1026.45	15.401
1029.83	45.615
1033.2	32.893
1036.58	21.272
1039.95	33.639
1043.33	38.795
1046.7	11.433
1050.08	70.592
1053.45	128.49
1056.83	47.458
1060.2	86.882
1063.58	56.918
1066.95	18.792
1070.33	102.107
1073.7	115.52
1077.08	104.89
1080.45	107.859
1083.83	122.417
1087.2	176.553
1090.58	248.255
1093.95	283.831
1097.33	476.059
1100.7	1059.88
1104.08	2050.03
1107.45	3587.78
1110.83	4693.39
1114.2	2942.39
1117.58	1433.57
1120.95	732.1
1124.33	421.872
1127.7	176.598
1131.07	225.155
1134.45	108.125
1137.82	130.94
1141.2	76.442
1144.57	23.54
1147.95	60.191
1151.32	12.566
1154.7	32.418
1158.07	33.262
1161.45	23.494
1164.82	63.74
1168.2	7.826
1171.57	3.478
1174.95	24.599
1178.32	7.524
1181.7	1.334
1185.07	45.553
1188.45	79.388
1191.82	1.062
1195.2	16.476
1198.57	21.297
1201.94	14.686
1205.32	17.484
1208.69	38.904
1212.07	2.662
1215.44	5.09
1218.82	50.982
1222.19	21.758
1225.57	20
1228.94	47.579
1232.32	2.612
1235.69	17.186
1239.07	48.422
1242.44	28.155
1245.82	21.237
1249.19	19.784
1252.57	0.366
1255.94	53.78
1259.32	33.56
1262.69	0.053
1266.07	1.74
1269.44	31.492
1272.82	22.562
1276.19	94.706
1279.57	82.01
1282.94	75.556
1286.32	30.389
1289.69	46.285
1293.07	34.651
1296.44	45.998
1299.82	3.854
