Measurement: Raman, 532 nm, unoriented, Raman Data Processed
Mineral: Jeanbandyite
Rruff sample: R070724
Ideal chemistry: (Fe^3+^,Mn^2+^)Sn^4+^(OH,O)_6_
Locality: Siglo Veinte Mine (Siglo XX Mine; Llallagua Mine; Catavi), Llallagua, Bustillos Province, Potos√≠ Department, Bolivia
Source: Michael Scott
Description: Orange-brown spheroids associated with quartz
Raman shift (cm-1)	intensity
171.714	0
174.607	195.211
177.499	101.982
180.392	182.46
183.285	168.696
186.177	170.07
189.07	171.195
191.963	180.251
194.855	151.028
197.748	54.0664
200.641	57.3223
203.534	7.53027
206.426	177.527
209.319	230.239
212.212	245.358
215.104	329.641
217.997	383.815
220.89	457.545
223.782	668.584
226.675	837.692
229.568	1041.82
232.46	1432.44
235.353	1581.66
238.246	1906.47
241.138	2011.31
244.031	2273.01
246.924	2475.92
249.817	2368.33
252.709	2376.67
255.602	2171.18
258.495	1936.66
261.387	1779.66
264.28	1461.38
267.173	1195.02
270.066	864.899
272.958	458.491
275.851	58.3721
278.744	44.5772
281.636	83.1045
284.529	130.379
287.422	52.1963
290.314	203.721
293.207	545.073
296.1	910.566
298.993	1486.24
301.885	2305.45
304.778	3405.81
307.671	4710.73
310.563	6028
313.456	7607.74
316.349	8724.69
319.241	9505.39
322.134	9619.98
325.027	9089.17
327.92	8504.28
330.812	7534.23
333.705	6794.19
336.598	5905.38
339.49	4998.82
342.383	4213.39
345.276	3444.62
348.168	2905.99
351.061	2559.94
353.954	2069.24
356.846	1777.96
359.739	1375.74
362.632	1063.59
365.525	839.262
368.417	630.196
371.31	486.296
374.203	444.091
377.095	371.347
379.988	304.185
382.881	347.032
385.774	276.898
388.666	130.596
391.559	130.7
394.452	151.171
397.344	191.614
400.237	205.898
403.13	126.087
406.022	50.501
408.915	38.8438
411.808	26.5996
414.7	55.1719
417.593	56.251
420.486	116.194
423.379	63.793
426.271	108.486
429.164	235.395
432.057	455.117
434.949	543.923
437.842	391.609
440.735	561.002
443.627	663.959
446.52	796.07
449.413	964.041
452.306	992.804
455.198	1023.23
458.091	1049.17
460.984	1065.66
463.876	1016.86
466.769	1125.36
469.662	919.237
472.555	873.52
475.447	706.767
478.34	547.13
481.233	506.481
484.125	375.914
487.018	328.869
489.911	269.469
492.803	55.9062
495.696	49.2783
498.589	19.791
501.481	45.0469
504.374	52.1211
507.267	52.5938
510.16	8.77734
513.052	1.64062
515.945	31.1035
518.838	11.2441
521.73	53.7266
524.623	29.7256
527.516	101.368
530.408	187.202
533.301	265.636
536.194	401.367
539.087	495.169
541.979	569.031
544.872	705.724
547.765	866.46
550.657	992.077
553.55	1137.49
556.443	1151.32
559.335	1297.41
562.228	1561.94
565.121	1678.15
568.014	1654.29
570.906	1667.2
573.799	1801.65
576.692	1699.3
579.584	1857.21
582.477	1756.93
585.37	1564.46
588.263	1522.85
591.155	1337.27
594.048	1369.2
596.941	1092.88
599.833	988.869
602.726	924.374
605.619	654.196
608.511	689.345
611.404	544.367
614.297	560.553
617.189	539.248
620.082	464.522
622.975	433.217
625.868	350.584
628.76	141.932
631.653	215.744
634.546	145.389
637.438	154.841
640.331	194.778
643.224	134.718
646.116	69.7725
649.009	24.459
651.902	28.5557
654.795	447.534
657.687	51.7168
660.58	53.4209
663.473	20.5674
666.365	67.0342
669.258	63.1445
672.151	52.4072
675.043	38.9434
677.936	53.0127
680.829	86.7529
683.721	110.265
686.614	99.1797
689.507	25.9434
692.4	90.9785
695.292	77.4883
698.185	49.0527
701.078	81.0508
703.97	98.2314
706.863	25.9814
709.756	137.472
712.649	5.12207
715.541	37.7041
718.434	104.555
721.327	16.8066
724.219	7.34277
727.112	34.0576
730.005	49.6553
732.897	42.9922
735.79	59.6885
738.683	111.349
741.576	56.6865
744.468	96.6562
747.361	101.651
750.254	375.636
753.146	89.2119
756.039	86.3965
758.932	141.909
761.824	173.527
764.717	173.412
767.61	255.405
770.503	185.964
773.395	176.375
776.288	234.936
779.181	121.5
782.073	177.749
784.966	139.196
787.859	220.803
790.751	116.919
793.644	165.607
796.537	206.016
799.429	126.66
802.322	150.58
805.215	139.181
808.108	95.4424
811	128.902
813.893	140.615
816.786	35.9853
819.678	33.7773
822.571	2.44434
825.464	82.9902
828.356	95.0488
831.249	66.1494
834.142	47.9932
837.034	45.832
839.927	8.77344
842.82	113.879
845.713	82
848.605	114.395
851.498	124.192
854.391	98.2246
857.283	80.7129
860.176	127.858
863.069	147.276
865.962	184.803
868.854	132.294
871.747	37.5273
874.64	65.0127
877.532	190.421
880.425	169.014
883.318	196.071
886.21	143.561
889.103	144.346
891.996	116.57
894.889	74.7334
897.781	140.819
900.674	89.5811
903.567	93.1084
906.459	73.6934
909.352	87.9492
912.245	22.2686
915.138	13.9473
918.03	47.668
920.923	28.5156
923.816	31.1406
926.708	77.3213
929.601	59.584
932.494	12.6641
935.386	58.3389
938.279	79.6445
941.172	36.7012
944.064	48.126
946.957	39.206
949.85	119.954
952.743	55.334
955.635	45.7803
958.528	32.169
961.421	50.2549
964.313	84.5303
967.206	179.846
970.099	192.02
972.991	94.8281
975.884	123.045
978.777	108.647
981.67	205.031
984.562	163.511
987.455	113.731
990.348	163.723
993.24	157.884
996.133	192.669
999.026	260.422
1001.92	356.96
1004.81	369.339
1007.7	318.25
1010.6	275.111
1013.49	264.353
1016.38	256.063
1019.27	195.462
1022.17	229.066
1025.06	160.973
1027.95	61.0674
1030.85	150.298
1033.74	170.966
1036.63	146.31
1039.52	151.506
1042.42	157.189
1045.31	44.5879
1048.2	43.5986
1051.09	31.2783
1053.99	24.8945
1056.88	20.8145
1059.77	62.7607
1062.66	72.6084
1065.56	57.9717
1068.45	26.4229
1071.34	7.33301
1074.24	16.2568
1077.13	46.9609
1080.02	113.144
1082.91	107.772
1085.81	103.244
1088.7	136.678
1091.59	50.7041
1094.48	161.968
1097.38	244.919
1100.27	154.159
1103.16	232.898
1106.06	156.94
1108.95	174.341
1111.84	99.3281
1114.73	163.493
1117.63	98.2412
1120.52	65.7314
1123.41	112.21
1126.3	90.7568
1129.2	142.201
1132.09	180.941
1134.98	121.51
1137.88	72.5088
1140.77	118.798
1143.66	35.2685
1146.55	73.292
1149.45	140.823
1152.34	72.1465
1155.23	11.2715
1158.12	43.3262
1161.02	67.0654
1163.91	36.9551
1166.8	21.1318
1169.69	16.7695
1172.59	21.292
1175.48	12.0547
1178.37	108.93
1181.27	175.065
1184.16	75.2559
1187.05	25.043
1189.94	71.0498
1192.84	128.554
1195.73	150.873
1198.62	148.519
1201.52	63.2647
1204.41	82.0098
1207.3	120.172
1210.19	108.863
1213.09	35.9111
1215.98	11.5645
1218.87	12.4199
1221.76	88.4219
1224.66	10.4844
1227.55	89.6465
1230.44	79.8174
1233.33	8.0166
1236.23	3.35156
1239.12	72.7666
