Measurement: Raman, 780 nm, unoriented, Raman Data Processed
Mineral: Jeanbandyite
Rruff sample: R070724
Ideal chemistry: (Fe^3+^,Mn^2+^)Sn^4+^(OH,O)_6_
Locality: Siglo Veinte Mine (Siglo XX Mine; Llallagua Mine; Catavi), Llallagua, Bustillos Province, Potos√≠ Department, Bolivia
Source: Michael Scott
Description: Orange-brown spheroids associated with quartz
Raman shift (cm-1)	intensity
205.34	0
208.233	17.7598
211.126	35.0664
214.018	84.168
216.911	89.9238
219.804	195.197
222.696	219.998
225.589	577.938
228.482	829.559
231.375	1027.3
234.267	1334.2
237.16	1804.12
240.053	2142.79
242.945	2603.46
245.838	3248.68
248.731	3570.11
251.623	3586.53
254.516	3543.01
257.409	3161.97
260.301	2805.69
263.194	2539.36
266.087	2148.95
268.98	1569.28
271.872	1228.4
274.765	701.354
277.658	279.463
280.55	39.2188
283.443	181.971
286.336	166.225
289.228	232.188
292.121	153.703
295.014	558.969
297.907	970.084
300.799	1717.4
303.692	2658.84
306.585	3891.91
309.477	5690.49
312.37	7694.23
315.263	9830.49
318.156	11490.8
321.048	12560
323.941	12484.3
326.834	11827.8
329.726	10922.9
332.619	9664.78
335.512	8423.93
338.404	7248.29
341.297	6090.73
344.19	5019.8
347.082	4189.85
349.975	3517.98
352.868	2978.55
355.761	2489.67
358.653	1930.6
361.546	1467.62
364.439	1380.64
367.331	952.016
370.224	775.641
373.117	566.602
376.01	380.18
378.902	266.387
381.795	179.295
384.688	133.232
387.58	218.832
390.473	208.75
393.366	335.863
396.258	255.301
399.151	328.252
402.044	155.627
404.937	45.6348
407.829	17.5137
410.722	112.449
413.615	82.5019
416.507	48.3496
419.4	81.0801
422.293	110.893
425.185	165.176
428.078	209.795
430.971	381.75
433.863	375.435
436.756	430.062
439.649	610.947
442.542	756.16
445.434	860.936
448.327	1075.94
451.22	1318.69
454.112	1371.26
457.005	1468.22
459.898	1559.86
462.791	1646.82
465.683	1501.02
468.576	1453.39
471.469	1225.31
474.361	1055.34
477.254	816.816
480.147	512.486
483.039	516.738
485.932	468.338
488.825	298.527
491.717	77.8398
494.61	66.1992
497.503	51.4434
500.396	72.9707
503.288	98.0879
506.181	82.9629
509.074	37.082
511.966	13.5039
514.859	76.5312
517.752	31.7578
520.644	131.045
523.537	27.2559
526.43	111.611
529.323	171.158
532.215	223.242
535.108	324.097
538.001	318.188
540.893	531.513
543.786	565.935
546.679	698.385
549.572	893.993
552.464	908.83
555.357	1059.65
558.25	1185.12
561.142	1175.15
564.035	1293.39
566.928	1274.21
569.82	1322.06
572.713	1292.21
575.606	1363.36
578.499	1376.23
581.391	1302.46
584.284	1337.9
587.177	1147.83
590.069	1084.32
592.962	920.658
595.855	834.22
598.747	816.193
601.64	724.563
604.533	663.542
607.426	525.818
610.318	505.917
613.211	416.815
616.104	402.428
618.996	397.754
621.889	372.322
624.782	311.176
627.674	273.996
630.567	169.698
633.46	183.79
636.352	145.679
639.245	148.293
642.138	17.4883
645.031	185.903
647.923	21.4346
650.816	80.5742
653.709	39.8506
656.601	458.587
659.494	94.5361
662.387	79.8447
665.279	103.727
668.172	155.602
671.065	211.738
673.958	190.891
676.85	359.328
679.743	353.538
682.636	309.892
685.528	369.214
688.421	352.231
691.314	349.99
694.207	240.047
697.099	247.658
699.992	196.821
702.885	64.8115
705.777	108.34
708.67	3.47852
711.563	78.7647
714.455	74.3066
717.348	35.3281
720.241	33.1094
723.134	34.7148
726.026	38.9844
728.919	5.42969
731.812	60.8662
734.704	46.2041
737.597	97.9482
740.49	23.1562
743.382	139.127
746.275	125.873
749.168	170.933
752.061	107.802
754.953	147.5
757.846	190.087
760.739	210.435
763.631	150.965
766.524	180.277
769.417	204.225
772.309	223.962
775.202	208.126
778.095	168.634
780.987	216.547
783.88	262.72
786.773	195.286
789.666	126.441
792.558	185.589
795.451	128.04
798.344	88.3115
801.236	146.94
804.129	211.995
807.022	71.0293
809.914	132.405
812.807	122.18
815.7	199.501
818.593	108.285
821.485	155.676
824.378	128.269
827.271	37.2022
830.163	29.0781
833.056	33.8184
835.949	92.9502
838.841	18.8906
841.734	78.6055
844.627	53.6465
847.519	35.1113
850.412	98.2978
853.305	91.0762
856.198	125.8
859.09	72.0693
861.983	107.702
864.876	56.7393
867.768	119.358
870.661	125.311
873.554	166.065
876.447	193.689
879.339	233.467
882.232	138.735
885.125	143.476
888.017	114.995
890.91	111.9
893.803	43.6445
896.695	149.388
899.588	119.174
902.481	91.2432
905.374	40.9258
908.266	54.7305
911.159	61.0967
914.052	3.70019
916.944	9.41699
919.837	9.43945
922.73	0.794922
925.622	2.49121
928.515	61.1895
931.408	13.7559
934.301	217.455
937.193	60.7959
940.086	51.3174
942.979	34.3711
945.871	14.2109
948.764	26.4521
951.657	20.6865
954.549	92.5147
957.442	47.417
960.335	169.507
963.227	44.5869
966.12	88.7383
969.013	33.667
971.906	55.7266
974.798	159.486
977.691	84.8496
980.584	155.281
983.476	116.97
986.369	123.165
989.262	210.237
992.154	138.378
995.047	161.503
997.94	155.47
1000.83	248.837
1003.73	444.228
1006.62	325.135
1009.51	292.809
1012.4	138.643
1015.3	114.905
1018.19	152.543
1021.08	301.008
1023.97	248.389
1026.87	164.545
1029.76	257.805
1032.65	325.946
1035.55	213.377
1038.44	227.209
1041.33	247.492
1044.22	159.63
1047.12	120.082
1050.01	186.593
1052.9	99.8184
1055.79	92.417
1058.69	63.2725
1061.58	52.9287
1064.47	70.9326
1067.37	104.749
1070.26	41.9053
1073.15	43.7988
1076.04	91.3262
1078.94	67.0791
1081.83	23.9043
1084.72	32.7617
1087.61	35.1094
1090.51	39.7764
1093.4	30.6367
1096.29	62.2676
1099.18	85.3496
1102.08	109.472
1104.97	161.791
1107.86	113.299
1110.76	29.7969
1113.65	58.6318
1116.54	71.8076
1119.43	32.9707
1122.33	21.1455
1125.22	50.3008
1128.11	93.4561
1131	62.917
1133.9	77.2451
1136.79	155.361
1139.68	148.846
1142.58	195.446
1145.47	187.93
1148.36	202.09
1151.25	220.556
1154.15	167.023
1157.04	139.066
1159.93	192.6
1162.82	143.532
1165.72	154.303
1168.61	170.877
1171.5	119.4
1174.39	64.8477
1177.29	76.369
1180.18	17.9783
1183.07	59.2553
1185.96	63.9603
1188.86	74.0768
1191.75	77.5391
1194.64	109.553
1197.54	120.141
1200.43	87.0869
1203.32	55.1228
1206.21	68.8486
1209.11	88.1006
1212	93.0819
1214.89	88.974
1217.79	54.4847
1220.68	57.9287
1223.57	90.2725
1226.46	12.1631
1229.36	89.4072
1232.25	60.3037
1235.14	23.0996
1238.03	7.9082
