Measurement: Raman, 532 nm, unoriented, Raman Data Processed
Mineral: Jensenite
Rruff sample: R080008
Ideal chemistry: Cu^2+^_3_Te^6+^O_6_2H_2_O
Locality: Montezuma mine, Sonora, Mexico
Source: William W. Pinch
Description: Bright green equant crystals found on the holotype specimen of cesbronite, R080003
Raman shift (cm-1)	intensity
150.296	0
153.189	2.52733
156.081	9.75971
158.974	12.7651
161.867	5.2325
164.76	6.34599
167.652	16.4483
170.545	27.6615
173.438	39.0594
176.33	42.903
179.223	36.4681
182.116	35.0641
185.008	38.0732
187.901	31.5215
190.794	21.6511
193.686	12.9139
196.579	6.76051
199.472	6.29623
202.365	8.9901
205.257	8.08365
208.15	6.64227
211.043	4.60681
213.935	0.339874
216.828	2.29867
219.721	3.02113
222.613	1.31109
225.506	0.371597
228.399	4.95509
231.292	10.6581
234.184	17.1279
237.077	25.3826
239.97	31.1402
242.862	31.889
245.755	32.6706
248.648	35.8263
251.541	34.424
254.433	27.2013
257.326	20.4002
260.219	19.4719
263.111	23.2092
266.004	29.8214
268.897	39.0502
271.789	46.6348
274.682	54.2465
277.575	62.4346
280.467	73.4345
283.36	82.8282
286.253	87.7727
289.146	83.5937
292.038	76.5771
294.931	74.3445
297.824	69.9821
300.716	59.4273
303.609	45.5604
306.502	36.9315
309.394	31.2615
312.287	30.5154
315.18	33.1375
318.073	39.2724
320.965	47.6379
323.858	51.0003
326.751	47.8025
329.643	34.3702
332.536	21.9715
335.429	13.697
338.322	9.62531
341.214	7.7647
344.107	4.74076
347	2.55187
349.892	0.184792
352.785	2.1709
355.678	1.72291
358.57	1.18655
361.463	0.651367
364.356	1.52973
367.248	3.82239
370.141	8.16143
373.034	14.7267
375.927	20.3014
378.819	26.4611
381.712	34.6703
384.605	42.3217
387.497	53.3801
390.39	67.2462
393.283	84.3268
396.175	100.356
399.068	101.176
401.961	88.0767
404.853	65.1849
407.746	45.4423
410.639	31.7296
413.532	22.3606
416.424	18.3321
419.317	16.2529
422.21	16.0082
425.102	14.8254
427.995	12.7043
430.888	9.8803
433.781	7.65806
436.673	5.05456
439.566	3.83158
442.459	2.58958
445.351	3.39859
448.244	3.72378
451.137	4.80415
454.029	6.66883
456.922	7.81519
459.815	6.93414
462.708	4.64992
465.6	1.77165
468.493	0.436378
471.386	0.083473
474.278	0.332138
477.171	0.633133
480.064	2.03589
482.957	3.86894
485.849	6.43195
488.742	8.35486
491.635	12.5663
494.527	14.417
497.42	15.1537
500.313	12.8818
503.205	11.3266
506.098	10.7482
508.991	10.8281
511.884	12.0107
514.776	12.1487
517.669	9.69276
520.562	10.1726
523.454	8.62902
526.347	8.40376
529.24	7.4736
532.132	8.16677
535.025	8.55033
537.918	9.37288
540.81	8.68303
543.703	8.3856
546.596	7.52545
549.489	7.10408
552.381	6.12873
555.274	4.06377
558.167	1.5646
561.059	2.05846
563.952	2.43716
566.845	2.33614
569.737	1.05648
572.63	0.906487
575.523	0.90831
578.415	1.14524
581.308	1.39332
584.201	1.55095
587.094	5.42726
589.986	14.4245
592.879	24.7802
595.772	36.547
598.664	54.1364
601.557	75.1895
604.45	100.772
607.342	125.95
610.235	144.504
613.128	145.017
616.021	125.769
618.913	94.5101
621.806	67.9459
624.699	50.2039
627.591	36.213
630.484	28.3213
633.377	27.1666
636.269	29.8161
639.162	32.9879
642.055	32.2824
644.948	25.891
647.84	18.0623
650.733	13.5338
653.626	11.9457
656.518	17.3592
659.411	27.0111
662.304	39.1341
665.197	54.4703
668.089	72.3332
670.982	89.0592
673.875	98.5369
676.767	98.1902
679.66	81.37
682.553	60.7478
685.445	42.4759
688.338	34.1087
691.231	31.6104
694.124	35.3782
697.016	45.7374
699.909	62.9179
702.802	87.3194
705.694	116.34
708.587	152.055
711.48	188.943
714.372	222.1
717.265	235.341
720.158	211.917
723.051	160.395
725.943	107.684
728.836	69.1919
731.729	43.5678
734.621	26.9017
737.514	16.9245
740.407	9.1313
743.299	5.21233
746.192	1.27128
749.085	0.958359
751.977	0.671623
754.87	2.43443
757.763	1.78148
760.656	1.70845
763.548	0.763878
766.441	0.423832
769.334	0.212421
772.226	0.102165
775.119	0.028107
778.012	0.259384
780.904	0.376606
783.797	0.065891
786.69	0.75206
789.583	1.3106
792.475	1.59671
795.368	1.60417
798.261	2.34048
801.153	3.06985
804.046	3.27777
806.939	4.58135
809.832	5.09847
812.724	5.26196
815.617	5.32698
818.51	5.59047
821.402	5.51719
824.295	5.14682
827.188	6.4163
830.08	7.16569
832.973	7.33307
835.866	6.7816
838.759	7.63602
841.651	7.91163
844.544	7.602
847.437	7.22433
850.329	6.86706
853.222	7.43613
856.115	7.33493
859.007	7.09201
861.9	6.84933
864.793	5.9427
867.686	5.95068
870.578	6.04265
873.471	4.90333
876.364	4.35254
879.256	4.25901
882.149	3.59086
885.042	3.47911
887.934	3.23505
890.827	2.93578
893.72	2.78743
896.612	2.52901
899.505	1.91294
902.398	2.20916
905.291	1.93601
908.183	2.13317
911.076	1.35118
913.969	1.50095
916.861	1.3422
919.754	0.950981
922.647	0.777874
925.539	0.480381
928.432	0.733173
931.325	0.213554
934.218	1.0027
937.11	0.138733
940.003	0.196632
942.896	0.48143
945.788	0.102036
948.681	0.282341
951.574	0.237061
954.466	0.115208
957.359	0.244022
960.252	0.450035
963.144	0.253353
966.037	0.520817
968.93	0.058601
971.823	0.39867
974.715	0.744198
977.608	0.075859
980.501	0.482704
983.393	1.40598
986.286	1.34267
989.179	1.03214
992.072	1.40109
994.964	1.73753
997.857	2.02303
1000.75	1.41796
1003.64	1.20141
1006.53	1.48625
1009.43	1.08685
1012.32	1.15516
1015.21	0.935467
1018.11	0.820309
1021	0.452888
1023.89	1.04342
1026.78	0.55246
1029.68	0.603745
1032.57	0.516499
1035.46	0.977798
1038.36	1.44639
1041.25	0.939426
1044.14	1.04723
1047.03	1.29394
1049.93	1.64574
1052.82	1.5526
1055.71	1.60175
1058.6	1.73413
1061.5	1.73732
1064.39	1.70429
1067.28	1.64306
1070.17	1.26583
1073.07	2.20075
1075.96	0.972137
1078.85	0.701874
1081.74	1.1154
1084.64	0.454407
1087.53	0.532768
1090.42	0.437775
1093.32	0.317474
1096.21	0.278065
1099.1	0.243633
1101.99	0.202965
1104.89	0.019459
1107.78	0.499702
1110.67	0.592609
1113.57	0.529678
1116.46	0.165268
1119.35	0.539223
1122.24	1.04204
1125.14	0.454159
1128.03	0.981083
1130.92	0.133018
1133.81	0.864197
1136.71	1.50186
1139.6	1.22078
1142.49	0.781132
1145.38	0.616348
1148.28	1.42641
1151.17	0.775196
1154.06	0.023968
1156.95	1.23172
1159.85	1.29145
1162.74	0.54818
1165.63	1.03804
1168.53	0.88776
1171.42	0.049271
1174.31	0.293377
1177.2	0.667034
1180.1	0.200607
1182.99	0.621922
1185.88	0.500496
1188.78	1.22718
1191.67	0.922539
1194.56	0.800083
1197.45	0.736439
1200.35	0.924053
1203.24	0.430836
1206.13	0.707012
1209.02	0.775585
1211.92	0.655457
1214.81	0.628559
1217.7	0.534096
1220.6	1.34948
1223.49	0.744343
1226.38	0.016373
1229.27	0.67873
1232.17	0.71759
1235.06	1.44622
1237.95	0.211136
1240.84	0.65802
1243.74	0.60146
1246.63	0.396408
1249.52	1.11306
1252.41	0.711643
1255.31	1.49923
1258.2	0.822311
1261.09	0.935829
1263.98	0.565754
1266.88	0.512329
1269.77	0.612553
1272.66	0.774742
1275.56	0.134644
1278.45	0.892426
1281.34	0.114784
1284.23	0.934372
1287.13	0.978119
1290.02	0.848743
1292.91	0.420609
1295.81	0.534279
1298.7	0.068771
1301.59	0.581654
1304.48	0.244007
