Measurement: Raman, 532 nm, unoriented, Raman Data Processed
Mineral: Jeremejevite
Rruff sample: R060533
Ideal chemistry: Al_6_(BO_3_)_5_F_3_
Locality: Erongo Mountains, Nambia
Source: Gemological Institute of America
Description: Pale blue fragments of hexagonal prisms
Measured chemistry: Al_6.00_(BO_3_)_5_(F_2.22_(OH)_0.78_)_3.00_  ; B and H not measured but estimated by difference and charge balance
Raman shift (cm-1)	intensity
154.306	0
157.198	48.119
160.091	18.231
162.984	81.144
165.876	193.155
168.769	453.706
171.662	1176.85
174.555	3474.81
177.447	12352.6
180.34	2081.25
183.233	659.724
186.125	584.874
189.018	1290.18
191.911	1424.3
194.803	441.061
197.696	378.076
200.589	379.399
203.482	406.909
206.374	568.498
209.267	416.81
212.16	242.742
215.052	191.686
217.945	119.162
220.838	198.015
223.731	238.212
226.623	455.395
229.516	1290.24
232.409	1079.02
235.301	270.071
238.194	178.922
241.087	89.479
243.98	95.337
246.872	98.383
249.765	146.471
252.658	97.304
255.55	56.738
258.443	165.944
261.336	314.071
264.228	892.245
267.121	1605.91
270.014	632.343
272.906	94.404
275.799	29.344
278.692	63.045
281.585	36.236
284.477	137.758
287.37	492.836
290.263	613.149
293.155	214.73
296.048	478.201
298.941	868.254
301.833	904.253
304.726	138.948
307.619	82.22
310.512	71.85
313.404	128.834
316.297	292.956
319.19	687.504
322.082	1675.87
324.975	4518.03
327.868	6543.4
330.76	2105.33
333.653	621.969
336.546	208.973
339.439	82.171
342.331	3.231
345.224	11.169
348.117	30.523
351.009	26.537
353.902	99.996
356.795	193.765
359.688	569.906
362.58	1262.36
365.473	2941.13
368.366	7984.09
371.258	20850.2
374.151	6997.51
377.044	2058.05
379.936	1021.28
382.829	642.646
385.722	306.529
388.615	217.922
391.507	157.142
394.4	266.138
397.293	256.673
400.185	98.045
403.078	121.32
405.971	321.679
408.863	615.921
411.756	841.293
414.649	1707.36
417.542	2607.7
420.434	1099.86
423.327	363.96
426.22	137.677
429.112	70.369
432.005	4.045
434.898	17.763
437.79	15.105
440.683	23.322
443.576	13.964
446.469	35.972
449.361	32.856
452.254	103.064
455.147	221.3
458.039	586.64
460.932	499.991
463.825	134.66
466.717	119.852
469.61	94.418
472.503	162.754
475.396	254.817
478.288	407.495
481.181	748.853
484.074	1045.71
486.966	619.653
489.859	391.431
492.752	340.918
495.645	319.651
498.537	283.097
501.43	414.795
504.323	634.842
507.215	973.984
510.108	1388
513.001	1082.64
515.893	480.143
518.786	228.572
521.679	136.461
524.571	82.071
527.464	59.902
530.357	67.969
533.25	129.888
536.142	135.986
539.035	75.69
541.928	18.386
544.82	16.049
547.713	2.94
550.606	3.361
553.499	16.565
556.391	38.74
559.284	1.244
562.177	4.569
565.069	9.203
567.962	31.466
570.855	15.622
573.747	86.505
576.64	120.449
579.533	177.31
582.426	235.931
585.318	230.299
588.211	267.471
591.104	330.876
593.996	405.069
596.889	499.736
599.782	702.4
602.674	1087.23
605.567	1406.39
608.46	1298.3
611.353	845.43
614.245	478.754
617.138	271.308
620.031	175.465
622.923	112.3
625.816	61.54
628.709	55.558
631.602	22.002
634.494	9.424
637.387	29.697
640.28	4.897
643.172	19.329
646.065	45.303
648.958	86.175
651.851	85.917
654.743	139.601
657.636	103.127
660.529	193.351
663.421	506.297
666.314	407.438
669.207	146.234
672.099	25.339
674.992	24.42
677.885	8.019
680.778	18.821
683.67	15.383
686.563	3.49
689.456	16.815
692.348	17.089
695.241	68.969
698.134	91.376
701.026	95.823
703.919	165.947
706.812	295.205
709.705	195.474
712.597	69.65
715.49	15.98
718.383	1.655
721.275	6.811
724.168	21.583
727.061	15.673
729.953	49.593
732.846	112.535
735.739	182.162
738.631	216.495
741.524	186.437
744.417	265.988
747.31	363.384
750.202	359.501
753.095	364.52
755.988	448.09
758.88	717.853
761.773	793.626
764.666	591.532
767.558	345.73
770.451	229.761
773.344	147.619
776.237	86.806
779.129	38.903
782.022	75.585
784.915	58.925
787.807	111.065
790.7	100.305
793.593	77.133
796.485	66.98
799.378	108.554
802.271	142.073
805.164	234.348
808.056	384.362
810.949	594.664
813.842	696.168
816.734	318.693
819.627	157.47
822.52	74.47
825.413	35.17
828.305	21.013
831.198	0.367
834.091	8.824
836.983	0.906
839.876	10.284
842.769	31.751
845.661	30.175
848.554	21.18
851.447	4.251
854.34	15.288
857.232	20.41
860.125	28.407
863.018	2.461
865.91	13.639
868.803	10.04
871.696	5.743
874.589	6.039
877.481	3.783
880.374	8.549
883.267	16.037
886.159	21.635
889.052	7.41
891.945	8.182
894.837	57.034
897.73	57.319
900.623	61.121
903.516	72.899
906.408	51.336
909.301	95.183
912.194	100.641
915.086	70.709
917.979	121.799
920.872	82.591
923.764	143.881
926.657	190.108
929.55	206.383
932.443	228.099
935.335	290.246
938.228	345.816
941.121	462.533
944.013	661.474
946.906	908.542
949.799	1333.61
952.692	1922.74
955.584	2808.31
958.477	3602.37
961.37	3870.35
964.262	3225.43
967.155	2285.18
970.048	1523.03
972.94	1051.35
975.833	736.004
978.726	531.064
981.619	420.542
984.511	306.08
987.404	282.103
990.297	254.353
993.189	195.087
996.082	175.446
998.975	129.122
1001.87	47.898
1004.76	65.853
1007.65	31.635
1010.54	9.561
1013.44	7.924
1016.33	2.13
1019.22	9.29
1022.12	19.921
1025.01	0.173
1027.9	23.339
1030.79	32.537
1033.69	30.297
1036.58	43.949
1039.47	102.135
1042.37	104.516
1045.26	129.924
1048.15	236.26
1051.04	320.158
1053.94	516.485
1056.83	769.29
1059.72	1087.57
1062.61	1602.79
1065.51	2031.7
1068.4	1976.05
1071.29	1491.46
1074.18	1014.99
1077.08	653.24
1079.97	425.501
1082.86	271.983
1085.76	151.811
1088.65	83.233
1091.54	42.732
1094.43	95.368
1097.33	47.998
1100.22	33.502
1103.11	25.195
1106.01	19.745
1108.9	13.279
1111.79	45.786
1114.68	29.977
1117.58	51.852
1120.47	14.153
1123.36	0.034
1126.25	23.332
1129.15	25.189
1132.04	26.744
1134.93	5.663
1137.82	1.763
1140.72	12.84
1143.61	1.526
1146.5	5.281
1149.39	1.38
1152.29	31.163
1155.18	18.02
1158.07	73.724
1160.97	10.232
1163.86	17.739
1166.75	7.805
1169.64	17.871
1172.54	45.303
1175.43	33.623
1178.32	41.967
1181.21	55.957
1184.11	46.161
1187	38.007
1189.89	29.025
1192.79	48.631
1195.68	22.578
1198.57	33.947
1201.46	20.578
1204.36	51.232
1207.25	57.356
1210.14	32.507
1213.04	25.417
1215.93	32.27
1218.82	35.094
1221.71	50.113
1224.61	16.335
1227.5	55.777
1230.39	22.644
1233.28	74.623
1236.18	70.547
1239.07	61.51
1241.96	110.879
1244.85	62.806
1247.75	48.471
1250.64	41.327
1253.53	50.964
1256.42	36.761
1259.32	36.349
1262.21	39.033
1265.1	46.28
1268	15.227
1270.89	47.473
1273.78	47.817
1276.67	32.62
1279.57	6.764
1282.46	6.484
1285.35	15.099
1288.24	39.206
