Measurement: Raman, 532 nm, unoriented, Raman Data Processed
Mineral: Jeremejevite
Rruff sample: R060617
Ideal chemistry: Al_6_(BO_3_)_5_F_3_
Locality: Ameib Farm, Usakos, Karibib District, Erongo Region, Namibia
Source: Michael Scott
Description: Very pale blue hexagonal prism
Measured chemistry: (Al_5.99_Fe^3+^_0.01_)_Σ=6_(BO_3_)_5_(F_2.85_(OH)_0.15_)_Σ=3_ ; B and H not measured but estimated by difference and charge balance
Raman shift (cm-1)	intensity
107.059	0
109.952	3.186
112.845	11.24
115.737	17.093
118.63	26.598
121.523	45.508
124.415	52.313
127.308	29.304
130.201	22.709
133.094	4.322
135.986	24.206
138.879	36.602
141.772	35.6
144.664	15.02
147.557	17.558
150.45	24.032
153.342	2.651
156.235	34.634
159.128	14.549
162.02	58.026
164.913	94.482
167.806	182.176
170.699	398.953
173.591	858.803
176.484	4006.92
179.377	706.22
182.269	179.171
185.162	106.778
188.055	164.986
190.947	441.882
193.84	123.899
196.733	79.598
199.626	75.183
202.518	97.198
205.411	172.091
208.304	265.352
211.196	73.462
214.089	40.707
216.982	38.767
219.874	30.126
222.767	55.991
225.66	82.309
228.553	154.402
231.445	350.775
234.338	45.44
237.231	9.133
240.123	16.338
243.016	14.106
245.909	11.573
248.801	12.104
251.694	1.249
254.587	13.794
257.48	33.176
260.372	79.994
263.265	144.574
266.158	466.54
269.05	308.307
271.943	135.762
274.836	9.253
277.728	10.72
280.621	7.538
283.514	13.377
286.407	88.682
289.299	229.171
292.192	101.987
295.085	116.581
297.977	286.65
300.87	425.569
303.763	63.418
306.655	42.484
309.548	10.896
312.441	46.178
315.334	85.708
318.226	216.362
321.119	444.305
324.012	1114.94
326.904	2951.15
329.797	979.087
332.69	208.537
335.582	71.684
338.475	38.365
341.368	3.3
344.261	7.748
347.153	5.023
350.046	0.582
352.939	13.03
355.831	45.288
358.724	118.638
361.617	335.414
364.509	674.617
367.402	1659.11
370.295	5614.67
373.188	3422.41
376.08	644.908
378.973	279.739
381.866	176.611
384.758	79.21
387.651	55.996
390.544	68.766
393.436	83.571
396.329	158.409
399.222	46.931
402.115	50.746
405.007	82.473
407.9	180.701
410.793	318.35
413.685	462.442
416.578	985.012
419.471	441.851
422.363	111.662
425.256	50.281
428.149	22.793
431.042	1.575
433.934	6.399
436.827	0.048
439.72	18.709
442.612	2.987
445.505	14.299
448.398	4.067
451.29	15.352
454.183	19.735
457.076	72.889
459.969	133.71
462.861	49.779
465.754	11.365
468.647	9.303
471.539	15.935
474.432	39.986
477.325	57.132
480.217	114.33
483.11	196.551
486.003	127.474
488.896	70.104
491.788	56.5
494.681	62.036
497.574	56.604
500.466	72.206
503.359	95.86
506.252	202.158
509.144	296.038
512.037	369.986
514.93	170.569
517.823	68.784
520.715	49.871
523.608	28.04
526.501	37.481
529.393	53.992
532.286	96.52
535.179	150.898
538.071	118.452
540.964	61.794
543.857	37.235
546.75	9.729
549.642	14.709
552.535	10.355
555.428	2.578
558.32	6.14
561.213	4.233
564.106	12.137
566.998	3.712
569.891	0.251
572.784	25.011
575.677	39.53
578.569	52.414
581.462	63.118
584.355	49.122
587.247	54.129
590.14	70.127
593.033	87.291
595.925	105.967
598.818	132.362
601.711	198.308
604.604	337.785
607.496	447.126
610.389	301.163
613.282	153.138
616.174	83.153
619.067	52.22
621.96	42.132
624.852	20.308
627.745	28.337
630.638	20.061
633.531	15.972
636.423	7.746
639.316	12.052
642.209	4.486
645.101	17.238
647.994	16.153
650.887	36.407
653.779	22.801
656.672	29.909
659.565	39.857
662.458	97.77
665.35	135.873
668.243	39.363
671.136	10.581
674.028	1.36
676.921	13.986
679.814	9.635
682.706	0.566
685.599	20.369
688.492	16.531
691.385	35.96
694.277	47.823
697.17	78.229
700.063	73.668
702.955	78.136
705.848	127.148
708.741	143.265
711.633	58.439
714.526	25.907
717.419	14.788
720.311	6.461
723.204	15.407
726.097	19.606
728.99	28.455
731.882	44.526
734.775	64.139
737.668	89.271
740.56	105.404
743.453	121.532
746.346	161.085
749.238	148.913
752.131	84.069
755.024	81.653
757.917	143.591
760.809	189.252
763.702	162.924
766.595	110.441
769.487	81.491
772.38	42.135
775.273	30.637
778.165	17.577
781.058	26.162
783.951	30.106
786.844	22.91
789.736	26.082
792.629	9.619
795.522	15.389
798.414	4.383
801.307	0.269
804.2	26.54
807.092	5.159
809.985	15.575
812.878	1.283
815.771	14.21
818.663	21.857
821.556	22.619
824.449	21.495
827.341	15.299
830.234	12.108
833.127	0.932
836.019	16.117
838.912	3.51
841.805	4.075
844.698	15.567
847.59	10.676
850.483	8.6
853.376	27.729
856.268	5.602
859.161	11.321
862.054	26.769
864.946	6.54
867.839	21.628
870.732	10.604
873.625	1.226
876.517	10.598
879.41	8.103
882.303	12.202
885.195	4.12
888.088	3.027
890.981	12.119
893.873	20.553
896.766	20.62
899.659	16.858
902.552	27.769
905.444	22.425
908.337	6.481
911.23	2.78
914.122	9.825
917.015	32.742
919.908	15.749
922.8	41.235
925.693	25.616
928.586	55.393
931.479	65.77
934.371	58.839
937.264	64.869
940.157	106.911
943.049	142.362
945.942	200.046
948.835	317.786
951.727	443.078
954.62	670.842
957.513	933.339
960.406	1131.94
963.298	1079.67
966.191	783.555
969.084	523.99
971.976	319.462
974.869	206.979
977.762	150.272
980.654	98.061
983.547	59.373
986.44	59.199
989.333	30.616
992.225	13.611
995.118	6.52
998.011	16.756
1000.9	0.75
1003.8	3.131
1006.69	2.979
1009.58	11.814
1012.47	0.486
1015.37	12.624
1018.26	6.462
1021.15	17.351
1024.05	8.657
1026.94	19.147
1029.83	6.064
1032.72	7.049
1035.62	28.111
1038.51	7.331
1041.4	31.691
1044.29	26.111
1047.19	60.945
1050.08	68.559
1052.97	99.797
1055.87	155.39
1058.76	206.068
1061.65	284.076
1064.54	417.293
1067.43	453.342
1070.33	366.02
1073.22	263.935
1076.11	183.77
1079.01	121.174
1081.9	69.357
1084.79	44.966
1087.68	41.163
1090.58	17.317
1093.47	13.468
1096.36	5.249
1099.26	32.326
1102.15	25.1
1105.04	20.397
1107.93	17.155
1110.83	0.666
1113.72	1.541
1116.61	19.71
1119.5	17.182
1122.4	15.122
1125.29	10.446
1128.18	5.275
1131.08	22.07
1133.97	20.29
1136.86	15.196
1139.75	18.355
1142.65	20.308
1145.54	0.111
1148.43	10.039
1151.32	6.888
1154.22	8.331
1157.11	36.096
1160	12.72
1162.89	1.832
1165.79	6.748
1168.68	36.503
1171.57	3.625
1174.46	31.266
1177.36	31.717
1180.25	23.317
1183.14	33.05
1186.04	3.165
1188.93	3.328
1191.82	16.484
1194.71	18.352
1197.61	23.701
1200.5	19.02
1203.39	23.505
1206.29	9.418
1209.18	12.934
1212.07	18.569
1214.96	9.159
1217.86	22.813
1220.75	11.496
1223.64	19.697
1226.53	6.697
1229.43	44.927
1232.32	2.603
1235.21	1.175
1238.1	17.99
1241	1.165
1243.89	15.129
1246.78	9.007
1249.67	8.475
1252.57	10.351
1255.46	0
