Measurement: Raman, 780 nm, unoriented, Raman Data Processed
Mineral: Jeremejevite
Rruff sample: R060533
Ideal chemistry: Al_6_(BO_3_)_5_F_3_
Locality: Erongo Mountains, Nambia
Source: Gemological Institute of America
Description: Pale blue fragments of hexagonal prisms
Measured chemistry: Al_6.00_(BO_3_)_5_(F_2.22_(OH)_0.78_)_3.00_  ; B and H not measured but estimated by difference and charge balance
Raman shift (cm-1)	intensity
93.9705	0
97.3453	5.3559
100.72	10.2867
104.095	2.55023
107.47	15.6002
110.845	11.0292
114.219	2.61887
117.594	2.04205
120.969	8.81708
124.344	26.3609
127.719	24.7268
131.094	26.7419
134.468	23.736
137.843	14.9135
141.218	13.3675
144.593	1.86295
147.968	1.58124
151.342	3.59875
154.717	8.14795
158.092	30.4424
161.467	64.2912
164.842	81.9967
168.216	124.709
171.591	195.223
174.966	395.363
178.341	1190.33
181.716	488.179
185.09	107.95
188.465	75.2672
191.84	102.137
195.215	67.5775
198.59	43.172
201.965	42.246
205.339	52.6639
208.714	92.791
212.089	35.7646
215.464	15.7629
218.839	9.05226
222.214	10.2747
225.588	13.799
228.963	23.5584
232.338	60.5098
235.713	16.8245
239.088	6.651
242.462	1.91852
245.837	1.27101
249.212	1.46384
252.587	2.15787
255.962	2.36083
259.336	6.90886
262.711	18.2105
266.086	52.6951
269.461	97.1509
272.836	73.2171
276.211	2.87831
279.585	4.61301
282.96	0.601181
286.335	10.5379
289.71	40.8704
293.085	41.0429
296.459	48.6876
299.834	106.18
303.209	144.169
306.584	27.6828
309.959	19.8928
313.334	42.6799
316.708	66.927
320.083	133.235
323.458	281.37
326.833	673.783
330.207	747.538
333.582	190.084
336.957	47.4676
340.332	12.4612
343.707	0.216263
347.082	4.69836
350.456	0.479095
353.831	22.799
357.206	73.6184
360.581	107.78
363.956	200.059
367.33	432.279
370.705	1165.72
374.08	1585.94
377.455	358.555
380.83	111.856
384.205	56.0398
387.579	26.5304
390.954	16.8759
394.329	22.6595
397.704	37.4582
401.079	22.4999
404.453	24.5486
407.828	44.7875
411.203	84.9491
414.578	137.825
417.953	247.208
421.327	156.037
424.702	43.819
428.077	15.0956
431.452	5.02072
434.827	0.036758
438.202	0.911209
441.576	2.24063
444.951	0.402542
448.326	0.261353
451.701	2.05312
455.076	8.11893
458.45	21.0828
461.825	28.2786
465.2	10.0099
468.575	4.17589
471.95	6.76723
475.325	9.75726
478.699	18.1053
482.074	31.5233
485.449	39.2951
488.824	23.8976
492.199	19.3015
495.573	18.5344
498.948	18.7877
502.323	25.5818
505.698	39.6938
509.073	59.8
512.447	76.5048
515.822	48.7389
519.197	19.5213
522.572	11.5268
525.947	9.05842
529.322	9.68307
532.696	16.2424
536.071	26.8997
539.446	21.7023
542.821	9.87608
546.196	3.6886
549.57	1.60855
552.945	0.398071
556.32	0.234367
559.695	0.11412
563.07	0.966713
566.444	0.017921
569.819	0.311005
573.194	2.65247
576.569	5.35076
579.944	9.37009
583.319	12.139
586.693	13.075
590.068	16.8359
593.443	23.8342
596.818	28.4968
600.193	37.9559
603.567	60.355
606.942	86.4891
610.317	75.8131
613.692	44.466
617.067	23.5318
620.442	12.1282
623.816	6.56143
627.191	2.48074
630.566	1.30249
633.941	0.405327
637.316	0.298981
640.69	1.10602
644.065	0.632317
647.44	2.51261
650.815	7.26344
654.19	9.93472
657.564	9.23772
660.939	12.9797
664.314	28.0857
667.689	26.0469
671.064	7.02819
674.439	1.40688
677.813	0.620659
681.188	0.00838999
684.563	0.293465
687.938	2.32634
691.313	3.8821
694.688	11.3507
698.062	17.4356
701.437	19.705
704.812	27.4423
708.187	41.5857
711.562	29.1378
714.936	10.0917
718.311	3.68237
721.686	0.640732
725.061	0.161743
728.436	0.772881
731.81	6.40512
735.185	11.1137
738.56	18.3394
741.935	24.1195
745.31	31.1492
748.684	38.2886
752.059	33.2784
755.434	30.5475
758.809	36.6298
762.184	43.0681
765.559	33.0028
768.933	17.5218
772.308	7.99177
775.683	3.92002
779.058	2.44418
782.433	1.36161
785.808	2.09505
789.182	0.807098
792.557	1.10244
795.932	1.02336
799.307	0.234489
802.682	0.313782
806.056	0.285179
809.431	0.714676
812.806	0.196777
816.181	0.641121
819.556	0.903893
822.93	2.21721
826.305	1.81625
829.68	1.15807
833.055	0.729813
836.43	1.89446
839.804	2.05657
843.179	2.07301
846.554	2.05055
849.929	3.28311
853.304	2.698
856.679	4.26553
860.053	3.04853
863.428	2.86986
866.803	2.32765
870.178	2.85893
873.553	2.35619
876.927	1.43395
880.302	1.44067
883.677	1.40739
887.052	0.961426
890.427	2.06691
893.802	2.96094
897.176	0.959114
900.551	0.427895
903.926	0.219833
907.301	0.868935
910.676	0.137383
914.05	0.131927
917.425	0.78772
920.8	2.53092
924.175	3.61813
927.55	5.46121
930.924	9.28507
934.299	12.9288
937.674	19.607
941.049	29.6888
944.424	44.2039
947.799	69.8757
951.173	109.207
954.548	168.908
957.923	241.09
961.298	292.079
964.673	265.152
968.047	180.54
971.422	106.837
974.797	63.7815
978.172	38.5676
981.547	24.2344
984.922	14.6716
988.296	9.22099
991.671	4.34477
995.046	2.55081
998.421	1.5952
1001.8	0.495239
1005.17	0.449806
1008.54	0.084656
1011.92	0.215721
1015.29	1.0124
1018.67	0.233742
1022.04	0.691284
1025.42	0.322723
1028.79	1.56901
1032.17	2.45566
1035.54	3.75988
1038.92	4.94767
1042.29	7.10453
1045.67	10.1028
1049.04	13.9785
1052.42	22.5928
1055.79	34.7912
1059.17	53.289
1062.54	79.5663
1065.92	107.705
1069.29	116.133
1072.67	87.2726
1076.04	55.3424
1079.42	33.3693
1082.79	21.1632
1086.17	13.7518
1089.54	9.02202
1092.92	5.06143
1096.29	3.38546
1099.66	4.5796
1103.04	1.41897
1106.41	0.714104
1109.79	0.610283
1113.16	0.151794
1116.54	0.210167
1119.91	0.208656
1123.29	0.156708
1126.66	0.120964
1130.04	0.283089
1133.41	0.06134
1136.79	0.022301
1140.16	0.846519
1143.54	0.210114
1146.91	0.609467
1150.29	1.85258
1153.66	0.998123
1157.04	1.11086
1160.41	0.611984
1163.79	0.861313
1167.16	1.033
1170.54	1.19809
1173.91	1.1984
1177.29	0.998825
1180.66	1.21992
1184.04	2.05411
1187.41	1.03162
1190.79	0.722694
1194.16	1.09583
1197.54	1.17489
1200.91	1.43108
1204.28	1.27506
1207.66	1.2841
1211.03	1.7534
1214.41	1.9323
1217.78	3.40811
1221.16	3.04658
1224.53	1.22816
1227.91	1.59284
1231.28	1.40304
1234.66	1.20147
1238.03	0.856247
1241.41	1.02031
1244.78	1.25196
1248.16	1.14562
1251.53	0.544479
1254.91	1.17593
1258.28	0.776405
1261.66	1.00486
1265.03	1.94971
1268.41	0.51403
1271.78	0.785492
1275.16	0.543884
1278.53	0.593987
1281.9	0.814919
