Measurement: Raman, 780 nm, unoriented, Raman Data Processed
Mineral: Jeremejevite
Rruff sample: R060617
Ideal chemistry: Al_6_(BO_3_)_5_F_3_
Locality: Ameib Farm, Usakos, Karibib District, Erongo Region, Namibia
Source: Michael Scott
Description: Very pale blue hexagonal prism
Measured chemistry: (Al_5.99_Fe^3+^_0.01_)_Σ=6_(BO_3_)_5_(F_2.85_(OH)_0.15_)_Σ=3_ ; B and H not measured but estimated by difference and charge balance
Raman shift (cm-1)	intensity
93.9705	0
97.3453	4.38959
100.72	1.92911
104.095	0.341187
107.47	8.96903
110.845	2.58862
114.219	6.59174
117.594	8.85501
120.969	7.2861
124.344	19.5391
127.719	8.978
131.094	10.6125
134.468	5.55588
137.843	3.52939
141.218	8.56869
144.593	4.10486
147.968	0.915253
151.342	3.55377
154.717	3.30649
158.092	23.0472
161.467	47.854
164.842	59.8112
168.216	104.605
171.591	185.267
174.966	446.813
178.341	1478.2
181.716	457.991
185.09	99.3033
188.465	97.3859
191.84	225.071
195.215	65.0802
198.59	18.6537
201.965	15.0543
205.339	25.6182
208.714	72.453
212.089	14.3728
215.464	5.17184
218.839	3.67274
222.214	9.81045
225.588	19.4821
228.963	60.5301
232.338	181.107
235.713	28.5193
239.088	1.30214
242.462	1.46147
245.837	1.4951
249.212	1.52872
252.587	0.719971
255.962	2.0473
259.336	10.5867
262.711	30.4238
266.086	107.22
269.461	144.075
272.836	67.4868
276.211	6.98549
279.585	3.57886
282.96	10.9561
286.335	39.8213
289.71	110.699
293.085	72.8448
296.459	55.3903
299.834	99.0613
303.209	97.3047
306.584	13.4042
309.959	15.1531
313.334	32.3022
316.708	59.8832
320.083	123.328
323.458	285.7
326.833	696.285
330.207	619.533
333.582	139.742
336.957	34.0583
340.332	6.27477
343.707	2.89474
347.082	3.8528
350.456	2.82561
353.831	38.6556
357.206	86.4323
360.581	131.915
363.956	256.062
367.33	597.177
370.705	1805.6
374.08	1886.2
377.455	368.452
380.83	131.75
384.205	69.4026
387.579	28.5929
390.954	16.3171
394.329	24.806
397.704	42.1389
401.079	21.5973
404.453	27.3472
407.828	62.3044
411.203	102.354
414.578	161.558
417.953	287.122
421.327	154.795
424.702	38.1295
428.077	10.1556
431.452	3.16931
434.827	0.326401
438.202	2.31691
441.576	1.89091
444.951	0.567947
448.326	1.76309
451.701	6.63733
455.076	18.5075
458.45	47.7818
461.825	58.0065
465.2	16.3719
468.575	6.68202
471.95	6.88889
475.325	13.1164
478.699	26.5423
482.074	49.727
485.449	51.1623
488.824	31.0611
492.199	26.7811
495.573	26.0984
498.948	27.0037
502.323	36.8608
505.698	62.9968
509.073	94.2067
512.447	100.327
515.822	50.2039
519.197	20.4618
522.572	10.9645
525.947	8.21056
529.322	10.2038
532.696	18.9467
536.071	28.3652
539.446	19.3386
542.821	8.23564
546.196	2.97794
549.57	0.100151
552.945	0.54866
556.32	1.71093
559.695	1.02288
563.07	1.2572
566.444	0.688667
569.819	1.83935
573.194	5.718
576.569	11.377
579.944	18.855
583.319	19.3998
586.693	17.7989
590.068	20.3055
593.443	26.3671
596.818	30.8264
600.193	42.2022
603.567	68.9771
606.942	93.2397
610.317	76.8814
613.692	43.8555
617.067	21.9228
620.442	12.2405
623.816	5.41891
627.191	3.35172
630.566	1.46344
633.941	1.27089
637.316	0.152
640.69	1.02975
644.065	1.93707
647.44	6.00728
650.815	10.9025
654.19	14.6221
657.564	16.9914
660.939	25.8427
664.314	61.9691
667.689	41.4743
671.064	13.0446
674.439	3.60582
677.813	0.970818
681.188	0.327614
684.563	0.195541
687.938	0.466682
691.313	2.81264
694.688	6.05478
698.062	9.28998
701.437	6.01563
704.812	4.58158
708.187	4.06272
711.562	1.465
714.936	0.030228
718.311	0.27182
721.686	0.411812
725.061	1.78864
728.436	4.99715
731.81	10.3747
735.185	19.1097
738.56	23.7292
741.935	22.4944
745.31	21.2132
748.684	20.4741
752.059	25.1057
755.434	36.5423
758.809	58.8031
762.184	73.0734
765.559	54.1098
768.933	27.8384
772.308	14.9346
775.683	7.27998
779.058	3.59046
782.433	1.43672
785.808	2.06708
789.182	2.39531
792.557	1.53805
795.932	0.610199
799.307	0.696175
802.682	0.209297
806.056	0.068321
809.431	0.642303
812.806	0.0354
816.181	1.20928
819.556	1.388
822.93	0.863754
826.305	1.07674
829.68	0.416733
833.055	0.681824
836.43	1.92865
839.804	1.23187
843.179	2.43166
846.554	2.68731
849.929	3.26823
853.304	2.44679
856.679	2.99539
860.053	6.7797
863.428	3.05321
866.803	4.22507
870.178	2.57297
873.553	1.76851
876.927	2.72311
880.302	0.700974
883.677	1.31003
887.052	0.716614
890.427	0.027428
893.802	0.460571
897.176	0.196243
900.551	0.529877
903.926	0.072189
907.301	0.290657
910.676	0.993744
914.05	1.9571
917.425	2.30489
920.8	3.97847
924.175	4.43364
927.55	8.00582
930.924	10.7896
934.299	14.9012
937.674	22.7083
941.049	32.2981
944.424	48.9148
947.799	76.0844
951.173	119.751
954.548	185.875
957.923	262.534
961.298	307.385
964.673	261.685
968.047	172.192
971.422	101.334
974.797	60.5989
978.172	35.1948
981.547	21.8324
984.922	14.1461
988.296	7.22012
991.671	4.38705
995.046	2.94302
998.421	1.21581
1001.8	0.040939
1005.17	0.269135
1008.54	0.582619
1011.92	0.151321
1015.29	0.94191
1018.67	1.18047
1022.04	0.819153
1025.42	1.30911
1028.79	2.01719
1032.17	2.90552
1035.54	4.57275
1038.92	5.81606
1042.29	8.05918
1045.67	11.4633
1049.04	17.7768
1052.42	25.8727
1055.79	40.3354
1059.17	61.9467
1062.54	93.3822
1065.92	124.022
1069.29	120.732
1072.67	86.3947
1076.04	53.6301
1079.42	32.6915
1082.79	21.1408
1086.17	15.1777
1089.54	9.58997
1092.92	5.61926
1096.29	3.30302
1099.66	2.09514
1103.04	1.49176
1106.41	0.312897
1109.79	0.731499
1113.16	0.387741
1116.54	0.138756
1119.91	0.043526
1123.29	0.133583
1126.66	0.173073
1130.04	0.546783
1133.41	0.24971
1136.79	0.891762
1140.16	0.149006
1143.54	0.158165
1146.91	0.367493
1150.29	0.952755
1153.66	0.836666
1157.04	1.20013
1160.41	1.05766
1163.79	1.63433
1167.16	2.23042
1170.54	1.49094
1173.91	1.43786
1177.29	1.08993
1180.66	1.60725
1184.04	0.970093
1187.41	1.30086
1190.79	1.38304
1194.16	0.664181
1197.54	1.57597
1200.91	1.21775
1204.28	0.508224
1207.66	2.01662
1211.03	1.97121
1214.41	1.97276
1217.78	2.46258
1221.16	2.15871
1224.53	1.70022
1227.91	0.767136
1231.28	1.56728
1234.66	1.60303
1238.03	1.2716
1241.41	1.02921
1244.78	1.29295
1248.16	1.13349
1251.53	1.04231
1254.91	1.18317
1258.28	1.38833
1261.66	0.530872
1265.03	0.585415
1268.41	0.531651
1271.78	0.22739
1275.16	0.816452
1278.53	0.44997
1281.9	1.25954
