Measurement: Raman, 532 nm, unoriented, Raman Data Processed
Mineral: Jerrygibbsite
Rruff sample: R070726
Ideal chemistry: Mn^2+^_9_(SiO_4_)_4_(OH)_2_
Locality: Parker Shaft, Franklin Mine, Franklin, Franklin Mining District, Sussex Co., New Jersey, USA
Source: Michael Scott
Description: Pale pink interlocking anhedral grains associated with zincite and franklinite
Raman shift (cm-1)	intensity
145.197	0
148.09	36.8301
150.983	93.7783
153.875	180.231
156.768	346.224
159.661	311.608
162.554	83.1162
165.446	59.9346
168.339	53.0312
171.232	114.74
174.124	119.277
177.017	121.885
179.91	285.953
182.803	182.079
185.695	190.057
188.588	175.148
191.481	99.3496
194.373	176.783
197.266	34.7653
200.159	82.376
203.051	148.626
205.944	166.754
208.837	113.094
211.729	23.0098
214.622	15.5381
217.515	52.6299
220.407	157.577
223.3	165.562
226.193	190.778
229.086	367.63
231.978	363.632
234.871	426.499
237.764	370.113
240.656	434.381
243.549	558.257
246.442	522.864
249.334	578.648
252.227	566.829
255.12	489.097
258.013	544.671
260.905	431.67
263.798	419.291
266.691	399.2
269.583	557.901
272.476	439.14
275.369	418.897
278.262	363.269
281.154	346.289
284.047	331.468
286.94	415.479
289.832	384.022
292.725	316.104
295.618	258.282
298.51	282.268
301.403	196.759
304.296	376.748
307.188	303.394
310.081	281.365
312.974	346.797
315.867	335.722
318.759	263.062
321.652	232.368
324.545	197.504
327.437	364.954
330.33	209.696
333.223	229.3
336.115	154.669
339.008	5.01367
341.901	8.32617
344.794	10.1279
347.686	97.5847
350.579	130.894
353.472	183.608
356.364	16.0752
359.257	8.27832
362.15	42.8877
365.043	144.629
367.935	23.4541
370.828	228.63
373.721	327.286
376.613	493.344
379.506	607.643
382.399	730.648
385.291	933.339
388.184	1025.82
391.077	1018.01
393.969	1024.2
396.862	822.752
399.755	738.376
402.648	613.497
405.54	507.084
408.433	406.93
411.326	422.067
414.218	312.804
417.111	311.35
420.004	341.372
422.897	158.561
425.789	148.538
428.682	131.419
431.575	225.328
434.467	202.371
437.36	98.4902
440.253	178.657
443.145	83.8066
446.038	70.6289
448.931	73.3389
451.824	60.2334
454.716	38.0381
457.609	97.2832
460.502	44.1738
463.394	51.0234
466.287	50.1455
469.18	52.2656
472.072	58.2373
474.965	11.5488
477.858	0.267578
480.75	29.1143
483.643	16.1152
486.536	73.0039
489.429	100.061
492.321	108.303
495.214	53.1484
498.107	77.7432
500.999	122.575
503.892	63.5772
506.785	10.2129
509.678	93.6709
512.57	29.666
515.463	143.034
518.356	98.5703
521.248	55.5635
524.141	34.5127
527.034	12.3281
529.926	50.0176
532.819	74.6348
535.712	109.48
538.604	31.0928
541.497	134.108
544.39	129.696
547.283	97.1768
550.175	137.361
553.068	287.051
555.961	265.955
558.853	237.244
561.746	414.712
564.639	559.842
567.531	784.324
570.424	953.48
573.317	1039.6
576.21	935.616
579.102	714.234
581.995	611.666
584.888	392.828
587.78	341.711
590.673	253.101
593.566	340.43
596.458	200.095
599.351	123.579
602.244	104.856
605.136	6.56445
608.029	41.1943
610.922	2.28516
613.815	138.493
616.707	108.16
619.6	40.793
622.493	21.0371
625.385	38.5166
628.278	16.3115
631.171	85.2353
634.063	117.358
636.956	124.572
639.849	55.7685
642.742	90.0137
645.634	141.513
648.527	140.595
651.42	93.9766
654.312	175.532
657.205	64.9971
660.098	185.672
662.99	76.3916
665.883	94.9766
668.776	155.473
671.669	115.091
674.561	98.7969
677.454	81.3926
680.347	115.886
683.239	154.574
686.132	140.095
689.025	87.8535
691.918	53.9834
694.81	65.8584
697.703	32.2256
700.596	96.7705
703.488	52.9707
706.381	118.798
709.274	226.5
712.166	147.943
715.059	76.8193
717.952	146.007
720.845	155.558
723.737	71.6416
726.63	89.8594
729.523	63.8613
732.415	104.644
735.308	47.7793
738.201	26.2041
741.093	8.18652
743.986	17.8574
746.879	89.7266
749.771	56.5381
752.664	58.3223
755.557	63.5957
758.45	98.0352
761.342	8.84473
764.235	116.678
767.128	72.9111
770.02	115.555
772.913	178.329
775.806	122.395
778.698	230.432
781.591	351.057
784.484	364.066
787.377	617.438
790.269	824.31
793.162	1614.9
796.055	2738.64
798.947	4754.78
801.84	7526.72
804.733	10425.1
807.625	11626.3
810.518	11557.5
813.411	10173.3
816.304	8484.15
819.196	7054.59
822.089	6409.05
824.982	5786.07
827.874	5955.47
830.767	6081.58
833.66	6807.2
836.552	7246.1
839.445	7240.86
842.338	6332.24
845.231	4907.64
848.123	3663.2
851.016	2554.93
853.909	1852.69
856.801	1321.77
859.694	964.997
862.587	835.879
865.479	495.846
868.372	316.403
871.265	107.114
874.158	60.2588
877.05	18.1885
879.943	17.8467
882.836	57.6182
885.728	109.742
888.621	44.0078
891.514	32.2451
894.406	20.1113
897.299	60.5986
900.192	37.832
903.085	84.2871
905.977	45.9434
908.87	0.683594
911.763	20.8115
914.655	67.4043
917.548	102.792
920.441	148.84
923.333	293.381
926.226	192.786
929.119	356.068
932.011	650.362
934.904	895.52
937.797	1105.72
940.69	1121.8
943.582	764.929
946.475	478.136
949.368	284.995
952.26	205.942
955.153	54.7012
958.046	52.1592
960.938	56.5518
963.831	29.8271
966.724	19.1074
969.617	26.4004
972.509	7.43555
975.402	29.8973
978.295	2.88769
981.187	23.5879
984.08	93.5068
986.973	29.6074
989.865	69.2861
992.758	21.2324
995.651	30.6221
998.544	102.574
1001.44	166.064
1004.33	178.371
1007.22	110.686
1010.11	41.2012
1013.01	134.879
1015.9	128.15
1018.79	58.3623
1021.68	32.5478
1024.58	48.6807
1027.47	112.505
1030.36	122.705
1033.26	103.3
1036.15	102.488
1039.04	113.425
1041.93	211.879
1044.83	0.269531
1047.72	59.5166
1050.61	49.5898
1053.51	60.5869
1056.4	117.454
1059.29	6.10352
1062.18	65.2842
1065.08	67.5606
1067.97	126.302
1070.86	22.1611
1073.75	58.3252
1076.65	166.595
1079.54	169.699
1082.43	145.183
1085.33	143.409
1088.22	85.8135
1091.11	55.3018
1094	45.5166
1096.89	102.183
1099.79	121.731
1102.68	136.456
1105.57	125.398
1108.47	35.9619
1111.36	122.887
1114.25	217.582
1117.14	81.8037
1120.04	29.3242
1122.93	160.694
1125.82	139.832
1128.71	187.345
1131.61	182.147
1134.5	223.527
1137.39	118.697
1140.29	109.683
1143.18	86.3213
1146.07	88.334
1148.96	171.468
1151.86	166.779
1154.75	59.9629
1157.64	99.4004
1160.54	61.8369
1163.43	65.583
1166.32	2.32031
1169.21	52.0723
1172.11	99.4688
1175	54.1982
1177.89	13.407
1180.78	3.60742
1183.68	123.789
1186.57	119.17
1189.46	128.15
1192.35	148.359
1195.25	174.26
1198.14	178.099
1201.03	141.478
1203.92	127.023
1206.82	71.7988
1209.71	148.439
1212.6	123.413
1215.5	56.2236
1218.39	120.15
1221.28	61.0752
1224.17	118.603
1227.07	130.922
1229.96	69.0986
1232.85	20.7686
1235.74	71.5322
1238.64	13.165
1241.53	1.36426
1244.42	72.1367
1247.32	101.923
1250.21	100.147
1253.1	94.4414
1255.99	113.717
1258.89	9.26367
1261.78	7.9707
1264.67	93.9658
1267.57	6.23828
1270.46	68.1123
1273.35	94.3447
1276.24	33.7256
1279.13	22.4785
1282.03	44.6816
1284.92	33.8457
1287.81	56.3359
1290.71	3.79102
1293.6	47.9404
1296.49	43.4131
1299.38	48.6924
