Measurement: Raman, 780 nm, unoriented, Raman Data Processed
Mineral: Jerrygibbsite
Rruff sample: R070726
Ideal chemistry: Mn^2+^_9_(SiO_4_)_4_(OH)_2_
Locality: Parker Shaft, Franklin Mine, Franklin, Franklin Mining District, Sussex Co., New Jersey, USA
Source: Michael Scott
Description: Pale pink interlocking anhedral grains associated with zincite and franklinite
Raman shift (cm-1)	intensity
120.006	0
123.38	65.1987
126.755	191.568
130.13	284.776
133.505	405.424
136.88	516.425
140.255	741.748
143.629	610.338
147.004	572.85
150.379	470.385
153.754	291.754
157.129	209.972
160.503	92.4009
163.878	58.3931
167.253	0.602051
170.628	118.567
174.003	30.3472
177.377	19.9913
180.752	47.0615
184.127	41.9624
187.502	97.9116
190.877	62.3159
194.251	4.05078
197.626	16.311
201.001	5.40918
204.376	98.1421
207.751	13.9971
211.126	23.9463
214.5	45.9028
217.875	35.4302
221.25	18.2466
224.625	57.3145
228	100.004
231.375	154.312
234.749	269.267
238.124	271.906
241.499	316.799
244.874	296.576
248.249	359.91
251.623	322.935
254.998	297.892
258.373	258.011
261.748	193.727
265.123	162.986
268.498	194.803
271.872	202.082
275.247	219.658
278.622	269.048
281.997	238.674
285.372	236.821
288.746	142.758
292.121	176.405
295.496	124.849
298.871	160.558
302.246	128.226
305.62	167.215
308.995	130.2
312.37	205.589
315.745	206.091
319.12	239.608
322.495	172.404
325.869	186.841
329.244	86.9585
332.619	81.0303
335.994	59.8198
339.369	17.1392
342.743	16.4131
346.118	13.7959
349.493	4.18457
352.868	4.45898
356.243	52.9927
359.618	64.644
362.992	18.6182
366.367	106.655
369.742	172.454
373.117	210.398
376.492	235.194
379.866	407
383.241	500.954
386.616	682.863
389.991	672.019
393.366	659.702
396.74	645.408
400.115	521.241
403.49	529.143
406.865	352.57
410.24	323.082
413.615	309.998
416.989	268.445
420.364	203.192
423.739	196.79
427.114	127.322
430.489	126.366
433.863	94.2036
437.238	81.8623
440.613	2.46533
443.988	75.6592
447.363	109.353
450.738	13.0464
454.112	7.3999
457.487	19.7871
460.862	38.0532
464.237	53.9331
467.612	45.3145
470.986	21.1939
474.361	19.1768
477.736	40.8149
481.111	48.2812
484.486	12.8062
487.861	5.88477
491.235	20.3379
494.61	45.5527
497.985	10.1377
501.36	41.4863
504.735	-1.93583
508.109	44.6792
511.484	53.9868
514.859	93.062
518.234	114.999
521.609	107.305
524.984	53.5957
528.358	36.7837
531.733	4.49365
535.108	6.46875
538.483	24.2319
541.858	74.6938
545.232	60.9512
548.607	54.2295
551.982	94.0142
555.357	160.196
558.732	129.699
562.106	174.656
565.481	224.332
568.856	343.772
572.231	452.568
575.606	472.664
578.981	379.969
582.355	197.768
585.73	166.443
589.105	91.7993
592.48	99.1475
595.855	7.56494
599.23	62.5254
602.604	20.0498
605.979	10.52
609.354	38.4927
612.729	35.104
616.104	67.2144
619.478	12.4556
622.853	29.436
626.228	33.9263
629.603	47.7534
632.978	37.6103
636.352	35.1382
639.727	69.6277
643.102	23.7954
646.477	40.675
649.852	13.8411
653.227	44.564
656.601	19.9648
659.976	20.4314
663.351	9.3064
666.726	15.0725
670.101	36.5701
673.476	7.56494
676.85	12.6831
680.225	87.9893
683.6	86.0098
686.975	21.1013
690.35	75.5254
693.724	11.4541
697.099	53.3696
700.474	39.342
703.849	73.0598
707.224	83.9197
710.598	95.4458
713.973	59.0061
717.348	29.5737
720.723	36.3079
724.098	22.5056
727.472	11.4446
730.847	32.2077
734.222	25.4658
737.597	13.8067
740.972	28.5704
744.347	14.5518
747.721	34.6489
751.096	3.927
754.471	32.0059
757.846	7.8125
761.221	17.2798
764.596	49.238
767.97	6.02832
771.345	36.2131
774.72	80.2295
778.095	64.863
781.47	19.6467
784.844	144.511
788.219	255.115
791.594	474.704
794.969	910.549
798.344	1826.68
801.718	3221.46
805.093	4788.85
808.468	5432.83
811.843	4999.85
815.218	4250.3
818.593	3373.62
821.967	2834.38
825.342	2559.08
828.717	2600.48
832.092	2888.91
835.467	3237.01
838.841	3346.79
842.216	2992.35
845.591	2234.76
848.966	1545.99
852.341	1033.39
855.716	648.483
859.09	844.49
862.465	451.469
865.84	228.452
869.215	327.779
872.59	372.764
875.964	72.1243
879.339	47.9131
882.714	2.93799
886.089	20.4487
889.464	33.5627
892.838	2.42871
896.213	23.8943
899.588	33.8877
902.963	17.6008
906.338	71.1951
909.713	89.7896
913.087	67.6077
916.462	33.3179
919.837	64.9365
923.212	49.2727
926.587	92.6428
929.962	183.924
933.336	314.584
936.711	487.595
940.086	459.713
943.461	276.326
946.836	187.8
950.21	68.7764
953.585	81.2878
956.96	56.2041
960.335	66.6819
963.71	36.3911
967.085	54.9145
970.459	1.79614
973.834	31.4277
977.209	22.1382
980.584	20.5066
983.959	9.73852
987.333	17.2764
990.708	62.061
994.083	1.87842
997.458	26.4304
1000.83	30.5977
1004.21	49.4297
1007.58	34.969
1010.96	33.0437
1014.33	12.1113
1017.71	16.2205
1021.08	49.9106
1024.46	32.5825
1027.83	27.7485
1031.21	15.4085
1034.58	73.0339
1037.96	69.0767
1041.33	21.802
1044.7	64.6428
1048.08	29.9033
1051.45	25.1074
1054.83	52.3213
1058.2	8.26782
1061.58	55.7935
1064.95	73.7195
1068.33	58.4592
1071.7	39.5867
1075.08	35.2315
1078.45	46.6238
1081.83	78.5137
1085.2	70.5727
1088.58	62.9312
1091.95	59.312
1095.33	9.20923
1098.7	42.1206
1102.08	29.0271
1105.45	14.407
1108.83	20.7522
1112.2	53.3999
1115.58	7.50415
1118.95	16.5083
1122.33	1.53931
1125.7	46.6155
1129.08	30.8225
1132.45	27.4097
1135.83	51.0903
1139.2	20.5142
1142.58	43.9402
1145.95	39.5071
1149.33	0.738037
1152.7	21.103
1156.07	31.8489
1159.45	37.1245
1162.82	35.0896
1166.2	61.0623
1169.57	8.11475
1172.95	16.3294
1176.32	30.2256
1179.7	49.7158
1183.07	17.7331
1186.45	40.8689
1189.82	48.5999
1193.2	10.6729
1196.57	30.47
1199.95	33.2903
1203.32	34.7224
1206.7	20.4856
1210.07	46.7175
1213.45	59.2815
1216.82	20.3391
1220.2	40.9204
1223.57	41.6357
1226.94	12.241
1230.32	49.4045
1233.69	40.3589
1237.07	44.3569
1240.44	25.8645
1243.82	21.8286
1247.19	16.3652
1250.57	6.59058
1253.94	35.6794
1257.32	66.3689
1260.69	38.6375
1264.07	40.8088
1267.44	41.273
1270.82	38.0164
1274.19	22.345
1277.57	1.01392
1280.94	46.8052
1284.32	20.4724
1287.69	18.0986
