Measurement: Raman, 780 nm, unoriented, Raman Data Processed
Mineral: Jerrygibbsite
Rruff sample: R100042
Ideal chemistry: Mn^2+^_9_(SiO_4_)_4_(OH)_2_
Locality: Kombat mine, Otavi Mountains, Namibia
Source: William W Pinch
Description: Tan transparent cleavages, associated with hausmannite, calcite, and an orange-red granular vesuvianite-group mineral
Raman shift (cm-1)	intensity
92.4974	0
95.8722	58.5043
99.2471	21.8185
102.622	13.7529
105.997	2.80835
109.371	0.853516
112.746	1.45129
116.121	10.6517
119.496	17.2125
122.871	30.6781
126.246	39.6825
129.62	46.2426
132.995	56.1824
136.37	69.5742
139.745	81.4889
143.12	93.3527
146.494	93.5249
149.869	65.3778
153.244	48.7612
156.619	37.819
159.994	28.2274
163.369	22.5684
166.743	14.2446
170.118	9.92725
173.493	5.81067
176.868	1.54907
180.243	5.18353
183.618	0.720581
186.992	0.943787
190.367	3.77033
193.742	3.66888
197.117	4.62384
200.492	4.98315
203.866	11.5424
207.241	14.5979
210.616	14.3818
213.991	17.8215
217.366	23.3966
220.74	31.3973
224.115	34.3602
227.49	43.7593
230.865	46.147
234.24	47.4817
237.615	49.3396
240.989	50.0233
244.364	49.9115
247.739	53.9264
251.114	47.34
254.489	37.2696
257.863	29.3756
261.238	29.9535
264.613	26.7685
267.988	26.9817
271.363	23.0514
274.738	20.9074
278.112	22.2435
281.487	23.6774
284.862	24.0455
288.237	29.879
291.612	33.3967
294.986	29.8748
298.361	29.394
301.736	31.8405
305.111	29.2997
308.486	26.8297
311.861	24.6238
315.235	16.744
318.61	10.4269
321.985	8.35541
325.36	5.33508
328.735	1.84485
332.109	4.78522
335.484	3.62268
338.859	2.96991
342.234	1.10291
345.609	1.1745
348.984	4.03107
352.358	5.54987
355.733	10.4864
359.108	15.1976
362.483	18.0439
365.858	13.7028
369.233	24.9124
372.607	36.0779
375.982	41.2193
379.357	57.34
382.732	72.8751
386.106	82.2653
389.481	81.4314
392.856	72.2662
396.231	74.8662
399.606	65.1609
402.981	65.6616
406.355	63.592
409.73	54.3835
413.105	52.032
416.48	48.3467
419.855	39.0249
423.229	40.0468
426.604	30.8973
429.979	34.1311
433.354	35.8396
436.729	27.0135
440.104	27.7186
443.478	21.7051
446.853	24.9378
450.228	14.1441
453.603	17.0837
456.978	17.2775
460.353	13.4672
463.727	12.4152
467.102	7.70215
470.477	9.71423
473.852	13.8521
477.227	11.0448
480.601	13.8013
483.976	16.5726
487.351	13.7039
490.726	17.2443
494.101	15.654
497.476	18.4658
500.85	14.1965
504.225	12.29
507.6	8.41913
510.975	7.28742
514.35	7.58404
517.724	1.41699
521.099	2.68481
524.474	2.21082
527.849	1.14185
531.224	3.70453
534.598	0.703552
537.973	4.23639
541.348	6.86713
544.723	8.5174
548.098	9.72833
551.472	12.5513
554.847	9.62189
558.222	12.1733
561.597	10.6475
564.972	7.2522
568.347	16.5738
571.721	13.2964
575.096	8.88495
578.471	4.51117
581.846	3.72656
585.221	0.704956
588.596	2.15466
591.97	0.946045
595.345	4.22809
598.72	0.95813
602.095	3.10065
605.47	7.70471
608.845	5.16144
612.219	5.48798
615.594	3.70679
618.969	7.00159
622.344	9.698
625.719	5.49213
629.093	9.69708
632.468	5.37189
635.843	8.75751
639.218	9.97119
642.593	9.55859
645.967	6.41071
649.342	7.62244
652.717	5.92236
656.092	8.73718
659.467	4.74908
662.842	5.32629
666.216	3.20844
669.591	6.14093
672.966	4.5285
676.341	6.93762
679.716	3.99316
683.091	4.46417
686.465	4.46063
689.84	4.21106
693.215	4.48438
696.59	4.85913
699.965	3.17737
703.339	1.01611
706.714	1.48352
710.089	5.24591
713.464	5.53204
716.839	1.51392
720.213	2.96979
723.588	2.03937
726.963	0.821106
730.338	3.34766
733.713	0.657349
737.087	0.086853
740.462	1.49719
743.837	0.532715
747.212	2.64264
750.587	0.376831
753.962	0.74823
757.336	3.70282
760.711	2.09833
764.086	0.431152
767.461	0.393555
770.836	1.74029
774.211	3.80664
777.585	12.0446
780.96	17.2885
784.335	36
787.71	75.1238
791.085	134.04
794.459	225.029
797.834	337.131
801.209	480.497
804.584	587.049
807.959	614.217
811.333	552.979
814.708	459.757
818.083	404.3
821.458	385.591
824.833	382.831
828.208	397.086
831.582	430.228
834.957	463.971
838.332	469.077
841.707	413.766
845.082	303.119
848.457	216.188
851.831	153.747
855.206	101.249
858.581	67.7603
861.956	45.9305
865.331	25.5043
868.705	10.6406
872.08	4.37946
875.455	4.38129
878.83	0.621277
882.205	0.913452
885.58	6.20282
888.954	2.65607
892.329	1.57562
895.704	8.64459
899.079	9.94922
902.454	12.8089
905.828	12.502
909.203	3.41907
912.578	0.338013
915.953	4.11658
919.328	0.920654
922.702	5.72571
926.077	14.7651
929.452	27.9475
932.827	39.6653
936.202	33.0156
939.577	17.5627
942.951	4.33124
946.326	0.320618
949.701	1.39795
953.076	2.00208
956.451	2.20856
959.825	4.08911
963.2	2.09949
966.575	5.31274
969.95	4.31628
973.325	5.59186
976.699	1.54456
980.074	4.43695
983.449	11.308
986.824	5.91193
990.199	9.06134
993.574	11.0459
996.948	10.7179
1000.32	17.7697
1003.7	11.2228
1007.07	10.1786
1010.45	5.19049
1013.82	7.71838
1017.2	11.0881
1020.57	10.5082
1023.95	7.87506
1027.32	11.1321
1030.7	12.1029
1034.07	10.632
1037.45	9.30035
1040.82	9.47961
1044.2	11.0756
1047.57	10.1221
1050.94	8.00409
1054.32	4.06793
1057.69	4.29541
1061.07	3.54388
1064.44	0.233093
1067.82	0.482544
1071.19	2.00641
1074.57	0.858643
1077.94	2.96472
1081.32	2.36768
1084.69	2.07172
1088.07	4.55286
1091.44	6.50671
1094.82	7.77051
1098.19	5.83758
1101.57	7.42975
1104.94	12.6418
1108.32	10.7731
1111.69	12.4791
1115.07	11.6008
1118.44	6.92462
1121.82	3.63586
1125.19	1.89868
1128.57	3.49658
1131.94	4.58734
1135.32	2.97443
1138.69	5.22772
1142.07	6.34064
1145.44	3.59155
1148.82	4.45715
1152.19	3.93378
1155.57	6.20477
1158.94	0.316833
1162.31	2.46539
1165.69	1.02502
1169.06	1.21625
1172.44	0.315979
1175.81	2.99603
1179.19	0.256165
1182.56	0.879028
1185.94	1.20093
1189.31	3.53565
1192.69	1.73114
1196.06	0.119873
1199.44	3.83081
1202.81	4.55109
1206.19	8.48132
1209.56	8.18921
1212.94	5.47803
1216.31	8.55554
1219.69	7.92737
1223.06	10.306
1226.44	19.465
1229.81	12.7117
1233.19	15.6439
1236.56	14.1063
1239.93	17.3127
1243.31	13.8953
1246.68	19.3268
1250.06	16.4021
1253.43	13.5293
1256.81	14.144
1260.18	20.0997
1263.56	18.3821
1266.93	12.0085
1270.31	8.47864
1273.68	1.4707
1277.06	4.22644
1280.43	0.496094
1283.81	6.28833
