Measurement: Raman, 532 nm, unoriented, Raman Data Processed
Mineral: Jinshajiangite
Rruff sample: R061018
Ideal chemistry: NaBaFe^2+^_4_Ti_2_(Si_2_O_7_)_2_O_2_(OH)_2_F
Locality: Jinshajiang River, western Sichuan Province, China
Source: Pingqiu Fu
Description: Brownish red cleavage fragments, portion of the type sample
Measured chemistry: Na_0.71_(Ba_0.58_K_0.39_Ce_0.14_)_Σ=1.11_(Fe_1.93_Mn_1.91_Mg_0.03_)_Σ=3.87_(Ti_1.77_Si_0.15_Zr_0.09_Al_0.004_)_Σ=2.01_(Si_2_O_7_)_2_O_2_(OH)_2_F_0.52_
Raman shift (cm-1)	intensity
125.379	0
128.754	528.058
132.129	1268.7
135.504	1573.55
138.879	827.623
142.253	300.611
145.628	453.842
149.003	626.384
152.378	886.652
155.753	1411.28
159.127	1812.08
162.502	2295.01
165.877	2505.6
169.252	1829.37
172.627	723.125
176.002	154.505
179.376	43.0325
182.751	147.519
186.126	136.647
189.501	52.9465
192.876	202.697
196.25	421.236
199.625	580.682
203	552.136
206.375	467.218
209.75	328.01
213.125	230.419
216.499	86.4663
219.874	103.136
223.249	108.118
226.624	176.333
229.999	249.101
233.374	396.424
236.748	450.53
240.123	476.683
243.498	413.58
246.873	352.72
250.248	282.492
253.622	194.668
256.997	145.709
260.372	184.333
263.747	224.112
267.122	186.816
270.496	173.873
273.871	159.733
277.246	337.874
280.621	452.761
283.996	575.751
287.37	716.926
290.745	666.5
294.12	423.947
297.495	365.469
300.87	508.914
304.245	915.399
307.619	1208.04
310.994	1361.34
314.369	1555.91
317.744	1773.94
321.119	2113.5
324.493	2656.46
327.868	3298.99
331.243	3813.8
334.618	4231.99
337.993	4216.21
341.368	3804.02
344.742	3591.84
348.117	3319.19
351.492	3021.63
354.867	2302.7
358.242	1242.27
361.616	593.659
364.991	130.787
368.366	157.982
371.741	162.894
375.116	34.3042
378.49	138.028
381.865	388.475
385.24	642.242
388.615	807.485
391.99	1091.54
395.365	1472.99
398.739	1919.82
402.114	2422.11
405.489	2884.29
408.864	3180.34
412.239	3033.76
415.613	2722.73
418.988	2420.44
422.363	2178.63
425.738	1905.88
429.113	1534.99
432.488	1076.63
435.862	763.271
439.237	373.045
442.612	196.595
445.987	24.3135
449.362	46.8687
452.736	0.297363
456.111	79.179
459.486	376.144
462.861	723.628
466.236	1027.21
469.611	1346.03
472.985	1394.04
476.36	1276.98
479.735	1222.4
483.11	1094.38
486.485	914.437
489.859	697.448
493.234	520.506
496.609	392.06
499.984	324.216
503.359	235.862
506.733	278.866
510.108	330.858
513.483	386.034
516.858	401.746
520.233	314.576
523.607	137.473
526.982	64.8123
530.357	1.27954
533.732	31.2576
537.107	41.0898
540.482	35.4873
543.856	82.0344
547.231	189.167
550.606	377
553.981	516.801
557.356	810.479
560.731	1231.55
564.105	1881.89
567.48	2912.33
570.855	4647.69
574.23	7216.72
577.605	10651.2
580.979	14254.1
584.354	16183.2
587.729	15108.4
591.104	11521.6
594.479	8138.84
597.854	5682.42
601.228	4114.21
604.603	3035.53
607.978	2160.91
611.353	1415.22
614.728	815.258
618.102	411.334
621.477	275.978
624.852	132.917
628.227	65.0166
631.602	53.5171
634.976	22.8765
638.351	102.177
641.726	210.693
645.101	144.91
648.476	141.618
651.851	48.3789
655.225	72.7832
658.6	269.524
661.975	527.446
665.35	894.435
668.725	1348.77
672.099	1888.55
675.474	2488.56
678.849	3334.24
682.224	4196.74
685.599	5157.47
688.973	6366.19
692.348	7665.59
695.723	9047.43
699.098	10654.3
702.473	12182.4
705.848	13558.2
709.222	14242.7
712.597	14158.4
715.972	13909
719.347	13787.3
722.722	14100
726.096	14417.6
729.471	14322.8
732.846	14080.9
736.221	13191.5
739.596	11990.1
742.971	10686
746.345	9329.98
749.72	8041.3
753.095	6519.56
756.47	5685.73
759.845	4721.55
763.219	3772.72
766.594	2998.39
769.969	2346.31
773.344	1695.98
776.719	1254.81
780.093	850.67
783.468	571.89
786.843	394.929
790.218	249.119
793.593	63.5459
796.968	46.3125
800.342	27.1016
803.717	117.951
807.092	113.221
810.467	115.807
813.842	11.2515
817.216	12.5034
820.591	36.6392
823.966	20.5137
827.341	28.8369
830.716	50.1006
834.091	10.8926
837.465	31.5186
840.84	36.0718
844.215	56.7734
847.59	155.44
850.965	229.74
854.34	380.548
857.714	590.122
861.089	851.342
864.464	965.894
867.839	1110.8
871.214	1188.64
874.588	1415.44
877.963	1770.09
881.338	2449.88
884.713	3466.48
888.088	4931.45
891.462	6822.97
894.837	9296.81
898.212	12227.9
901.587	15119.1
904.962	17745.3
908.337	19587.5
911.711	20361.4
915.086	19868.1
918.461	18043.9
921.836	15462.2
925.211	12583.2
928.585	9675.52
931.96	7397.33
935.335	5350.73
938.71	3980.7
942.085	2841.25
945.46	1912.51
948.834	1301.16
952.209	845.908
955.584	680.728
958.959	748.247
962.334	837.182
965.708	872.71
969.083	803.593
972.458	592.891
975.833	340.553
979.208	193.763
982.582	81.8877
985.957	61.2144
989.332	104.185
992.707	155.06
996.082	70.3916
999.457	5.83594
1002.83	137.516
1006.21	250.394
1009.58	457.706
1012.96	799.804
1016.33	1337.24
1019.71	1903.89
1023.08	2574.03
1026.45	2963.58
1029.83	2782.62
1033.2	2318.62
1036.58	1689.88
1039.95	1349.66
1043.33	1089.66
1046.7	876.875
1050.08	589.188
1053.45	433.77
1056.83	281.659
1060.2	202.921
1063.58	201.789
1066.95	170.952
1070.33	179.947
1073.7	189.491
1077.08	143.662
1080.45	146.558
1083.83	167.553
1087.2	109.965
1090.58	61.959
1093.95	9.89795
1097.33	17.3247
1100.7	106.748
1104.08	76.7378
1107.45	146.456
1110.83	132.442
1114.2	91.707
1117.58	106.618
1120.95	6.49854
1124.33	24.3262
1127.7	19.5806
1131.07	43.125
1134.45	42.9497
1137.82	42.8364
1141.2	19.0137
1144.57	6.29883
1147.95	9.55664
1151.32	0.77002
1154.7	59.2012
1158.07	67.6079
1161.45	20.9424
1164.82	37.8545
1168.2	81.228
1171.57	95.9868
1174.95	105.472
1178.32	206.833
1181.7	187.07
1185.07	122.585
1188.45	39.4507
1191.82	62.1284
1195.2	58.5464
1198.57	16.8794
1201.94	60.0132
1205.32	50.3696
1208.69	69.0684
1212.07	10.2568
1215.44	75.3423
1218.82	89.1768
1222.19	87.4477
1225.57	113.316
1228.94	117.815
1232.32	121.076
1235.69	137.769
1239.07	126.537
1242.44	93.4028
1245.82	100.535
1249.19	146.652
1252.57	103.22
1255.94	104.124
1259.32	44.9067
1262.69	9.9751
1266.07	12.5298
1269.44	28.8584
1272.82	60.627
1276.19	28.438
1279.57	66.1777
1282.94	50.5273
1286.32	69.5747
1289.69	47.0044
1293.07	7.44141
1296.44	25.5474
1299.82	0.36084
