Measurement: Raman, 780 nm, unoriented, Raman Data Processed
Mineral: Jinshajiangite
Rruff sample: R060580
Ideal chemistry: NaBaFe^2+^_4_Ti_2_(Si_2_O_7_)_2_O_2_(OH)_2_F
Locality: Norra Karr, Sweden
Source: Michael Scott
Description: Brownish red vein material with pronounced cleavage
Measured chemistry: Na_0.94_(Ba_0.67_K_0.33_)_Σ=1.00_(Fe_2.97_Mn_0.71_Ca_0.33_Mg_0.03_)_Σ=4.04_(Ti_1.90_Zr_0.06_)_Σ=1.96_(Si_1.92_Fe^+3^_0.08_O_7_)_2_O_2_(OH)_2_F_0.83_
Raman shift (cm-1)	intensity
175.492	0
178.385	4.08572
181.277	8.42831
184.17	3.52377
187.063	1.3093
189.955	4.11145
192.848	9.75299
195.741	19.6162
198.633	31.2714
201.526	33.4171
204.419	29.5571
207.311	33.6805
210.204	30.5445
213.097	15.698
215.99	2.2738
218.882	12.6534
221.775	9.92938
224.668	3.16815
227.56	24.9256
230.453	57.0023
233.346	99.8332
236.238	149.48
239.131	190.468
242.024	217.608
244.917	231.591
247.809	254.75
250.702	277.934
253.595	303.07
256.487	324.008
259.38	312.382
262.273	256.331
265.166	174.863
268.058	101.992
270.951	43.4464
273.844	16.3688
276.736	7.70483
279.629	1.42639
282.522	27.0383
285.414	62.5043
288.307	108.179
291.2	145.869
294.092	186.894
296.985	248.286
299.878	339.857
302.771	481.194
305.663	660.76
308.556	862.481
311.449	1053.54
314.341	1204.42
317.234	1286.38
320.127	1238.91
323.019	1112.89
325.912	958.246
328.805	835.812
331.698	744.407
334.59	670.087
337.483	603.813
340.376	512.797
343.269	408.774
346.161	312.61
349.054	242.409
351.947	179.074
354.839	122.572
357.732	70.2906
360.625	22.8557
363.517	5.107
366.41	14.0677
369.303	11.5451
372.195	9.61658
375.088	36.4496
377.981	73.9611
380.874	102.425
383.766	123.228
386.659	128.394
389.552	128.42
392.444	136.104
395.337	151.08
398.23	157.927
401.123	167.625
404.015	160.423
406.908	149.778
409.801	132.733
412.693	103.336
415.586	80.8821
418.479	64.3828
421.371	55.1944
424.264	50.0363
427.157	44.1253
430.05	36.8225
432.942	31.378
435.835	23.106
438.728	7.28683
441.62	0.552673
444.513	0.061371
447.406	5.97372
450.298	3.5936
453.191	5.97427
456.084	1.45468
458.976	16.5163
461.869	26.4186
464.762	45.9288
467.655	62.1442
470.547	77.3963
473.44	79.9311
476.333	78.7865
479.225	69.5219
482.118	65.0664
485.011	56.9566
487.904	48.5216
490.796	39.7491
493.689	34.1394
496.582	31.2651
499.474	32.6799
502.367	27.0234
505.26	27.3
508.152	18.7345
511.045	12.724
513.938	11.1254
516.83	13.0929
519.723	9.55663
522.616	3.4463
525.509	4.58383
528.401	7.45569
531.294	4.20148
534.187	5.43286
537.079	5.13783
539.972	15.6869
542.865	19.552
545.757	26.899
548.65	42.9746
551.543	59.5791
554.436	80.0475
557.328	111.975
560.221	147.713
563.114	187.733
566.006	232.963
568.899	290.142
571.792	371.67
574.684	482.248
577.577	625.476
580.47	797.745
583.363	924.433
586.255	930.493
589.148	784.286
592.041	571.458
594.933	385.688
597.826	259.459
600.719	178.137
603.611	123.85
606.504	86.5353
609.397	56.3038
612.29	32.678
615.182	14.8037
618.075	5.49664
620.968	0.486084
623.86	9.07929
626.753	8.78165
629.646	9.3829
632.538	8.08859
635.431	8.93787
638.324	3.82324
641.217	0.767303
644.109	4.31421
647.002	8.60693
649.895	20.0155
652.787	33.5363
655.68	50.5916
658.573	76.8685
661.466	100.083
664.358	133.938
667.251	171.25
670.144	215.813
673.036	266.256
675.929	321.838
678.822	382.666
681.714	441.229
684.607	506.262
687.5	569.48
690.393	631.235
693.285	686.384
696.178	739.106
699.071	789.069
701.963	836.63
704.856	876.252
707.749	891.701
710.641	884.357
713.534	852.146
716.427	813.562
719.319	787.621
722.212	750.289
725.105	709.753
727.998	671.064
730.89	639.524
733.783	582.779
736.676	530.275
739.568	479
742.461	424.803
745.354	371.749
748.246	325.886
751.139	278.977
754.032	233.902
756.925	194.05
759.817	159.044
762.71	127.341
765.603	99.712
768.495	75.4261
771.388	57.9793
774.281	42.3958
777.173	31.0421
780.066	17.3814
782.959	12.6133
785.852	7.86969
788.744	2.26364
791.637	4.12491
794.53	0.24469
797.422	0.289795
800.315	1.7879
803.208	4.2948
806.101	4.13663
808.993	3.52742
811.886	6.24083
814.779	4.65324
817.671	5.86816
820.564	2.56952
823.457	4.96568
826.349	2.1077
829.242	1.20308
832.135	1.85059
835.028	0.190475
837.92	1.49699
840.813	1.0397
843.706	1.79123
846.598	2.20221
849.491	6.51511
852.384	11.4045
855.276	16.7337
858.169	23.1107
861.062	27.6703
863.955	32.8863
866.847	38.6505
869.74	41.5562
872.633	45.6942
875.525	50.1238
878.418	51.2716
881.311	52.2462
884.203	56.679
887.096	67.5346
889.989	88.0717
892.881	121.474
895.774	172.463
898.667	234.671
901.56	311.524
904.452	388.901
907.345	466.974
910.238	536.288
913.13	590.427
916.023	620.299
918.916	603.907
921.808	550.825
924.701	472.715
927.594	389.149
930.487	318.743
933.379	254.069
936.272	203.666
939.165	162.892
942.057	135.087
944.95	114.819
947.843	101.381
950.736	96.3834
953.628	106.226
956.521	125.615
959.414	145.737
962.306	171.165
965.199	169.293
968.092	143.929
970.984	103.683
973.877	66.8939
976.77	37.6311
979.663	16.183
982.555	7.65767
985.448	3.87779
988.341	3.5909
991.233	5.92821
994.126	3.06346
997.019	2.68451
999.911	1.29422
1002.8	12.3062
1005.7	22.4089
1008.59	41.5825
1011.48	63.4997
1014.38	88.0307
1017.27	122.001
1020.16	165.391
1023.05	213.416
1025.95	258.11
1028.84	275.645
1031.73	261.33
1034.62	210.342
1037.52	154.612
1040.41	111.652
1043.3	81.6715
1046.19	58.8372
1049.09	46.2099
1051.98	32.8884
1054.87	23.7549
1057.77	18.8264
1060.66	15.4213
1063.55	16.787
1066.44	14.0071
1069.34	12.1448
1072.23	7.89406
1075.12	8.71269
1078.01	5.58363
1080.91	6.59138
1083.8	3.24564
1086.69	2.88815
1089.59	1.20683
1092.48	2.35282
1095.37	1.86777
1098.26	4.92969
1101.16	2.19016
1104.05	2.90789
1106.94	0.967216
1109.83	7.61476
1112.73	3.04601
1115.62	1.84527
1118.51	0.262634
1121.4	0.279594
1124.3	1.5293
1127.19	2.53574
1130.08	0.571724
1132.98	1.70741
1135.87	0.726166
1138.76	1.27823
1141.65	0.24807
1144.55	1.18395
1147.44	0.152435
1150.33	0.563118
1153.22	1.45563
1156.12	1.4499
1159.01	0.824028
1161.9	2.91373
1164.8	1.89632
1167.69	0.54364
1170.58	0.071602
1173.47	3.84885
1176.37	1.87717
1179.26	2.22629
1182.15	8.95906
1185.04	7.60065
1187.94	11.5865
1190.83	11.5181
1193.72	15.7884
1196.62	19.0476
1199.51	23.4045
1202.4	24.0873
1205.29	28.5683
1208.19	25.3885
1211.08	32.3312
1213.97	33.3597
1216.86	38.4498
1219.76	44.1252
1222.65	53.1251
1225.54	56.2966
1228.43	65.3027
1231.33	75.4868
1234.22	83.6727
1237.11	90.1355
1240.01	100.333
1242.9	112.141
1245.79	126.913
1248.68	140.001
1251.58	158.126
1254.47	174.795
1257.36	195.23
1260.26	216.516
1263.15	243.485
1266.04	272.108
1268.93	298.535
1271.83	330.036
1274.72	365.265
1277.61	407.981
1280.5	450.193
1283.4	502.887
