Measurement: Raman, 785 nm, unoriented, Raman Data Processed
Mineral: Jinshajiangite
Rruff sample: R061018
Ideal chemistry: NaBaFe^2+^_4_Ti_2_(Si_2_O_7_)_2_O_2_(OH)_2_F
Locality: Jinshajiang River, western Sichuan Province, China
Source: Pingqiu Fu
Description: Brownish red cleavage fragments, portion of the type sample
Measured chemistry: Na_0.71_(Ba_0.58_K_0.39_Ce_0.14_)_Σ=1.11_(Fe_1.93_Mn_1.91_Mg_0.03_)_Σ=3.87_(Ti_1.77_Si_0.15_Zr_0.09_Al_0.004_)_Σ=2.01_(Si_2_O_7_)_2_O_2_(OH)_2_F_0.52_
Raman shift (cm-1)	intensity
147.08	0
149.973	486.582
152.866	576.621
155.758	255.865
158.651	112.562
161.544	137.518
164.436	260.434
167.329	521.004
170.222	528.384
173.115	401.599
176.007	205.676
178.9	74.7722
181.793	10.9863
184.685	23.6252
187.578	18.5723
190.471	34.7844
193.363	32.2036
196.256	19.6125
199.149	72.2573
202.042	194.321
204.934	218.028
207.827	275.314
210.72	284.218
213.612	213.254
216.505	155.508
219.398	159.077
222.291	177.094
225.183	232.379
228.076	241.198
230.969	277.187
233.861	288.808
236.754	343.954
239.647	370.419
242.539	397.705
245.432	393.304
248.325	392.329
251.218	365.505
254.11	421.17
257.003	383.743
259.896	408.354
262.788	445.278
265.681	363.541
268.574	319.521
271.466	260.721
274.359	299.276
277.252	439.852
280.144	646.071
283.037	902.835
285.93	1103.48
288.823	1184.82
291.715	1025.86
294.608	624.964
297.501	297.765
300.393	99.6167
303.286	15.2847
306.179	5.34229
309.072	39.7437
311.964	32.8755
314.857	8.1167
317.75	19.5064
320.642	82.4844
323.535	136.674
326.428	356.213
329.32	487.943
332.213	576.013
335.106	636.938
337.998	609.786
340.891	559.446
343.784	717.002
346.677	769.958
349.569	839.873
352.462	856.324
355.355	712.458
358.247	367.01
361.14	124.403
364.033	10.2979
366.925	47.98
369.818	55.0674
372.711	26.4722
375.604	134.014
378.496	234.554
381.389	354.606
384.282	531.153
387.174	641.376
390.067	817.797
392.96	1024.46
395.853	1300.04
398.745	1529.11
401.638	1831.61
404.531	2240.7
407.423	2502.69
410.316	2603.91
413.209	2631.62
416.101	2579.72
418.994	2450.19
421.887	2208.07
424.779	2018.63
427.672	1630.99
430.565	1295.13
433.458	920.092
436.35	649.743
439.243	447.459
442.136	263.727
445.028	174.595
447.921	51.4636
450.814	30.9656
453.707	13.4211
456.599	16.4714
459.492	26.5725
462.385	107.79
465.277	141.895
468.17	215.152
471.063	206.018
473.955	181.003
476.848	175.831
479.741	184.803
482.634	97.3328
485.526	92.7954
488.419	25.4133
491.312	10.449
494.204	20.8377
497.097	16.793
499.99	13.7095
502.882	38.7798
505.775	6.03052
508.668	44.2656
511.56	160.533
514.453	259.77
517.346	235.239
520.239	145.396
523.131	123.156
526.024	89.4111
528.917	31.0322
531.809	58.5605
534.702	2.65503
537.595	97.2229
540.487	81.1475
543.38	144.638
546.273	166.349
549.166	221.674
552.058	270.978
554.951	332.95
557.844	384.683
560.736	479.707
563.629	603.584
566.522	734.426
569.414	1068.55
572.307	1550.45
575.2	2363.89
578.093	3420.9
580.985	4541.12
583.878	5280.11
586.771	5285.22
589.663	4394.25
592.556	3275.38
595.449	2384.1
598.341	1832.27
601.234	1435.97
604.127	1168.44
607.02	908.82
609.912	666.913
612.805	375.871
615.698	202.363
618.59	106.964
621.483	35.4204
624.376	16.7131
627.269	38.4314
630.161	3.17163
633.054	80.5823
635.947	47.1277
638.839	54.2275
641.732	1.11987
644.625	65.2136
647.517	53.5256
650.41	2.86548
653.303	42.7163
656.196	11.9316
659.088	26.1851
661.981	71.4089
664.874	111.563
667.766	213.597
670.659	287.843
673.552	436.431
676.444	618.821
679.337	774.759
682.23	999.696
685.122	1131.12
688.015	1415.58
690.908	1699.34
693.801	2096.63
696.693	2473.18
699.586	3012.33
702.479	3656.7
705.371	4267.13
708.264	4671.99
711.157	4807.38
714.049	4330.4
716.942	3721.89
719.835	3365.15
722.728	3179.19
725.62	3124.05
728.513	3116.6
731.406	3010.22
734.298	2973.82
737.191	2677.91
740.084	2481.09
742.976	2196.58
745.869	1933.44
748.762	1710.91
751.655	1470.57
754.547	1224.84
757.44	1031.46
760.333	825.429
763.225	693.008
766.118	499.049
769.011	429.821
771.904	362.564
774.796	278.678
777.689	215.425
780.582	141.104
783.474	77.2383
786.367	83.8989
789.26	60.3899
792.152	39.6348
795.045	4.09326
797.938	6.41699
800.831	42.3079
803.723	17.3657
806.616	25.4231
809.509	13.9338
812.401	48.6899
815.294	29.55
818.187	43.0325
821.079	26.7815
823.972	22.4636
826.865	55.9192
829.757	13.4482
832.65	27.8091
835.543	1.3418
838.436	10.9934
841.328	17.8919
844.221	2.91675
847.114	4.75195
850.006	58.9197
852.899	115.673
855.792	159.314
858.684	205.144
861.577	253.156
864.47	303.117
867.362	357.775
870.255	401.962
873.148	484.879
876.041	621.152
878.933	740.538
881.826	958.869
884.719	1309.19
887.611	1709.39
890.504	2277.3
893.397	2957.8
896.29	3775.86
899.182	4732.57
902.075	5750.06
904.968	6576.24
907.86	7194.89
910.753	7517.52
913.646	7538.2
916.538	7193.89
919.431	6435.56
922.324	5522.48
925.217	4690.72
928.109	3771.23
931.002	3057.54
933.895	2451.11
936.787	1945.51
939.68	1566.96
942.573	1283.59
945.466	941.297
948.358	666.63
951.251	508.383
954.144	390.88
957.036	352.916
959.929	326.604
962.822	346.59
965.714	336.73
968.607	267.692
971.5	264.434
974.393	146.738
977.285	91.6042
980.178	87.6523
983.071	29.3572
985.963	27.7173
988.856	23.8113
991.749	46.0942
994.641	3.16894
997.534	9.17065
1000.43	7.86353
1003.32	15.0591
1006.21	4.46948
1009.11	30.8689
1012	30.1067
1014.89	7.72778
1017.78	66.4507
1020.68	101.003
1023.57	113.17
1026.46	213.797
1029.35	242.766
1032.25	214.887
1035.14	205.816
1038.03	115.731
1040.92	133.393
1043.82	145.954
1046.71	139.708
1049.6	117.834
1052.49	84.053
1055.39	29.825
1058.28	65.7495
1061.17	36.5273
1064.07	17.6233
1066.96	26.7461
1069.85	1.02368
1072.74	35.0793
1075.64	35.3633
1078.53	43.8911
1081.42	42.4299
1084.32	45.6426
1087.21	25.6802
1090.1	49.9458
1092.99	76.134
1095.89	61.373
1098.78	4.50513
1101.67	47.5645
1104.56	76.3315
1107.46	62.4297
1110.35	78.6152
1113.24	110.115
1116.13	117.749
1119.03	80.2324
1121.92	21.9963
1124.81	50.8674
1127.71	9.38672
1130.6	8.9043
1133.49	4.36743
1136.38	25.7903
1139.28	53.9692
1142.17	65.2168
1145.06	37.8625
1147.95	71.9778
1150.85	55.8193
1153.74	81.782
1156.63	112.582
1159.53	106.405
1162.42	108.565
1165.31	132.058
1168.2	149.475
1171.1	106.226
1173.99	82.6841
1176.88	130.032
1179.77	133.684
1182.67	131.009
1185.56	116.843
1188.45	172.036
1191.35	119.354
1194.24	59.1065
1197.13	105.316
1200.02	44.4165
1202.92	86.146
1205.81	4.57764
1208.7	8.98291
1211.59	25.3906
1214.49	68.1763
1217.38	145.417
1220.27	163.384
1223.16	158.321
1226.06	146.206
1228.95	114.363
1231.84	173.231
1234.73	136.82
1237.63	137.754
1240.52	134.553
1243.41	129.907
1246.31	157.489
1249.2	97.9438
1252.09	111.351
1254.98	42.6787
1257.88	5.65479
1260.77	59.3379
1263.66	15.4663
1266.56	9.33057
1269.45	37.7022
