Measurement: Raman, 532 nm, unoriented, Raman Data Processed
Mineral: Jinshajiangite
Rruff sample: R060580
Ideal chemistry: NaBaFe^2+^_4_Ti_2_(Si_2_O_7_)_2_O_2_(OH)_2_F
Locality: Norra Karr, Sweden
Source: Michael Scott
Description: Brownish red vein material with pronounced cleavage
Measured chemistry: Na_0.94_(Ba_0.67_K_0.33_)_Σ=1.00_(Fe_2.97_Mn_0.71_Ca_0.33_Mg_0.03_)_Σ=4.04_(Ti_1.90_Zr_0.06_)_Σ=1.96_(Si_1.92_Fe^+3^_0.08_O_7_)_2_O_2_(OH)_2_F_0.83_
Raman shift (cm-1)	intensity
171.006	0
173.898	5.37656
176.791	11.5778
179.684	12.2423
182.577	3.44656
185.469	2.43823
188.362	0.770599
191.255	6.89365
194.147	14.6974
197.04	21.3482
199.933	41.2448
202.825	32.1198
205.718	37.6357
208.611	43.5662
211.504	39.0821
214.396	25.7047
217.289	7.90085
220.182	3.66974
223.074	1.94568
225.967	3.56943
228.86	8.44302
231.752	21.8019
234.645	45.3093
237.538	61.9934
240.43	81.8962
243.323	93.0858
246.216	109.56
249.109	122.253
252.001	134.511
254.894	153.124
257.787	160.695
260.679	145.219
263.572	115.986
266.465	66.8837
269.358	32.7189
272.25	10.2297
275.143	5.93906
278.036	2.3494
280.928	6.09848
283.821	18.2974
286.714	35.2549
289.606	42.563
292.499	55.1179
295.392	66.1514
298.284	80.8199
301.177	121.156
304.07	187.201
306.963	264.476
309.855	354.543
312.748	443.49
315.641	509.91
318.533	532.925
321.426	512.815
324.319	467.757
327.212	416.055
330.104	374.086
332.997	347.474
335.89	325.009
338.782	291.141
341.675	252.971
344.568	209.3
347.46	176.239
350.353	142.862
353.246	110.82
356.139	75.174
359.031	35.2518
361.924	5.02008
364.817	7.83865
367.709	13.4151
370.602	1.46317
373.495	14.7651
376.387	37.2626
379.28	66.3468
382.173	77.8666
385.065	86.2691
387.958	94.1041
390.851	95.6974
393.744	113.502
396.636	133.513
399.529	158.996
402.422	168.727
405.314	180.677
408.207	191.474
411.1	176.837
413.993	169.113
416.885	147.275
419.778	130.551
422.671	123.507
425.563	112.257
428.456	106.466
431.349	89.4856
434.241	66.3941
437.134	42.9139
440.027	26.4127
442.92	13.4283
445.812	4.89926
448.705	6.64145
451.598	8.9014
454.49	3.6253
457.383	1.07034
460.276	13.855
463.168	23.1714
466.061	31.1417
468.954	45.1816
471.846	56.2434
474.739	56.7305
477.632	50.1177
480.525	49.2618
483.417	46.763
486.31	40.4648
489.203	31.7872
492.095	21.8077
494.988	19.2162
497.881	18.0424
500.774	16.6924
503.666	16.5121
506.559	13.8942
509.452	15.195
512.344	15.5606
515.237	17.8452
518.13	13.5419
521.022	9.06763
523.915	3.53595
526.808	7.62515
529.701	3.45834
532.593	1.53763
535.486	2.23566
538.379	4.18246
541.271	9.58127
544.164	12.1892
547.057	15.7982
549.949	26.5447
552.842	39.1024
555.735	59.8271
558.628	79.1983
561.52	101.497
564.413	126.364
567.306	157.486
570.198	200.206
573.091	260.426
575.984	348.909
578.876	447.202
581.769	548.319
584.662	599.784
587.554	574.272
590.447	477.086
593.34	351.067
596.232	246.172
599.125	173.259
602.018	122.892
604.911	86.9788
607.803	60.757
610.696	42.4051
613.589	22.276
616.481	12.2709
619.374	3.66702
622.267	0.851563
625.159	10.1563
628.052	9.13721
630.945	11.2778
633.838	9.34741
636.73	7.36789
639.623	4.10324
642.516	4.64011
645.408	0.658447
648.301	5.9704
651.194	11.4069
654.087	32.7614
656.979	43.9961
659.872	63.8382
662.765	96.3225
665.657	129.006
668.55	164.581
671.443	208.547
674.335	253.254
677.228	313.239
680.121	372.772
683.014	441.387
685.906	502.217
688.799	563.717
691.692	632.574
694.584	695.521
697.477	754.484
700.37	799.486
703.263	849.374
706.155	885.657
709.048	912.724
711.941	919.013
714.833	909.369
717.726	887.288
720.619	861.155
723.511	828.992
726.404	807.757
729.297	757.1
732.189	704.274
735.082	656.76
737.975	596.276
740.868	539.528
743.76	478.036
746.653	425.299
749.546	365.722
752.438	317.755
755.331	269.516
758.224	223.154
761.116	182.655
764.009	140.347
766.902	114.422
769.795	89.3975
772.687	64.4925
775.58	53.4366
778.473	32.5865
781.365	23.1079
784.258	16.4949
787.151	13.8242
790.043	6.92612
792.936	8.37619
795.829	8.14786
798.722	0.010071
801.614	0.103363
804.507	1.20477
807.4	2.98688
810.292	4.18784
813.185	2.74707
816.078	7.68887
818.971	5.13742
821.863	0.875031
824.756	5.98984
827.649	8.49472
830.541	6.08466
833.434	6.61468
836.327	7.26288
839.219	3.81964
842.112	5.51767
845.005	0.236877
847.898	0.39856
850.79	5.71777
853.683	10.3926
856.576	17.1642
859.468	24.2153
862.361	34.3818
865.254	43.5394
868.146	49.2629
871.039	60.956
873.932	74.0433
876.824	78.2633
879.717	88.0322
882.61	91.8767
885.503	113.068
888.395	151.942
891.288	207.34
894.181	293.122
897.073	399.96
899.966	535.413
902.859	694.11
905.751	850.591
908.644	997.259
911.537	1119.02
914.43	1209.76
917.322	1244.1
920.215	1175.91
923.108	1053.41
926	905.562
928.893	761.138
931.786	616.884
934.678	493.856
937.571	390.254
940.464	312.87
943.357	255.5
946.249	214.731
949.142	184.645
952.035	176.832
954.927	184.331
957.82	209.908
960.713	240.318
963.606	253.934
966.498	236.595
969.391	193.737
972.284	130.19
975.176	75.2889
978.069	34.6669
980.962	10.7761
983.854	5.9451
986.747	16.1148
989.64	13.0684
992.533	6.78744
995.425	8.32742
998.318	25.2176
1001.21	54.2322
1004.1	93.0063
1007	134.851
1009.89	195.556
1012.78	284.451
1015.67	386.771
1018.57	525.917
1021.46	689.346
1024.35	855.242
1027.24	966.707
1030.14	990.726
1033.03	882.728
1035.92	699.466
1038.82	512.97
1041.71	376.819
1044.6	271.606
1047.49	194.213
1050.39	141.577
1053.28	106.387
1056.17	78.9034
1059.07	62.272
1061.96	47.6595
1064.85	37.6961
1067.74	22.4416
1070.63	18.9513
1073.53	13.7353
1076.42	8.75915
1079.31	7.48892
1082.21	5.12643
1085.1	0.176483
1087.99	3.5231
1090.88	1.4191
1093.78	2.06009
1096.67	2.646
1099.56	0.697754
1102.45	1.72426
1105.35	0.772964
1108.24	1.8092
1111.13	1.57445
1114.03	8.28777
1116.92	3.28918
1119.81	4.15884
1122.7	3.71475
1125.6	4.63879
1128.49	6.97197
1131.38	3.90988
1134.28	3.14406
1137.17	6.15492
1140.06	10.2919
1142.95	7.53879
1145.85	8.61327
1148.74	6.23299
1151.63	6.16298
1154.52	6.7635
1157.42	4.54121
1160.31	5.39447
1163.2	2.02231
1166.09	5.22922
1168.99	3.0421
1171.88	4.80928
1174.77	2.39613
1177.66	8.71796
1180.56	6.42615
1183.45	13.2099
1186.34	9.96808
1189.24	9.54092
1192.13	4.98074
1195.02	1.05383
1197.91	6.35806
1200.81	3.24991
1203.7	4.88075
1206.59	3.68663
1209.48	0.848175
1212.38	4.45412
1215.27	5.77904
1218.16	3.17601
1221.06	3.63365
1223.95	7.78029
1226.84	6.63399
1229.73	2.94228
1232.63	2.92627
1235.52	3.71826
1238.41	5.74371
1241.31	0.331085
1244.2	2.95071
1247.09	6.15604
1249.98	0.019928
1252.88	1.78716
1255.77	4.12666
1258.66	5.19167
1261.55	4.75583
1264.45	3.43404
1267.34	2.59885
1270.23	3.633
1273.12	3.91039
1276.02	2.28484
1278.91	6.90677
1281.8	2.34422
1284.69	9.18008
1287.59	6.65974
1290.48	2.79581
1293.37	3.9267
1296.27	4.9204
1299.16	5.88852
1302.05	0.712936
