Measurement: Raman, 532 nm, unoriented, Raman Data Processed
Mineral: Joaquinite-(Ce)
Rruff sample: R120101
Ideal chemistry: NaBa_2_Fe^2+^Ti_2_Ce_2_(SiO_3_)_8_O_2_(OH)H_2_O
Locality: Gem mine, San Benito County, California, USA
Source: Bob Jenkins
Description: Brown pseudo-orthorhombic crystals, associated with black neptunite
Measured chemistry: Na_0.81_Ba_2.00_(Fe_0.65_Ti_0.13_Zn_0.07_)_Σ=0.85_Ti_2.00_(Ce_0.72_Nd_0.24_La_0.23_Pr_0.07_Sm_0.02_Sr_0.59_Ca_0.06_Th_0.04_Ba_0.03_)_Σ=2.00_(SiO_3_)_7.99_O_2.00_(O_0.50_OH_0.50_)_Σ=1.00_·1.52H_2_O
Raman shift (cm-1)	intensity
183.857	0
186.749	41.882
189.642	112.119
192.535	155.027
195.427	148.786
198.32	108.918
201.213	67.6872
204.105	56.9869
206.998	37.0223
209.891	21.5889
212.784	13.7537
215.676	3.17993
218.569	5.25482
221.462	9.92426
224.354	7.76379
227.247	0.21405
230.14	2.99823
233.032	9.85107
235.925	14.4473
238.818	21.3017
241.71	26.8574
244.603	27.9791
247.496	31.3143
250.389	29.7031
253.281	32.94
256.174	38.0283
259.067	44.5543
261.959	53.9714
264.852	59.2175
267.745	69.6254
270.637	75.1025
273.53	75.5447
276.423	77.8954
279.316	74.243
282.208	72.1039
285.101	77.0568
287.994	84.3044
290.886	90.8519
293.779	91.8697
296.672	91.6717
299.565	85.5013
302.457	77.9383
305.35	72.0962
308.243	69.9295
311.135	62.9029
314.028	45.1561
316.921	29.5014
319.813	16.0575
322.706	11.1215
325.599	18.0211
328.491	24.007
331.384	28.7847
334.277	28.3215
337.17	36.2059
340.062	47.1661
342.955	67.5676
345.848	83.941
348.74	102.974
351.633	129.41
354.526	156.938
357.418	182.608
360.311	196.951
363.204	213.102
366.097	246.276
368.989	295.634
371.882	348.026
374.775	383.942
377.667	351.312
380.56	244.354
383.453	142.345
386.346	83.8528
389.238	36.0466
392.131	10.0224
395.024	12.0173
397.916	17.9999
400.809	14.7534
403.702	6.79333
406.594	28.4058
409.487	56.3874
412.38	73.356
415.272	92.1569
418.165	112.069
421.058	117.121
423.951	108.025
426.843	85.5118
429.736	79.361
432.629	83.9264
435.521	93.7791
438.414	105.129
441.307	100.686
444.2	84.9022
447.092	72.9197
449.985	61.1108
452.878	56.7203
455.77	46.7936
458.663	44.1375
461.556	46.2918
464.448	51.544
467.341	52.541
470.234	45.8066
473.127	55.6873
476.019	47.9957
478.912	56.2056
481.805	63.6023
484.697	67.2944
487.59	67.6297
490.483	69.6633
493.375	61.0118
496.268	52.4412
499.161	41.5098
502.053	31.3029
504.946	24.5044
507.839	18.7199
510.732	18.5629
513.624	22.4399
516.517	20.1689
519.41	19.6159
522.302	17.9186
525.195	15.9395
528.088	12.3125
530.981	2.04718
533.873	3.02179
536.766	3.27972
539.659	6.02063
542.551	9.08856
545.444	8.89477
548.337	5.36664
551.229	1.83569
554.122	3.55133
557.015	0.074768
559.908	2.93469
562.8	0.974548
565.693	2.78406
568.586	5.1571
571.478	12.053
574.371	23.441
577.264	40.5194
580.156	59.2643
583.049	82.7007
585.942	113.723
588.835	137.595
591.727	152.427
594.62	163.078
597.513	171.139
600.405	162.897
603.298	157.616
606.191	146.516
609.083	143.928
611.976	142.445
614.869	149.403
617.761	164.529
620.654	182.138
623.547	196.399
626.44	208.761
629.332	214.208
632.225	211.917
635.118	201.741
638.01	181.126
640.903	162.835
643.796	145.609
646.688	145.201
649.581	151.352
652.474	179.643
655.367	216.592
658.259	253.455
661.152	281.402
664.045	291.484
666.937	276.62
669.83	254.186
672.723	223.871
675.615	205.301
678.508	182.816
681.401	169.213
684.294	146.528
687.186	119.046
690.079	84.6553
692.972	51.2282
695.864	22.8327
698.757	6.02496
701.65	1.34522
704.543	5.77808
707.435	21.0925
710.328	48.7028
713.221	80.3758
716.113	119.325
719.006	155.749
721.899	195.871
724.791	234.461
727.684	251.385
730.577	232.858
733.47	182.35
736.362	115.928
739.255	55.4578
742.148	22.1155
745.04	6.82202
747.933	1.03992
750.826	6.7533
753.718	8.31122
756.611	7.15204
759.504	9.35846
762.396	3.94263
765.289	0.442993
768.182	6.42181
771.075	10.2717
773.967	16.9448
776.86	20.5962
779.753	22.8072
782.645	20.6169
785.538	24.6281
788.431	24.1114
791.323	26.9905
794.216	28.2039
797.109	22.4188
800.002	21.4516
802.894	21.202
805.787	21.1264
808.68	19.0684
811.572	15.739
814.465	10.6262
817.358	9.66937
820.25	0.67511
823.143	0.599731
826.036	2.65063
828.929	5.8363
831.821	3.49225
834.714	3.64386
837.607	0.594604
840.5	5.44238
843.392	11.7546
846.285	22.5231
849.178	36.0956
852.07	47.5039
854.963	60.6354
857.856	64.7817
860.748	66.1794
863.641	70.5716
866.534	72.6741
869.427	84.9633
872.319	104.07
875.212	123.16
878.105	150.147
880.997	184.983
883.89	215.835
886.783	244.061
889.675	260.295
892.568	264.303
895.461	260.754
898.354	248.633
901.246	222.636
904.139	182.443
907.032	144.889
909.924	119.999
912.817	106.424
915.71	104.7
918.602	106.104
921.495	111.115
924.388	108.502
927.28	98.5362
930.173	84.4745
933.066	66.7694
935.959	53.2926
938.851	42.3553
941.744	36.2148
944.637	37.1576
947.529	42.4851
950.422	49.9564
953.315	59.2102
956.207	54.7434
959.1	50.3588
961.993	43.3839
964.886	38.892
967.778	34.8044
970.671	32.7379
973.564	32.8795
976.456	36.5922
979.349	45.3368
982.242	47.2657
985.135	47.0294
988.027	45.6269
990.92	36.5168
993.813	30.5771
996.705	18.951
999.598	8.32703
1002.49	0.680603
1005.38	7.52716
1008.28	9.76428
1011.17	5.49951
1014.06	1.54956
1016.95	1.91907
1019.85	5.95904
1022.74	12.2913
1025.63	19.1186
1028.53	27.3498
1031.42	32.0676
1034.31	34.8216
1037.2	36.4145
1040.1	35.6297
1042.99	35.1018
1045.88	25.1395
1048.77	17.503
1051.67	10.6738
1054.56	5.11401
1057.45	2.38733
1060.35	0.951355
1063.24	0.626892
1066.13	1.42218
1069.02	1.70117
1071.92	2.08032
1074.81	2.37323
1077.7	5.80981
1080.59	8.22754
1083.49	14.7075
1086.38	16.8325
1089.27	18.9947
1092.16	22.0416
1095.06	30.5239
1097.95	36.0605
1100.84	48.4717
1103.73	59.9702
1106.63	72.9483
1109.52	83.308
1112.41	84.6968
1115.31	73.7526
1118.2	51.2341
1121.09	30.4451
1123.98	16.3433
1126.88	11.0137
1129.77	6.73395
1132.66	2.20831
1135.56	3.54346
1138.45	1.3139
1141.34	2.45465
1144.23	1.25244
1147.13	1.11597
1150.02	3.97876
1152.91	2.17658
1155.8	1.65149
1158.7	0.78656
1161.59	3.80859
1164.48	2.6543
1167.38	1.43189
1170.27	2.97253
1173.16	2.16187
1176.05	4.4585
1178.94	3.46875
1181.84	2.94891
1184.73	1.53375
1187.62	2.3985
1190.52	0.473999
1193.41	2.64862
1196.3	3.14166
1199.19	3.1402
1202.09	0.280273
1204.98	4.50043
1207.87	3.14441
1210.77	1.60028
1213.66	2.0639
1216.55	2.20679
1219.44	0.211731
1222.34	0.926819
1225.23	0.426819
1228.12	1.79443
1231.01	1.42664
1233.91	3.04327
1236.8	1.02618
1239.69	2.67554
1242.59	3.46332
1245.48	1.82831
1248.37	4.54944
1251.26	1.87628
1254.16	1.8219
1257.05	0.690552
1259.94	5.28082
1262.83	5.43433
1265.73	3.57867
1268.62	4.03119
1271.51	3.51038
1274.4	4.06348
1277.3	2.86432
1280.19	3.10742
1283.08	2.49652
1285.97	2.34845
1288.87	3.11243
1291.76	1.30322
1294.65	4.36688
1297.55	1.55029
1300.44	0.637573
