Measurement: Raman, 780 nm, unoriented, Raman Data Processed
Mineral: Joaquinite-(Ce)
Rruff sample: R120101
Ideal chemistry: NaBa_2_Fe^2+^Ti_2_Ce_2_(SiO_3_)_8_O_2_(OH)H_2_O
Locality: Gem mine, San Benito County, California, USA
Source: Bob Jenkins
Description: Brown pseudo-orthorhombic crystals, associated with black neptunite
Measured chemistry: Na_0.81_Ba_2.00_(Fe_0.65_Ti_0.13_Zn_0.07_)_Σ=0.85_Ti_2.00_(Ce_0.72_Nd_0.24_La_0.23_Pr_0.07_Sm_0.02_Sr_0.59_Ca_0.06_Th_0.04_Ba_0.03_)_Σ=2.00_(SiO_3_)_7.99_O_2.00_(O_0.50_OH_0.50_)_Σ=1.00_·1.52H_2_O
Raman shift (cm-1)	intensity
95.0565	0
97.9492	3.03091
100.842	2.66147
103.735	7.62967
106.627	12.4968
109.52	4.27594
112.413	0.433289
115.305	1.40601
118.198	1.99145
121.091	8.28613
123.984	18.2992
126.876	27.5143
129.769	34.6285
132.662	36.0745
135.554	37.1949
138.447	38.6017
141.34	31.8984
144.232	26.35
147.125	18.1872
150.018	13.4869
152.911	12.6688
155.803	13.015
158.696	17.3744
161.589	18.1379
164.481	24.2357
167.374	28.2164
170.267	35.3115
173.159	41.8037
176.052	44.541
178.945	55.3806
181.838	64.717
184.73	75.8927
187.623	81.7075
190.516	78.0214
193.408	68.6301
196.301	49.9188
199.194	30.7058
202.086	17.6492
204.979	9.00601
207.872	0.081635
210.764	1.43283
213.657	2.01108
216.55	1.02731
219.442	5.55698
222.335	14.45
225.228	23.3378
228.121	29.708
231.013	36.6312
233.906	37.9074
236.799	40.6586
239.691	40.5067
242.584	37.4241
245.477	35.2344
248.369	33.4918
251.262	26.7468
254.155	22.172
257.048	20.5448
259.94	20.1322
262.833	19.4335
265.726	17.2816
268.618	12.8104
271.511	6.30136
274.404	0.107635
277.296	0.97052
280.189	5.4679
283.082	6.63422
285.975	2.00958
288.867	6.01886
291.76	12.0225
294.653	18.7095
297.545	23.9207
300.438	28.2844
303.331	39.5601
306.224	48.1328
309.116	60.2231
312.009	68.8814
314.902	80.9416
317.794	88.6347
320.687	104.585
323.58	113.126
326.472	129.706
329.365	147.171
332.258	152.922
335.151	161.91
338.043	170.313
340.936	171.66
343.829	174.782
346.721	179.509
349.614	180.786
352.507	189.513
355.399	183.642
358.292	178.133
361.185	169.775
364.077	155.997
366.97	153.448
369.863	152.551
372.755	147.467
375.648	136.719
378.541	104.376
381.434	68.4351
384.326	44.4769
387.219	26.382
390.112	15.0129
393.004	10.729
395.897	6.62268
398.79	4.48675
401.683	6.6687
404.575	10.9838
407.468	13.6664
410.361	15.043
413.253	14.9227
416.146	14.0832
419.039	13.4612
421.931	11.9374
424.824	4.24628
427.717	3.72076
430.61	2.23425
433.502	3.20373
436.395	4.94836
439.288	4.82562
442.18	0.156189
445.073	0.536255
447.966	1.30475
450.858	1.10242
453.751	2.63812
456.644	2.84668
459.536	5.8753
462.429	8.40585
465.322	12.1108
468.215	12.6684
471.107	15.222
474	20.7527
476.893	20.0543
479.785	21.2919
482.678	24.0292
485.571	22.5781
488.463	17.4505
491.356	13.9389
494.249	10.673
497.142	4.48743
500.034	1.69687
502.927	1.29001
505.82	3.0336
508.712	2.79648
511.605	2.1037
514.498	0.11084
517.39	0.078766
520.283	3.07809
523.176	2.06335
526.068	1.80371
528.961	1.1167
531.854	1.75241
534.747	0.860657
537.639	0.922089
540.532	2.80658
543.425	4.04941
546.317	6.02298
549.21	7.96237
552.103	12.5735
554.995	15.0132
557.888	15.7627
560.781	21.6361
563.674	20.6773
566.566	18.1057
569.459	18.7632
572.352	22.3873
575.244	24.8206
578.137	28.8123
581.03	32.3524
583.923	36.9302
586.815	40.0657
589.708	44.6027
592.601	43.3687
595.493	42.8951
598.386	40.3123
601.279	40.1423
604.171	36.2796
607.064	33.8308
609.957	32.6668
612.85	28.2735
615.742	30.7985
618.635	33.1797
621.528	33.7593
624.42	35.4464
627.313	35.932
630.206	32.5421
633.098	30.9624
635.991	27.8514
638.884	23.2643
641.776	20.0961
644.669	22.1093
647.562	23.2445
650.455	30.2652
653.347	37.4569
656.24	45.6554
659.133	55.6057
662.025	59.0699
664.918	58.0579
667.811	56.9083
670.703	51.9103
673.596	45.1609
676.489	39.7807
679.381	37.4403
682.274	32.8002
685.167	25.9613
688.06	17.5126
690.952	8.86572
693.845	2.18857
696.738	1.82169
699.63	3.33551
702.523	1.44206
705.416	1.8317
708.308	9.81963
711.201	16.3085
714.094	28.4375
716.987	36.7653
719.879	44.5535
722.772	53.9559
725.665	57.7813
728.557	55.7643
731.45	47.9087
734.343	30.8285
737.236	17.4606
740.128	8.11447
743.021	3.35912
745.914	0.776398
748.806	1.40842
751.699	0.31076
754.592	1.62032
757.484	1.3326
760.377	0.267776
763.27	0.117828
766.163	3.39052
769.055	3.96024
771.948	5.07681
774.841	5.87617
777.733	7.88265
780.626	8.59827
783.519	9.1375
786.411	9.62225
789.304	9.2553
792.197	10.2823
795.089	9.91684
797.982	9.80096
800.875	8.94014
803.768	8.94887
806.66	8.53821
809.553	7.46384
812.446	5.71943
815.338	5.57007
818.231	4.37558
821.124	1.77306
824.016	0.121048
826.909	0.107193
829.802	0.461761
832.694	0.491699
835.587	0.479996
838.48	1.07109
841.373	0.066299
844.265	0.896805
847.158	3.60713
850.051	5.8513
852.943	7.15115
855.836	8.75667
858.729	10.3916
861.621	10.2305
864.514	12.1726
867.407	14.3883
870.3	18.3698
873.192	23.944
876.085	29.8731
878.978	37.1432
881.87	47.1974
884.763	59.6865
887.656	62.1137
890.548	65.8738
893.441	64.0427
896.334	61.6219
899.227	56.0891
902.119	48.1433
905.012	39.4676
907.905	31.4601
910.797	28.0644
913.69	27.5034
916.583	27.5451
919.476	32.7625
922.368	25.753
925.261	23.4426
928.154	19.0506
931.046	15.4556
933.939	10.6628
936.832	6.89731
939.724	4.31334
942.617	4.51659
945.51	4.57767
948.403	4.84325
951.295	6.92819
954.188	7.52358
957.081	6.76643
959.973	5.33083
962.866	2.67033
965.759	1.09482
968.651	1.91232
971.544	1.96234
974.437	1.59451
977.329	5.04542
980.222	5.28941
983.115	5.68039
986.008	6.00446
988.9	4.5735
991.793	2.51204
994.686	1.323
997.578	0.604355
1000.47	0.422211
1003.36	1.26613
1006.26	1.57292
1009.15	0.0047
1012.04	0.896301
1014.93	3.13402
1017.83	4.65157
1020.72	7.30594
1023.61	10.0322
1026.51	11.5868
1029.4	15.1836
1032.29	15.7203
1035.18	15.9055
1038.08	14.6173
1040.97	12.9604
1043.86	13.6626
1046.75	10.4765
1049.65	7.57024
1052.54	5.48637
1055.43	4.02516
1058.33	2.94087
1061.22	2.40085
1064.11	1.62953
1067	0.118683
1069.9	1.20853
1072.79	0.848251
1075.68	0.089676
1078.57	1.23184
1081.47	0.795456
1084.36	0.821136
1087.25	0.897125
1090.14	0.580505
1093.04	2.22009
1095.93	0.693649
1098.82	2.30926
1101.71	3.09744
1104.61	7.35628
1107.5	14.8407
1110.39	15.2928
1113.29	13.1199
1116.18	10.7273
1119.07	5.72028
1121.96	4.68234
1124.86	0.670532
1127.75	1.59268
1130.64	1.54825
1133.54	0.130737
