Measurement: Raman, 532 nm, unoriented, Raman Data Processed
Mineral: Joesmithite
Rruff sample: R120157
Ideal chemistry: PbCa_2_Mg_3_Fe^3+^_2_(Si_6_Be_2_)O_22_(OH)_2_
Locality: Ramsorten drift, Langban, Sweden
Source: Rock Currier
Description: Reddish brown to black short prismatic crystals and fragments associated with hematite, from type sample
Raman shift (cm-1)	intensity
99.9077	0
103.282	1.30801
106.657	13.0021
110.032	30.9061
113.407	59.5304
116.782	78.9467
120.157	68.2063
123.531	59.2756
126.906	63.1816
130.281	89.0383
133.656	120.449
137.031	122.245
140.405	85.038
143.78	58.3688
147.155	47.3758
150.53	44.234
153.905	52.834
157.28	77.7581
160.654	83.3121
164.029	55.3717
167.404	35.2217
170.779	27.5809
174.154	27.2939
177.528	33.6238
180.903	42.5543
184.278	44.3931
187.653	33.7868
191.028	17.8265
194.403	10.3255
197.777	7.59549
201.152	5.8317
204.527	0.070129
207.902	3.60297
211.277	4.78662
214.651	0.084198
218.026	5.45017
221.401	12.3188
224.776	20.8713
228.151	34.0062
231.525	46.9318
234.9	52.1094
238.275	62.6349
241.65	79.2917
245.025	99.1417
248.4	106.725
251.774	88.6903
255.149	62.6641
258.524	46.5609
261.899	40.38
265.274	40.2392
268.649	37.4944
272.023	30.7537
275.398	16.2122
278.773	6.05289
282.148	0.965424
285.523	2.68167
288.897	0.208221
292.272	2.32706
295.647	8.83322
299.022	20.8661
302.397	33.5016
305.772	41.1568
309.146	38.3641
312.521	33.0579
315.896	29.0257
319.271	28.6206
322.646	30.8581
326.02	34.128
329.395	29.7647
332.77	25.0999
336.145	19.1464
339.52	10.8112
342.894	4.94791
346.269	0.306671
349.644	1.01172
353.019	0.434204
356.394	0.114105
359.769	3.33289
363.143	2.39987
366.518	4.39172
369.893	4.43375
373.268	9.62671
376.643	8.19424
380.017	11.7667
383.392	11.7695
386.767	9.12332
390.142	11.2985
393.517	12.1801
396.892	19.0739
400.266	24.0326
403.641	28.5594
407.016	28.7433
410.391	24.9108
413.766	21.9793
417.14	24.6091
420.515	30.6371
423.89	33.8212
427.265	38.7353
430.64	41.4297
434.014	40.4245
437.389	33.1018
440.764	24.6421
444.139	15.1092
447.514	8.44104
450.889	3.34967
454.263	2.46884
457.638	0.421417
461.013	1.79831
464.388	0.125427
467.763	0.363434
471.137	1.12186
474.512	0.127441
477.887	2.92908
481.262	7.50598
484.637	15.5537
488.012	25.7436
491.386	35.554
494.761	48.8582
498.136	62.3443
501.511	77.3601
504.886	91.7987
508.26	103.543
511.635	111.77
515.01	109.345
518.385	102.464
521.76	99.7737
525.135	92.4104
528.509	88.6069
531.884	86.3596
535.259	83.7147
538.634	81.2776
542.009	78.2218
545.384	75.7712
548.758	74.3363
552.133	70.3005
555.508	67.3971
558.883	65.4621
562.258	64.8265
565.632	61.6063
569.007	58.4793
572.382	58.5103
575.757	53.5377
579.132	47.0209
582.506	35.6197
585.881	22.4998
589.256	9.85835
592.631	2.68506
596.006	2.26604
599.381	2.92265
602.755	1.69617
606.13	3.79095
609.505	10.319
612.88	20.0358
616.255	27.0706
619.63	33.8908
623.004	36.3408
626.379	36.3267
629.754	34.097
633.129	28.7883
636.504	25.111
639.878	23.74
643.253	20.2787
646.628	21.8567
650.003	24.462
653.378	29.5224
656.752	34.8592
660.127	41.6455
663.502	49.8208
666.877	49.861
670.252	39.5844
673.626	24.8293
677.001	11.9797
680.376	4.23988
683.751	1.84038
687.126	1.23323
690.501	1.80171
693.875	0.187012
697.25	1.19528
700.625	2.87186
704	5.15767
707.375	8.73523
710.75	12.0124
714.124	15.1159
717.499	17.7597
720.874	19.3348
724.249	22.0827
727.624	21.99
730.998	23.1301
734.373	22.9922
737.748	21.7289
741.123	20.573
744.498	20.4338
747.872	19.5534
751.247	19.9123
754.622	17.0851
757.997	17.3004
761.372	15.6639
764.747	14.0766
768.121	12.585
771.496	13.4222
774.871	11.7494
778.246	9.70338
781.621	9.39343
784.995	9.02737
788.37	8.49673
791.745	5.82378
795.12	4.91919
798.495	4.33118
801.87	3.92601
805.244	1.52373
808.619	2.69232
811.994	1.31157
815.369	0.634811
818.744	0.387802
822.119	0.560074
825.493	1.41238
828.868	1.7921
832.243	1.24449
835.618	0.113022
838.993	0.669785
842.367	1.61424
845.742	2.20682
849.117	3.85829
852.492	6.95422
855.867	9.30312
859.241	13.3954
862.616	16.191
865.991	17.9256
869.366	21.2113
872.741	22.3842
876.115	23.8307
879.49	25.2301
882.865	26.5322
886.24	27.9026
889.615	29.7601
892.99	30.8288
896.364	34.958
899.739	37.3526
903.114	42.7347
906.489	48.6994
909.864	58.0115
913.239	61.3306
916.613	67.1149
919.988	68.4494
923.363	68.1852
926.738	66.7196
930.113	61.3138
933.487	53.3959
936.862	43.9805
940.237	30.6614
943.612	22.44
946.987	13.1041
950.361	7.49553
953.736	3.10278
957.111	1.27458
960.486	1.74625
963.861	1.05917
967.236	0.9552
970.61	1.82416
973.985	5.5024
977.36	9.73315
980.735	12.4847
984.11	15.4316
987.485	17.2039
990.859	18.2716
994.234	21.558
997.609	21.6775
1000.98	21.3476
1004.36	20.8361
1007.73	19.869
1011.11	20.1479
1014.48	27.1545
1017.86	36.8896
1021.23	52.3299
1024.61	70.3244
1027.98	91.2126
1031.36	101.611
1034.73	103.611
1038.11	97.7804
1041.48	78.7347
1044.86	51.639
1048.23	29.2153
1051.61	15.1887
1054.98	5.81291
1058.36	2.76097
1061.73	0.15947
1065.11	0.543015
1068.48	1.4814
1071.86	2.0347
1075.23	4.67363
1078.6	9.97951
1081.98	13.6799
1085.35	19.2983
1088.73	24.4754
1092.1	30.1278
1095.48	24.0001
1098.85	18.0689
1102.23	11.985
1105.6	8.76192
1108.98	5.95377
1112.35	3.81319
1115.73	1.2254
1119.1	1.23239
1122.48	0.176743
1125.85	0.421066
1129.23	0.518478
1132.6	1.29312
1135.98	0.407181
1139.35	0.343468
1142.73	0.362915
1146.1	0.279411
1149.48	1.71452
1152.85	1.74157
1156.22	3.46046
1159.6	3.50382
1162.97	3.32568
1166.35	2.73206
1169.72	3.50288
1173.1	4.69023
1176.47	5.87992
1179.85	5.54094
1183.22	5.21143
1186.6	5.6422
1189.97	4.65111
1193.35	4.84677
1196.72	3.41605
1200.1	4.27894
1203.47	5.61412
1206.85	3.65955
1210.22	3.92436
1213.6	3.88252
1216.97	2.23506
1220.35	4.34122
1223.72	3.95429
1227.1	2.64794
1230.47	2.40746
1233.85	2.98594
1237.22	2.32372
1240.6	3.63716
1243.97	2.23489
1247.35	2.34541
1250.72	2.21811
1254.1	1.38065
1257.47	1.03798
1260.85	2.10391
1264.22	0.674667
1267.59	0.920982
1270.97	1.09603
1274.34	2.03645
1277.72	0.359215
1281.09	1.32151
1284.47	0.239861
1287.84	0.256088
1291.22	0.50573
1294.59	0.051941
1297.97	0.381279
1301.34	0.296371
