Measurement: Raman, 780 nm, unoriented, Raman Data Processed
Mineral: Joesmithite
Rruff sample: R120157
Ideal chemistry: PbCa_2_Mg_3_Fe^3+^_2_(Si_6_Be_2_)O_22_(OH)_2_
Locality: Ramsorten drift, Langban, Sweden
Source: Rock Currier
Description: Reddish brown to black short prismatic crystals and fragments associated with hematite, from type sample
Raman shift (cm-1)	intensity
93.9705	0
97.3453	2.05078
100.72	2.5054
104.095	2.70499
107.47	0.001617
110.845	1.2724
114.219	10.7238
117.594	7.31613
120.969	2.61948
124.344	2.26416
127.719	10.7579
131.094	23.8917
134.468	29.8895
137.843	23.1684
141.218	14.1355
144.593	10.9344
147.968	12.0555
151.342	17.8849
154.717	32.0534
158.092	43.7033
161.467	31.1431
164.842	18.874
168.216	15.1257
171.591	12.5438
174.966	13.7613
178.341	14.5609
181.716	14.0997
185.09	13.1532
188.465	9.65228
191.84	7.56143
195.215	7.24797
198.59	5.97816
201.965	4.34079
205.339	2.26302
208.714	0.782349
212.089	0.718124
215.464	0.366089
218.839	0.320709
222.214	3.63367
225.588	4.45186
228.963	6.10902
232.338	6.54619
235.713	8.49817
239.088	13.5747
242.462	19.3871
245.837	22.718
249.212	22.3554
252.587	17.4636
255.962	10.3747
259.336	8.37378
262.711	7.71777
266.086	7.01651
269.461	6.08688
272.836	2.16931
276.211	0.016113
279.585	0.128342
282.96	0.036621
286.335	0.055847
289.71	0.338928
293.085	2.20842
296.459	3.93726
299.834	6.58521
303.209	8.92972
306.584	10.5982
309.959	8.86096
313.334	9.3915
316.708	8.05631
320.083	9.35687
323.458	7.75731
326.833	8.57063
330.207	9.01971
333.582	8.97673
336.957	8.12596
340.332	5.75465
343.707	3.0554
347.082	1.97121
350.456	1.01947
353.831	0.158585
357.206	0.754532
360.581	1.08716
363.956	0.276138
367.33	0.106476
370.705	0.59108
374.08	1.7751
377.455	1.96401
380.83	3.92735
384.205	3.02658
387.579	3.29868
390.954	5.16486
394.329	2.82181
397.704	4.49513
401.079	4.10992
404.453	4.51018
407.828	3.36922
411.203	2.88077
414.578	1.53247
417.953	2.73923
421.327	4.43933
424.702	5.50716
428.077	5.72565
431.452	7.02562
434.827	6.22189
438.202	4.80759
441.576	3.13236
444.951	2.70419
448.326	1.28119
451.701	0.618668
455.076	0.710114
458.45	0.606995
461.825	0.763855
465.2	0.42511
468.575	0.828323
471.95	0.07254
475.325	0.363403
478.699	1.00746
482.074	1.89775
485.449	1.88355
488.824	2.01599
492.199	4.9133
495.573	6.04477
498.948	7.05898
502.323	9.05635
505.698	11.0035
509.073	12.7144
512.447	14.3649
515.822	13.2748
519.197	12.0663
522.572	11.5834
525.947	11.5967
529.322	12.3664
532.696	10.0185
536.071	10.4076
539.446	11.4905
542.821	11.6175
546.196	10.3084
549.57	10.2166
552.945	9.89235
556.32	11.7111
559.695	10.3757
563.07	9.32165
566.444	8.84362
569.819	8.08945
573.194	8.16397
576.569	5.7271
579.944	4.78365
583.319	3.16654
586.693	1.12425
590.068	0.090515
593.443	0.016815
596.818	0.259277
600.193	0.863342
603.567	0.306831
606.942	1.58301
610.317	2.77748
613.692	3.5421
617.067	5.21847
620.442	5.43461
623.816	5.71456
627.191	5.00279
630.566	5.9409
633.941	4.41766
637.316	4.69172
640.69	3.83756
644.065	4.45043
647.44	4.40945
650.815	4.74676
654.19	4.76374
657.564	6.25
660.939	6.63252
664.314	7.97669
667.689	6.88586
671.064	4.556
674.439	2.91224
677.813	1.07455
681.188	1.04985
684.563	0.773491
687.938	0.434189
691.313	0.156487
694.688	0.289658
698.062	0.663368
701.437	0.551643
704.812	1.24907
708.187	1.3605
711.562	1.88145
714.936	3.75142
718.311	2.79913
721.686	4.17345
725.061	3.59027
728.436	4.18565
731.81	3.70159
735.185	3.35051
738.56	3.63734
741.935	4.50337
745.31	3.38845
748.684	3.17233
752.059	2.78787
755.434	3.38888
758.809	2.76586
762.184	2.6337
765.559	1.50092
768.933	1.68445
772.308	1.70983
775.683	2.57669
779.058	1.28458
782.433	1.05809
785.808	0.590752
789.182	0.468239
792.557	1.01479
795.932	1.25623
799.307	0.351288
802.682	0.99556
806.056	1.21845
809.431	0.674835
812.806	0.268616
816.181	0.01722
819.556	0.295311
822.93	0.109653
826.305	0.566067
829.68	0.1334
833.055	0.101486
836.43	0.593613
839.804	0.281071
843.179	1.81462
846.554	1.67057
849.929	0.941601
853.304	1.19103
856.679	1.82567
860.053	1.96598
863.428	2.16531
866.803	2.42761
870.178	2.05685
873.553	2.97284
876.927	3.36766
880.302	3.84146
883.677	3.91432
887.052	4.30061
890.427	3.50877
893.802	4.29086
897.176	5.51518
900.551	4.81267
903.926	6.48237
907.301	7.00438
910.676	8.09326
914.05	8.83597
917.425	9.47511
920.8	10.004
924.175	10.3543
927.55	10.5568
930.924	9.99656
934.299	9.31356
937.674	7.38103
941.049	4.94768
944.424	3.50882
947.799	2.50581
951.173	2.30008
954.548	0.760265
957.923	0.166088
961.298	1.09926
964.673	0.763676
968.047	0.505981
971.422	0.056679
974.797	0.189415
978.172	0.566517
981.547	1.44104
984.922	0.88847
988.296	1.39942
991.671	1.66271
995.046	1.77909
998.421	2.57314
1001.8	2.13935
1005.17	1.97
1008.54	2.35475
1011.92	3.19687
1015.29	3.0191
1018.67	4.42101
1022.04	5.89304
1025.42	6.98823
1028.79	8.92381
1032.17	8.49325
1035.54	8.05238
1038.92	5.60827
1042.29	4.34849
1045.67	2.47694
1049.04	1.67258
1052.42	0.835526
1055.79	0.520752
1059.17	0.621571
1062.54	0.030273
1065.92	0.835377
1069.29	0.305008
1072.67	0.970943
1076.04	0.521999
1079.42	1.09283
1082.79	1.74989
1086.17	2.1421
1089.54	2.08897
1092.92	2.21584
1096.29	1.7709
1099.66	0.885773
1103.04	1.69153
1106.41	0.814186
1109.79	0.282043
1113.16	0.053883
1116.54	0.432789
1119.91	0.067432
1123.29	0.529819
1126.66	0.05991
1130.04	0.08588
1133.41	0.31353
1136.79	0.857639
1140.16	1.00611
1143.54	0.484978
1146.91	0.110607
1150.29	0.72773
1153.66	0.732376
1157.04	0.305004
1160.41	1.39722
1163.79	0.650524
1167.16	2.5393
1170.54	0.942223
1173.91	2.20958
1177.29	0.952511
1180.66	1.54133
1184.04	0.650379
1187.41	1.07606
1190.79	0.509327
1194.16	0.717304
1197.54	1.45494
1200.91	0.714886
1204.28	0.429287
1207.66	1.83955
1211.03	0.917088
1214.41	0.858929
1217.78	1.12225
1221.16	0.315071
1224.53	1.01976
1227.91	1.14291
1231.28	0.784599
1234.66	0.882042
1238.03	0.293186
1241.41	0.084766
1244.78	0.21582
1248.16	0.807411
1251.53	1.03837
1254.91	0.215546
1258.28	0.808372
1261.66	0.368484
1265.03	0.790516
1268.41	0.013332
1271.78	1.05555
1275.16	0.94305
1278.53	0.76189
1281.9	0.171047
