Measurement: Raman, 532 nm, unoriented, Raman Data Processed
Mineral: Johannite
Rruff sample: R070061
Ideal chemistry: Cu(UO_2_)_2_(SO_4_)_2_(OH)_2_8H_2_O
Locality: Joachimstal, Bohemia
Source: William W. Pinch
Description: Emerald green transparent fragment
Raman shift (cm-1)	intensity
141.504	0
144.878	513.277
148.253	64.2793
151.628	454.912
155.003	518.6
158.378	159.986
161.752	195.377
165.127	737.764
168.502	1024.95
171.877	964.42
175.252	642.1
178.627	531.18
182.001	729.644
185.376	1528.25
188.751	2867.88
192.126	4627.77
195.501	6924
198.875	8874.88
202.25	9574.98
205.625	7548.93
209	4941.42
212.375	2874.23
215.75	1258.38
219.124	582.172
222.499	546.777
225.874	934.695
229.249	1412.04
232.624	1980.08
235.999	2580.53
239.373	3647.66
242.748	4738.12
246.123	4920.62
249.498	3901.67
252.873	2584.57
256.247	1836.8
259.622	1446.44
262.997	1029.58
266.372	713.576
269.747	593.822
273.122	499.986
276.496	348.752
279.871	318.141
283.246	298.461
286.621	130.621
289.996	87.9297
293.37	58.4453
296.745	56.0508
300.12	80.0898
303.495	47.2383
306.87	60.3281
310.245	70.5176
313.619	4.79492
316.994	17.4785
320.369	52.0645
323.744	42.6641
327.119	199.793
330.493	259.344
333.868	534.766
337.243	875.316
340.618	1239.11
343.993	1810.96
347.368	2434.98
350.742	2745.81
354.117	2461.73
357.492	1945.75
360.867	1385.78
364.242	1155.15
367.616	836.902
370.991	915.758
374.366	730.07
377.741	946.35
381.116	1077.93
384.49	1266.47
387.865	1554.45
391.24	1831.55
394.615	2146.78
397.99	2334.5
401.365	2438.86
404.739	2548.31
408.114	2672.07
411.489	2783.36
414.864	2751.31
418.239	2750.94
421.613	2471.11
424.988	2339.78
428.363	2327.5
431.738	2555.81
435.113	2720.09
438.488	3091.39
441.862	3397.27
445.237	3398.92
448.612	3125.51
451.987	2811.39
455.362	2156.13
458.736	1308.66
462.111	922.535
465.486	506.988
468.861	183.56
472.236	31.9395
475.611	46.8203
478.985	18.2109
482.36	65.3945
485.735	12.5332
489.11	40.2305
492.485	51.9121
495.86	14.0117
499.234	21.9297
502.609	85.3125
505.984	144.481
509.359	295.111
512.734	443.103
516.108	427.688
519.483	351.453
522.858	270.682
526.233	189.66
529.608	169.732
532.982	19.4648
536.357	171.428
539.732	123.35
543.107	59.3418
546.482	102.853
549.857	28.4551
553.231	188.293
556.606	218.236
559.981	183.924
563.356	118.254
566.731	2.52734
570.106	31.4297
573.48	141.684
576.855	73.8223
580.23	135.793
583.605	70.9668
586.98	131.434
590.354	112.25
593.729	65.2715
597.104	91.8652
600.479	55.25
603.854	62.2637
607.229	102.219
610.603	218.328
613.978	459.932
617.353	828.027
620.728	1249.87
624.103	1639.84
627.477	1888.35
630.852	1733.51
634.227	1918.8
637.602	1719.59
640.977	1460.96
644.351	1091.69
647.726	999.441
651.101	710.801
654.476	683.676
657.851	634.883
661.226	535.064
664.601	560.635
667.975	601.098
671.35	542.818
674.725	614.088
678.1	543.203
681.475	570.684
684.849	526.99
688.224	375.799
691.599	466.516
694.974	432.867
698.349	333.537
701.723	278.963
705.098	190.356
708.473	255.315
711.848	288.992
715.223	252.406
718.597	107.404
721.972	69.6797
725.347	111.914
728.722	57.2227
732.097	29.9473
735.472	17.7168
738.846	11.9727
742.221	7.08008
745.596	5.74805
748.971	92.7754
752.346	1.64062
755.721	19.9609
759.095	65.8398
762.47	172.139
765.845	196.408
769.22	303.555
772.595	94.2227
775.969	229.19
779.344	395.889
782.719	488.131
786.094	645.277
789.469	873.568
792.844	1355.69
796.218	1516.61
799.593	2000.7
802.968	2424.32
806.343	3060.68
809.718	4497.5
813.092	6691.66
816.467	10738.5
819.842	19069.7
823.217	39831.2
826.592	76116.8
829.967	126093
833.341	181314
836.716	138265
840.091	49000.1
843.466	20374.7
846.841	10444.5
850.216	6605.27
853.59	4283
856.965	2910.33
860.34	2233.98
863.715	1634.62
867.09	1093.18
870.464	770.047
873.839	534.398
877.214	448.938
880.589	327.984
883.964	133.109
887.338	189.758
890.713	77.1016
894.088	181.121
897.463	65.0879
900.838	7.05469
904.212	41.6133
907.587	14.6602
910.962	39.1484
914.337	21.3867
917.712	152.039
921.087	101.981
924.462	194.293
927.836	156.043
931.211	126.5
934.586	206.707
937.961	177.363
941.336	59.8164
944.71	269.727
948.085	287.102
951.46	212.816
954.835	264.941
958.21	297.559
961.585	239.922
964.959	217.035
968.334	117.34
971.709	48.457
975.084	22.0352
978.459	178.758
981.833	98.1016
985.208	256.273
988.583	515.356
991.958	145.59
995.333	53.9922
998.707	60.4727
1002.08	60.875
1005.46	25.543
1008.83	4.32812
1012.21	49.6719
1015.58	103.414
1018.96	108.027
1022.33	339.316
1025.71	448.16
1029.08	1004.52
1032.46	2518.29
1035.83	5746.82
1039.2	10608.3
1042.58	15815
1045.95	10045
1049.33	3272.31
1052.7	1103.39
1056.08	543.328
1059.45	203.519
1062.83	444.644
1066.2	441.359
1069.58	1050.08
1072.95	1828.94
1076.33	3194.64
1079.7	5821.82
1083.08	9714.98
1086.45	15537.8
1089.83	19106.8
1093.2	17961.2
1096.58	15321.4
1099.95	14259.6
1103.33	10461.2
1106.7	5287.27
1110.08	2459.79
1113.45	1303.87
1116.83	641.707
1120.2	464.555
1123.58	433.191
1126.95	485.41
1130.33	562.809
1133.7	791.539
1137.08	1128.64
1140.45	1560.93
1143.83	1980.62
1147.2	1964.82
1150.57	1437.41
1153.95	926.262
1157.32	741.094
1160.7	470.719
1164.07	183.734
1167.45	130.102
1170.82	47.1133
1174.2	91.3203
1177.57	15.0938
1180.95	6.28906
1184.32	16.0352
1187.7	16.625
1191.07	50.6719
1194.45	95.6602
1197.82	99.5039
1201.2	171.211
1204.57	49.3945
1207.95	85.5195
1211.32	97.0391
1214.7	70.6055
1218.07	244.414
1221.45	45.9336
1224.82	213.859
1228.19	266.609
1231.57	223.68
1234.94	222.477
1238.32	260.918
1241.69	380.648
1245.07	295.762
1248.44	358.238
1251.82	242.762
1255.19	238.984
1258.57	256.465
1261.94	180.66
1265.32	243.797
1268.69	222.352
1272.07	133.922
1275.44	72.1641
1278.82	87.9844
1282.19	231.856
1285.57	114.731
1288.94	13.2461
1292.32	153.246
1295.69	52.6484
1299.07	142.688
1302.44	227.629
1305.82	35.0781
1309.19	99.8945
1312.57	166.422
1315.94	0
