Measurement: Raman, 532 nm, unoriented, Raman Data Processed
Mineral: Johachidolite
Rruff sample: R070640
Ideal chemistry: CaAlB_3_O_7_
Locality: Pyant Gyi mine, Mogok Stone Tract, Mandalay Division, Burma
Source: Marcus Origlieri
Description: Pale yellowish orange granular
Measured chemistry: Ca_1.00_Al_1.00_B_3.00_O_7_; B estimated by difference
Raman shift (cm-1)	intensity
129.287	0
132.18	13.6694
135.073	48.7288
137.966	143.128
140.858	132.928
143.751	94.302
146.644	22.4517
149.536	55.9648
152.429	6.39893
155.322	78.1394
158.214	68.739
161.107	32.8635
164	29.077
166.893	21.0258
169.785	24.2753
172.678	42.5953
175.571	43.3377
178.463	34.5631
181.356	33.4138
184.249	29.3754
187.142	5.17688
190.034	3.66534
192.927	29.3378
195.82	25.1866
198.712	7.94897
201.605	41.6276
204.498	40.8337
207.39	38.9446
210.283	42.2931
213.176	14.8614
216.069	6.21063
218.961	8.96484
221.854	1.88818
224.747	21.9515
227.639	20.4377
230.532	10.9039
233.425	1.6427
236.317	19.1665
239.21	15.3136
242.103	16.1075
244.995	16.734
247.888	28.3469
250.781	13.9009
253.674	22.127
256.566	4.95837
259.459	18.3807
262.352	47.635
265.244	115.044
268.137	358.727
271.03	632.845
273.923	840.554
276.815	1223.82
279.708	1923.6
282.601	3610.05
285.493	4066.8
288.386	1481.24
291.279	489.459
294.171	198.893
297.064	96.8262
299.957	32.0455
302.849	26.3923
305.742	80.698
308.635	196.309
311.528	290.392
314.42	463.714
317.313	710.477
320.206	1546.98
323.098	1490.61
325.991	1371.84
328.884	965.866
331.776	1051.33
334.669	1341.11
337.562	1798.01
340.455	2745.55
343.347	4680.12
346.24	6762.02
349.133	4067.38
352.025	1857.65
354.918	1291.18
357.811	1269.06
360.704	1624.09
363.596	2101.22
366.489	2607.49
369.382	3345.81
372.274	5081.79
375.167	5098.91
378.06	2248.87
380.952	848.572
383.845	373.619
386.738	169.677
389.63	84.2523
392.523	5.24292
395.416	12.6475
398.308	1.44263
401.201	37.4395
404.094	38.1913
406.987	14.725
409.879	22.728
412.772	22.3367
415.665	17.8699
418.557	49.0384
421.45	209.697
424.343	418.026
427.236	603.476
430.128	963.42
433.021	1854.72
435.914	3441.16
438.806	1727.16
441.699	803.042
444.592	817.437
447.484	1036.73
450.377	1510.79
453.27	2232.42
456.163	2050.82
459.055	1255.02
461.948	1064.49
464.841	1493.97
467.733	1966.95
470.626	2904.53
473.519	4745.5
476.411	8073.92
479.304	7054.9
482.197	2547.45
485.089	891.254
487.982	410.585
490.875	225.553
493.768	184.66
496.66	176.547
499.553	201.5
502.446	240.991
505.338	286.307
508.231	397.093
511.124	515.225
514.016	711.803
516.909	1054.53
519.802	1486.66
522.695	1976.52
525.587	2358.33
528.48	1992.4
531.373	1174.52
534.265	546.105
537.158	264.204
540.051	109.069
542.943	37.9746
545.836	8.36877
548.729	52.209
551.622	38.7378
554.514	44.9654
557.407	8.56934
560.3	23.4524
563.192	21.8014
566.085	139.565
568.978	322.37
571.87	670.94
574.763	1380.72
577.656	2304.52
580.549	3690.31
583.441	6126.25
586.334	9286.63
589.227	8647.21
592.119	4104.1
595.012	1879.16
597.905	1049.81
600.798	674.134
603.69	499.996
606.583	390.17
609.476	276.998
612.368	185.952
615.261	107.235
618.154	102.898
621.046	96.8395
623.939	119.057
626.832	74.8748
629.725	195.613
632.617	223.806
635.51	273.341
638.403	406.777
641.295	517.841
644.188	685.282
647.081	988.229
649.973	1508.22
652.866	2462.14
655.759	3964.22
658.651	5857.34
661.544	8766.25
664.437	12495.6
667.33	13255.6
670.222	8155.03
673.115	4063.32
676.008	2248.68
678.9	1770.72
681.793	1915.37
684.686	2017.69
687.578	931.401
690.471	398.609
693.364	216.591
696.256	88.1255
699.149	52.4537
702.042	11.0465
704.935	14.9398
707.827	19.2609
710.72	41.0494
713.613	0.157959
716.505	38.9255
719.398	7.78577
722.291	21.8292
725.183	116.912
728.076	148.358
730.969	119.993
733.862	193.065
736.754	311.325
739.647	401.523
742.54	574.292
745.432	635.286
748.325	648.348
751.218	550.88
754.111	414.763
757.003	300.459
759.896	246.212
762.789	178.601
765.681	178.034
768.574	149.17
771.467	116.933
774.359	82.9394
777.252	74.6528
780.145	56.3251
783.038	15.6459
785.93	33.5526
788.823	27.3455
791.716	87.8527
794.608	96.7634
797.501	117.278
800.394	224.068
803.286	341.564
806.179	523.373
809.072	760.551
811.965	1035.16
814.857	1319.17
817.75	1884.08
820.643	2826.1
823.535	4190.04
826.428	6083.48
829.321	7929.39
832.213	8317.19
835.106	5939.94
837.999	3369.97
840.891	2166.14
843.784	1218.81
846.677	816.351
849.57	573.595
852.462	367.244
855.355	293.131
858.248	210.674
861.14	154.678
864.033	94.3215
866.926	70.2559
869.818	49.6226
872.711	12.3087
875.604	6.91882
878.497	15.2247
881.389	10.9359
884.282	5.88159
887.175	17.6414
890.067	33.1421
892.96	14.4993
895.853	5.36169
898.745	25.521
901.638	16.554
904.531	44.1143
907.424	114.177
910.316	77.8575
913.209	55.2219
916.102	28.9418
918.994	100.78
921.887	111.598
924.78	135.434
927.673	198.388
930.565	281.123
933.458	329.649
936.351	388.236
939.243	373.069
942.136	278.848
945.029	171.881
947.921	118.579
950.814	79.5027
953.707	63.7031
956.6	44.6821
959.492	71.3854
962.385	99.665
965.278	176.28
968.17	176.359
971.063	242.515
973.956	203.339
976.848	162.555
979.741	75.2657
982.634	65.7278
985.527	2.53638
988.419	2.48377
991.312	18.304
994.205	7.52893
997.097	53.8567
999.99	22.1163
1002.88	28.0269
1005.77	40.1388
1008.67	57.0159
1011.56	47.1982
1014.45	64.2385
1017.35	66.1639
1020.24	61.4171
1023.13	72.5559
1026.02	59.5995
1028.92	70.0725
1031.81	56.6942
1034.7	84.0483
1037.6	37.422
1040.49	32.6106
1043.38	7.57752
1046.27	13.3042
1049.17	26.1803
1052.06	7.10034
1054.95	37.33
1057.84	25.3241
1060.74	9.49951
1063.63	3.1593
1066.52	27.7207
1069.41	8.53113
1072.31	14.1646
1075.2	27.7363
1078.09	2.84338
1080.98	14.8257
1083.88	33.5831
1086.77	29.8436
1089.66	40.7722
1092.56	37.2587
1095.45	93.9873
1098.34	119.199
1101.23	140.651
1104.13	180.647
1107.02	173.459
1109.91	210.072
1112.81	185.792
1115.7	157.228
1118.59	129.334
1121.48	91.9252
1124.38	60.401
1127.27	66.6656
1130.16	15.6914
1133.05	36.3324
1135.95	50.4596
1138.84	3.46008
1141.73	12.8905
1144.62	5.42603
1147.52	5.34143
1150.41	10.504
1153.3	11.0701
1156.2	13.4049
1159.09	39.7996
1161.98	44.3112
1164.87	24.8246
1167.77	57.0981
1170.66	36.0573
1173.55	96.6326
1176.44	88.3823
1179.34	129.953
1182.23	152.869
1185.12	185.643
1188.02	223.912
1190.91	234.149
1193.8	206.149
1196.69	197.059
1199.59	171.618
1202.48	185.466
1205.37	184.658
1208.26	220.745
1211.16	166.372
1214.05	183.031
1216.94	145.327
1219.84	90.9034
1222.73	69.0266
1225.62	13.7974
1228.51	36.3984
1231.41	6.18494
1234.3	2.60229
1237.19	8.63953
1240.08	21.8682
1242.98	45.337
1245.87	9.78076
1248.76	11.1041
1251.65	41.3862
1254.55	29.7976
1257.44	26.2615
1260.33	45.6643
1263.23	0.974609
1266.12	38.7234
1269.01	6.8595
1271.9	21.7866
1274.8	43.5887
1277.69	17.3705
1280.58	4.59265
