Measurement: Raman, 780 nm, unoriented, Raman Data Processed
Mineral: Johannsenite
Rruff sample: R150013
Ideal chemistry: CaMn^2+^Si_2_O_6_
Locality: Wessels mine, Kalahari Manganese field, South Africa
Source: Paul Botha
Description: Pale blue, massive, epimorphic
Measured chemistry: Ca_1.00_Mn^2+^_1.02_Si_1.99_O_6_
Raman shift (cm-1)	intensity
90.5957	0
93.9705	117.812
97.3453	30.9503
100.72	9.78296
104.095	43.7714
107.47	7.34778
110.845	22.3389
114.219	74.8566
117.594	189.616
120.969	481.253
124.344	780.015
127.719	242.2
131.094	73.6593
134.468	43.1216
137.843	85.6384
141.218	84.9742
144.593	58.5588
147.968	1.40015
151.342	11.7814
154.717	1.96033
158.092	14.287
161.467	44.6762
164.842	104.499
168.216	104.108
171.591	95.3273
174.966	135.005
178.341	218.469
181.716	441.343
185.09	228.164
188.465	198.393
191.84	343.265
195.215	262.947
198.59	88.287
201.965	53.3326
205.339	43.3663
208.714	33.4509
212.089	19.2977
215.464	22.4283
218.839	27.277
222.214	32.2336
225.588	50.5583
228.963	84.5145
232.338	147.76
235.713	168.734
239.088	79.7142
242.462	27.7838
245.837	9.03754
249.212	4.57025
252.587	6.72138
255.962	0.799561
259.336	5.2226
262.711	2.65173
266.086	6.11639
269.461	11.1655
272.836	3.492
276.211	2.01544
279.585	21.944
282.96	65.3833
286.335	123.037
289.71	210.895
293.085	362.226
296.459	636.517
299.834	884.62
303.209	654.928
306.584	310.763
309.959	156.7
313.334	98.2171
316.708	80.1719
320.083	99.3531
323.458	151.13
326.833	223.347
330.207	340.716
333.582	417.349
336.957	521.103
340.332	500.319
343.707	303.272
347.082	199.183
350.456	159.984
353.831	168.808
357.206	223.826
360.581	305.023
363.956	460.466
367.33	738.324
370.705	1178.3
374.08	1312.98
377.455	752.35
380.83	327.645
384.205	155.679
387.579	76.1699
390.954	42.8902
394.329	21.8815
397.704	11.9976
401.079	5.70508
404.453	1.8128
407.828	0.744385
411.203	2.49567
414.578	5.59033
417.953	3.89819
421.327	1.73871
424.702	0.484863
428.077	0.549561
431.452	2.37537
434.827	5.69928
438.202	14.2707
441.576	16.8196
444.951	7.73157
448.326	8.90781
451.701	4.37875
455.076	4.97095
458.45	5.42209
461.825	9.43018
465.2	10.8829
468.575	12.9674
471.95	15.9777
475.325	18.5886
478.699	22.4543
482.074	31.0678
485.449	54.4125
488.824	85.402
492.199	79.196
495.573	38.9772
498.948	12.5329
502.323	2.50342
505.698	5.32101
509.073	6.63324
512.447	16.8385
515.822	30.7223
519.197	56.4749
522.572	81.2748
525.947	57.1609
529.322	17.9621
532.696	1.94846
536.071	0.580231
539.446	4.26938
542.821	13.9132
546.196	34.0905
549.57	65.019
552.945	77.2713
556.32	34.4138
559.695	9.09787
563.07	2.54837
566.444	2.52054
569.819	4.6073
573.194	12.0428
576.569	14.9473
579.944	14.7452
583.319	8.98495
586.693	5.58179
590.068	0.082794
593.443	2.69415
596.818	0.805298
600.193	0.51236
603.567	2.02329
606.942	0.519012
610.317	5.1149
613.692	9.03357
617.067	12.8251
620.442	19.3084
623.816	28.299
627.191	42.761
630.566	65.6134
633.941	106.769
637.316	182.635
640.69	307.399
644.065	485.803
647.44	840.08
650.815	1512.62
654.19	2005.59
657.564	1242.48
660.939	537.069
664.314	266.162
667.689	149.999
671.064	84.6718
674.439	57.1108
677.813	37.5986
681.188	26.2386
684.563	20.2265
687.938	19.8395
691.313	23.4153
694.688	34.835
698.062	31.6139
701.437	16.5754
704.812	12.2779
708.187	8.07767
711.562	6.75269
714.936	4.71905
718.311	3.17389
721.686	0.739868
725.061	0.988342
728.436	0.675323
731.81	0.549561
735.185	1.6727
738.56	1.53378
741.935	0.308167
745.31	0.858124
748.684	0.408142
752.059	1.79736
755.434	1.81158
758.809	3.14642
762.184	5.92459
765.559	10.54
768.933	11.811
772.308	12.3445
775.683	12.0729
779.058	13.0184
782.433	8.26547
785.808	10.8378
789.182	8.90277
792.557	8.82675
795.932	6.71439
799.307	3.79138
802.682	0.977173
806.056	1.85013
809.431	1.54358
812.806	0.921234
816.181	2.73447
819.556	0.323853
822.93	4.88422
826.305	7.66892
829.68	11.6722
833.055	18.5183
836.43	31.2851
839.804	53.2252
843.179	79.4351
846.554	65.6287
849.929	42.2202
853.304	31.6926
856.679	27.9149
860.053	23.4403
863.428	25.111
866.803	27.5617
870.178	27.3091
873.553	27.507
876.927	26.1767
880.302	29.0522
883.677	30.1519
887.052	31.6487
890.427	28.9668
893.802	33.225
897.176	30.9547
900.551	35.6552
903.926	44.6485
907.301	48.9254
910.676	35.2109
914.05	17.5471
917.425	13.155
920.8	8.94617
924.175	6.92795
927.55	5.56802
930.924	3.08157
934.299	1.56409
937.674	1.54062
941.049	0.013306
944.424	1.20081
947.799	0.445648
951.173	0.430542
954.548	4.42438
957.923	0.872467
961.298	1.27023
964.673	1.08359
968.047	1.36749
971.422	2.20462
974.797	1.81284
978.172	6.32721
981.547	9.20605
984.922	16.2224
988.296	24.3402
991.671	42.9812
995.046	70.404
998.421	130.214
1001.8	285.583
1005.17	526.104
1008.54	1026.45
1011.92	2344.05
1015.29	2835.77
1018.67	1131.32
1022.04	459.683
1025.42	287.327
1028.79	280.145
1032.17	335.728
1035.54	198.16
1038.92	77.4703
1042.29	30.591
1045.67	11.8405
1049.04	5.60745
1052.42	0.764252
1055.79	2.63086
1059.17	0.209473
1062.54	2.47116
1065.92	11.7025
1069.29	19.0609
1072.67	34.0082
1076.04	49.5249
1079.42	65.1522
1082.79	94.5524
1086.17	122.586
1089.54	149.013
1092.92	171.819
1096.29	178.562
1099.66	175.226
1103.04	158.669
1106.41	134.425
1109.79	114.614
1113.16	91.0622
1116.54	71.4847
1119.91	53.0071
1123.29	41.3131
1126.66	29.142
1130.04	21.5504
1133.41	11.8844
1136.79	8.30444
1140.16	4.47494
1143.54	4.13773
1146.91	1.28986
1150.29	1.28726
1153.66	0.677734
1157.04	1.50888
1160.41	1.41638
1163.79	1.28919
1167.16	1.1666
1170.54	4.20645
1173.91	6.63834
1177.29	6.59994
1180.66	6.2001
1184.04	5.97284
1187.41	4.21082
1190.79	0.751068
1194.16	3.8544
1197.54	2.01804
1200.91	3.63321
1204.28	3.64627
1207.66	1.03055
1211.03	0.742859
1214.41	2.36853
1217.78	1.90332
1221.16	1.03256
1224.53	0.602509
1227.91	2.82886
1231.28	7.49213
1234.66	7.42926
1238.03	10.4527
1241.41	9.58005
1244.78	8.81653
1248.16	9.34943
1251.53	9.88644
1254.91	6.10126
1258.28	5.46951
1261.66	4.51282
1265.03	4.74496
1268.41	4.05896
1271.78	1.59644
1275.16	2.64651
1278.53	2.53302
1281.9	0.191193
