Measurement: Raman, 532 nm, unoriented, Raman Data Processed
Mineral: Johannsenite
Rruff sample: R150013
Ideal chemistry: CaMn^2+^Si_2_O_6_
Locality: Wessels mine, Kalahari Manganese field, South Africa
Source: Paul Botha
Description: Pale blue, massive, epimorphic
Measured chemistry: Ca_1.00_Mn^2+^_1.02_Si_1.99_O_6_
Raman shift (cm-1)	intensity
89.7832	0
93.158	37.9801
96.5328	16.6995
99.9077	1.29443
103.282	29.0551
106.657	44.6872
110.032	81.2992
113.407	106.25
116.782	179.473
120.157	342.116
123.531	573.302
126.906	222.825
130.281	77.8079
133.656	56.0868
137.031	71.9591
140.405	92.7341
143.78	62.2199
147.155	23.8008
150.53	6.1825
153.905	9.34338
157.28	16.3231
160.654	16.4781
164.029	51.4511
167.404	66.2964
170.779	42.1165
174.154	59.5048
177.528	126.844
180.903	257.473
184.278	145.26
187.653	105.398
191.028	201.105
194.403	178.912
197.777	41.1597
201.152	8.27856
204.527	3.61536
207.902	1.70032
211.277	3.32239
214.651	1.03137
218.026	12.4441
221.401	20.5919
224.776	32.256
228.151	58.8856
231.525	94.2307
234.9	118.173
238.275	51.3945
241.65	17.1417
245.025	4.51269
248.4	5.9939
251.774	5.80139
255.149	2.59058
258.524	0.0896
261.899	2.26892
265.274	7.98901
268.649	11.0668
272.023	1.01428
275.398	6.40601
278.773	17.4891
282.148	53.8004
285.523	109.131
288.897	177.576
292.272	277.783
295.647	452.246
299.022	616.105
302.397	474.69
305.772	227.727
309.146	105.187
312.521	58.1615
315.896	44.6875
319.271	46.2062
322.646	90.7793
326.02	145.085
329.395	213.33
332.77	274.084
336.145	336.583
339.52	336.999
342.894	183.51
346.269	91.6417
349.644	73.1283
353.019	97.661
356.394	177.492
359.769	304.248
363.143	461.105
366.518	717.858
369.893	1085.25
373.268	1218.73
376.643	723.902
380.017	323.648
383.392	155.61
386.767	81.8782
390.142	41.3038
393.517	15.1924
396.892	13.6548
400.266	6.71899
403.641	3.10229
407.016	5.09692
410.391	7.95056
413.766	3.33093
417.14	5.36548
420.515	11.5712
423.89	4.05713
427.265	0.703125
430.64	4.37939
434.014	2.30518
437.389	7.72046
440.764	15.2332
444.139	4.20227
447.514	2.14258
450.889	2.23523
454.263	2.72327
457.638	4.64575
461.013	7.53564
464.388	12.1632
467.763	16.1092
471.137	9.83142
474.512	11.8087
477.887	24.4067
481.262	39.8625
484.637	69.5913
488.012	94.1027
491.386	81.9989
494.761	48.7856
498.136	22.8767
501.511	13.8104
504.886	15.8628
508.26	21.6295
511.635	41.1907
515.01	57.1642
518.385	85.2743
521.76	116.099
525.135	89.7146
528.509	43.2274
531.884	23.0364
535.259	17.6499
538.634	23.7977
542.009	35.702
545.384	56.0739
548.758	81.9656
552.133	90.856
555.508	43.3531
558.883	18.1981
562.258	16.6025
565.632	2.71411
569.007	3.40698
572.382	1.56946
575.757	4.97583
579.132	2.20874
582.506	2.19885
585.881	0.450073
589.256	5.55176
592.631	3.67944
596.006	2.12976
599.381	5.8971
602.755	10.5515
606.13	0.945313
609.505	8.99585
612.88	16.6531
616.255	21.425
619.63	26.4502
623.004	37.3323
626.379	57.2913
629.754	70.187
633.129	106.816
636.504	179.622
639.878	331.597
643.253	562.803
646.628	932.375
650.003	1471.49
653.378	1834.93
656.752	1167.71
660.127	504.723
663.502	251.383
666.877	143.996
670.252	90.0349
673.626	50.0134
677.001	30.8477
680.376	26.5659
683.751	13.8508
687.126	15.988
690.501	31.8359
693.875	34.708
697.25	28.6694
700.625	11.551
704	4.49365
707.375	1.17578
710.75	0.407959
714.124	3.15625
717.499	2.01074
720.874	3.6106
724.249	4.56763
727.624	2.66577
730.998	8.47778
734.373	1.45776
737.748	8.6294
741.123	4.60205
744.498	6.16553
747.872	18.0469
751.247	16.5637
754.622	6.98682
757.997	5.89624
761.372	3.77563
764.747	0.946777
768.121	7.95337
771.496	2.24121
774.871	5.96265
778.246	2.31274
781.621	5.93701
784.995	4.14893
788.37	7.11255
791.745	1.14404
795.12	7.10571
798.495	0.173828
801.87	12.0581
805.244	0.040771
808.619	10.0908
811.994	6.7561
815.369	0.391846
818.744	9.60034
822.119	14.7332
825.493	0.607666
828.868	2.48291
832.243	21.9368
835.618	31.2598
838.993	50.3831
842.367	83.8879
845.742	67.2556
849.117	35.957
852.492	22.0151
855.867	12.1655
859.241	18.573
862.616	15.2473
865.991	10.7373
869.366	5.87524
872.741	14.8125
876.115	8.8064
879.49	6.07788
882.865	2.86353
886.24	8.3479
889.615	10.7073
892.99	17.0425
896.364	31.9666
899.739	34.8164
903.114	45.2871
906.489	42.3477
909.864	29.365
913.239	14.7234
916.613	5.01367
919.988	0.243896
923.363	5.49854
926.738	4.96729
930.113	4.36255
933.487	1.06885
936.862	3.08276
940.237	0.003906
943.612	2.73999
946.987	7.44971
950.361	12.3979
953.736	12.7612
957.111	0.338867
960.486	3.86084
963.861	11.9526
967.236	19.6514
970.61	14.9575
973.985	24.718
977.36	28.3567
980.735	30.6782
984.11	43.2732
987.485	57.0144
990.859	79.3191
994.234	107.65
997.609	190.446
1000.98	408.694
1004.36	868.894
1007.73	1590.56
1011.11	3114.61
1014.48	3833.89
1017.86	1611.74
1021.23	678.323
1024.61	450.285
1027.98	454.253
1031.36	511.812
1034.73	331.847
1038.11	149.463
1041.48	84.6877
1044.86	57.4463
1048.23	28.6943
1051.61	24.2065
1054.98	15.3892
1058.36	6.38306
1061.73	1.44165
1065.11	5.83691
1068.48	0.664551
1071.86	2.4104
1075.23	0.9646
1078.6	1.29712
1081.98	2.30981
1085.35	2.02637
1088.73	6.14185
1092.1	5.87573
1095.48	4.39746
1098.85	7.72974
1102.23	7.78394
1105.6	10.4568
1108.98	2.53369
1112.35	10.5588
1115.73	7.30908
1119.1	0.44165
1122.48	4.71875
1125.85	8.37769
1129.23	4.44019
1132.6	1.31982
1135.98	1.11279
1139.35	9.92163
1142.73	10.0967
1146.1	6.67114
1149.48	3.36963
1152.85	11
1156.22	13.4959
1159.6	12.3115
1162.97	7.61719
1166.35	12.2495
1169.72	12.3965
1173.1	9.18286
1176.47	10.9045
1179.85	13.4097
1183.22	14.2842
1186.6	13.5767
1189.97	18.335
1193.35	12.4453
1196.72	10.3152
1200.1	7.16528
1203.47	11.4761
1206.85	7.38306
1210.22	8.2146
1213.6	11.0979
1216.97	10.1435
1220.35	10.1614
1223.72	12.7646
1227.1	7.16504
1230.47	3.76318
1233.85	8.30444
1237.22	10.6011
1240.6	6.6582
1243.97	9.44287
1247.35	13.3394
1250.72	20.6807
1254.1	23.6257
1257.47	18.5928
1260.85	16.6689
1264.22	5.32715
1267.59	3.99756
1270.97	2.75537
1274.34	3.69995
1277.72	2.25708
1281.09	2.13721
1284.47	0.9104
1287.84	6.84375
1291.22	8.12793
1294.59	7.77026
1297.97	3.17676
1301.34	1.86743
