Measurement: Raman, 785 nm, unoriented, Raman Data Processed
Mineral: Johannite
Rruff sample: R070061
Ideal chemistry: Cu(UO_2_)_2_(SO_4_)_2_(OH)_2_8H_2_O
Locality: Joachimstal, Bohemia
Source: William W. Pinch
Description: Emerald green transparent fragment
Raman shift (cm-1)	intensity
139.631	0
142.523	11.1328
145.416	208.685
148.309	404.293
151.201	457.677
154.094	408.694
156.987	281.832
159.879	253.849
162.772	318.286
165.665	400.711
168.557	455.421
171.45	440.118
174.343	387.916
177.236	359.764
180.128	337.305
183.021	360.268
185.914	486.591
188.806	612.535
191.699	745.133
194.592	1057.08
197.484	1344.38
200.377	1559.85
203.27	1639.42
206.162	1376.83
209.055	999.714
211.948	595.711
214.841	333.778
217.733	196.573
220.626	140.07
223.519	192.034
226.411	223.24
229.304	300.581
232.197	377.961
235.089	432.361
237.982	580.869
240.875	714.648
243.768	814.085
246.66	824.447
249.553	615.962
252.446	428.536
255.338	305.475
258.231	210.176
261.124	158.483
264.017	117.983
266.909	101.427
269.802	91.5696
272.695	74.0456
275.587	56.0867
278.48	48.0638
281.373	35.4241
284.265	46.3492
287.158	34.212
290.051	44.8792
292.943	24.9697
295.836	22.656
298.729	11.5585
301.622	3.5022
304.514	4.50366
307.407	10.0114
310.3	26.6245
313.192	19.934
316.085	20.8683
318.978	47.2585
321.87	44.8439
324.763	4.25671
327.656	2.76611
330.549	30.2244
333.441	90.53
336.334	122.638
339.227	173.924
342.119	252.664
345.012	361.403
347.905	413.332
350.798	447.69
353.69	443.523
356.583	393.881
359.476	354.377
362.368	320.544
365.261	219.721
368.154	211.493
371.046	200.7
373.939	187.204
376.832	170.37
379.724	189.454
382.617	141.876
385.51	161.533
388.403	184.169
391.295	187.358
394.188	191.362
397.081	250.217
399.973	276.426
402.866	298.827
405.759	293.248
408.651	324.202
411.544	351.951
414.437	335.257
417.33	348.169
420.222	357.236
423.115	384.459
426.008	359.08
428.9	404.251
431.793	445.251
434.686	504.863
437.579	524.938
440.471	619.007
443.364	640.94
446.257	611.325
449.149	526.63
452.042	507.819
454.935	395.581
457.827	267.67
460.72	154.558
463.613	116.368
466.505	68.9685
469.398	59.9285
472.291	56.0138
475.184	2.11353
478.076	9.85376
480.969	0.405151
483.862	15.7189
486.754	13.7773
489.647	4.12463
492.54	7.9541
495.433	9.61951
498.325	1.6571
501.218	1.51794
504.111	1.18872
507.003	23.7179
509.896	4.53796
512.789	32.9377
515.681	25.359
518.574	22.421
521.467	6.58557
524.359	13.6343
527.252	20.6794
530.145	15.6656
533.038	3.37622
535.93	16.421
538.823	15.7637
541.716	33.3032
544.608	22.7577
547.501	12.407
550.394	28.7113
553.286	46.7443
556.179	9.82922
559.072	27.6863
561.965	11.2753
564.857	9.47485
567.75	27.0453
570.643	12.9408
573.535	27.6694
576.428	8.86585
579.321	19.1393
582.213	13.4313
585.106	21.0095
587.999	13.0778
590.891	6.59253
593.784	0.837036
596.677	27.9352
599.57	2.85583
602.462	13.73
605.355	27.427
608.248	32.2009
611.14	71.8224
614.033	66.3603
616.926	124.379
619.818	135.019
622.711	196.729
625.604	211.894
628.497	200.712
631.389	195.906
634.282	122.975
637.175	128.197
640.067	84.4539
642.96	83.348
645.853	62.4789
648.745	8.97266
651.638	38.8146
654.531	35.6113
657.424	24.5906
660.316	18.8901
663.209	22.0815
666.102	10.8583
668.994	19.234
671.887	16.0946
674.78	36.1332
677.673	45.3431
680.565	28.7419
683.458	28.5636
686.351	27.9147
689.243	32.1246
692.136	19.7311
695.029	39.1841
697.921	38.5491
700.814	40.0978
703.707	29.2479
706.6	9.73474
709.492	38.4281
712.385	27.7421
715.278	41.2527
718.17	28.0847
721.063	14.6617
723.956	27.9425
726.848	14.1537
729.741	6.53088
732.634	8.02039
735.527	32.3865
738.419	8.26282
741.312	8.33569
744.205	12.3911
747.097	10.7351
749.99	25.7202
752.883	2.69775
755.775	7.79089
758.668	17.6202
761.561	29.9882
764.453	14.3562
767.346	4.37048
770.239	24.2872
773.132	13.2908
776.024	33.564
778.917	38.6072
781.81	42.8906
784.702	79.9216
787.595	103.136
790.488	106.977
793.38	153.151
796.273	179.633
799.166	177.976
802.058	246.422
804.951	299.87
807.844	389.955
810.737	549.077
813.629	746.627
816.522	1141.02
819.415	1824.4
822.307	3205.88
825.2	5519.84
828.093	8632.19
830.986	13228.6
833.878	17756.4
836.771	14098.7
839.664	6809.52
842.556	3101.43
845.449	1698.98
848.342	995.701
851.234	694.096
854.127	484.057
857.02	336.071
859.913	240.64
862.805	205.848
865.698	172.281
868.591	129.5
871.483	107.452
874.376	87.4415
877.269	32.7094
880.161	24.9044
883.054	58.3107
885.947	30.2363
888.84	10.9086
891.732	6.76843
894.625	30.6957
897.518	0.489014
900.41	2.16418
903.303	2.24292
906.196	11.3084
909.088	15.921
911.981	2.90271
914.874	22.2531
917.766	15.7853
920.659	16.0067
923.552	36.2941
926.445	27.9684
929.337	28.5466
932.23	45.975
935.123	41.7532
938.015	21.8749
940.908	24.6223
943.801	41.0248
946.693	49.7026
949.586	42.8508
952.479	20.2176
955.372	9.30408
958.264	28.3326
961.157	33.8477
964.05	10.0762
966.942	24.0798
969.835	0.368469
972.728	11.8909
975.62	11.0443
978.513	9.21313
981.406	17.1258
984.299	14.0619
987.191	13.8364
990.084	10.6588
992.977	6.80987
995.869	1.85278
998.762	1.8714
1001.65	11.9739
1004.55	15.9965
1007.44	7.02051
1010.33	12.3651
1013.23	7.28418
1016.12	21.4506
1019.01	13.3971
1021.9	30.77
1024.8	45.7828
1027.69	117.419
1030.58	260.409
1033.47	528.398
1036.37	945.808
1039.26	1495.24
1042.15	2134.84
1045.05	1823.48
1047.94	887.971
1050.83	369.993
1053.72	185.496
1056.62	93.8552
1059.51	69.9957
1062.4	35.9034
1065.29	79.9673
1068.19	124.816
1071.08	153.775
1073.97	294.773
1076.87	469.5
1079.76	700.444
1082.65	1107.48
1085.54	1515.54
1088.44	1965.87
1091.33	2120.19
1094.22	2035.79
1097.11	1950.71
1100.01	1762.63
1102.9	1331.89
1105.79	790.509
1108.68	426.327
1111.58	232.286
1114.47	158.23
1117.36	59.0316
1120.26	52.7208
1123.15	34.4039
1126.04	27.551
1128.93	31.5944
1131.83	41.7643
1134.72	61.8868
1137.61	103.114
1140.5	128.895
1143.4	151.785
1146.29	173.077
1149.18	148.489
1152.08	133.252
1154.97	87.1497
1157.86	52.6522
1160.75	33.7536
1163.65	36.1599
1166.54	3.01544
1169.43	8.29059
1172.32	16.153
1175.22	0.270996
1178.11	3.06421
1181	18.274
1183.89	0.2099
1186.79	6.56097
1189.68	9.50946
1192.57	24.3263
1195.47	19.7534
1198.36	20.8308
1201.25	19.5101
1204.14	52.7465
1207.04	24.7648
1209.93	62.8043
1212.82	51.8355
1215.71	24.0867
1218.61	18.1222
1221.5	36.81
1224.39	29.6823
1227.29	23.3637
1230.18	16.4498
1233.07	23.3697
1235.96	19.2713
1238.86	10.358
1241.75	4.68567
1244.64	0
