Measurement: Raman, 780 nm, unoriented, Raman Data Processed
Mineral: Johachidolite
Rruff sample: R070640
Ideal chemistry: CaAlB_3_O_7_
Locality: Pyant Gyi mine, Mogok Stone Tract, Mandalay Division, Burma
Source: Marcus Origlieri
Description: Pale yellowish orange granular
Measured chemistry: Ca_1.00_Al_1.00_B_3.00_O_7_; B estimated by difference
Raman shift (cm-1)	intensity
104.364	0
106.775	42.2444
109.185	2.88367
111.596	63.4762
114.006	11.2689
116.417	17.5524
118.828	21.4013
121.238	29.2283
123.649	67.5082
126.059	1.60291
128.47	85.728
130.88	27.5572
133.291	17.5668
135.702	45.6851
138.112	45.2463
140.523	21.08
142.933	-2.53597
145.344	14.2439
147.755	16.6175
150.165	29.1377
152.576	12.929
154.986	3.81029
157.397	13.8461
159.807	24.8022
162.218	15.8504
164.629	3.013
167.039	7.79438
169.45	18.1137
171.86	8.48614
174.271	7.84241
176.681	21.2008
179.092	35.5583
181.503	42.1537
183.913	36.1826
186.324	54.5066
188.734	20.6594
191.145	44.9995
193.556	22.3796
195.966	27.8286
198.377	23.181
200.787	4.96497
203.198	32.8342
205.608	9.45898
208.019	31.6592
210.43	79.4095
212.84	19.8363
215.251	51.8356
217.661	21.3878
220.072	33.8208
222.483	40.1821
224.893	26.0773
227.304	45.7112
229.714	48.3828
232.125	11.5935
234.536	13.9429
236.946	9.74231
239.357	32.4543
241.767	57.3252
244.178	61.318
246.589	33.1035
248.999	6.58765
251.41	16.8738
253.82	0.547852
256.231	23.023
258.641	26.835
261.052	41.1069
263.463	15.5404
265.873	50.4781
268.284	88.1758
270.694	161.289
273.105	220.786
275.515	294.873
277.926	394.79
280.337	523.965
282.747	826.458
285.158	768.555
287.568	404.807
289.979	139.427
292.39	62.8488
294.8	40.2949
297.211	21.085
299.621	7.26843
302.032	26.3105
304.442	56.2095
306.853	35.6006
309.264	28.6157
311.674	78.3186
314.085	100.428
316.495	131.16
318.906	179.969
321.317	225.291
323.727	320.243
326.138	189.396
328.548	163.437
330.959	235.117
333.37	284.441
335.78	310.247
338.191	477.779
340.601	626.282
343.012	1005.18
345.422	1376.17
347.833	1052.01
350.244	552.335
352.654	349.236
355.065	307.625
357.475	279.046
359.886	255.203
362.296	371.293
364.707	478.838
367.118	520.65
369.528	690.264
371.939	909.118
374.349	945.048
376.76	572.749
379.171	283.801
381.581	104.811
383.992	49.9844
386.402	6.46484
388.813	16.1213
391.224	5.00098
393.634	8.29443
396.045	41.1397
398.455	30.7773
400.866	14.2624
403.276	27.6887
405.687	6.56323
408.098	28.8555
410.508	9.96631
412.919	3.30664
415.329	0.986328
417.74	10.2808
420.151	2.5
422.561	65.667
424.972	139.782
427.382	179.196
429.793	258.158
432.203	401.552
434.614	719.958
437.025	647.108
439.435	357.422
441.846	270.705
444.256	197.745
446.667	350.247
449.077	295.121
451.488	454.725
453.899	547.237
456.309	377.835
458.72	252.666
461.13	203.083
463.541	196.177
465.952	368.672
468.362	456.125
470.773	653.319
473.183	1031.29
475.594	1605.01
478.005	1694.47
480.415	831.601
482.826	326.231
485.236	129.044
487.647	41.1382
490.057	33.8135
492.468	64.144
494.879	2.10889
497.289	5.52442
499.7	26.5166
502.11	63.4341
504.521	106.969
506.932	97.1162
509.342	168.756
511.753	133.225
514.163	121.854
516.574	232.414
518.984	325.301
521.395	339.165
523.806	327.446
526.216	403.085
528.627	362.57
531.037	220.339
533.448	116.209
535.859	46.9785
538.269	97.6269
540.68	13.2573
543.09	6.71338
545.501	29.022
547.911	20.5464
550.322	13.3262
552.733	38.5908
555.143	25.2056
557.554	22.9609
559.964	64.7524
562.375	12.6904
564.785	45.5308
567.196	142.912
569.607	97.3071
572.017	120.486
574.428	282.034
576.838	401.58
579.249	656.95
581.66	1012.62
584.07	1416.84
586.481	1876
588.891	1642.08
591.302	932.636
593.712	504.281
596.123	265.858
598.534	240.608
600.944	121.676
603.355	153.06
605.765	147.135
608.176	48.8545
610.587	56.8569
612.997	23.0146
615.408	39.6045
617.818	15.4839
620.229	11.5195
622.639	34.209
625.05	26.6255
627.461	58.1685
629.871	78.7852
632.282	38.2383
634.692	57.2759
637.103	109.552
639.514	78.3589
641.924	142.512
644.335	184.627
646.745	224.327
649.156	289.755
651.567	341.459
653.977	578.557
656.388	780.33
658.798	1160.58
661.209	1650.03
663.619	2250.23
666.03	2474.35
668.441	2065.58
670.851	1172.51
673.262	714.889
675.672	457.639
678.083	349.028
680.494	381.246
682.904	337.227
685.315	167.362
687.725	118.583
690.136	3.22266
692.546	64.4756
694.957	3.54492
697.368	45.583
699.778	77.6728
702.189	3.7207
704.599	90.2959
707.01	2.06348
709.42	64.3984
711.831	62.2715
714.242	66.918
716.652	38.3672
719.063	52.0498
721.473	58.459
723.884	72.3779
726.295	34.2783
728.705	61.9912
731.116	92.7617
733.526	119.381
735.937	132.84
738.347	91.332
740.758	95.5537
743.169	103.683
745.579	115.403
747.99	151.705
750.4	179.023
752.811	129.901
755.222	143.847
757.632	113.747
760.043	47.3438
762.453	98.1572
764.864	102.491
767.274	65.4023
769.685	95.4512
772.096	106.853
774.506	74.0381
776.917	32.0713
779.327	29.8652
781.738	43.8291
784.149	1.06348
786.559	9.29297
788.97	92.3848
791.38	9.97266
793.791	53.623
796.202	95.3272
798.612	59.4033
801.023	79.4219
803.433	46.9834
805.844	25.3203
808.255	119.474
810.665	63.5176
813.076	112.913
815.486	197.904
817.897	283.228
820.307	508.459
822.718	599.781
825.129	944.658
827.539	1294.48
829.95	1559.72
832.36	1483.24
834.771	1047.71
837.182	665.469
839.592	539.117
842.003	318.397
844.413	262.006
846.824	286.336
849.234	269.014
851.645	182.002
854.056	138.525
856.466	190.018
858.877	155.787
861.287	121.611
863.698	148.481
866.109	132.033
868.519	123.488
870.93	129.857
873.34	131.934
875.751	198.119
878.161	135.273
880.572	173.062
882.983	37.6406
885.393	95.4551
887.804	73.1914
890.214	87.916
892.625	181.584
895.035	144.504
897.446	46.3145
899.857	167.947
902.267	32.707
904.678	55.5391
907.088	18.3262
909.499	122.527
911.91	60.8848
914.32	47.8027
916.731	87.1293
919.141	52.0742
921.552	96.0488
923.962	58.1133
926.373	62.2031
928.784	91.6094
931.194	210.758
933.605	14.1074
936.015	22.0117
938.426	53.0039
940.837	134.201
943.247	124.662
945.658	57.459
948.068	80.1836
950.479	18.6582
952.889	94.0547
955.3	10.9766
957.711	20.6836
960.121	24.6758
962.532	156.086
964.942	10.7324
967.353	266.238
969.764	130.258
972.174	227.594
974.585	122.449
976.995	106.373
979.406	241.455
981.817	186.984
984.227	276.387
986.638	202.006
989.048	125.609
991.459	58.043
993.869	91.0742
996.28	137.801
998.691	62.8281
1001.1	79.6426
1003.51	10.0176
1005.92	73.8731
1008.33	50.9941
