Measurement: Raman, 780 nm, unoriented, Raman Data Processed
Mineral: Johninnesite
Rruff sample: R060249
Ideal chemistry: Na_2_Mn^2+^_9_Mg_7_(As^5+^O_4_)_2_(Si_6_O_17_)_2_(OH)_8_
Locality: Kombat mine, Kombat, Grootfontein District, Otjozondjupa Region, Namibia
Source: William W. Pinch
Description: Colorless to tan aggregate of bladed crystals associated with rhodonite
Measured chemistry: Na_2.00_Mn^2+^_9.00_(Mg_4.04_Mn^2+^_2.96_)_Î£=7_(As_1.00_O_4_)_2_(Si_6.00_O_17_)_2_(OH)_8_ ; (OH) estimated by difference
Raman shift (cm-1)	intensity
149.999	0
152.892	0.245056
155.785	3.87381
158.677	13.2856
161.57	25.793
164.463	42.102
167.355	46.5746
170.248	46.1132
173.141	49.1777
176.034	38.9887
178.926	29.4528
181.819	23.0996
184.712	28.5239
187.604	38.1786
190.497	45.5811
193.39	44.0561
196.282	52.5544
199.175	74.6188
202.068	103.581
204.96	123.531
207.853	124.468
210.746	110.452
213.639	89.3379
216.531	69.8267
219.424	54.4516
222.317	42.3332
225.209	37.323
228.102	36.4185
230.995	42.0545
233.887	53.5608
236.78	65.7022
239.673	82.521
242.566	85.5961
245.458	86.2462
248.351	70.1209
251.244	43.4375
254.136	23.1328
257.029	10.8036
259.922	1.81313
262.815	1.75171
265.707	3.79976
268.6	2.95909
271.493	0.407455
274.385	8.892
277.278	22.5123
280.171	35.6182
283.063	41.4643
285.956	37.713
288.849	32.092
291.741	25.5647
294.634	14.4742
297.527	5.27846
300.42	0.784836
303.312	5.54584
306.205	3.82259
309.098	0.742157
311.99	6.40216
314.883	14.3318
317.776	22.5573
320.668	27.7416
323.561	37.8158
326.454	42.5868
329.347	47.9483
332.239	50.0999
335.132	63.6048
338.025	88.7341
340.917	124.03
343.81	147.876
346.703	147.875
349.596	124.976
352.488	86.9897
355.381	57.2435
358.274	41.5659
361.166	39.5945
364.059	40.8796
366.952	42.2076
369.844	45.5366
372.737	51.5035
375.63	66.5761
378.522	83.795
381.415	84.74
384.308	75.7616
387.201	79.5351
390.093	83.3384
392.986	89.3353
395.879	96.46
398.771	106.599
401.664	121.069
404.557	137.344
407.45	167.609
410.342	222.948
413.235	284.776
416.128	296.245
419.02	228.5
421.913	126.913
424.806	54.1551
427.698	17.268
430.591	3.21608
433.484	7.3754
436.377	3.55782
439.269	6.16298
442.162	14.3876
445.055	28.7041
447.947	47.2373
450.84	67.4179
453.733	88.1746
456.625	93.1789
459.518	86.4825
462.411	73.7898
465.303	60.3651
468.196	51.0527
471.089	41.1158
473.982	28.4222
476.874	21.696
479.767	17.0483
482.66	15.2795
485.552	11.4748
488.445	4.80391
491.338	0.363358
494.231	2.58714
497.123	1.00178
500.016	8.01735
502.909	14.8323
505.801	21.5731
508.694	24.1073
511.587	25.6096
514.479	27.889
517.372	24.1338
520.265	17.4206
523.158	13.1247
526.05	12.9626
528.943	15.421
531.836	19.4434
534.728	21.7249
537.621	27.9755
540.514	35.4492
543.406	34.9536
546.299	31.0939
549.192	24.3484
552.085	20.9392
554.977	16.242
557.87	9.4996
560.763	3.83154
563.655	0.250015
566.548	2.06908
569.441	1.79586
572.333	2.22547
575.226	1.85709
578.119	0.647629
581.011	0.756248
583.904	1.96941
586.797	0.023193
589.69	0.23526
592.582	0.484886
595.475	2.10966
598.368	4.16975
601.26	4.58972
604.153	7.00029
607.046	7.83557
609.938	6.9653
612.831	7.49986
615.724	6.48625
618.617	6.11777
621.509	5.17398
624.402	3.64737
627.295	1.95206
630.187	2.88028
633.08	3.27589
635.973	6.45111
638.865	11.6067
641.758	22.9126
644.651	38.9993
647.544	64.7143
650.436	108.537
653.329	170.123
656.222	253.235
659.114	368.392
662.007	518.682
664.9	702.635
667.793	835.864
670.685	779.188
673.578	560.693
676.471	365.39
679.363	253.389
682.256	200.796
685.149	191.228
688.041	198.032
690.934	212.864
693.827	238.934
696.72	293.745
699.612	395.232
702.505	531.3
705.398	569.279
708.29	436.627
711.183	276.682
714.076	180.638
716.968	127.469
719.861	93.1718
722.754	60.1497
725.646	36.2381
728.539	18.9409
731.432	8.10274
734.325	0.036591
737.217	5.23553
740.11	7.02185
743.003	7.07184
745.895	5.74199
748.788	5.12787
751.681	1.83916
754.573	7.94875
757.466	20.6803
760.359	37.8154
763.252	62.4105
766.144	98.0952
769.037	151.229
771.93	211.935
774.822	271.459
777.715	343.103
780.608	476.193
783.5	706.484
786.393	970.488
789.286	1040.63
792.179	1006.58
795.071	1139.77
797.964	1455.42
800.857	1817.76
803.75	1772.09
806.642	1169.39
809.535	616.507
812.428	343.557
815.32	220.192
818.213	178.565
821.106	194.067
823.998	248.058
826.891	325.886
829.784	498.882
832.677	812.98
835.569	1001.03
838.462	681.319
841.355	364.706
844.247	212.67
847.14	159.082
850.033	156.011
852.925	173.064
855.818	171.674
858.711	130.462
861.604	75.9809
864.496	37.025
867.389	14.7604
870.282	3.3192
873.174	2.25314
876.067	5.61232
878.96	0.707962
881.852	4.99733
884.745	5.84013
887.638	2.15706
890.53	1.078
893.423	0.223816
896.316	1.79335
899.209	6.4646
902.101	7.01471
904.994	1.59389
907.887	3.36424
910.779	4.81712
913.672	4.57657
916.565	3.69846
919.457	17.6041
922.35	46.766
925.243	74.1509
928.136	61.2061
931.028	48.6768
933.921	58.7739
936.814	73.0247
939.706	70.1313
942.599	48.5594
945.492	21.83
948.385	8.6078
951.277	4.01253
954.17	6.29887
957.063	11.3779
959.955	19.5207
962.848	27.9329
965.741	41.5304
968.633	62.3918
971.526	67.4828
974.419	41.4205
977.312	16.3473
980.204	6.00085
983.097	0.784927
985.99	0.58876
988.882	3.16698
991.775	7.09105
994.668	11.6984
997.56	14.6573
1000.45	25.6394
1003.35	49.2885
1006.24	84.2923
1009.13	134.856
1012.02	212.629
1014.92	297.458
1017.81	284.944
1020.7	200.367
1023.6	161.765
1026.49	172.536
1029.38	182.522
1032.27	137.552
1035.17	73.1273
1038.06	45.582
1040.95	35.5777
1043.84	30.6321
1046.74	28.9252
1049.63	36.0243
1052.52	45.9912
1055.41	56.7935
1058.31	44.6804
1061.2	20.5214
1064.09	7.21945
1066.98	1.88563
1069.88	0.250748
1072.77	0.755852
1075.66	2.9351
1078.56	0.914703
1081.45	1.98458
1084.34	4.46744
1087.23	8.41166
1090.13	8.79356
1093.02	13.5956
1095.91	15.7724
1098.81	18.514
1101.7	15.4215
1104.59	10.4403
1107.48	5.2281
1110.38	2.66111
1113.27	1.4378
1116.16	0.587509
1119.05	1.1124
1121.95	1.58385
1124.84	0.374878
1127.73	0.151764
1130.62	1.66077
1133.52	0.378502
1136.41	0.017319
1139.3	0.416855
1142.19	1.06947
1145.09	0.688866
1147.98	1.34067
1150.87	1.04281
1153.77	1.22491
1156.66	0.759102
1159.55	0.651665
1162.44	0.935463
1165.34	0.049866
1168.23	1.10989
1171.12	0.498085
1174.02	0.838699
1176.91	1.67785
1179.8	1.0884
1182.69	1.21123
1185.59	0.460045
1188.48	0.489243
1191.37	0.111298
1194.26	1.28584
1197.16	0.875877
1200.05	2.21329
1202.94	1.12019
1205.84	1.86646
1208.73	0.408974
1211.62	1.17277
1214.51	0.889229
1217.41	0.602188
1220.3	1.26117
1223.19	0.248703
1226.08	3.17167
1228.98	1.98109
1231.87	1.49823
1234.76	0.567719
1237.65	0.897766
1240.55	1.05582
1243.44	0.120705
1246.33	2.0006
1249.22	0.715248
1252.12	0.124763
1255.01	1.15411
1257.9	1.16649
1260.8	1.13214
1263.69	0.821693
1266.58	1.08639
1269.47	1.19011
1272.37	1.08318
1275.26	0.938919
1278.15	1.44607
1281.05	0.07753
1283.94	0.673622
