Measurement: Raman, 532 nm, unoriented, Raman Data Processed
Mineral: Johninnesite
Rruff sample: R060249
Ideal chemistry: Na_2_Mn^2+^_9_Mg_7_(As^5+^O_4_)_2_(Si_6_O_17_)_2_(OH)_8_
Locality: Kombat mine, Kombat, Grootfontein District, Otjozondjupa Region, Namibia
Source: William W. Pinch
Description: Colorless to tan aggregate of bladed crystals associated with rhodonite
Measured chemistry: Na_2.00_Mn^2+^_9.00_(Mg_4.04_Mn^2+^_2.96_)_Î£=7_(As_1.00_O_4_)_2_(Si_6.00_O_17_)_2_(OH)_8_ ; (OH) estimated by difference
Raman shift (cm-1)	intensity
149.868	0
152.761	13.3747
155.654	90.5255
158.546	186.14
161.439	303.604
164.332	386.958
167.224	370.065
170.117	314.35
173.01	268.927
175.902	217.989
178.795	174.151
181.688	180.499
184.581	230.335
187.473	289.886
190.366	273.972
193.259	156.527
196.151	69.5995
199.044	85.5704
201.937	151.381
204.829	191.015
207.722	190.738
210.615	169.988
213.507	152.092
216.4	118.517
219.293	82.0523
222.186	42.6943
225.078	28.2782
227.971	30.6432
230.864	51.8178
233.756	89.2673
236.649	141.606
239.542	207.89
242.435	270.755
245.327	296.133
248.22	263.961
251.113	183.947
254.005	107.39
256.898	53.7752
259.791	14.8684
262.683	14.3972
265.576	22.8128
268.469	18.2106
271.361	5.7991
274.254	20.7015
277.147	51.4954
280.04	81.3685
282.932	95.823
285.825	95.3895
288.718	81.3225
291.61	67.0312
294.503	45.9684
297.396	25.591
300.288	7.55716
303.181	2.37289
306.074	3.70444
308.967	5.21942
311.859	23.4404
314.752	44.0517
317.645	67.9774
320.537	90.7879
323.43	103.956
326.323	107.724
329.216	99.9402
332.108	92.102
335.001	93.3496
337.894	105.293
340.786	134.598
343.679	164.916
346.572	184.774
349.464	182.258
352.357	166.821
355.25	156.017
358.142	150.955
361.035	153.524
363.928	161.021
366.821	166.773
369.713	147.145
372.606	118.041
375.499	105.994
378.391	108.242
381.284	99.926
384.177	82.8718
387.07	79.1577
389.962	91.3772
392.855	110.919
395.748	129.597
398.64	152.821
401.533	156.093
404.426	141.72
407.318	134.953
410.211	146.006
413.104	169.655
415.997	173.392
418.889	126.246
421.782	61.8351
424.675	19.3815
427.567	3.24844
430.46	10.8798
433.353	9.51181
436.245	0.553009
439.138	5.13235
442.031	7.16806
444.923	8.86997
447.816	15.4277
450.709	31.7024
453.602	42.4533
456.494	45.6465
459.387	41.2342
462.28	32.2993
465.172	30.7641
468.065	31.4028
470.958	39.8152
473.851	44.4832
476.743	56.4909
479.636	70.8618
482.529	77.1676
485.421	71.2453
488.314	49.4858
491.207	20.9188
494.099	3.69092
496.992	1.29141
499.885	3.55896
502.777	13.4568
505.67	19.0031
508.563	18.2983
511.456	18.8138
514.348	19.3914
517.241	17.2097
520.134	10.7252
523.026	4.82532
525.919	7.06448
528.812	12.4089
531.705	16.0353
534.597	22.0121
537.49	31.711
540.383	39.7267
543.275	46.1396
546.168	50.1078
549.061	51.7378
551.953	52.9305
554.846	48.9683
557.739	36.4453
560.631	20.3511
563.524	8.03195
566.417	2.80458
569.31	0.568268
572.202	4.34471
575.095	5.28746
577.988	6.00224
580.88	4.19617
583.773	5.45474
586.666	2.35414
589.558	1.94792
592.451	2.18195
595.344	6.30129
598.237	11.3586
601.129	16.4939
604.022	18.6877
606.915	22.4736
609.807	22.7118
612.7	20.309
615.593	20.2422
618.486	19.0598
621.378	18.5495
624.271	17.3233
627.164	15.9798
630.056	13.8604
632.949	13.9971
635.842	18.9827
638.734	25.4396
641.627	44.3556
644.52	73.7697
647.413	124.93
650.305	207.786
653.198	339.46
656.091	538.18
658.983	807.511
661.876	1144.47
664.769	1519.01
667.661	1800.79
670.554	1738.82
673.447	1293.92
676.34	836.101
679.232	541.608
682.125	389.387
685.018	319.952
687.91	296.087
690.803	310.372
693.696	360.781
696.588	460.379
699.481	631.361
702.374	836.159
705.266	933.452
708.159	758.109
711.052	485.755
713.945	315.249
716.837	224.511
719.73	158.956
722.623	104.44
725.515	58.0794
728.408	24.4563
731.301	3.19882
734.193	7.62256
737.086	15.1653
739.979	17.6281
742.872	14.7564
745.764	10.965
748.657	2.45685
751.55	16.1138
754.442	49.2733
757.335	102.693
760.228	191.116
763.12	324.973
766.013	520.472
768.906	797.473
771.799	1129.61
774.691	1440.6
777.584	1718.08
780.477	2117.45
783.369	2723.91
786.262	3239.33
789.155	2913.47
792.048	2158.48
794.94	1901.43
797.833	2071.83
800.726	2362.07
803.618	2258.93
806.511	1517.73
809.404	796.888
812.296	428.765
815.189	272.803
818.082	210.931
820.975	239.377
823.867	348.485
826.76	519.928
829.653	817.775
832.545	1283.81
835.438	1635.15
838.331	1202.7
841.223	688.019
844.116	435.305
847.009	363.75
849.902	376.816
852.794	426.595
855.687	423.995
858.58	324.598
861.472	200.221
864.365	98.9647
867.258	43.5825
870.15	12.3105
873.043	6.98053
875.936	15.6637
878.828	10.422
881.721	0.857178
884.614	2.19028
887.507	2.93131
890.399	0.761963
893.292	0.324341
896.185	5.44922
899.077	14.9319
901.97	22.6881
904.863	17.2383
907.755	5.10257
910.648	1.43555
913.541	5.07163
916.434	31.4232
919.326	76.34
922.219	152.422
925.112	224.318
928.004	210.472
930.897	187.493
933.79	216.246
936.683	257.668
939.575	246.012
942.468	169.511
945.361	78.3876
948.253	20.5072
951.146	2.91562
954.039	1.08752
956.931	18.6609
959.824	53.648
962.717	112.702
965.61	193.367
968.502	300.044
971.395	347.795
974.288	240.353
977.18	104.232
980.073	36.5306
982.966	7.15189
985.858	2.60492
988.751	3.1803
991.644	3.25186
994.537	12.6155
997.429	28.0187
1000.32	63.43
1003.22	130.403
1006.11	249.994
1009	421.166
1011.89	669.563
1014.78	954.932
1017.68	962.335
1020.57	667.731
1023.46	487.701
1026.36	461.299
1029.25	470.026
1032.14	359.006
1035.03	198.942
1037.93	116.95
1040.82	99.7611
1043.71	113.604
1046.61	149.239
1049.5	210.82
1052.39	312.848
1055.28	419.746
1058.18	362.899
1061.07	182.534
1063.96	75.0645
1066.85	31.1372
1069.75	9.88919
1072.64	0.254349
1075.53	1.23012
1078.42	1.90427
1081.32	1.26918
1084.21	10.821
1087.1	20.6712
1090	31.8965
1092.89	45.7959
1095.78	57.6998
1098.67	70.4022
1101.57	68.7179
1104.46	43.1656
1107.35	20.4741
1110.24	5.80109
1113.14	2.01988
1116.03	0.394791
1118.92	1.67633
1121.82	1.59853
1124.71	1.4398
1127.6	0.098328
1130.49	1.76666
1133.39	2.0443
1136.28	0.969147
1139.17	4.30647
1142.06	3.9471
1144.96	4.79587
1147.85	6.10271
1150.74	3.92232
1153.63	5.30913
1156.53	5.0742
1159.42	6.16953
1162.31	6.46146
1165.21	6.34314
1168.1	6.22913
1170.99	6.34656
1173.88	7.76201
1176.78	7.34128
1179.67	6.2789
1182.56	4.16466
1185.45	4.94092
1188.35	4.28349
1191.24	4.89459
1194.13	4.16495
1197.03	4.17281
1199.92	4.99028
1202.81	3.62596
1205.7	3.43745
1208.6	2.91235
1211.49	2.23239
1214.38	1.90125
1217.27	2.75487
1220.17	3.12074
1223.06	1.35742
1225.95	2.40195
1228.85	1.00528
1231.74	1.08639
1234.63	0.719528
1237.52	1.85127
1240.42	1.1308
1243.31	0.025696
1246.2	0.857056
1249.09	0.14093
1251.99	0.284348
1254.88	0.480453
1257.77	0.002762
1260.66	0.897949
1263.56	1.29137
1266.45	1.37044
1269.34	0.339661
1272.24	1.47116
1275.13	0.860855
1278.02	0.494629
1280.91	1.84433
1283.81	0.043259
1286.7	1.01431
1289.59	0.852295
1292.48	0.467697
1295.38	0.011566
1298.27	0.927002
1301.16	0.041397
