Measurement: Raman, 785 nm, unoriented, Raman Data Processed
Mineral: Jokokuite
Rruff sample: R070102
Ideal chemistry: Mn^2+^SO_4_5H_2_O
Locality: Jokoku mine, Hokkaido, Japan
Source: Michael Scott
Description: Pale pink to colorless effluorescent grains
Raman shift (cm-1)	intensity
117.453	0
120.346	1.52287
123.239	2.57571
126.131	50.3787
129.024	146.86
131.917	169.375
134.809	169.266
137.702	85.7659
140.595	71.179
143.487	142.559
146.38	219.241
149.273	280.327
152.166	254.51
155.058	181.206
157.951	119.275
160.844	98.2697
163.736	90.3273
166.629	88.5801
169.522	90.5943
172.414	111.292
175.307	129.482
178.2	169.398
181.093	221.527
183.985	319.701
186.878	427.772
189.771	546.815
192.663	674.511
195.556	753.924
198.449	847.085
201.341	927.556
204.234	910.992
207.127	866.587
210.019	798.584
212.912	706.74
215.805	596.803
218.698	448.884
221.59	322.517
224.483	208.28
227.376	101.042
230.268	38.9573
233.161	15.6498
236.054	3.49823
238.946	19.1121
241.839	35.1304
244.732	108.633
247.625	198.727
250.517	309.256
253.41	458.964
256.303	630.334
259.195	844.189
262.088	938.083
264.981	899.892
267.873	658.792
270.766	423.849
273.659	277.849
276.552	174.623
279.444	149.988
282.337	84.5276
285.23	93.343
288.122	84.6293
291.015	60.6304
293.908	40.9582
296.8	29.7361
299.693	18.5934
302.586	7.56891
305.479	1.28064
308.371	0.371307
311.264	16.314
314.157	8.36352
317.049	3.37268
319.942	0.873444
322.835	15.3398
325.728	8.53772
328.62	1.17963
331.513	26.3814
334.406	9.85373
337.298	13.9523
340.191	20.128
343.084	8.98923
345.976	31.5523
348.869	10.4717
351.762	30.4453
354.654	30.3971
357.547	16.5128
360.44	41.4927
363.333	21.9004
366.225	8.15933
369.118	16.0206
372.011	13.9778
374.903	13.2264
377.796	18.3322
380.689	7.6618
383.582	5.32657
386.474	8.68179
389.367	6.68756
392.26	11.5663
395.152	26.2051
398.045	9.03903
400.938	32.3041
403.83	85.3402
406.723	217.545
409.616	480.344
412.509	836.891
415.401	1187.71
418.294	1667.13
421.187	2626.88
424.079	3372.2
426.972	2388.94
429.865	986.141
432.757	367.905
435.65	165.566
438.543	86.6725
441.435	45.8964
444.328	26.9474
447.221	23.9587
450.114	43.78
453.006	70.0837
455.899	100.319
458.792	122.999
461.684	176.054
464.577	287.166
467.47	373.33
470.363	508.867
473.255	691.841
476.148	970.273
479.041	1278.64
481.933	1651.73
484.826	2018.04
487.719	2335.25
490.611	2493.9
493.504	2246.96
496.397	1738.17
499.289	1218.19
502.182	855.086
505.075	604.939
507.968	461.509
510.86	298.2
513.753	257.865
516.646	179.198
519.538	130.27
522.431	81.4719
525.324	68.921
528.217	60.2382
531.109	27.3653
534.002	38.7168
536.895	9.44241
539.787	11.5273
542.68	5.02869
545.573	5.20779
548.466	5.13281
551.358	8.16818
554.251	12.2467
557.144	3.00494
560.036	0.163116
562.929	11.497
565.822	13.3953
568.714	1.25589
571.607	15.2793
574.5	7.68527
577.392	3.15497
580.285	27.2842
583.178	16.2027
586.071	42.9856
588.963	57.1942
591.856	75.565
594.749	94.2492
597.641	146.901
600.534	187.744
603.427	302.323
606.319	505.798
609.212	819.402
612.105	1192.44
614.997	1804.8
617.89	2428.17
620.783	2693.75
623.676	2328.39
626.568	1872.47
629.461	1292.6
632.354	792.394
635.246	560.489
638.139	474.7
641.032	511.518
643.924	651.611
646.817	834.894
649.71	1042.13
652.603	1208.35
655.495	1155.36
658.388	903.228
661.281	504.077
664.173	284.262
667.066	174.291
669.959	90.2687
672.851	58.3567
675.744	46.8519
678.637	34.0582
681.53	27.0815
684.422	10.5428
687.315	16.3135
690.208	2.08884
693.1	16.0431
695.993	9.47446
698.886	0.496979
701.779	19.7254
704.671	1.60657
707.564	5.25198
710.457	0.694519
713.349	8.55707
716.242	15.234
719.135	2.08035
722.027	14.2207
724.92	25.8471
727.813	12.0674
730.706	11.4527
733.598	6.42142
736.491	14.2849
739.384	8.30322
742.276	27.374
745.169	18.6847
748.062	2.41626
750.954	42.3581
753.847	16.9905
756.74	7.66116
759.633	12.5778
762.525	13.5558
765.418	9.13452
768.311	5.00546
771.203	3.81259
774.096	2.15222
776.989	7.66989
779.881	18.0757
782.774	11.063
785.667	0.072968
788.559	14.2508
791.452	3.51462
794.345	19.7908
797.238	13.7403
800.13	24.3012
803.023	32.9674
805.916	16.4195
808.808	31.1358
811.701	31.8558
814.594	11.6749
817.486	35.2332
820.379	64.3607
823.272	56.5832
826.165	58.1067
829.057	91.5943
831.95	97.1102
834.843	96.2092
837.735	115.515
840.628	121.779
843.521	135.265
846.413	125.589
849.306	121.564
852.199	125.852
855.092	108.615
857.984	94.9466
860.877	90.4273
863.77	81.8444
866.662	73.5655
869.555	60.5481
872.448	63.9387
875.341	58.4624
878.233	57.4433
881.126	42.7535
884.019	29.622
886.911	32.3986
889.804	30.4787
892.697	42.7184
895.589	32.1873
898.482	22.3518
901.375	30.8677
904.268	38.8745
907.16	19.6653
910.053	32.6
912.946	20.4826
915.838	10.8008
918.731	19.9762
921.624	23.3615
924.516	33.4257
927.409	2.71744
930.302	3.32376
933.194	6.13767
936.087	21.2943
938.98	4.32275
941.873	5.75003
944.765	6.51132
947.658	7.21506
950.551	6.54742
953.443	13.648
956.336	7.23767
959.229	4.95572
962.121	15.5992
965.014	18.779
967.907	9.32565
970.8	2.20209
973.692	8.54523
976.585	21.7571
979.478	38.1526
982.37	79.8924
985.263	133.262
988.156	164.803
991.048	261.671
993.941	362.054
996.834	541.12
999.727	764.74
1002.62	1173.6
1005.51	1866.09
1008.4	3068.78
1011.3	5135.38
1014.19	7919.13
1017.08	11220.3
1019.98	13781.5
1022.87	13021.9
1025.76	9383.28
1028.65	5412.35
1031.55	2798.16
1034.44	1472.09
1037.33	816.184
1040.22	445.209
1043.12	284.658
1046.01	168.612
1048.9	116.604
1051.8	83.2399
1054.69	80.2482
1057.58	102.157
1060.47	129.162
1063.37	229.206
1066.26	377.188
1069.15	535.472
1072.04	834.225
1074.94	1126.09
1077.83	1492.6
1080.72	1782.68
1083.62	2014.63
1086.51	2103.76
1089.4	2182.87
1092.29	2060.39
1095.19	1801.11
1098.08	1396.95
1100.97	917.694
1103.86	549.261
1106.76	360.016
1109.65	216.106
1112.54	117.532
1115.43	94.0498
1118.33	60.5152
1121.22	21.9156
1124.11	19.5323
1127.01	13.3982
1129.9	0.082458
1132.79	1.74133
1135.68	10.1039
1138.58	21.133
1141.47	1.62173
1144.36	8.89172
1147.25	5.44992
1150.15	7.90973
1153.04	18.5913
1155.93	18.2507
1158.83	11.2865
1161.72	36.6547
1164.61	57.2397
1167.5	65.7353
1170.4	82.499
1173.29	128.485
1176.18	220.377
1179.07	352.418
1181.97	570.045
1184.86	863.555
1187.75	1190.44
1190.64	1222.64
1193.54	849.949
1196.43	499.058
1199.32	268.033
1202.22	175.201
1205.11	125.828
1208	87.1165
1210.89	47.3152
1213.79	52.4236
1216.68	48.849
1219.57	48.7734
1222.46	35.9276
1225.36	24.7898
1228.25	20.4382
1231.14	21.6493
1234.04	34.3357
1236.93	30.146
1239.82	15.3322
