Measurement: Raman, 532 nm, unoriented, Raman Data Processed
Mineral: Jokokuite
Rruff sample: R070102
Ideal chemistry: Mn^2+^SO_4_5H_2_O
Locality: Jokoku mine, Hokkaido, Japan
Source: Michael Scott
Description: Pale pink to colorless effluorescent grains
Raman shift (cm-1)	intensity
133.79	0
137.165	13.1954
140.54	34.568
143.915	63.3487
147.29	85.7224
150.664	133.326
154.039	101.4
157.414	42.0475
160.789	2.97125
164.164	13.2528
167.538	22.2354
170.913	54.8072
174.288	120.432
177.663	237.422
181.038	382.13
184.412	581.156
187.787	787.921
191.162	967.173
194.537	1154.65
197.912	1306.03
201.286	1364.66
204.661	1325.55
208.036	1283.97
211.411	1114.89
214.786	968.136
218.161	726.217
221.535	493.485
224.91	289.306
228.285	147.923
231.66	96.9101
235.035	101.09
238.41	116.776
241.784	201.575
245.159	324.25
248.534	578.778
251.909	842.417
255.284	1148.61
258.658	1488.77
262.033	1617.67
265.408	1342.4
268.783	873.812
272.158	512.904
275.532	345.504
278.907	250.807
282.282	197.929
285.657	189.648
289.032	146.576
292.406	118.621
295.781	92.9064
299.156	39.3054
302.531	35.9995
305.906	3.36182
309.281	0.152161
312.655	2.0777
316.03	3.50476
319.405	6.16663
322.78	7.33087
326.155	3.40875
329.529	5.69055
332.904	11.7416
336.279	7.01843
339.654	29.9907
343.029	14.4928
346.404	27.949
349.778	23.5046
353.153	36.4319
356.528	31.035
359.903	11.5587
363.278	22.1136
366.652	30.4994
370.027	19.6276
373.402	9.62415
376.777	4.14685
380.152	3.83765
383.526	6.40375
386.901	8.24793
390.276	16.7764
393.651	0.407898
397.026	7.64325
400.401	41.0607
403.775	97.2443
407.15	312.793
410.525	812.194
413.9	1537.34
417.275	2641.46
420.649	3784.64
424.024	4746.8
427.399	2734.91
430.774	892.781
434.149	315.332
437.524	141.984
440.898	70.2206
444.273	59.7097
447.648	85.2261
451.023	104.028
454.398	174.798
457.772	269.868
461.147	386.055
464.522	588.582
467.897	870.368
471.272	1251.74
474.647	1799.05
478.021	2526.66
481.396	3354.69
484.771	4141.57
488.146	4631.82
491.521	4324.92
494.895	3351.09
498.27	2234.71
501.645	1509.56
505.02	1033.37
508.395	737.872
511.769	517.562
515.144	345.554
518.519	266.579
521.894	189.642
525.269	122.238
528.644	95.519
532.018	80.8785
535.393	31.9403
538.768	20.7234
542.143	8.12109
545.518	19.1174
548.892	12.7868
552.267	1.66681
555.642	26.9373
559.017	15.6692
562.392	3.91632
565.766	11.3001
569.141	3.64612
572.516	15.7822
575.891	9.88934
579.266	23.1133
582.64	48.7576
586.015	96.559
589.39	109.577
592.765	170.864
596.14	265.571
599.514	407.625
602.889	644.42
606.264	1171.7
609.639	2116.59
613.014	3254.02
616.389	4436.75
619.763	5220.58
623.138	4192.15
626.513	3131.03
629.888	2027.67
633.263	1227.77
636.638	981.368
640.012	1038.77
643.387	1374.22
646.762	1765.66
650.137	2088.65
653.512	2150.73
656.886	1623.94
660.261	927.8
663.636	490.102
667.011	233.479
670.386	141.418
673.76	85.3824
677.135	55.3019
680.51	32.5898
683.885	15.0588
687.26	10.4047
690.635	16.2508
694.009	3.79926
697.384	9.15076
700.759	8.54974
704.134	10.7775
707.509	21.5615
710.883	16.7284
714.258	13.1962
717.633	12.8845
721.008	11.5735
724.383	7.33307
727.758	5.77039
731.132	23.9716
734.507	15.9058
737.882	20.1981
741.257	20.4734
744.631	13.766
748.006	0.306946
751.381	16.5345
754.756	2.79944
758.131	2.85992
761.506	2.88281
764.88	7.42432
768.255	8.87524
771.63	10.4513
775.005	17.2118
778.38	29.893
781.755	8.88196
785.129	2.79217
788.504	17.8128
791.879	33.7344
795.254	17.8227
798.629	14.1087
802.003	57.3076
805.378	64.8453
808.753	79.9445
812.128	72.8607
815.503	102.575
818.877	126.543
822.252	132.99
825.627	156.512
829.002	186.072
832.377	205.516
835.751	272.006
839.126	283.804
842.501	323.625
845.876	310.513
849.251	299.891
852.626	249.513
856	216.217
859.375	191.486
862.75	180.405
866.125	131.154
869.5	134.544
872.875	119.689
876.249	77.4045
879.624	91.931
882.999	76.9872
886.374	75.6409
889.749	82.7553
893.123	95.241
896.498	88.3421
899.873	103.997
903.248	75.3047
906.623	97.0768
909.997	92.2291
913.372	79.9311
916.747	76.6379
920.122	46.0866
923.497	52.4229
926.871	60.0207
930.246	44.5465
933.621	30.7555
936.996	28.0311
940.371	29.5698
943.745	23.5028
947.12	3.47937
950.495	23.4238
953.87	10.9695
957.245	12.8276
960.62	28.6387
963.994	21.698
967.369	0.500244
970.744	24.4905
974.119	63.307
977.494	131.838
980.869	224.483
984.243	316.371
987.618	502.235
990.993	723.322
994.368	1110.84
997.743	1661.62
1001.12	2595.07
1004.49	4300.57
1007.87	7842.37
1011.24	14231.6
1014.62	23320.7
1017.99	31754.4
1021.37	33733.4
1024.74	25602.4
1028.12	14569.8
1031.49	7007.48
1034.87	3393.03
1038.24	1781.83
1041.62	978.694
1044.99	552.161
1048.37	316.35
1051.74	200.287
1055.11	238.733
1058.49	303.411
1061.86	524.131
1065.24	888.216
1068.61	1440.15
1071.99	2280.34
1075.36	3337.53
1078.74	4327.78
1082.11	5246.89
1085.49	5826.25
1088.86	6029.94
1092.24	5654.67
1095.61	4520.56
1098.99	3029.6
1102.36	1841.62
1105.74	1063
1109.11	644.691
1112.49	371.515
1115.86	203.427
1119.24	97.5945
1122.61	27.1185
1125.98	11.371
1129.36	30.369
1132.73	18.9469
1136.11	51.3857
1139.48	25.9482
1142.86	36.6649
1146.23	12.0641
1149.61	18.4545
1152.98	39.3923
1156.36	49.0944
1159.73	75.6731
1163.11	126.601
1166.48	211.184
1169.86	311.082
1173.23	491.779
1176.61	867.13
1179.98	1580.82
1183.36	2615.78
1186.73	3584.75
1190.11	3473.03
1193.48	2257.26
1196.86	1149.24
1200.23	615.567
1203.61	366.068
1206.98	239.644
1210.36	176.148
1213.73	152.181
1217.11	113.094
1220.48	88.7449
1223.86	85.1732
1227.23	67.1677
1230.61	60.616
1233.98	53.2465
1237.35	17.7236
1240.73	18.0994
1244.1	21.6382
1247.48	24.9725
1250.85	49.1988
1254.23	39.4915
1257.6	43.7716
1260.98	25.2989
1264.35	15.1517
1267.73	4.70093
1271.1	12.0558
1274.48	6.44983
1277.85	8.37933
1281.23	7.22021
1284.6	28.1972
1287.98	9.1994
1291.35	21.4889
1294.73	26.9296
1298.1	37.185
1301.48	42.6698
1304.85	2.03571
1308.22	0
