Measurement: Raman, 780 nm, unoriented, Raman Data Processed
Mineral: Jonesite
Rruff sample: R070735
Ideal chemistry: KBa_2_Ti_2_(Si_5_Al)O_18_nH_2_O
Locality: Dallas Gem Mine (Gem Mine; Benitoite Mine), New Idria District, San Benito Co., California, USA
Source: Michael Scott
Description: Rosettes of colorless blades associated with reddish brown neptunite
Measured chemistry: (K_0.84_Na_0.16_)_Σ=1_Ba_2.00_Ti_2.00_(Si_5.00_Al_1.00_)O_18_·3.5H_2_O; H_2_O estimated by difference
Raman shift (cm-1)	intensity
161.95	0
164.842	69.6738
167.735	59.5996
170.628	16.8418
173.52	121.635
176.413	263.316
179.306	343.022
182.199	311.299
185.091	343.58
187.984	392.902
190.877	752.674
193.769	601.664
196.662	641.746
199.555	954.24
202.447	1059.35
205.34	1155.73
208.233	1014.82
211.126	835.592
214.018	706.307
216.911	370.357
219.804	358.596
222.696	160.863
225.589	22.8105
228.482	55.293
231.375	99.2207
234.267	95.5147
237.16	40.1836
240.053	12.1797
242.945	35.4717
245.838	54.625
248.731	90.0527
251.623	136.159
254.516	225.032
257.409	484.332
260.301	645.634
263.194	1043.23
266.087	1388.5
268.98	1774.73
271.872	2262.53
274.765	2679.67
277.658	3072.53
280.55	3096.84
283.443	2632.54
286.336	2330.8
289.228	1972.45
292.121	1658.7
295.014	1530.02
297.907	1254.51
300.799	961.336
303.692	770.644
306.585	672.597
309.477	770.948
312.37	863.575
315.263	966.518
318.156	979.325
321.048	693.82
323.941	386.911
326.834	252.852
329.726	126.785
332.619	114.219
335.512	119.429
338.404	133.52
341.297	140.584
344.19	191.94
347.082	420.315
349.975	562.389
352.868	819.398
355.761	919.096
358.653	1002.81
361.546	880.571
364.439	828.457
367.331	780.976
370.224	591.691
373.117	442.228
376.01	223.33
378.902	116.182
381.795	25.626
384.688	60.7764
387.58	87.4307
390.473	3.24414
393.366	31.2188
396.258	145.648
399.151	203.106
402.044	226.369
404.937	264.504
407.829	403.107
410.722	548.021
413.615	547.43
416.507	725.871
419.4	774.703
422.293	741.082
425.185	872.646
428.078	996.547
430.971	923.992
433.863	1015.83
436.756	965.268
439.649	927.936
442.542	840.676
445.434	874.488
448.327	623.709
451.22	723.385
454.112	569.328
457.005	505.834
459.898	530.481
462.791	380.041
465.683	496.887
468.576	394.059
471.469	290.565
474.361	266.772
477.254	315.15
480.147	251.736
483.039	166.859
485.932	304.846
488.825	278.856
491.717	248.299
494.61	544.988
497.503	490.416
500.396	465.859
503.288	485.029
506.181	654.16
509.074	233.768
511.966	193.16
514.859	54.6426
517.752	118.164
520.644	4.82422
523.537	111.152
526.43	160.996
529.323	211.262
532.215	190.041
535.108	134.346
538.001	86.1816
540.893	139.772
543.786	112.547
546.679	178.402
549.572	236.417
552.464	285.606
555.357	265.079
558.25	213.653
561.142	165.041
564.035	164.092
566.928	104.522
569.82	92.7266
572.713	34.9209
575.606	61.4971
578.499	386.91
581.391	45.6807
584.284	117.236
587.177	105.334
590.069	128.09
592.962	222.44
595.855	276.042
598.747	398.324
601.64	442.123
604.533	377.955
607.426	369.476
610.318	312.327
613.211	171.524
616.104	232.647
618.996	32.1934
621.889	179.269
624.782	59.9551
627.674	18.2002
630.567	19.1855
633.46	9.02246
636.352	1.16406
639.245	11.0732
642.138	85.5469
645.031	74.5703
647.923	147.557
650.816	151.194
653.709	214.224
656.601	358.962
659.494	464.318
662.387	549.15
665.279	681.314
668.172	787.238
671.065	818.091
673.958	739.356
676.85	696.108
679.743	443.753
682.636	325.225
685.528	187.264
688.421	115.336
691.314	220.964
694.207	150.597
697.099	50.5391
699.992	57.251
702.885	39.1387
705.777	113.999
708.67	30.9512
711.563	87.6211
714.455	60.9912
717.348	82.4941
720.241	43.7881
723.134	67.4121
726.026	96.1426
728.919	41.5176
731.812	182.366
734.704	223.963
737.597	290.893
740.49	368.959
743.382	559.238
746.275	627.893
749.168	645.562
752.061	594.93
754.953	547.289
757.846	397.257
760.739	254.367
763.631	264.388
766.524	233.918
769.417	149.89
772.309	165.595
775.202	177.683
778.095	124.766
780.987	203.81
783.88	154.087
786.773	93.5039
789.666	32.1279
792.558	14.791
795.451	13.5859
798.344	115.458
801.236	10.1484
804.129	15.6387
807.022	245.24
809.914	559.688
812.807	820.208
815.7	661.348
818.593	579.926
821.485	685.069
824.378	948.536
827.271	1149.77
830.163	1338.38
833.056	1368.85
835.949	1341.14
838.841	1169.97
841.734	1472.64
844.627	1971.93
847.519	2848.62
850.412	4350.35
853.305	6588.84
856.198	8717.4
859.09	10543.3
861.983	11398
864.876	9484.97
867.768	6464.67
870.661	3900.48
873.554	2240.93
876.447	1313.74
879.339	679.076
882.232	319.698
885.125	367.274
888.017	501.924
890.91	770.253
893.803	826.244
896.695	750.161
899.588	492.663
902.481	324.698
905.374	68.3047
908.266	130.86
911.159	42.919
914.052	102.051
916.944	223.35
919.837	594.743
922.73	1149.03
925.622	1286.28
928.515	1547.1
931.408	1570.12
934.301	1535.62
937.193	1478.23
940.086	1392.38
942.979	1271.52
945.871	1120.03
948.764	1181.78
951.657	1206.53
954.549	1222.96
957.442	1221.7
960.335	1282.34
963.227	1135.49
966.12	1071.77
969.013	850.526
971.906	721.505
974.798	585.22
977.691	403.909
980.584	243.243
983.476	150.717
986.369	114.105
989.262	7.32227
992.154	9.66699
995.047	45.2744
997.94	50.0215
1000.83	15.4815
1003.73	18.0234
1006.62	35.2002
1009.51	74.9717
1012.4	10.1191
1015.3	9.43652
1018.19	37.6406
1021.08	102.438
1023.97	256.788
1026.87	248.231
1029.76	320.75
1032.65	476.354
1035.55	588.741
1038.44	583.168
1041.33	653.686
1044.22	601.825
1047.12	548.568
1050.01	472.013
1052.9	451.769
1055.79	439.962
1058.69	362.315
1061.58	468.351
1064.47	423.094
1067.37	392.721
1070.26	469.363
1073.15	574.927
1076.04	589.881
1078.94	596.602
1081.83	644.422
1084.72	708.148
1087.61	686.923
1090.51	799.782
1093.4	775.284
1096.29	764.941
1099.18	773.017
1102.08	886.893
1104.97	736.873
1107.86	819.126
1110.76	968.415
1113.65	859.934
1116.54	787.91
1119.43	622.934
1122.33	377.983
1125.22	235.841
1128.11	266.559
1131	170.779
1133.9	165.46
1136.79	74.7393
1139.68	31.9395
1142.58	2.29785
1145.47	112.159
1148.36	240.065
1151.25	213.445
1154.15	151.672
1157.04	230.381
1159.93	353.363
1162.82	330.518
1165.72	297.441
1168.61	357.391
1171.5	235.502
1174.39	285.434
1177.29	227.068
1180.18	188.383
1183.07	167.691
1185.96	236.602
1188.86	127.773
1191.75	176.547
1194.64	62.9141
1197.54	1.46094
1200.43	92.8535
1203.32	31.1406
