Measurement: Raman, 532 nm, unoriented, Raman Data Processed
Mineral: Jonesite
Rruff sample: R070735
Ideal chemistry: KBa_2_Ti_2_(Si_5_Al)O_18_nH_2_O
Locality: Dallas Gem Mine (Gem Mine; Benitoite Mine), New Idria District, San Benito Co., California, USA
Source: Michael Scott
Description: Rosettes of colorless blades associated with reddish brown neptunite
Measured chemistry: (K_0.84_Na_0.16_)_Σ=1_Ba_2.00_Ti_2.00_(Si_5.00_Al_1.00_)O_18_·3.5H_2_O; H_2_O estimated by difference
Raman shift (cm-1)	intensity
168.821	0
171.714	111.232
174.607	50.3809
177.499	113.639
180.392	204.682
183.285	323.317
186.177	379.574
189.07	432.521
191.963	501.838
194.855	554.713
197.748	677.211
200.641	775.209
203.534	936.518
206.426	1249.66
209.319	969.915
212.212	727.879
215.104	537.308
217.997	273.682
220.89	196.512
223.782	127.139
226.675	149.22
229.568	59.3442
232.46	26.9678
235.353	19.522
238.246	86.3691
241.138	67.1875
244.031	70.4824
246.924	39.7529
249.817	44.3447
252.709	82.019
255.602	202.814
258.495	342.856
261.387	578.601
264.28	761.76
267.173	1120.65
270.066	1443.91
272.958	1808.71
275.851	2222.6
278.744	2371.53
281.636	2265.28
284.529	1949.75
287.422	1694.77
290.314	1524.88
293.207	1477.66
296.1	1471.34
298.993	1403.72
301.885	1265.49
304.778	1082.11
307.671	973.478
310.563	1045.28
313.456	1111.47
316.349	1212.24
319.241	1071.33
322.134	759.519
325.027	522.977
327.92	516.255
330.812	473.808
333.705	586.699
336.598	650.184
339.49	737.03
342.383	802.076
345.276	898.949
348.168	1070.06
351.061	1402.24
353.954	1765.96
356.846	1697.01
359.739	1681.45
362.632	1510.97
365.525	1541.55
368.417	1336.96
371.31	1001.04
374.203	776.611
377.095	486.497
379.988	258.062
382.881	130.199
385.774	24.603
388.666	10.0376
391.559	3.2915
394.452	57.3438
397.344	29.2637
400.237	138.587
403.13	39.8662
406.022	166.97
408.915	328.14
411.808	577.773
414.7	893.519
417.593	1089.37
420.486	864.806
423.379	503.994
426.271	358.68
429.164	127.47
432.057	189.061
434.949	232.333
437.842	224.974
440.735	46.8901
443.627	13.6987
446.52	3.29199
449.413	45.6382
452.306	40.875
455.198	14.5762
458.091	17.9019
460.984	25.4102
463.876	62.5117
466.769	94.0083
469.662	72.8086
472.555	99.4849
475.447	116.573
478.34	214.277
481.233	214.437
484.125	282.379
487.018	324.601
489.911	333.716
492.803	372.502
495.696	532.186
498.589	660.799
501.481	746.964
504.374	676.655
507.267	548.861
510.16	343.593
513.052	192.362
515.945	45.2124
518.838	103.518
521.73	13.0151
524.623	31.3989
527.516	106.499
530.408	171.394
533.301	183.625
536.194	157.713
539.087	103.919
541.979	165.812
544.872	276.487
547.765	387.002
550.657	505.162
553.55	497.068
556.443	552.803
559.335	528.755
562.228	546.081
565.121	466.564
568.014	411.196
570.906	486.28
573.799	403.052
576.692	550.796
579.584	454.732
582.477	479.067
585.37	614.949
588.263	661.088
591.155	789.87
594.048	902.3
596.941	1068.11
599.833	1104.76
602.726	998.401
605.619	952.478
608.511	765.323
611.404	603.939
614.297	496.47
617.189	415.78
620.082	352.415
622.975	273.477
625.868	299.298
628.76	129.702
631.653	140.77
634.546	233.434
637.438	87.2666
640.331	136.084
643.224	150.384
646.116	181.691
649.009	214.727
651.902	278.029
654.795	332.683
657.687	369.238
660.58	456.86
663.473	545.335
666.365	652.56
669.258	734.892
672.151	678.692
675.043	588.586
677.936	466.296
680.829	391.743
683.721	232.519
686.614	135.052
689.507	60.3359
692.4	10.7368
695.292	34.2607
698.185	29.7783
701.078	47.3574
703.97	27.8037
706.863	23.8896
709.756	33.9775
712.649	107.283
715.541	26.5898
718.434	5.70264
721.327	180.784
724.219	2.35498
727.112	28.4849
730.005	89.5478
732.897	123.53
735.79	165.101
738.683	267.163
741.576	410.11
744.468	551.101
747.361	597.184
750.254	589.821
753.146	507.883
756.039	401.373
758.932	379.916
761.824	206.181
764.717	251.668
767.61	205.401
770.503	141.618
773.395	263.441
776.288	104.211
779.181	34.7827
782.073	173.759
784.966	82.4644
787.859	158.895
790.751	2.00732
793.644	7.51221
796.537	94.4038
799.429	19.585
802.322	155.621
805.215	415.92
808.108	984.794
811	1233.38
813.893	1085.51
816.786	519.635
819.678	503.225
822.571	505.267
825.464	967.12
828.356	984.139
831.249	1129.91
834.142	1092.81
837.034	1108.09
839.927	1108.15
842.82	1328.6
845.713	1911.89
848.605	3042.52
851.498	4921.6
854.391	6933
857.283	9365.1
860.176	11160.4
863.069	11368.9
865.962	8741.29
868.854	5482.24
871.747	3026.76
874.64	1489.85
877.532	735.473
880.425	204.333
883.318	6.37061
886.21	93.8252
889.103	348.285
891.996	697.85
894.889	861.686
897.781	814.727
900.674	374.614
903.567	83.251
906.459	188.343
909.352	161.857
912.245	29.2246
915.138	149.113
918.03	489.455
920.923	1008.88
923.816	1502.1
926.708	1979.72
929.601	2234.12
932.494	2282.66
935.386	2183.73
938.279	1981.3
941.172	1818.11
944.064	1674.35
946.957	1584.89
949.85	1583.53
952.743	1566.66
955.635	1706.79
958.528	1722.88
961.421	1718.13
964.313	1739.1
967.206	1519.45
970.099	1353.88
972.991	1100.44
975.884	840.743
978.777	671.188
981.67	523.281
984.562	349.423
987.455	305.914
990.348	218.235
993.24	201.586
996.133	119.348
999.026	86.395
1001.92	45.437
1004.81	31.7983
1007.7	110.043
1010.6	67.1641
1013.49	78.8384
1016.38	17.6357
1019.27	254.829
1022.17	231.301
1025.06	100.207
1027.95	145.474
1030.85	221.487
1033.74	301.106
1036.63	448.21
1039.52	529.803
1042.42	545.717
1045.31	493.068
1048.2	497.714
1051.09	502.958
1053.99	503.561
1056.88	510.776
1059.77	515.358
1062.66	538.759
1065.56	554.316
1068.45	597.165
1071.34	624.025
1074.24	719.972
1077.13	829.979
1080.02	869.753
1082.91	922.961
1085.81	1020.98
1088.7	1049.96
1091.59	1134.65
1094.48	1159.02
1097.38	1272.14
1100.27	1313.02
1103.16	1262.14
1106.06	1352.53
1108.95	1419.15
1111.84	1526.62
1114.73	1530.22
1117.63	1350.65
1120.52	1054.56
1123.41	788.639
1126.3	597.025
1129.2	453.573
1132.09	423.111
1134.98	285.323
1137.88	248.116
1140.77	166.563
1143.66	215.448
1146.55	318.806
1149.45	400.863
1152.34	486.521
1155.23	496.925
1158.12	549.402
1161.02	481.353
1163.91	456.695
1166.8	333.269
1169.69	233.037
1172.59	248.874
1175.48	177.769
1178.37	131.867
1181.27	130.344
1184.16	125.177
1187.05	115.471
1189.94	37.4453
1192.84	3.18506
1195.73	17.273
1198.62	46.5532
1201.52	25.3467
1204.41	46.5674
1207.3	33.6196
1210.19	4.72607
1213.09	55.9243
1215.98	20.5464
1218.87	25.7056
1221.76	195.094
1224.66	21.3877
1227.55	161.738
1230.44	139.792
1233.33	213.399
1236.23	213.32
1239.12	333.037
1242.01	333.647
1244.9	397.159
1247.8	279.876
1250.69	273.939
1253.58	205.619
1256.48	173.274
1259.37	131.523
1262.26	146.523
1265.15	204.402
1268.05	189.1
1270.94	217.026
1273.83	204.171
1276.72	203.225
1279.62	139.594
1282.51	0.324707
1285.4	22.6182
