Measurement: Raman, 780 nm, unoriented, Raman Data Processed
Mineral: Jonesite
Rruff sample: R080005
Ideal chemistry: KBa_2_Ti_2_(Si_5_Al)O_18_nH_2_O
Locality: Langban, Filipstad, Varmland, Sweden
Source: Michael Scott
Description: Colorless blades associated with metallic haussmanite and calcite.
Raman shift (cm-1)	intensity
160.56	0
163.453	3.9603
166.345	4.74684
169.238	0.25087
172.131	14.5709
175.024	13.4432
177.916	25.8602
180.809	31.5286
183.702	42.3212
186.594	48.3512
189.487	57.116
192.38	54.851
195.272	65.504
198.165	64.9655
201.058	68.2543
203.951	64.6223
206.843	57.4787
209.736	52.4917
212.629	41.0143
215.521	28.1859
218.414	27.153
221.307	15.9222
224.199	11.8172
227.092	11.2926
229.985	0.520493
232.877	0.770264
235.77	3.92851
238.663	2.16841
241.556	2.09064
244.448	2.31094
247.341	6.03589
250.234	10.0587
253.126	21.2068
256.019	39.2132
258.912	59.3911
261.805	75.3164
264.697	97.1137
267.59	115.316
270.483	130.457
273.375	149.01
276.268	158.192
279.161	150.979
282.053	138.287
284.946	120.382
287.839	104.213
290.731	96.5369
293.624	87.5809
296.517	84.0769
299.41	73.1514
302.302	66.9764
305.195	60.1031
308.088	60.1415
310.98	60.6549
313.873	59.498
316.766	58.6215
319.659	46.484
322.551	37.5289
325.444	31.3002
328.337	33.5659
331.229	33.1317
334.122	39.1754
337.015	42.4269
339.907	46.8978
342.8	62.6386
345.693	79.6828
348.586	102.448
351.478	128.433
354.371	153.205
357.264	173.941
360.156	182.854
363.049	180.905
365.942	160.401
368.834	126.701
371.727	88.6117
374.62	52.7194
377.512	27.6148
380.405	10.4003
383.298	2.27914
386.191	2.05035
389.083	3.48163
391.976	4.9614
394.869	2.07858
397.761	1.53479
400.654	1.15144
403.547	4.9894
406.44	4.63576
409.332	7.83322
412.225	7.52333
415.118	8.90585
418.01	12.2715
420.903	4.78828
423.796	5.89086
426.688	3.48563
429.581	5.01734
432.474	3.00539
435.366	7.0221
438.259	8.15038
441.152	6.40832
444.045	5.00703
446.937	1.16782
449.83	1.83597
452.723	0.519058
455.615	1.52039
458.508	2.84815
461.401	1.45113
464.293	6.40898
467.186	9.28693
470.079	13.2827
472.972	14.8659
475.864	18.8112
478.757	21.0825
481.65	20.3703
484.542	26.2083
487.435	23.7047
490.328	23.1693
493.221	21.6907
496.113	19.7711
499.006	21.898
501.899	20.7263
504.791	20.9688
507.684	21.0792
510.577	16.585
513.469	19.5635
516.362	16.3395
519.255	19.001
522.148	19.3327
525.04	20.0713
527.933	19.1897
530.826	12.3891
533.718	8.28257
536.611	8.37495
539.504	11.0988
542.396	3.31344
545.289	4.59142
548.182	1.76815
551.074	2.82904
553.967	1.32393
556.86	0.067856
559.753	2.71067
562.645	1.61584
565.538	1.23152
568.431	1.37401
571.323	2.12108
574.216	3.1884
577.109	1.8191
580.001	6.08481
582.894	0.372658
585.787	5.66194
588.68	2.88917
591.572	3.9211
594.465	2.58377
597.358	4.52837
600.25	3.20562
603.143	4.397
606.036	1.19134
608.928	2.01722
611.821	1.05983
614.714	2.44829
617.607	0.421288
620.499	0.146049
623.392	0.902603
626.285	0.769794
629.177	0.260551
632.07	3.15426
634.963	3.30073
637.856	1.85443
640.748	2.14614
643.641	3.93014
646.534	4.81506
649.426	11.3585
652.319	13.0986
655.212	19.2238
658.104	22.1145
660.997	28.8302
663.89	34.8094
666.783	35.7938
669.675	36.0902
672.568	32.1687
675.461	27.6253
678.353	18.4795
681.246	13.472
684.139	6.16596
687.031	4.42075
689.924	3.26736
692.817	1.21999
695.71	1.59479
698.602	7.14442
701.495	4.88164
704.388	8.15817
707.28	5.31812
710.173	6.50891
713.066	5.8358
715.958	8.12932
718.851	3.3831
721.744	6.7734
724.636	7.82741
727.529	10.1362
730.422	14.1946
733.315	20.2785
736.207	22.5262
739.1	32.854
741.993	35.9542
744.885	35.2028
747.778	36.0686
750.671	32.6268
753.563	28.5929
756.456	25.0736
759.349	21.1022
762.242	14.5003
765.134	17.9465
768.027	11.7889
770.92	14.2095
773.812	10.0318
776.705	3.86626
779.598	4.08088
782.49	0.974426
785.383	1.83787
788.276	0.406471
791.169	3.18531
794.061	2.32169
796.954	2.2329
799.847	2.55882
802.739	1.65144
805.632	0.03447
808.525	7.34718
811.418	16.0366
814.31	22.333
817.203	32.3355
820.096	45.5915
822.988	56.7478
825.881	67.6
828.774	77.2668
831.666	80.6445
834.559	84.4439
837.452	84.5866
840.345	101.495
843.237	139.46
846.13	197.411
849.023	275.1
851.915	364.046
854.808	426.923
857.701	469.686
860.593	460.274
863.486	385.573
866.379	262.317
869.271	160.317
872.164	89.0122
875.057	52.747
877.95	32.0735
880.842	25.3064
883.735	24.1102
886.628	22.1759
889.52	32.2458
892.413	30.433
895.306	25.1335
898.198	18.9376
901.091	10.1668
903.984	3.01759
906.877	4.48761
909.769	11.2023
912.662	22.6367
915.555	34.4931
918.447	49.5187
921.34	60.1019
924.233	71.3565
927.125	76.8332
930.018	79.1454
932.911	75.6893
935.804	66.9494
938.696	63.0492
941.589	55.3633
944.482	56.7814
947.374	50.076
950.267	51.6157
953.16	46.7578
956.053	48.4237
958.945	46.4625
961.838	43.2192
964.731	34.7264
967.623	28.9559
970.516	23.1439
973.409	17.5138
976.301	11.4217
979.194	0.937431
982.087	1.53543
984.98	0.508247
987.872	1.07227
990.765	1.4328
993.658	0.684986
996.55	2.98634
999.443	1.73883
1002.34	1.0059
1005.23	2.81412
1008.12	4.70765
1011.01	1.98404
1013.91	3.05751
1016.8	3.7813
1019.69	7.62886
1022.59	8.85788
1025.48	9.63905
1028.37	11.0577
1031.26	14.2327
1034.15	17.5925
1037.05	16.64
1039.94	16.8672
1042.83	17.044
1045.73	14.912
1048.62	16.2594
1051.51	17.0742
1054.4	14.6758
1057.3	11.3254
1060.19	11.3348
1063.08	10.4962
1065.97	9.06758
1068.87	17.2099
1071.76	13.8883
1074.65	12.8189
1077.55	13.5573
1080.44	14.4507
1083.33	13.4521
1086.22	14.2897
1089.12	9.23816
1092.01	8.15736
1094.9	6.68915
1097.8	3.82508
1100.69	5.38331
1103.58	8.32833
1106.47	4.28711
1109.37	2.06566
1112.26	2.18605
1115.15	1.84299
1118.04	2.21529
1120.94	3.91115
1123.83	1.26948
1126.72	0.731709
1129.62	0.050789
1132.51	0.930695
1135.4	2.96241
1138.29	5.33714
1141.18	2.5613
1144.08	5.01047
1146.97	2.23957
1149.86	1.02261
1152.76	0.469349
1155.65	2.13214
1158.54	0.719292
1161.43	3.3851
1164.33	1.06192
1167.22	0.649342
1170.11	3.58131
1173.01	1.23581
1175.9	2.75633
1178.79	1.04005
1181.68	1.20867
1184.58	3.97203
1187.47	3.65263
1190.36	1.28575
1193.25	0.187412
1196.15	5.0383
1199.04	3.02583
1201.93	3.19365
1204.83	2.40964
1207.72	0.673866
1210.61	1.1938
1213.5	1.01731
1216.4	4.7839
1219.29	1.25549
1222.18	1.68001
1225.07	2.31605
1227.97	1.84704
1230.86	3.94135
1233.75	3.4846
1236.64	3.54575
1239.54	1.44831
1242.43	4.21652
1245.32	2.92495
1248.21	1.37098
1251.11	1.45861
1254	2.87742
1256.89	1.21064
1259.79	5.05491
1262.68	2.95492
1265.57	4.40848
1268.46	2.79404
1271.36	0.701561
1274.25	3.83564
1277.14	0.551502
1280.04	0.91037
1282.93	3.03875
1285.82	1.37515
