Measurement: Raman, 532 nm, unoriented, Raman Data Processed
Mineral: Jonesite
Rruff sample: R080005
Ideal chemistry: KBa_2_Ti_2_(Si_5_Al)O_18_nH_2_O
Locality: Langban, Filipstad, Varmland, Sweden
Source: Michael Scott
Description: Colorless blades associated with metallic haussmanite and calcite.
Raman shift (cm-1)	intensity
126.19	0
129.565	5.47583
132.94	0.322144
136.315	2.42975
139.689	8.78149
143.064	2.28986
146.439	14.418
149.814	17.9993
153.189	6.67181
156.564	13.8671
159.938	2.52264
163.313	6.01202
166.688	0.787598
170.063	13.6398
173.438	14.7116
176.812	16.0123
180.187	43.5568
183.562	67.5841
186.937	95.6101
190.312	119.488
193.686	145.969
197.061	172.247
200.436	177.154
203.811	178.759
207.186	165.899
210.561	130.561
213.935	97.7355
217.31	78.85
220.685	50.9789
224.06	24.5445
227.435	18.9188
230.81	16.4325
234.184	6.64227
237.559	8.35132
240.934	7.59595
244.309	7.72656
247.684	3.15875
251.058	9.7298
254.433	32.7788
257.808	65.9719
261.183	117.731
264.558	178.237
267.933	239.483
271.307	309.87
274.682	387.033
278.057	435.637
281.432	417.796
284.807	354.96
288.181	308.241
291.556	279.002
294.931	277.461
298.306	252.135
301.681	213.414
305.055	194.227
308.43	180.199
311.805	198.117
315.18	206.28
318.555	198.244
321.93	135.425
325.304	102.045
328.679	86.818
332.054	98.1967
335.429	109.629
338.804	103.565
342.178	124.876
345.553	127.673
348.928	163.858
352.303	197.125
355.678	216.884
359.053	237.813
362.427	249.65
365.802	255.649
369.177	217.086
372.552	142.966
375.927	70.5027
379.301	22.0436
382.676	3.97443
386.051	9.35425
389.426	14.5167
392.801	1.71094
396.175	13.6406
399.55	24.8013
402.925	35.6227
406.3	54.7084
409.675	75.4934
413.05	109.118
416.424	131.513
419.799	114.257
423.174	60.8667
426.549	31.2716
429.924	22.2111
433.298	23.8812
436.673	22.0865
440.048	20.8455
443.423	15.2521
446.798	2.28155
450.173	4.86841
453.547	0.930542
456.922	1.15942
460.297	3.85083
463.672	6.58594
467.047	7.74951
470.421	19.0645
473.796	23.1882
477.171	36.2272
480.546	41.5815
483.921	43.493
487.296	32.999
490.67	43.1641
494.045	49.1473
497.42	48.2227
500.795	49.6232
504.17	48.627
507.544	53.3427
510.919	55.6093
514.294	51.8648
517.669	51.6215
521.044	57.311
524.418	64.9262
527.793	61.691
531.168	47.5261
534.543	35.9062
537.918	21.9655
541.293	7.80792
544.667	8.86371
548.042	5.90881
551.417	0.509094
554.792	1.00037
558.167	0.241882
561.541	0.760986
564.916	10.658
568.291	9.4079
571.666	8.89233
575.041	12.9155
578.415	6.51886
581.79	12.2886
585.165	16.1119
588.54	14.54
591.915	16.8461
595.29	7.86633
598.664	12.3801
602.039	3.65796
605.414	11.2964
608.789	5.5401
612.164	1.26196
615.538	1.50482
618.913	3.56805
622.288	3.55951
625.663	2.18536
629.038	0.415833
632.413	4.3092
635.787	0.445496
639.162	1.45752
642.537	9.18079
645.912	6.02118
649.287	6.85156
652.662	25.5238
656.036	39.1893
659.411	59.2293
662.786	80.5455
666.161	102.007
669.536	104.287
672.91	96.6473
676.285	75.8018
679.66	59.1075
683.035	25.0951
686.41	15.8458
689.784	1.32867
693.159	11.2815
696.534	8.9967
699.909	9.63574
703.284	17.1622
706.659	22.2337
710.033	28.8658
713.408	30.852
716.783	27.4435
720.158	28.1768
723.533	21.8019
726.907	23.479
730.282	36.852
733.657	51.2322
737.032	80.8566
740.407	113.705
743.782	140.734
747.156	158.282
750.531	154.757
753.906	129.763
757.281	106.894
760.656	95.9218
764.03	83.1577
767.405	71.8652
770.78	58.0063
774.155	41.7687
777.53	37.2183
780.904	27.7408
784.279	13.1329
787.654	7.62061
791.029	5.56262
794.404	12.6373
797.779	10.4531
801.153	13.5446
804.528	6.3548
807.903	10.6455
811.278	41.5374
814.653	73.407
818.028	123.508
821.402	183.935
824.777	253.061
828.152	316.584
831.527	350.484
834.902	359.585
838.276	371.568
841.651	405.592
845.026	542.977
848.401	797.132
851.776	1156.82
855.15	1596.72
858.525	2032.6
861.9	2174.64
865.275	1756.83
868.65	1051.46
872.024	583.076
875.399	313.611
878.774	167.206
882.149	107.701
885.524	106.731
888.899	130.112
892.273	160.392
895.648	157.625
899.023	116.155
902.398	61.6003
905.773	31.5794
909.148	14.4923
912.522	37.578
915.897	76.2623
919.272	143.518
922.647	225.587
926.022	279.752
929.396	322.173
932.771	327.621
936.146	307.532
939.521	272.444
942.896	250.203
946.27	232.065
949.645	230.448
953.02	219.657
956.395	222.263
959.77	215.087
963.144	200.429
966.519	166.132
969.894	131.166
973.269	98.086
976.644	55.9029
980.019	28.8913
983.393	12.5379
986.768	13.4703
990.143	3.54492
993.518	8.05591
996.893	7.13257
1000.27	4.2055
1003.64	8.19934
1007.02	2.64624
1010.39	4.06799
1013.77	11.3627
1017.14	12.2871
1020.52	22.7752
1023.89	24.567
1027.27	30.6378
1030.64	45.5495
1034.02	51.7106
1037.39	58.7404
1040.77	63.1719
1044.14	68.7387
1047.52	60.8644
1050.89	54.7559
1054.27	53.4468
1057.64	50.1252
1061.01	47.7073
1064.39	44.8766
1067.76	41.598
1071.14	46.5756
1074.51	60.66
1077.89	65.0034
1081.26	58.6299
1084.64	49.8903
1088.01	48.302
1091.39	38.4411
1094.76	36.9445
1098.14	28.4277
1101.51	19.515
1104.89	21.4248
1108.26	10.6578
1111.64	11.9452
1115.01	14.1202
1118.39	4.63458
1121.76	2.77234
1125.14	7.68207
1128.51	8.69922
1131.88	1.59369
1135.26	5.1814
1138.63	1.89215
1142.01	2.24774
1145.38	3.77936
1148.76	9.59638
1152.13	6.77667
1155.51	0.257507
1158.88	6.30878
1162.26	0.378601
1165.63	3.36761
1169.01	6.26843
1172.38	0.296326
1175.76	2.68768
1179.13	5.55579
1182.51	3.85681
1185.88	5.09326
1189.26	2.98114
1192.63	1.56934
1196.01	6.72955
1199.38	3.48663
1202.76	2.71985
1206.13	0.745728
1209.51	3.06677
1212.88	7.00971
1216.26	5.35925
1219.63	4.86841
1223.01	0.607849
1226.38	11.8287
1229.76	4.52832
1233.13	3.59522
1236.51	4.30499
1239.88	1.33972
1243.25	7.80408
1246.63	10.6535
1250	9.32611
1253.38	8.01184
1256.75	5.07165
1260.13	10.1564
1263.5	7.45428
1266.88	4.17346
1270.25	7.43768
1273.63	6.7818
1277	9.40161
1280.38	7.59296
1283.75	1.86267
1287.13	10.6021
1290.5	14.0378
1293.88	3.69409
1297.25	3.27582
1300.63	3.84119
1304	0.453857
