Measurement: Raman, 532 nm, unoriented, Raman Data Processed
Mineral: Jorgensenite
Rruff sample: R100009
Ideal chemistry: Na_2_Sr_14_Na_2_Al_12_F_64_(OH)_4_
Locality: Ivigtut, Frederikshab District, South West Greenland
Source: William Pinch
Description: Colorless massive, associated with pyrite, co-type sample
Raman shift (cm-1)	intensity
146.493	0
149.386	56.5718
152.279	17.3377
155.171	28.5151
158.064	128.612
160.957	161.575
163.85	387.029
166.742	479.377
169.635	487.824
172.528	500.631
175.42	502.124
178.313	553.452
181.206	753.848
184.098	895.357
186.991	906.632
189.884	798.62
192.776	535.355
195.669	152.951
198.562	53.3245
201.455	61.9834
204.347	201.184
207.24	453.518
210.133	637.456
213.025	876.025
215.918	934.634
218.811	966.643
221.703	880.921
224.596	784.801
227.489	493.727
230.382	322.741
233.274	271.043
236.167	316.541
239.06	263.037
241.952	117.51
244.845	80.02
247.738	214.274
250.631	469.094
253.523	680.759
256.416	849.709
259.309	787.89
262.201	594.337
265.094	660.511
267.987	766.171
270.879	677.834
273.772	368.81
276.665	133.015
279.558	17.4692
282.45	92.1006
285.343	54.1084
288.236	35.8486
291.128	370.858
294.021	708.227
296.914	1237.79
299.806	1695.77
302.699	1844.83
305.592	2082.76
308.485	2499.55
311.377	2998.44
314.27	3149.69
317.163	2443.52
320.055	1447.98
322.948	691.497
325.841	243.674
328.733	27.3799
331.626	19.4785
334.519	17.8262
337.411	26.2061
340.304	44.7456
343.197	121.534
346.09	308.895
348.982	352.375
351.875	300.055
354.768	295.46
357.66	237.53
360.553	220.52
363.446	110.072
366.339	160.898
369.231	139.358
372.124	243.299
375.017	399.32
377.909	493.841
380.802	764.809
383.695	836.649
386.587	963.562
389.48	1025.11
392.373	744.614
395.265	334.481
398.158	73.1484
401.051	22.4131
403.944	31.3599
406.836	121.37
409.729	249.776
412.622	416.626
415.514	330.825
418.407	286.599
421.3	176.919
424.192	61.0703
427.085	150.86
429.978	135.497
432.871	90.4072
435.763	88.6743
438.656	140.801
441.549	81.1279
444.441	86.1157
447.334	178.439
450.227	160.97
453.12	122.12
456.012	49.6645
458.905	19.937
461.798	27.3403
464.69	44.2563
467.583	48.6401
470.476	23.3032
473.368	9.97363
476.261	101.573
479.154	177.534
482.046	193.8
484.939	340.536
487.832	447.92
490.725	626.556
493.617	955.003
496.51	1292.83
499.403	1848.96
502.295	2646.41
505.188	3615.82
508.081	4831.71
510.974	6251.99
513.866	7668.4
516.759	8577.67
519.652	8621.45
522.544	7766.6
525.437	6538.45
528.33	5498.32
531.222	4658.57
534.115	3807.4
537.008	2966.9
539.9	2102
542.793	1498.68
545.686	1003.1
548.579	680.391
551.471	393.139
554.364	299.172
557.257	162.967
560.149	84.6948
563.042	40.5547
565.935	31.5845
568.827	13.7881
571.72	10.501
574.613	32.7495
577.506	55.2944
580.398	216.034
583.291	396.272
586.184	531.674
589.076	789.594
591.969	946.908
594.862	1122.82
597.755	1164.54
600.647	1172.67
603.54	1060.59
606.433	1030.26
609.325	929.896
612.218	990.926
615.111	982.519
618.003	927.215
620.896	795.13
623.789	647.017
626.682	455.791
629.574	316.458
632.467	178.739
635.36	126.515
638.252	86.4546
641.145	41.9062
644.038	3.20264
646.93	15.956
649.823	9.1294
652.716	20.5776
655.609	20.2456
658.501	28.0088
661.394	46.5132
664.287	17.5545
667.179	14.4463
670.072	43.0185
672.965	22.1186
675.857	6.3833
678.75	28.7075
681.643	16.1011
684.535	70.9394
687.428	43.8862
690.321	76.3931
693.214	39.4619
696.106	73.7178
698.999	6.65283
701.892	94.6724
704.784	68.9868
707.677	49.335
710.57	52.3232
713.462	139.736
716.355	120.954
719.248	59.4878
722.141	76.6348
725.033	69.5474
727.926	91.0132
730.819	51.5215
733.711	96.4482
736.604	47.9434
739.497	50.4849
742.389	31.0674
745.282	102.543
748.175	27.8257
751.068	51.5395
753.96	84.5547
756.853	70.1562
759.746	53.9468
762.638	36.0024
765.531	79.6943
768.424	20.1186
771.317	41.7105
774.209	72.2515
777.102	3.20459
779.995	31.5649
782.887	51.3452
785.78	33.4853
788.673	32.8916
791.565	4.94336
794.458	90.9629
797.351	29.8579
800.244	46.7461
803.136	36.0654
806.029	29.3799
808.922	58.8394
811.814	1.08447
814.707	34.2334
817.6	12.1123
820.492	81.2578
823.385	81.1069
826.278	91.8569
829.17	0.230957
832.063	60.4204
834.956	32.6382
837.849	84.1572
840.741	94.5151
843.634	71.5606
846.527	62.1714
849.419	35.4756
852.312	2.35303
855.205	20.0474
858.097	12.9277
860.99	32.0366
863.883	75.2734
866.776	54.7129
869.668	45.3306
872.561	80.125
875.454	36.8262
878.346	67.0293
881.239	52.7178
884.132	92.3125
887.024	5.34961
889.917	6.57617
892.81	1.37207
895.703	12.1924
898.595	4.26465
901.488	52.1748
904.381	7.55371
907.273	59.7109
910.166	33.1494
913.059	19.8066
915.952	76.1006
918.844	91.0527
921.737	26.9375
924.63	44.2285
927.522	84.75
930.415	61.6045
933.308	94.625
936.2	78.6846
939.093	49.2842
941.986	26.0059
944.879	34.9522
947.771	36.7315
950.664	17.9561
953.557	21.4043
956.449	52.8018
959.342	24.5371
962.235	19.5156
965.127	39.2598
968.02	53.4707
970.913	15.6719
973.806	18.3496
976.698	14.2197
979.591	51.2852
982.484	20.0635
985.376	44.3525
988.269	74.3057
991.162	63.208
994.054	94.3984
996.947	61.581
999.84	104.558
1002.73	9.95801
1005.62	30.209
1008.52	32.1445
1011.41	66.8965
1014.3	54.1328
1017.2	38.3203
1020.09	57.8603
1022.98	45.8457
1025.87	98.1309
1028.77	106.543
1031.66	15.7549
1034.55	71.0342
1037.44	24.0791
1040.34	64.749
1043.23	87.4619
1046.12	81.2686
1049.02	54.4014
1051.91	85.6436
1054.8	75.8623
1057.69	38.1572
1060.59	32.3203
1063.48	78.1309
1066.37	17.9717
1069.27	55.9258
1072.16	40.5283
1075.05	74.293
1077.94	146.074
1080.84	182.231
1083.73	189.369
1086.62	202.562
1089.51	217.635
1092.41	209.893
1095.3	166.912
1098.19	117.618
1101.08	47.3145
1103.98	60.665
1106.87	60.166
1109.76	41.8799
1112.65	55.2588
1115.55	3.26465
1118.44	31.6631
1121.33	22.5732
1124.23	41.9043
1127.12	27.8076
1130.01	26.958
1132.9	72.3467
1135.8	48.3066
1138.69	47.6016
1141.58	59.0645
1144.47	36.2256
1147.37	67.6318
1150.26	51.9893
1153.15	97.8721
1156.05	71.9883
1158.94	0.030273
1161.83	75.6064
1164.72	21.7227
1167.62	9.86523
1170.51	21.9863
1173.4	90.0088
1176.29	132.264
1179.19	61.0244
1182.08	60.7568
1184.97	36.3096
1187.87	95.7305
1190.76	69.5039
1193.65	109.108
1196.54	59.2227
1199.44	104.405
1202.33	60.3809
1205.22	100.767
1208.11	84.5527
1211.01	87.4502
1213.9	44.332
1216.79	91.3613
1219.68	95.9912
1222.58	25.6973
1225.47	80.1348
1228.36	89.1943
1231.26	37.9756
1234.15	37.1162
1237.04	36.0859
1239.93	5.98144
1242.83	33.2236
1245.72	7.62109
1248.61	85.7998
1251.51	114.142
1254.4	97.4375
1257.29	27.6084
1260.18	57.8242
1263.08	85.3799
1265.97	60.2315
1268.86	56.0938
1271.75	46.2344
1274.65	32.7783
1277.54	56.0147
1280.43	89.6397
1283.32	20.8154
1286.22	49.5674
1289.11	101.652
1292	2.36621
1294.89	91.0391
1297.79	84.0469
1300.68	52.5205
