Measurement: Raman, 780 nm, unoriented, Raman Data Processed
Mineral: Jouravskite
Rruff sample: R110012
Ideal chemistry: Ca_3_Mn^4+^(SO_4_)(CO_3_)(OH)_6_12H_2_O
Locality: Wessels mine, Kurumen, Kalahari Mn Area, Cape Province, South Africa
Source: William Pinch
Description: Yellow hexagonal prism associated with calcite
Raman shift (cm-1)	intensity
159.548	0
162.441	1.19272
165.333	1.37103
168.226	5.73474
171.119	10.2155
174.012	15.5541
176.904	20.9449
179.797	21.2158
182.69	23.2949
185.582	18.408
188.475	19.4691
191.368	18.7353
194.261	16.2885
197.153	17.9279
200.046	14.7074
202.939	19.4855
205.831	23.3474
208.724	21.7187
211.617	16.799
214.509	17.2033
217.402	13.4803
220.295	10.2979
223.188	9.15353
226.08	8.53502
228.973	6.89107
231.866	6.54333
234.758	6.50233
237.651	6.3486
240.544	3.46121
243.436	2.29697
246.329	0.945076
249.222	0.142929
252.114	0.334427
255.007	1.39974
257.9	0.035568
260.793	0.115616
263.685	1.81681
266.578	2.43417
269.471	4.35764
272.363	6.0668
275.256	7.01176
278.149	8.86498
281.041	11.634
283.934	11.4807
286.827	10.8123
289.719	10.9521
292.612	11.7698
295.505	10.0538
298.398	12.1533
301.29	8.00217
304.183	8.08008
307.076	7.92586
309.968	6.42297
312.861	3.89602
315.754	5.78315
318.647	4.51439
321.539	7.0065
324.432	5.31198
327.325	6.7731
330.217	10.0702
333.11	12.9833
336.003	19.1988
338.895	23.4162
341.788	30.0501
344.681	30.9387
347.574	33.1075
350.466	24.8081
353.359	19.1211
356.252	11.1415
359.144	9.04468
362.037	4.27958
364.93	4.16073
367.822	4.93192
370.715	4.88335
373.608	5.73405
376.5	2.8727
379.393	3.63968
382.286	2.37166
385.179	2.24816
388.071	0.20211
390.964	2.14288
393.857	1.62991
396.749	1.36927
399.642	2.31282
402.535	6.54063
405.427	11.0454
408.32	16.8681
411.213	22.3665
414.106	30.7689
416.998	27.4406
419.891	26.3338
422.784	22.7077
425.676	23.6184
428.569	28.2919
431.462	33.1346
434.354	41.921
437.247	55.913
440.14	69.2273
443.033	88.2443
445.925	100.076
448.818	108.686
451.711	101.356
454.603	85.4152
457.496	67.2003
460.389	49.5366
463.281	34.1797
466.174	21.0704
469.067	13.1553
471.959	5.44174
474.852	1.31248
477.745	1.39538
480.638	3.04828
483.53	2.70441
486.423	4.3051
489.316	0.443954
492.208	0.543396
495.101	4.99632
497.994	5.2692
500.887	3.96487
503.779	8.99443
506.672	9.21566
509.565	8.31236
512.457	14.8632
515.35	18.6405
518.243	24.2173
521.135	33.7518
524.028	41.5569
526.921	47.8693
529.813	52.6917
532.706	56.1472
535.599	61.1585
538.492	72.7567
541.384	83.8024
544.277	94.2194
547.17	94.9647
550.062	83.9386
552.955	65.6481
555.848	45.3749
558.74	32.126
561.633	28.4234
564.526	30.7189
567.418	36.6167
570.311	55.0132
573.204	79.2009
576.097	107.509
578.989	127.894
581.882	125.602
584.775	97.5509
587.667	66.8705
590.56	42.7627
593.453	35.4322
596.346	34.8309
599.238	34.6818
602.131	40.4772
605.024	37.6096
607.916	36.5113
610.809	34.1206
613.702	31.8837
616.594	30.0323
619.487	23.4737
622.38	19.1492
625.273	17.3992
628.165	15.0048
631.058	12.5574
633.951	17.4771
636.843	20.3709
639.736	25.2823
642.629	28.5287
645.521	32.4484
648.414	29.7604
651.307	20.1215
654.199	10.7193
657.092	1.2728
659.985	0.359333
662.878	1.86916
665.77	2.57213
668.663	4.02193
671.556	1.82121
674.448	1.67778
677.341	1.21215
680.234	0.478512
683.126	0.887253
686.019	0.158131
688.912	2.62197
691.805	0.24844
694.697	1.92654
697.59	3.51596
700.483	3.03308
703.375	5.62027
706.268	7.97496
709.161	6.01684
712.053	7.66311
714.946	8.57584
717.839	5.90585
720.731	7.63412
723.624	7.83732
726.517	7.2737
729.41	8.40195
732.302	6.51957
735.195	7.00148
738.088	9.60028
740.98	12.0344
743.873	10.0364
746.766	11.5282
749.659	17.2714
752.551	18.1781
755.444	21.7407
758.337	21.4445
761.229	21.1651
764.122	19.9452
767.015	16.9413
769.907	14.7433
772.8	13.626
775.693	10.1084
778.586	6.05809
781.478	5.26367
784.371	5.00709
787.264	3.30402
790.156	3.28199
793.049	4.75791
795.942	2.22387
798.834	0.430099
801.727	1.82146
804.62	0.510887
807.513	1.7973
810.405	0.697945
813.298	2.99623
816.191	1.99534
819.083	1.96464
821.976	0.967251
824.869	0.083221
827.761	0.922325
830.654	0.750134
833.547	1.76631
836.439	1.31144
839.332	1.50319
842.225	0.01696
845.118	1.78207
848.01	0.84343
850.903	1.40454
853.796	2.21187
856.688	0.485447
859.581	1.70216
862.474	1.6853
865.366	2.36838
868.259	2.1839
871.152	3.19265
874.044	3.50057
876.937	3.25336
879.83	4.64948
882.723	3.27819
885.615	5.74024
888.508	3.736
891.401	3.00715
894.293	2.631
897.186	3.82358
900.079	2.40369
902.971	1.57686
905.864	0.821886
908.757	2.63479
911.65	0.068552
914.542	0.262066
917.435	2.59889
920.328	0.144674
923.22	0.934904
926.113	0.860359
929.006	0.632267
931.899	0.014177
934.791	1.4643
937.684	2.15221
940.577	1.10339
943.469	2.05137
946.362	2.32776
949.255	2.30906
952.147	5.33545
955.04	6.91296
957.933	7.35939
960.825	10.4696
963.718	17.1805
966.611	25.4679
969.504	40.6638
972.396	61.9598
975.289	102.233
978.182	186.103
981.074	334.568
983.967	803.41
986.86	1952.7
989.752	1737.58
992.645	753.298
995.538	289.472
998.431	121.056
1001.32	59.0738
1004.22	32.9804
1007.11	19.9289
1010	14.9011
1012.89	9.54283
1015.79	6.92439
1018.68	7.07326
1021.57	2.84593
1024.46	3.80819
1027.36	2.71866
1030.25	1.39728
1033.14	0.61377
1036.04	0.180407
1038.93	0.127979
1041.82	1.6086
1044.71	0.844694
1047.61	1.18138
1050.5	1.35033
1053.39	1.50948
1056.29	2.82142
1059.18	6.53687
1062.07	9.02216
1064.96	16.4178
1067.86	20.9216
1070.75	20.7956
1073.64	11.9005
1076.53	13.0662
1079.43	12.5584
1082.32	16.7168
1085.21	30.1414
1088.1	25.1967
1091	24.7724
1093.89	29.5747
1096.78	33.59
1099.67	38.2914
1102.57	44.7485
1105.46	48.1695
1108.35	57.3854
1111.25	60.3502
1114.14	62.184
1117.03	62.4055
1119.92	58.23
1122.82	54.2917
1125.71	49.4123
1128.6	41.3953
1131.49	36.1477
1134.39	34.771
1137.28	28.8999
1140.17	25.9574
1143.07	21.7331
1145.96	17.0656
1148.85	11.683
1151.74	9.74145
1154.64	6.72004
1157.53	4.9886
1160.42	2.55892
1163.31	3.03755
1166.21	1.7486
1169.1	0.18532
1171.99	1.79219
1174.88	1.18254
1177.78	0.31978
1180.67	2.26477
1183.56	1.28833
1186.46	2.37649
1189.35	0.808926
1192.24	1.76447
1195.13	2.95086
1198.03	0.805443
1200.92	0.928366
1203.81	0.087402
1206.7	0.884821
1209.6	0.98912
1212.49	2.50758
1215.38	2.04785
1218.28	2.75825
1221.17	2.37784
1224.06	0.54244
1226.95	3.93791
1229.85	1.7367
1232.74	0.316448
1235.63	2.55029
1238.53	1.95774
1241.42	1.88625
1244.31	1.56809
1247.2	3.84793
1250.1	0.879208
1252.99	1.59447
1255.88	2.6232
1258.77	0.351841
1261.67	1.59799
1264.56	2.39361
1267.45	2.58038
1270.34	0.833439
1273.24	3.37113
1276.13	0.902719
1279.02	2.40588
1281.91	2.41729
1284.81	0
