Measurement: Raman, 532 nm, unoriented, Raman Data Processed
Mineral: Jouravskite
Rruff sample: R110012
Ideal chemistry: Ca_3_Mn^4+^(SO_4_)(CO_3_)(OH)_6_12H_2_O
Locality: Wessels mine, Kurumen, Kalahari Mn Area, Cape Province, South Africa
Source: William Pinch
Description: Yellow hexagonal prism associated with calcite
Raman shift (cm-1)	intensity
176.37	0
179.263	2.19576
182.155	5.41194
185.048	9.23341
187.941	10.8064
190.833	12.0801
193.726	16.0713
196.619	18.3689
199.512	22.5552
202.404	26.8811
205.297	29.4056
208.19	26.3652
211.082	22.9968
213.975	23.455
216.868	18.9809
219.761	16.7851
222.653	12.7372
225.546	10.4717
228.439	7.28209
231.331	5.49997
234.224	4.34178
237.117	3.30342
240.009	1.1523
242.902	0.103226
245.795	0.694588
248.688	0.342468
251.58	1.0377
254.473	0.823341
257.366	0.282921
260.258	0.243561
263.151	0.084476
266.044	2.38379
268.936	2.23982
271.829	4.49056
274.722	7.34234
277.615	7.21398
280.507	8.77074
283.4	9.47858
286.293	9.38576
289.185	9.95426
292.078	10.1267
294.971	8.27247
297.863	10.5887
300.756	9.13858
303.649	9.00925
306.541	6.83864
309.434	7.13372
312.327	7.46568
315.22	6.09882
318.112	6.94372
321.005	8.81887
323.898	8.22132
326.791	9.76564
329.683	10.8937
332.576	12.3617
335.469	15.5063
338.361	15.7519
341.254	18.5738
344.147	21.1354
347.039	23.6201
349.932	20.8883
352.825	19.4088
355.717	16.7275
358.61	14.4188
361.503	10.2019
364.396	10.1728
367.288	8.81384
370.181	7.34891
373.074	8.91086
375.966	7.87183
378.859	8.47343
381.752	7.36587
384.644	7.45319
387.537	7.3373
390.43	6.69962
393.323	3.81393
396.215	0.653198
399.108	0.011021
402.001	0.495781
404.894	0.948956
407.786	0.379887
410.679	0.203129
413.572	2.88026
416.464	2.76814
419.357	4.86667
422.25	6.1429
425.142	7.66798
428.035	9.33286
430.928	11.3706
433.82	12.9774
436.713	19.8021
439.606	30.038
442.499	36.6636
445.391	48.5489
448.284	54.4895
451.177	58.2646
454.069	57.2837
456.962	47.6072
459.855	36.5384
462.748	23.2411
465.64	14.8285
468.533	6.96417
471.426	3.80811
474.318	1.79434
477.211	2.1713
480.104	2.52122
482.996	2.44312
485.889	1.33913
488.782	7.45699
491.675	12.5911
494.567	19.0576
497.46	27.4258
500.353	31.7425
503.245	32.298
506.138	30.8257
509.031	27.1641
511.923	24.7587
514.816	23.3583
517.709	23.9512
520.602	28.373
523.494	36.3571
526.387	41.5519
529.28	44.0243
532.172	44.2058
535.065	41.189
537.958	34.9543
540.851	29.2627
543.743	27.4485
546.636	25.5863
549.529	19.8245
552.421	12.2849
555.314	8.41016
558.207	4.20535
561.099	1.46584
563.992	5.8487
566.885	16.6731
569.778	34.0418
572.67	62.5286
575.563	100.04
578.456	140.899
581.348	169.552
584.241	161.65
587.134	120.762
590.027	70.5421
592.919	37.3259
595.812	19.7792
598.705	11.4774
601.597	5.93718
604.49	5.58779
607.383	4.96597
610.275	6.22512
613.168	6.26666
616.061	5.65924
618.953	8.84521
621.846	7.35638
624.739	5.56447
627.632	7.03158
630.524	5.29516
633.417	5.80092
636.31	7.84103
639.202	12.9316
642.095	18.5792
644.988	26.1015
647.881	32.7486
650.773	31.0745
653.666	22.7056
656.559	12.0245
659.451	4.7957
662.344	2.16172
665.237	0.04459
668.13	1.12615
671.022	2.04679
673.915	1.70142
676.808	2.18556
679.7	0.598118
682.593	0.487114
685.486	0.874546
688.378	1.05661
691.271	0.060974
694.164	2.83092
697.057	2.5742
699.949	0.826096
702.842	2.85047
705.735	4.97518
708.627	4.79154
711.52	4.15923
714.413	5.04769
717.305	6.97202
720.198	5.77117
723.091	6.27461
725.984	7.62743
728.876	7.93384
731.769	7.78859
734.662	7.66535
737.554	7.58455
740.447	8.29295
743.34	11.4607
746.232	11.8398
749.125	14.3753
752.018	16.7895
754.91	19.7618
757.803	20.6299
760.696	22.4151
763.589	22.4525
766.481	20.6129
769.374	17.4107
772.267	16.0192
775.159	11.1823
778.052	11.268
780.945	8.12671
783.838	5.65114
786.73	5.50925
789.623	4.13128
792.516	3.71253
795.408	3.16803
798.301	4.25461
801.194	2.60599
804.087	1.01217
806.979	2.70844
809.872	1.68679
812.765	1.71917
815.657	0.302092
818.55	3.02591
821.443	1.63973
824.335	1.95639
827.228	1.71601
830.121	1.00853
833.014	0.03301
835.906	0.12574
838.799	3.29293
841.692	1.54616
844.584	0.017689
847.477	0.21069
850.37	0.915466
853.263	1.24018
856.155	1.51319
859.048	1.61158
861.941	0.996552
864.833	0.677286
867.726	0.010372
870.619	1.2295
873.511	1.48266
876.404	1.54771
879.297	0.186266
882.189	1.68972
885.082	1.41227
887.975	1.13763
890.868	1.18493
893.76	1.33037
896.653	1.17406
899.546	1.08584
902.438	0.384796
905.331	0.674419
908.224	0.16407
911.116	0.895336
914.009	0.027056
916.902	0.537195
919.795	0.580254
922.687	0.456671
925.58	2.0877
928.473	1.08226
931.365	1.0697
934.258	1.46743
937.151	1.99019
940.044	0.870552
942.936	2.29798
945.829	2.29065
948.722	1.49764
951.614	2.13184
954.507	2.73377
957.4	2.32996
960.293	4.53466
963.185	7.00731
966.078	8.67545
968.971	11.4737
971.863	19.5999
974.756	28.4607
977.649	47.846
980.541	100.602
983.434	221.341
986.327	510.15
989.22	907.856
992.112	735.969
995.005	366.202
997.898	158.11
1000.79	68.3754
1003.68	32.0544
1006.58	19.3368
1009.47	11.0814
1012.36	7.82129
1015.25	4.72963
1018.15	4.26642
1021.04	3.20585
1023.93	2.53293
1026.83	0.23595
1029.72	2.12608
1032.61	1.10878
1035.5	2.1438
1038.4	0.539555
1041.29	0.105167
1044.18	0.262569
1047.07	0.747084
1049.97	0.504608
1052.86	0.506809
1055.75	1.73174
1058.64	1.81197
1061.54	7.15334
1064.43	14.9692
1067.32	31.1273
1070.21	48.8903
1073.11	44.5174
1076	23.446
1078.89	11.0526
1081.79	10.6633
1084.68	11.1325
1087.57	15.3707
1090.46	11.1683
1093.36	12.2
1096.25	16.1061
1099.14	16.3561
1102.04	20.6615
1104.93	20.7965
1107.82	22.7272
1110.71	25.24
1113.61	25.4852
1116.5	27.1688
1119.39	26.621
1122.28	24.0016
1125.18	21.7822
1128.07	22.6747
1130.96	19.2929
1133.86	16.7391
1136.75	15.4825
1139.64	13.9465
1142.53	10.5875
1145.43	9.19141
1148.32	9.06335
1151.21	6.8824
1154.1	4.30379
1157	5.15555
1159.89	3.8682
1162.78	1.75168
1165.67	1.49031
1168.57	0.831142
1171.46	1.29776
1174.35	0.37426
1177.24	0.987286
1180.14	0.287571
1183.03	0.574242
1185.92	0.168091
1188.82	0.142971
1191.71	0.130257
1194.6	0.426649
1197.49	1.06471
1200.39	0.236137
1203.28	0.011749
1206.17	0.263451
1209.07	0.839127
1211.96	0.092352
1214.85	1.62426
1217.74	1.04085
1220.64	1.54504
1223.53	1.4311
1226.42	2.35069
1229.31	2.18284
1232.21	1.50655
1235.1	1.71459
1237.99	2.27055
1240.88	1.01915
1243.78	3.19314
1246.67	1.80148
1249.56	0.609749
1252.45	2.26625
1255.35	1.63034
1258.24	0.882477
1261.13	1.41982
1264.03	2.23092
1266.92	0.158018
1269.81	0.155052
1272.7	2.20703
1275.6	0.05332
1278.49	1.84439
1281.38	2.17876
1284.28	2.14729
1287.17	0.937578
1290.06	1.76679
1292.95	0.631178
1295.85	1.65104
1298.74	1.81891
1301.63	0.306551
