Measurement: Raman, 532 nm, unoriented, Raman Data Processed
Mineral: Juangodoyite
Rruff sample: R060884
Ideal chemistry: Na_2_Cu(CO_3_)_2_
Locality: Santa Rosa mine, Iquique Province, Chile
Source: Bob Jenkins
Description: Purple-blue earthy massive
Raman shift (cm-1)	intensity
149.486	0
152.379	4.70886
155.271	161.913
158.164	443.441
161.057	795.949
163.949	1128.64
166.842	1085.36
169.735	1009.32
172.627	923.038
175.52	835.955
178.413	798.778
181.305	937.504
184.198	1091.94
187.091	1148.6
189.983	928.818
192.876	706.571
195.769	553.74
198.662	575.449
201.554	768.175
204.447	1086.75
207.34	1366.98
210.232	1458.83
213.125	1323.54
216.018	897.99
218.911	501.6
221.803	309.167
224.696	137.655
227.589	39.9296
230.481	6.1178
233.374	31.7032
236.267	49.7043
239.159	9.79443
242.052	66.1864
244.945	137.5
247.838	203.376
250.73	296.048
253.623	283.593
256.516	193.97
259.408	41.3293
262.301	14.9369
265.194	19.0164
268.086	13.3031
270.979	5.3468
273.872	9.58673
276.764	41.3929
279.657	39.7954
282.55	45.5817
285.442	30.8192
288.335	54.7302
291.228	51.8391
294.121	64.241
297.013	90.3478
299.906	172.934
302.799	230.424
305.691	241.357
308.584	240.101
311.477	187.914
314.37	110.455
317.262	64.3449
320.155	36.5275
323.048	2.19885
325.94	0.561951
328.833	22.2711
331.726	1.59235
334.618	9.55249
337.511	8.76361
340.404	19.065
343.296	69.4921
346.189	23.5438
349.082	14.7169
351.975	68.4562
354.867	81.2704
357.76	92.3261
360.653	141.75
363.545	175.92
366.438	189.845
369.331	291.073
372.224	387.012
375.116	487.504
378.009	706.557
380.902	929.36
383.794	1249.06
386.687	1750.95
389.58	2323.92
392.472	2880.61
395.365	3417.52
398.258	3720.59
401.151	3701.27
404.043	3131.71
406.936	2330
409.829	1607.86
412.721	1077.81
415.614	747.582
418.507	533.501
421.399	381.379
424.292	268.71
427.185	210.892
430.077	161.867
432.97	104.563
435.863	79.3482
438.755	58.1241
441.648	55.2491
444.541	31.3298
447.434	13.3252
450.326	12.012
453.219	14.0503
456.112	6.55945
459.004	16.6666
461.897	6.3208
464.79	1.78229
467.683	7.42206
470.575	8.25171
473.468	6.4552
476.361	18.9228
479.253	34.9812
482.146	0.290466
485.039	11.3267
487.931	42.2315
490.824	4.22345
493.717	29.6177
496.61	26.5466
499.502	33.0727
502.395	23.8833
505.288	25.114
508.18	42.7809
511.073	23.0029
513.966	37.3348
516.858	9.5296
519.751	33.4227
522.644	23.417
525.536	12.0693
528.429	36.3711
531.322	45.4207
534.215	11.704
537.107	52.4194
540	50.2189
542.893	30.0156
545.785	64.7849
548.678	37.1266
551.571	42.2429
554.463	2.12805
557.356	31.8966
560.249	26.6418
563.141	16.0958
566.034	29.4101
568.927	26.5284
571.82	3.85181
574.712	26.2398
577.605	54.1346
580.498	36.7797
583.39	32.1234
586.283	18.516
589.176	14.0121
592.068	53.51
594.961	2.68646
597.854	24.9636
600.747	56.9652
603.639	22.328
606.532	50.7793
609.425	40.8553
612.317	18.6231
615.21	4.4964
618.103	26.2938
620.995	36.9417
623.888	6.07501
626.781	2.86224
629.673	90.35
632.566	6.20392
635.459	11.724
638.352	10.9135
641.244	6.25684
644.137	11.187
647.03	10.0704
649.922	9.30066
652.815	6.93457
655.708	11.2562
658.601	5.54443
661.493	25.9275
664.386	21.1354
667.279	44.6065
670.171	87.5166
673.064	93.9136
675.957	184.287
678.849	230.454
681.742	316.721
684.635	337.564
687.528	284.008
690.42	271.5
693.313	336.135
696.206	345.136
699.098	154.389
701.991	96.2364
704.884	8.71161
707.776	6.05548
710.669	1.16949
713.562	43.3185
716.455	122.946
719.347	202.755
722.24	368.971
725.133	680.742
728.025	1173.54
730.918	1900.54
733.811	2829.62
736.703	3633.76
739.596	4124.52
742.489	3234.06
745.381	1580.4
748.274	841.116
751.167	510.019
754.059	352.244
756.952	317.744
759.845	252.758
762.738	203.229
765.63	190.279
768.523	190.52
771.416	138.728
774.308	140.343
777.201	101.882
780.094	110.79
782.986	69.8181
785.879	55.8787
788.772	57.3957
791.665	46.7805
794.557	35.0283
797.45	33.1401
800.343	22.5489
803.235	5.33447
806.128	4.01715
809.021	30.2616
811.913	27.8165
814.806	14.6258
817.699	6.20203
820.592	8.66779
823.484	15.5262
826.377	5.26514
829.27	24.3607
832.162	21.5271
835.055	39.0935
837.948	62.4955
840.841	139.017
843.733	202.929
846.626	369.452
849.519	194.7
852.411	43.5121
855.304	34.8324
858.197	12.9095
861.089	29.369
863.982	46.4391
866.875	105.773
869.767	100.565
872.66	143.539
875.553	213.578
878.446	243.351
881.338	50.1009
884.231	20.8204
887.124	21.4765
890.016	29.7441
892.909	26.7495
895.802	16.5055
898.694	12.4096
901.587	10.0178
904.48	29.9678
907.372	18.5622
910.265	15.9359
913.158	8.76349
916.051	9.25232
918.943	27.9517
921.836	18.1242
924.729	32.1673
927.621	12.1912
930.514	20.4301
933.407	51.0335
936.299	23.6342
939.192	26.132
942.085	9.54126
944.977	10.5034
947.87	31.5358
950.763	27.9891
953.656	16.5007
956.548	47.9627
959.441	67.3608
962.334	32.9082
965.226	22.7001
968.119	18.7449
971.012	20.182
973.904	5.53375
976.797	12.9106
979.69	21.9108
982.583	8.69251
985.475	7.01752
988.368	15.0299
991.261	30.0471
994.153	38.0444
997.046	1.26434
999.939	47.1067
1002.83	20.6669
1005.72	10.8421
1008.62	16.4636
1011.51	11.2269
1014.4	6.75525
1017.29	2.30341
1020.19	44.8314
1023.08	30.0225
1025.97	57.6009
1028.87	57.1231
1031.76	88.7961
1034.65	49.787
1037.54	76.7381
1040.44	88.2351
1043.33	132.788
1046.22	163.673
1049.12	272.365
1052.01	500.917
1054.9	960.37
1057.79	1708.05
1060.68	2960.62
1063.58	4535.73
1066.47	3022.61
1069.36	917.071
1072.26	345.311
1075.15	241.806
1078.04	134.264
1080.93	65.6115
1083.83	108.641
1086.72	77.2568
1089.61	45.6606
1092.51	37.1688
1095.4	19.6389
1098.29	30.9029
1101.18	31.2678
1104.08	51.5023
1106.97	16.6995
1109.86	16.1113
1112.75	23.6279
1115.65	3.48914
1118.54	8.31824
1121.43	11.5712
1124.33	30.5749
1127.22	14.1757
1130.11	33.9316
1133	54.7888
1135.9	30.016
1138.79	21.5958
1141.68	34.6374
1144.57	34.1164
1147.47	13.9521
1150.36	14.8904
1153.25	11.5301
1156.14	44.5321
1159.04	14.0801
1161.93	24.8122
1164.82	28.8829
1167.71	8.27161
1170.61	32.3993
1173.5	4.30762
1176.39	47.2894
1179.29	22.0839
1182.18	32.4029
1185.07	23.7437
1187.96	26.8998
1190.86	22.3005
1193.75	20.8401
1196.64	12.0377
1199.54	42.9926
1202.43	61.8248
1205.32	32.9977
1208.21	34.3959
1211.11	23.7743
1214	25.9125
1216.89	28.9214
1219.78	24.2682
1222.68	16.005
1225.57	61.257
1228.46	27.1107
1231.36	57.518
1234.25	45.3139
1237.14	39.8398
1240.03	36.9664
1242.92	40.7224
1245.82	57.0723
1248.71	65.0829
1251.6	22.0046
1254.5	45.0198
1257.39	46.5599
1260.28	30.0231
1263.17	34.2142
1266.07	29.7245
1268.96	82.0627
1271.85	69.529
1274.74	56.5997
1277.64	26.4665
1280.53	65.4182
1283.42	1.17615
1286.32	10.9939
