Measurement: Raman, 785 nm, unoriented, Raman Data Processed
Mineral: Juangodoyite
Rruff sample: R060884
Ideal chemistry: Na_2_Cu(CO_3_)_2_
Locality: Santa Rosa mine, Iquique Province, Chile
Source: Bob Jenkins
Description: Purple-blue earthy massive
Raman shift (cm-1)	intensity
152.866	0
155.758	21.8166
158.651	135.814
161.544	377.109
164.436	570.071
167.329	520.561
170.222	514.091
173.114	439.953
176.007	366.032
178.9	385.847
181.793	523.431
184.685	665.092
187.578	632.799
190.471	472.239
193.363	251.974
196.256	224.89
199.149	187.37
202.042	230.576
204.934	363.688
207.827	496.448
210.72	553.931
213.612	499.469
216.505	335.71
219.398	205.316
222.29	98.3737
225.183	52.618
228.076	8.88202
230.969	16.7712
233.861	16.1206
236.754	7.13501
239.647	7.58447
242.539	1.29627
245.432	40.7278
248.325	99.6954
251.217	133.462
254.11	123.102
257.003	65.8993
259.896	34.2592
262.788	9.64172
265.681	18.3031
268.574	46.4661
271.466	57.3935
274.359	36.003
277.252	75.2267
280.144	98.5335
283.037	70.1677
285.93	65.7943
288.822	53.9134
291.715	45.9242
294.608	45.47
297.501	44.1346
300.393	78.1816
303.286	98.9169
306.179	107.545
309.071	51.9963
311.964	67.771
314.857	30.193
317.75	26.6797
320.642	2.89356
323.535	5.38855
326.428	2.94226
329.32	30.9213
332.213	19.8124
335.106	5.82007
337.998	16.3787
340.891	4.14343
343.784	33.7488
346.676	21.6467
349.569	31.3685
352.462	50.7983
355.355	37.5885
358.247	40.9702
361.14	53.7525
364.033	75.7105
366.925	75.1325
369.818	110.81
372.711	135.481
375.603	151.569
378.496	194.843
381.389	294.469
384.282	377.403
387.174	594.216
390.067	712.789
392.96	950.803
395.852	1142.33
398.745	1272.28
401.638	1290.67
404.531	1052.2
407.423	766.914
410.316	537.763
413.209	338.74
416.101	261.151
418.994	166.196
421.887	141.2
424.779	112.305
427.672	106.709
430.565	85.2445
433.457	80.2322
436.35	44.6435
439.243	37.5466
442.135	29.451
445.028	36.8768
447.921	40.8467
450.814	50.4485
453.706	13.7234
456.599	33.4379
459.492	28.4304
462.384	9.49133
465.277	0.222961
468.17	42.9925
471.062	11.7335
473.955	10.2879
476.848	21.8002
479.741	20.715
482.633	37.9365
485.526	21.1493
488.419	43.0536
491.311	35.9678
494.204	50.0507
497.097	37.4915
499.99	36.1909
502.882	9.17718
505.775	40.6026
508.668	8.15918
511.56	40.6724
514.453	12.7281
517.346	37.431
520.238	36.1514
523.131	21.4434
526.024	34.9982
528.917	26.872
531.809	15.1415
534.702	19.8337
537.595	42.1158
540.487	30.6918
543.38	50.6617
546.273	29.5654
549.165	14.532
552.058	28.3843
554.951	52.7298
557.843	13.3274
560.736	15.9666
563.629	28.3489
566.522	0.788391
569.414	19.1411
572.307	27.9092
575.2	40.6014
578.092	32.6781
580.985	51.9167
583.878	9.14148
586.77	20.2349
589.663	20.3527
592.556	25.3648
595.448	21.3852
598.341	26.6512
601.234	31.2607
604.127	42.7966
607.019	17.1956
609.912	7.86438
612.805	21.8767
615.697	34.8622
618.59	23.8403
621.483	28.5497
624.375	27.6722
627.268	7.85785
630.161	0.374146
633.054	19.0919
635.946	29.3582
638.839	21.361
641.732	6.28204
644.625	25.7797
647.517	5.86029
650.41	4.41913
653.303	9.08832
656.195	9.42737
659.088	18.0023
661.981	1.64215
664.873	31.134
667.766	3.09992
670.659	37.5103
673.552	40.1143
676.444	96.9872
679.337	147.925
682.23	173.512
685.122	144.806
688.015	117.046
690.908	91.603
693.8	113.365
696.693	112.205
699.586	45.9736
702.479	28.3929
705.371	19.8461
708.264	33.3413
711.157	7.68341
714.049	32.9226
716.942	50.7483
719.835	50.5159
722.727	94.0954
725.62	188.275
728.513	347.044
731.405	644.347
734.298	1055.92
737.191	1417.71
740.083	1694.69
742.976	1191.77
745.869	532.719
748.762	319.514
751.654	208.054
754.547	169.545
757.44	122.697
760.332	114.636
763.225	81.1457
766.118	79.6326
769.01	5.40784
771.903	57.7372
774.796	34.6865
777.689	19.0054
780.581	35.3621
783.474	44.4363
786.367	45.7592
789.259	51.4019
792.152	13.371
795.045	23.9938
797.938	10.1676
800.83	21.8839
803.723	32.29
806.616	6.63403
809.508	24.1941
812.401	25.3756
815.294	7.59039
818.186	14.0684
821.079	34.3428
823.972	25.7982
826.865	23.4149
829.757	4.37006
832.65	17.1658
835.543	32.6538
838.435	56.0154
841.328	81.1643
844.221	151.423
847.113	253.59
850.006	139.143
852.899	70.6349
855.792	27.6348
858.684	36.0393
861.577	8.96094
864.47	28.5771
867.362	15.1952
870.255	68.8338
873.148	97.8724
876.04	169.627
878.933	124.132
881.826	13.1705
884.718	39.6249
887.611	10.2039
890.504	2.86731
893.396	12.097
896.289	59.6284
899.182	48.9955
902.075	41.0387
904.967	41.9068
907.86	2.14203
910.753	37.9663
913.645	19.2264
916.538	40.5905
919.431	32.7357
922.323	10.6661
925.216	27.4344
928.109	4.95496
931.002	4.01147
933.894	51.5492
936.787	20.9356
939.68	41.5628
942.572	35.0104
945.465	28.9921
948.358	31.6816
951.25	24.4825
954.143	36.5891
957.036	20.3315
959.929	56.2844
962.821	52.5851
965.714	56.7739
968.607	22.5347
971.5	25.8385
974.392	51.9927
977.285	45.3604
980.178	35.4143
983.07	9.09949
985.963	34.2134
988.856	33.8726
991.748	28.4101
994.641	3.25977
997.534	55.7137
1000.43	27.2353
1003.32	26.7024
1006.21	55.2219
1009.1	36.198
1012	58.0082
1014.89	50.7636
1017.78	35.5046
1020.67	27.9578
1023.57	1.53748
1026.46	12.4798
1029.35	29.8226
1032.25	70.1015
1035.14	59.6582
1038.03	87.8357
1040.92	125.738
1043.82	88.0826
1046.71	118.827
1049.6	182.052
1052.49	236.614
1055.39	441.645
1058.28	989
1061.17	2229.61
1064.07	3466.58
1066.96	1763.87
1069.85	529.121
1072.74	238.63
1075.64	122.637
1078.53	117.027
1081.42	69.0965
1084.32	76.9404
1087.21	36.9739
1090.1	21.3921
1092.99	58.5596
1095.88	24.9906
1098.78	15.8314
1101.67	34.5331
1104.56	31.0405
1107.46	4.34686
1110.35	30.8278
1113.24	17.307
1116.13	12.9978
1119.03	53.111
1121.92	0.313843
1124.81	19.9112
1127.7	16.6764
1130.6	1.03711
1133.49	24.1965
1136.38	13.347
1139.28	25.8119
1142.17	45.9432
1145.06	17.2213
1147.95	28.8476
1150.85	4.63043
1153.74	36.7034
1156.63	29.578
1159.53	16.6287
1162.42	34.4476
1165.31	16.2509
1168.2	33.9802
1171.1	53.46
1173.99	35.6315
1176.88	54.4383
1179.77	40.9714
1182.67	55.1248
1185.56	27.6527
1188.45	51.1469
1191.35	57.4471
1194.24	55.8504
1197.13	48.9855
1200.02	57.0922
1202.91	12.549
1205.81	42.9495
1208.7	54.0808
1211.59	21.7302
1214.49	58.433
1217.38	66.2788
1220.27	76.5807
1223.16	56.3982
1226.06	36.181
1228.95	51.1891
1231.84	50.7864
1234.73	54.1418
1237.63	9.88464
1240.52	30.2274
1243.41	80.4535
1246.31	67.8221
1249.2	99.9359
1252.09	46.0022
1254.98	55.6516
1257.88	5.4317
1260.77	6.83954
