Measurement: Raman, 532 nm, unoriented, Raman Data Processed
Mineral: Junitoite
Rruff sample: R050154
Ideal chemistry: CaZn_2_Si_2_O_7_H_2_O
Locality: Christmas mine, Christmas, Gila County, Arizona, USA
Source: Jim McGlasson
Description: Colorless thin hexagonal crystals and platy purple aggregates
Raman shift (cm-1)	intensity
160.76	0
163.653	6.85266
166.546	8.67572
169.438	11.1425
172.331	4.24085
175.224	2.10199
178.117	0.83905
181.009	5.97449
183.902	8.85651
186.795	10.8621
189.687	6.22082
192.58	7.00336
195.473	3.07001
198.365	1.68134
201.258	2.30487
204.151	1.63812
207.043	1.13367
209.936	2.95898
212.829	0.109375
215.722	6.92572
218.614	7.68445
221.507	12.2526
224.4	13.0433
227.292	18.9294
230.185	22.5342
233.078	32.2739
235.97	48.5551
238.863	77.4413
241.756	86.0331
244.649	67.7602
247.541	49.4042
250.434	33.6017
253.327	22.91
256.219	19.1309
259.112	9.00989
262.005	9.6037
264.897	5.10333
267.79	2.37091
270.683	0.114807
273.576	1.84442
276.468	5.44714
279.361	9.69403
282.254	15.8386
285.146	23.0767
288.039	28.7681
290.932	35.2359
293.825	36.5728
296.717	35.6779
299.61	38.516
302.503	54.3865
305.395	75.4814
308.288	67.1148
311.181	44.6189
314.073	30.5834
316.966	37.7379
319.859	45.0684
322.752	59.0384
325.644	65.8496
328.537	63.6664
331.43	63.3607
334.322	71.0958
337.215	84.6215
340.108	92.8679
343	109.415
345.893	140.292
348.786	188.596
351.678	214.982
354.571	161.847
357.464	82.4785
360.356	37.7654
363.249	17.9625
366.142	6.80865
369.035	5.96002
371.927	2.87164
374.82	0.696716
377.713	1.56848
380.605	0.125977
383.498	1.11487
386.391	3.02301
389.284	0.969849
392.176	1.93426
395.069	0.428345
397.962	1.29407
400.854	3.33276
403.747	1.47974
406.64	3.70404
409.532	6.21057
412.425	9.73517
415.318	12.7161
418.211	17.1162
421.103	13.6615
423.996	24.693
426.889	35.3887
429.781	42.2432
432.674	45.4904
435.567	45.4004
438.459	50.527
441.352	58.9369
444.245	62.9757
447.137	59.9287
450.03	57.9702
452.923	59.6982
455.816	65.0179
458.708	70.5686
461.601	76.4876
464.494	71.9906
467.386	71.8588
470.279	62.9315
473.172	57.0415
476.065	49.6702
478.957	49.4056
481.85	40.9592
484.743	39.5008
487.635	22.7172
490.528	17.9652
493.421	17.0431
496.313	7.57037
499.206	5.07074
502.099	2.52649
504.991	0.954285
507.884	4.41406
510.777	0.845947
513.67	2.6131
516.562	2.47199
519.455	2.34967
522.348	2.21362
525.24	1.43182
528.133	1.34485
531.026	2.86908
533.918	1.26862
536.811	1.94177
539.704	2.37647
542.597	3.53284
545.489	7.84308
548.382	7.60162
551.275	10.8154
554.167	10.3335
557.06	13.0566
559.953	11.0242
562.846	15.0355
565.738	19.1664
568.631	21.6219
571.524	25.2479
574.416	25.73
577.309	30.6356
580.202	35.2924
583.094	36.3509
585.987	34.908
588.88	35.8879
591.773	36.5421
594.665	35.9693
597.558	36.2495
600.451	29.5507
603.343	21.4116
606.236	19.9122
609.129	12.1212
612.021	13.7672
614.914	11.7496
617.807	12.3452
620.699	11.1544
623.592	12.0102
626.485	11.3997
629.378	10.0262
632.27	15.121
635.163	8.60175
638.056	10.6148
640.948	6.24268
643.841	3.78259
646.734	5.40674
649.626	1.23492
652.519	3.57159
655.412	1.29553
658.305	0.854736
661.197	4.1261
664.09	6.3479
666.983	3.29541
669.875	0.207397
672.768	2.73456
675.661	3.24426
678.553	8.10938
681.446	8.5058
684.339	11.6282
687.232	21.0739
690.124	26.6433
693.017	43.8973
695.91	57.3705
698.802	75.5453
701.695	102.417
704.588	128.585
707.481	154.5
710.373	175.201
713.266	182.72
716.159	173.795
719.051	139.485
721.944	101.06
724.837	64.1167
727.729	43.0696
730.622	25.6327
733.515	17.3027
736.408	12.9763
739.3	9.70209
742.193	8.44995
745.086	5.48352
747.978	7.42303
750.871	6.05011
753.764	3.13354
756.656	1.15308
759.549	2.09845
762.442	0.788269
765.335	2.54559
768.227	0.114258
771.12	3.74463
774.013	5.22113
776.905	5.24658
779.798	5.44861
782.691	6.33404
785.583	5.49414
788.476	3.8122
791.369	2.00494
794.261	4.58276
797.154	3.32568
800.047	2.07538
802.939	3.61627
805.832	5.99756
808.725	1.11932
811.618	3.45966
814.51	2.08142
817.403	3.5036
820.296	0.855103
823.188	2.74988
826.081	0.158997
828.974	3.27997
831.866	0.235718
834.759	0.338318
837.652	0.840637
840.545	2.39496
843.437	3.875
846.33	1.51898
849.223	2.04077
852.115	3.5921
855.008	6.93481
857.901	7.28564
860.793	5.85156
863.686	4.22687
866.579	6.97522
869.472	4.72076
872.364	6.64734
875.257	3.79242
878.15	7.66894
881.042	10.1832
883.935	16.1844
886.828	26.6801
889.721	32.5106
892.613	47.8513
895.506	59.2261
898.399	82.4467
901.291	106.881
904.184	133.854
907.077	153.127
909.969	145.925
912.862	117.962
915.755	93.652
918.648	72.1365
921.54	64.449
924.433	58.3846
927.326	58.8939
930.218	61.2476
933.111	66.0624
936.004	76.7869
938.896	80.598
941.789	74.7387
944.682	57.0984
947.574	33.8298
950.467	20.9181
953.36	11.2042
956.253	7.39294
959.145	4.57513
962.038	0.207092
964.931	0.194092
967.823	2.0025
970.716	6.17828
973.609	0.062683
976.501	0.23468
979.394	2.17847
982.287	2.63141
985.18	6.95642
988.072	4.65741
990.965	12.069
993.858	14.0869
996.75	16.7334
999.643	16.2101
1002.54	12.0145
1005.43	8.80212
1008.32	10.1748
1011.21	10.5428
1014.11	7.66614
1017	6.9198
1019.89	9.9422
1022.78	5.76135
1025.68	5.20874
1028.57	5.11585
1031.46	6.21515
1034.36	3.27753
1037.25	0.310303
1040.14	2.10712
1043.03	1.34576
1045.93	7.56915
1048.82	7.5589
1051.71	11.2614
1054.6	18.1471
1057.5	24.5109
1060.39	22.3667
1063.28	13.4413
1066.17	9.03088
1069.07	6.78302
1071.96	0.744934
1074.85	2.2735
1077.75	4.39966
1080.64	0.088745
1083.53	0.240356
1086.42	1.23608
1089.32	3.2384
1092.21	2.5622
1095.1	3.9281
1097.99	1.62616
1100.89	2.22302
1103.78	0.425781
1106.67	1.34644
1109.57	2.29962
1112.46	2.91864
1115.35	3.91492
1118.24	1.30365
1121.14	3.60004
1124.03	3.84167
1126.92	3.97815
1129.82	0.945129
1132.71	3.58044
1135.6	0.277222
1138.49	0.820129
1141.38	5.26428
1144.28	4.70709
1147.17	4.61487
1150.06	4.91571
1152.96	4.24597
1155.85	7.4494
1158.74	8.54742
1161.63	5.57129
1164.53	5.65601
1167.42	5.03638
1170.31	5.89478
1173.2	2.18481
1176.1	1.88483
1178.99	7.34723
1181.88	7.2945
1184.78	6.79925
1187.67	5.26459
1190.56	9.87128
1193.45	9.34912
1196.35	4.50714
1199.24	4.1626
1202.13	5.20154
1205.03	7.31744
1207.92	6.06641
1210.81	3.43848
1213.7	5.34192
1216.6	4.99823
1219.49	5.15216
1222.38	3.79169
1225.27	5.32636
1228.17	5.14307
1231.06	2.99072
1233.95	3.35229
1236.84	2.43793
1239.74	1.56427
1242.63	2.44299
1245.52	0.75647
1248.41	0.350159
1251.31	3.06897
1254.2	7.6687
1257.09	3.1261
1259.99	1.91589
1262.88	3.70996
1265.77	6.19745
1268.66	3.97882
1271.56	4.85028
1274.45	3.591
1277.34	3.40619
1280.23	2.93897
1283.13	0.986511
1286.02	6.11456
1288.91	2.09015
1291.81	1.32062
1294.7	0.51001
1297.59	0
