Measurement: Raman, 532 nm, unoriented, Raman Data Processed
Mineral: Junitoite
Rruff sample: R120100
Ideal chemistry: CaZn_2_Si_2_O_7_H_2_O
Locality: Christmas mine, Christmas, Gila County, Arizona, USA
Source: Bob Jenkins
Description: Spray of colorless to pale purple crystals. Part of the co-type. Associated with green hydroxyapophyllite and clinohedrite, R120105. Used in the Yang et al (2012) structure redetermination.
Raman shift (cm-1)	intensity
193.981	0
196.874	5.33643
199.766	4.15625
202.659	0.116821
205.552	0.38092
208.445	7.92248
211.337	8.784
214.23	10.1481
217.123	29.0592
220.015	18.7629
222.908	23.2404
225.801	39.1983
228.693	60.5085
231.586	103.607
234.479	176.089
237.371	286.28
240.264	318.755
243.157	212.101
246.05	120.42
248.942	77.1098
251.835	50.3397
254.728	34.6629
257.62	20.5229
260.513	10.555
263.406	2.20026
266.298	0.967224
269.191	2.89526
272.084	2.41193
274.977	0.745178
277.869	5.34741
280.762	12.344
283.655	16.1497
286.547	23.7956
289.44	34.0363
292.333	48.7316
295.226	60.006
298.118	87.1122
301.011	159.526
303.904	253.593
306.796	208.725
309.689	76.4437
312.582	38.8554
315.474	30.2948
318.367	38.0574
321.26	51.709
324.152	76.2116
327.045	96.941
329.938	116.135
332.831	124.215
335.723	143.086
338.616	168.662
341.509	225.845
344.401	340.619
347.294	529.207
350.187	671.418
353.079	516.151
355.972	262.463
358.865	132.21
361.758	77.884
364.65	41.8442
367.543	35.127
370.436	18.0259
373.328	10.2979
376.221	10.5998
379.114	4.42303
382.007	3.31403
384.899	1.45319
387.792	4.97101
390.685	0.249084
393.577	0.23938
396.47	1.69446
399.363	1.53235
402.255	2.61646
405.148	1.10028
408.041	0.855835
410.933	2.85162
413.826	4.60889
416.719	6.77759
419.612	9.03418
422.504	13.6507
425.397	22.6242
428.29	29.625
431.182	40.0535
434.075	50.9615
436.968	62.2266
439.861	71.7242
442.753	84.111
445.646	78.0666
448.539	65.506
451.431	60.0478
454.324	59.9385
457.217	65.1114
460.109	64.442
463.002	62.0279
465.895	57.8652
468.788	51.0624
471.68	44.3331
474.573	41.2104
477.466	33.8846
480.358	32.2687
483.251	26.8228
486.144	16.7384
489.036	10.0536
491.929	6.7666
494.822	6.67865
497.714	5.41095
500.607	3.6109
503.5	1.99506
506.393	0.506104
509.285	1.90631
512.178	0.77417
515.071	1.48144
517.963	0.711365
520.856	1.40295
523.749	0.273987
526.641	0.497253
529.534	2.47485
532.427	2.53589
535.32	5.96289
538.212	9.07495
541.105	9.07648
543.998	7.86926
546.89	10.9172
549.783	15.5606
552.676	15.0141
555.568	12.505
558.461	15.6913
561.354	16.3348
564.247	14.3546
567.139	17.0778
570.032	17.5565
572.925	13.5439
575.817	16.7295
578.71	18.5727
581.603	26.0125
584.495	33.1367
587.388	43.9554
590.281	56.1627
593.174	60.4797
596.066	60.7638
598.959	55.673
601.852	49.5864
604.744	42.0292
607.637	36.6531
610.53	31.0141
613.423	27.2723
616.315	27.9381
619.208	32.1468
622.101	29.7197
624.993	27.0368
627.886	21.5085
630.779	18.2994
633.671	17.0773
636.564	12.1944
639.457	5.78473
642.35	1.66089
645.242	3.71533
648.135	1.84412
651.028	1.09283
653.92	1.27331
656.813	0.766235
659.706	0.016907
662.598	0.985596
665.491	0.217407
668.384	0.261414
671.277	2.97614
674.169	6.67859
677.062	11.7429
679.955	17.2183
682.847	26.2981
685.74	32.4734
688.633	48.0118
691.525	63.2956
694.418	84.0236
697.311	114.152
700.203	153.162
703.096	201.869
705.989	268.315
708.882	338.203
711.774	386.829
714.667	363.502
717.56	278.505
720.452	181.744
723.345	117.766
726.238	72.971
729.13	46.4587
732.023	30.0886
734.916	20.4947
737.809	14.0189
740.701	9.46234
743.594	6.72308
746.487	6.08398
749.379	5.57562
752.272	5.0592
755.165	1.49908
758.058	0.322144
760.95	2.66931
763.843	4.00397
766.736	3.97882
769.628	3.70422
772.521	3.02911
775.414	6.66779
778.306	3.9671
781.199	1.6842
784.092	0.281982
786.985	1.02625
789.877	3.71704
792.77	7.91064
795.663	4.82373
798.555	3.58691
801.448	2.4931
804.341	1.80096
807.233	1.45831
810.126	3.88391
813.019	1.22253
815.912	0.188965
818.804	1.2392
821.697	4.22632
824.59	13.967
827.482	3.30432
830.375	1.95966
833.268	2.00592
836.16	0.323364
839.053	1.84869
841.946	0.63147
844.838	0.864624
847.731	0.248962
850.624	0.704163
853.517	1.42071
856.409	1.93353
859.302	5.27423
862.195	3.3739
865.087	2.6889
867.98	3.22412
870.873	5.71155
873.765	8.06726
876.658	5.5163
879.551	11.4164
882.444	14.8214
885.336	21.7064
888.229	39.5408
891.122	51.2978
894.014	77.9058
896.907	114.917
899.8	167.418
902.692	224.758
905.585	267.236
908.478	253.149
911.371	194.448
914.263	142.038
917.156	115.191
920.049	104.456
922.941	103.785
925.834	99.926
928.727	101.881
931.62	121.222
934.512	143.625
937.405	156.603
940.298	140.993
943.19	103.246
946.083	67.4127
948.976	44.3165
951.868	25.3389
954.761	10.7872
957.654	6.66937
960.547	3.53217
963.439	1.32703
966.332	0.642212
969.225	1.38745
972.117	3.85266
975.01	8.36511
977.903	13.343
980.795	30.6412
983.688	48.7423
986.581	67.2542
989.473	74.6778
992.366	64.4075
995.259	45.7142
998.152	26.5887
1001.04	16.5783
1003.94	8.19665
1006.83	3.03845
1009.72	3.41229
1012.62	2.6654
1015.51	1.46863
1018.4	1.75293
1021.29	2.41907
1024.19	2.70844
1027.08	2.7666
1029.97	0.38208
1032.86	0.222778
1035.76	0.218811
1038.65	2.47852
1041.54	1.00891
1044.43	3.7442
1047.33	7.92297
1050.22	2.31244
1053.11	1.95673
1056.01	4.45068
1058.9	1.90192
1061.79	1.65076
1064.68	4.33081
1067.58	5.35663
1070.47	2.83728
1073.36	3.75671
1076.26	8.82196
1079.15	2.64038
1082.04	3.27814
1084.93	5.77564
1087.83	6.98395
1090.72	4.01068
1093.61	5.27527
1096.5	4.19507
1099.4	4.57288
1102.29	4.93835
1105.18	1.27093
1108.07	3.31836
1110.97	1.77625
1113.86	3.43793
1116.75	4.19617
1119.64	3.27722
1122.54	2.5506
1125.43	1.14917
1128.32	3.01898
1131.22	1.1239
1134.11	2.633
1137	3.62573
1139.89	2.4632
1142.79	1.49652
1145.68	1.77881
1148.57	1.84167
1151.46	2.03064
1154.36	2.08691
1157.25	1.1839
1160.14	5.46637
1163.04	1.89111
1165.93	2.68487
1168.82	3.24249
1171.71	4.89551
1174.61	5.18378
1177.5	3.85333
1180.39	20.956
1183.28	4.5412
1186.18	3.14349
1189.07	0.904114
1191.96	3.1029
1194.86	5.17188
1197.75	6.89069
1200.64	4.73218
1203.53	2.04285
1206.43	3.13287
1209.32	5.37384
1212.21	1.64874
1215.1	3.12268
1218	0.679626
1220.89	0.423706
1223.78	2.95154
1226.67	4.40619
1229.57	1.25897
1232.46	1.63129
1235.35	0.608093
1238.25	0.080872
1241.14	1.80762
1244.03	1.82495
1246.92	4.68927
1249.82	2.56079
1252.71	1.01343
1255.6	1.23102
1258.49	4.00726
1261.39	5.70764
1264.28	7.05426
1267.17	1.81549
1270.07	3.86749
1272.96	4.14136
1275.85	1.3692
1278.74	4.46124
1281.64	3.80493
1284.53	1.22009
1287.42	1.10791
1290.31	3.94489
1293.21	3.80133
1296.1	6.047
1298.99	2.48218
1301.88	0
