Measurement: Raman, 780 nm, unoriented, Raman Data Processed
Mineral: Junitoite
Rruff sample: R120100
Ideal chemistry: CaZn_2_Si_2_O_7_H_2_O
Locality: Christmas mine, Christmas, Gila County, Arizona, USA
Source: Bob Jenkins
Description: Spray of colorless to pale purple crystals. Part of the co-type. Associated with green hydroxyapophyllite and clinohedrite, R120105. Used in the Yang et al (2012) structure redetermination.
Raman shift (cm-1)	intensity
91.1996	0
94.5744	47.908
97.9492	12.2294
101.324	0.909424
104.699	19.3422
108.074	33.0808
111.448	66.7086
114.823	85.4064
118.198	141.253
121.573	322.502
124.948	65.8649
128.322	5.50464
131.697	2.67145
135.072	4.17853
138.447	5.65411
141.822	19.3796
145.197	54.1476
148.571	78.815
151.946	58.2571
155.321	32.5248
158.696	36.3068
162.071	38.2637
165.446	35.1436
168.82	37.6004
172.195	26.0257
175.57	19.9047
178.945	14.9113
182.32	16.9587
185.694	14.0717
189.069	14.6768
192.444	9.94019
195.819	2.31024
199.194	5.59784
202.569	1.76617
205.943	1.30164
209.318	3.78442
212.693	5.50299
216.068	10.0984
219.442	14.9457
222.817	17.5481
226.192	32.6601
229.567	68.2331
232.942	163.076
236.317	330.171
239.691	441.785
243.066	290.845
246.441	153.912
249.816	89.3688
253.191	55.3539
256.565	31.6643
259.94	17.2277
263.315	9.99341
266.69	1.70203
270.065	1.48541
273.44	1.96478
276.814	0.695862
280.189	7.67255
283.564	17.1789
286.939	28.0937
290.314	46.3629
293.688	63.8309
297.063	105.481
300.438	207.896
303.813	387.208
307.188	277.705
310.562	86.8347
313.937	40.0706
317.312	31.8099
320.687	42.1995
324.062	56.9
327.437	73.3325
330.811	86.4683
334.186	104.837
337.561	147.083
340.936	244.204
344.311	449.919
347.685	791.823
351.06	939.454
354.435	526.135
357.81	230.153
361.185	117.121
364.56	64.3341
367.934	39.3052
371.309	23.0496
374.684	12.149
378.059	4.53388
381.434	5.06989
384.808	6.98004
388.183	4.70258
391.558	1.28284
394.933	2.03345
398.308	0.793579
401.683	1.5683
405.057	1.13654
408.432	2.03223
411.807	3.83899
415.182	6.21143
418.557	8.15607
421.931	14.8084
425.306	20.0967
428.681	29.3672
432.056	44.1317
435.431	56.4561
438.805	65.4647
442.18	74.3756
445.555	71.903
448.93	66.1541
452.305	65.7573
455.68	75.9852
459.054	85.0129
462.429	86.1476
465.804	75.2388
469.179	65.2385
472.554	58.0811
475.928	41.8258
479.303	32.134
482.678	25.3666
486.053	18.9332
489.428	11.8892
492.803	7.89166
496.177	5.71326
499.552	0.539856
502.927	6.19562
506.302	1.55145
509.677	1.45862
513.051	0.948425
516.426	0.05481
519.801	0.702637
523.176	1.93158
526.551	1.33032
529.926	0.150391
533.3	0.300049
536.675	3.51996
540.05	2.87482
543.425	5.68835
546.799	7.18274
550.174	9.50226
553.549	12.8561
556.924	10.8413
560.299	12.8025
563.674	10.86
567.048	12.9821
570.423	14.6467
573.798	16.9285
577.173	18.3367
580.548	24.0381
583.923	34.7925
587.297	49.7457
590.672	63.2979
594.047	72.4186
597.422	66.1852
600.797	58.2875
604.171	49.1784
607.546	43.2976
610.921	40.3122
614.296	36.7833
617.671	27.6794
621.045	24.276
624.42	18.6787
627.795	13.9847
631.17	11.9783
634.545	9.87305
637.919	6.73407
641.294	3.12671
644.669	3.664
648.044	1.33881
651.419	0.12738
654.794	1.08649
658.168	0.976013
661.543	2.53412
664.918	0.4021
668.293	3.16467
671.668	6.86993
675.043	9.61774
678.417	16.375
681.792	23.1267
685.167	35.7378
688.542	51.2858
691.917	72.9038
695.291	103.258
698.666	147.824
702.041	211.647
705.416	305.607
708.791	413.156
712.165	477.87
715.54	410.725
718.915	262.42
722.29	152.507
725.665	87.1499
729.039	51.9698
732.414	33.2159
735.789	21.6721
739.164	15.4972
742.539	10.3754
745.914	7.77649
749.288	4.06311
752.663	2.95312
756.038	2.33246
759.413	0.49408
762.788	1.39697
766.163	4.81061
769.537	3.70264
772.912	1.66541
776.287	0.143982
779.662	0.181641
783.037	2.16034
786.411	0.050964
789.786	2.34509
793.161	1.93561
796.536	2.97034
799.911	4.24301
803.285	0.54657
806.66	4.34299
810.035	1.65625
813.41	0.878662
816.785	4.06418
820.159	4.36374
823.534	4.33624
826.909	8.12314
830.284	2.04828
833.659	2.12479
837.034	1.26526
840.408	0.676941
843.783	1.9942
847.158	0.384705
850.533	0.309937
853.908	1.28311
857.283	1.43948
860.657	0.992249
864.032	0.473053
867.407	7.0506
870.782	3.52939
874.157	8.87552
877.531	10.088
880.906	13.761
884.281	26.4925
887.656	38.0471
891.031	58.9115
894.405	94.0194
897.78	147.767
901.155	229.283
904.53	301.206
907.905	296.55
911.279	219.341
914.654	148.533
918.029	116.801
921.404	107.908
924.779	99.3736
928.154	91.2612
931.528	101.599
934.903	126.122
938.278	147.311
941.653	128.738
945.028	82.2954
948.403	48.344
951.777	29.8568
955.152	17.4766
958.527	11.0316
961.902	6.34976
965.277	4.07724
968.651	1.33472
972.026	0.476379
975.401	2.33283
978.776	6.89688
982.151	23.1957
985.525	34.4816
988.9	32.0504
992.275	29.4504
995.65	20.7012
999.025	14.4318
1002.4	7.46371
1005.77	2.66336
1009.15	1.05334
1012.52	1.13858
1015.9	0.431946
1019.27	1.32245
1022.65	0.048218
1026.02	4.64185
1029.4	3.01331
1032.77	1.79703
1036.15	0.310516
1039.52	0.844879
1042.9	2.52161
1046.27	0.234222
1049.65	1.47836
1053.02	3.28742
1056.4	3.94763
1059.77	3.83594
1063.15	3.8139
1066.52	2.78287
1069.9	3.21808
1073.27	2.16443
1076.64	3.25531
1080.02	1.63666
1083.39	3.5986
1086.77	3.90961
1090.14	2.78183
1093.52	4.79587
1096.89	3.07855
1100.27	2.51144
1103.64	0.765106
1107.02	1.07935
1110.39	1.19745
1113.77	0.587982
1117.14	0.628632
1120.52	2.07669
1123.89	1.90308
1127.27	2.56958
1130.64	2.19562
1134.02	2.81073
1137.39	1.76785
1140.77	4.81168
1144.14	1.27405
1147.52	1.57916
1150.89	3.53687
1154.27	3.31332
1157.64	3.4606
1161.02	4.29636
1164.39	2.64111
1167.77	5.81171
1171.14	4.44809
1174.52	5.51962
1177.89	5.84994
1181.27	2.68665
1184.64	4.92816
1188.01	6.00946
1191.39	4.53403
1194.76	4.58496
1198.14	5.41892
1201.51	5.0036
1204.89	5.70471
1208.26	1.59296
1211.64	1.62793
1215.01	1.17978
1218.39	0.586273
1221.76	1.54401
1225.14	3.31986
1228.51	0.61499
1231.89	1.12158
1235.26	0.543243
1238.64	2.53864
1242.01	1.34476
1245.39	0.043884
1248.76	1.16278
1252.14	1.63345
1255.51	1.97086
1258.88	0.109772
1262.26	0.250397
1265.63	2.21863
1269.01	1.78049
1272.38	2.29819
1275.76	1.62686
1279.13	0.024109
1282.51	2.47897
