Measurement: Raman, 785 nm, unoriented, Raman Data Processed
Mineral: K3Fe(CN)5NO
Rruff sample: R060933
Ideal chemistry: K_3_Fe(CN)_5_NO
Locality: Synthetic, made in the Czech Republic
Source: Rock H. Currier Collection
Description: Large sharp single crystal, translucent red
Measured chemistry: K_3.00_Fe^3+^_1.00_(CN)_5_NO ; N,C,O not measured but assumed by stoichiometry
Raman shift (cm-1)	intensity
124.902	0
127.795	39.6567
130.688	1365.38
133.58	2280.91
136.473	1903.93
139.366	1609.86
142.258	2724.68
145.151	5547.26
148.044	9423.28
150.936	13069.9
153.829	14698.6
156.722	13867.9
159.615	13986.9
162.507	17264.4
165.4	25224.9
168.293	37621
171.185	53116.9
174.078	63848.4
176.971	58918.6
179.863	41584.9
182.756	26607.5
185.649	17020.3
188.542	11325.9
191.434	7719.33
194.327	5413.9
197.22	3840.19
200.112	2760.26
203.005	1983.13
205.898	1405.57
208.791	972.16
211.683	651.494
214.576	421.571
217.469	285.951
220.361	156.732
223.254	93.302
226.147	15.417
229.04	60.6343
231.932	113.955
234.825	122.3
237.718	117.026
240.61	130.085
243.503	92.5957
246.396	87.5872
249.288	68.6633
252.181	21.4216
255.074	17.707
257.966	14.4434
260.859	56.9089
263.752	102.467
266.645	77.5078
269.537	121.224
272.43	148.104
275.323	160.811
278.215	198.307
281.108	283.452
284.001	249.534
286.894	230.14
289.786	227.003
292.679	230.932
295.572	179.404
298.464	167.716
301.357	150.664
304.25	170.066
307.142	150.754
310.035	159.097
312.928	157.802
315.82	139.98
318.713	180.835
321.606	253.107
324.499	385.082
327.391	573.115
330.284	802.055
333.177	701.695
336.069	598.516
338.962	655.917
341.855	775.27
344.748	927.445
347.64	1090.96
350.533	1283.53
353.426	1417.29
356.318	1595.12
359.211	1694.21
362.104	1865.31
364.996	1984.05
367.889	2262.01
370.782	2752.43
373.675	3484.43
376.567	5065.53
379.46	7905.46
382.353	12067
385.245	16578.2
388.138	14538.5
391.031	6982
393.923	3202.17
396.816	1897.93
399.709	1324.7
402.601	996.578
405.494	807.628
408.387	717.849
411.28	664.356
414.172	598.641
417.065	615.388
419.958	549.784
422.85	506.295
425.743	404.998
428.636	283.793
431.529	171.936
434.421	73.5619
437.314	45.0918
440.207	1.12549
443.099	30.2839
445.992	22.6891
448.885	39.3849
451.777	43.1304
454.67	39.7525
457.563	42.3873
460.455	18.0869
463.348	13.4474
466.241	22.3287
469.134	23.569
472.026	63.0645
474.919	68.4316
477.812	86.3965
480.704	112.326
483.597	119.444
486.49	131.826
489.382	136.601
492.275	146.146
495.168	149.221
498.061	164.716
500.953	164.056
503.846	204.717
506.739	188.979
509.631	169.789
512.524	148.661
515.417	121.678
518.309	115.648
521.202	102.243
524.095	86.8793
526.988	90.2929
529.88	73.5179
532.773	74.1534
535.666	87.4537
538.558	86.7266
541.451	67.3497
544.344	52.6242
547.236	43.3882
550.129	40.7907
553.022	46.1141
555.915	29.2408
558.807	20.0613
561.7	28.24
564.593	6.38678
567.485	9.95245
570.378	16.6256
573.271	3.13178
576.163	20.4684
579.056	4.1167
581.949	20.9322
584.842	2.55127
587.734	25.6862
590.627	4.16199
593.52	8.55493
596.413	0.881226
599.305	25.1574
602.198	23.9316
605.091	37.5516
607.983	37.7267
610.876	62.1256
613.769	47.0294
616.661	79.725
619.554	87.2888
622.447	108.654
625.34	127.217
628.232	185.075
631.125	203.108
634.018	241.49
636.91	263.433
639.803	160.938
642.696	93.9928
645.588	72.8512
648.481	74.7659
651.374	98.3551
654.266	122.084
657.159	180.985
660.052	246.364
662.945	272.622
665.837	308.929
668.73	331.444
671.623	372.242
674.515	384.027
677.408	471.054
680.301	493.374
683.193	522.053
686.086	582.057
688.979	574.332
691.872	643.492
694.764	649.761
697.657	680.599
700.55	730.845
703.442	871.389
706.335	892.273
709.228	764.353
712.12	649.505
715.013	560.022
717.906	515.926
720.799	469.736
723.691	445.104
726.584	437.904
729.477	427.862
732.369	386.742
735.262	373.886
738.155	295.425
741.048	220.336
743.94	157.911
746.833	88.6898
749.726	85.6334
752.618	51.1083
755.511	9.28809
758.404	7.65491
761.296	13.2112
764.189	8.48914
767.082	35.4934
769.975	5.6311
772.867	25.2382
775.76	7.07849
778.653	5.27014
781.545	11.415
784.438	33.6365
787.331	45.53
790.223	71.9904
793.116	93.5729
796.009	66.8911
798.902	34.2222
801.794	64.8256
804.687	104.108
807.58	163.536
810.472	237.03
813.365	252.731
816.258	281.941
819.15	301.574
822.043	328.001
824.936	297.213
827.828	366.084
830.721	352.773
833.614	390.891
836.507	365.708
839.399	376.256
842.292	328.158
845.185	318.007
848.077	357.587
850.97	365.001
853.863	328.299
856.755	319.018
859.648	293.561
862.541	268.553
865.434	229.461
868.326	206.657
871.219	188.178
874.112	194.323
877.004	204.306
879.897	268.052
882.79	332.937
885.683	437.681
888.575	472.805
891.468	397.022
894.361	193.991
897.253	51.7322
900.146	4.5929
903.039	33.1633
905.931	10.3447
908.824	6.0802
911.717	40.1163
914.61	75.4315
917.502	121.529
920.395	180.741
923.288	163.435
926.18	202.885
929.073	220.743
931.966	230.152
934.859	250.687
937.751	280.55
940.644	269.203
943.537	290.475
946.429	262.784
949.322	233.307
952.215	225.953
955.107	243.442
958	202.173
960.893	190.543
963.785	156.274
966.678	138.186
969.571	106.93
972.464	124.935
975.356	114.361
978.249	99.9546
981.142	106.878
984.034	76.8119
986.927	88.9582
989.82	76.5231
992.712	25.1466
995.605	41.0303
998.498	76.9343
1001.39	89.1651
1004.28	107.172
1007.18	68.8191
1010.07	41.0981
1012.96	36.9401
1015.85	53.7173
1018.75	43.0681
1021.64	31.1198
1024.53	25.5761
1027.42	23.2523
1030.32	55.0685
1033.21	37.6951
1036.1	48.5525
1039	29.7237
1041.89	25.0814
1044.78	22.45
1047.67	16.2855
1050.57	12.5481
1053.46	17.6644
1056.35	12.1341
1059.24	16.8638
1062.14	5.56928
1065.03	13.9149
1067.92	5.72363
1070.82	2.08167
1073.71	2.64032
1076.6	1.80987
1079.49	21.9807
1082.39	18.1004
1085.28	14.7269
1088.17	47.3276
1091.06	296.804
1093.96	39
1096.85	48.4481
1099.74	51.7132
1102.63	83.3341
1105.53	126.136
1108.42	213.737
1111.31	293.456
1114.21	246.817
1117.1	158.136
1119.99	101.174
1122.88	44.9786
1125.78	40.3894
1128.67	1.40521
1131.56	0.458618
1134.45	0.290649
1137.35	23.1326
1140.24	5.04755
1143.13	20.9503
1146.03	33.5887
1148.92	33.3616
1151.81	46.2029
1154.7	22.0829
1157.6	5.37018
1160.49	43.1675
1163.38	49.324
1166.28	59.4367
1169.17	52.8851
1172.06	70.915
1174.95	84.605
1177.85	197.833
1180.74	212.442
1183.63	111.664
1186.52	16.0803
1189.42	25.7195
1192.31	14.3617
1195.2	31.2672
1198.09	20.9625
1200.99	6.80652
1203.88	3.3971
1206.77	0.765808
1209.66	8.71075
1212.56	20.1256
1215.45	35.1927
1218.34	63.4697
1221.24	85.2057
1224.13	91.1565
1227.02	124.928
1229.91	107.355
1232.81	112.683
1235.7	88.1453
1238.59	66.2025
1241.48	54.2581
1244.38	46.2303
1247.27	9.89166
1250.16	0.211792
