Measurement: Raman, 532 nm, unoriented, Raman Data Processed
Mineral: K3Fe(CN)5NO
Rruff sample: R060933
Ideal chemistry: K_3_Fe(CN)_5_NO
Locality: Synthetic, made in the Czech Republic
Source: Rock H. Currier Collection
Description: Large sharp single crystal, translucent red
Measured chemistry: K_3.00_Fe^3+^_1.00_(CN)_5_NO ; N,C,O not measured but assumed by stoichiometry
Raman shift (cm-1)	intensity
119.595	0
122.969	912.875
126.344	650.071
129.719	711.16
133.094	1827.59
136.469	2985.97
139.843	3460.83
143.218	3980.2
146.593	6095.89
149.968	9276.03
153.343	12530.6
156.718	13820.8
160.092	14832.8
163.467	18415.3
166.842	24982.8
170.217	33298.7
173.592	38555.6
176.966	34067.3
180.341	23157.4
183.716	14093.6
187.091	8399.82
190.466	4988.17
193.84	2874.23
197.215	1613.94
200.59	883.84
203.965	366.848
207.34	85.7856
210.714	77.9131
214.089	111.966
217.464	160.228
220.839	113.287
224.214	174.283
227.589	52.5693
230.963	44.4302
234.338	138.578
237.713	139.637
241.088	199.723
244.463	284.897
247.838	377.188
251.212	423.12
254.587	441.904
257.962	450.676
261.337	591.423
264.712	592.851
268.086	591.629
271.461	540.073
274.836	436.081
278.211	325.489
281.586	246.032
284.96	111.429
288.335	10.9898
291.71	4.18213
295.085	41.5942
298.46	52.2915
301.834	13.0264
305.209	75.3477
308.584	126.793
311.959	125.051
315.334	193.894
318.709	252.75
322.083	500.478
325.458	791.155
328.833	1149.07
332.208	1189.82
335.583	941.839
338.957	1076.85
342.332	1334.55
345.707	1643.94
349.082	1977.73
352.457	2358.88
355.832	2785.36
359.206	3108.11
362.581	3517.52
365.956	4028.55
369.331	4772.59
372.706	6069.5
376.08	7836.1
379.455	9976.34
382.83	12165.8
386.205	11290.5
389.58	5771.22
392.954	2781.4
396.329	1950
399.704	1627.2
403.079	1439.83
406.454	1354.7
409.829	1351.29
413.203	1397.39
416.578	1234.1
419.953	1089.41
423.328	973.388
426.703	833.622
430.077	796.814
433.452	730.633
436.827	497.139
440.202	259.217
443.577	71.5779
446.952	17.646
450.326	41.0327
453.701	55.0664
457.076	24.2532
460.451	71.7808
463.826	34.9072
467.2	24.5877
470.575	60.1873
473.95	5.23291
477.325	0.671143
480.7	79.0996
484.074	146.585
487.449	209.062
490.824	232.509
494.199	242.839
497.574	292.942
500.949	312.868
504.323	369.297
507.698	445.152
511.073	388.727
514.448	433.046
517.823	545.478
521.197	592.803
524.572	663.166
527.947	780.989
531.322	882.084
534.697	1015.96
538.072	944.559
541.446	753.188
544.821	605.593
548.196	563.973
551.571	458.2
554.946	242.737
558.32	117.3
561.695	67.4551
565.07	29.2918
568.445	0.302979
571.82	46.7485
575.194	40.2476
578.569	3.39014
581.944	8.33447
585.319	46.6055
588.694	97.7881
592.068	196.847
595.443	289.683
598.818	433.712
602.193	609.744
605.568	865.031
608.942	1180.49
612.317	1445.75
615.692	1763.61
619.067	1771.94
622.442	1784.04
625.817	1226.85
629.191	664.089
632.566	262.576
635.941	47.8477
639.316	30.4839
642.691	97.7192
646.066	167.909
649.44	305.165
652.815	451.096
656.19	622.424
659.565	722.456
662.94	900.597
666.314	1084.79
669.689	1318.81
673.064	1497.67
676.439	1508.47
679.814	1509.14
683.188	1752.97
686.563	1755.31
689.938	1857.85
693.313	1877.34
696.688	2005.15
700.062	1946.77
703.437	2013.81
706.812	2020.41
710.187	1966.94
713.562	1899.89
716.937	1909.63
720.311	1852.39
723.686	1683.98
727.061	1507.7
730.436	1319.93
733.811	1092.69
737.185	993.293
740.56	774.78
743.935	643.051
747.31	470.312
750.685	286.12
754.059	134.07
757.434	103.099
760.809	5.44629
764.184	104.324
767.559	18.1953
770.934	2.41602
774.308	30.0698
777.683	74.3726
781.058	14.061
784.433	64.1782
787.808	37.8379
791.183	89.8003
794.557	85.957
797.932	178.295
801.307	236.566
804.682	279.072
808.057	428.17
811.431	624.154
814.806	779.629
818.181	868.117
821.556	984.442
824.931	1090.25
828.305	1197.21
831.68	1225.5
835.055	1259.01
838.43	1300.27
841.805	1369.84
845.179	1499.58
848.554	1434.37
851.929	1402.67
855.304	1365.83
858.679	1347.56
862.053	1262.93
865.428	1072.17
868.803	1003.28
872.178	854.89
875.553	731.259
878.928	575.995
882.302	367.563
885.677	327.454
889.052	145.591
892.427	61.1899
895.802	13.6807
899.177	72.959
902.551	104.458
905.926	44.4224
909.301	95.3774
912.676	198.879
916.051	438.317
919.425	550.328
922.8	792.899
926.175	934.806
929.55	1019.99
932.925	1026.72
936.299	1117.82
939.674	1108.66
943.049	1118.66
946.424	1074.96
949.799	1142.24
953.173	1119.08
956.548	1052.72
959.923	1034.98
963.298	956.94
966.673	851.982
970.048	783.714
973.422	711.265
976.797	688.1
980.172	634.493
983.547	561.176
986.922	461.357
990.296	443.154
993.671	381.175
997.046	352.58
1000.42	265.706
1003.8	252.1
1007.17	216.047
1010.54	159.207
1013.92	133.148
1017.29	64.3828
1020.67	99.6836
1024.05	97.1318
1027.42	135.142
1030.79	84.6953
1034.17	91.7925
1037.54	95.4746
1040.92	125.751
1044.29	125.828
1047.67	118.944
1051.04	135.073
1054.42	185.107
1057.79	173.427
1061.17	85.9771
1064.54	99.2666
1067.92	110.007
1071.29	72.7158
1074.67	69.3696
1078.04	64.2188
1081.42	43.9263
1084.79	37.9756
1088.17	24.0503
1091.54	43.6699
1094.92	45.7861
1098.29	31.2358
1101.66	9.92578
1105.04	19.2627
1108.41	1.42481
1111.79	8.60986
1115.16	9.31738
1118.54	14.9468
1121.91	37.6685
1125.29	13.6431
1128.66	56.1514
1132.04	87.105
1135.41	31.3833
1138.79	110.17
1142.16	82.9072
1145.54	93.6929
1148.91	143.851
1152.29	210.717
1155.66	276.235
1159.04	289.442
1162.41	236.858
1165.79	175.569
1169.16	123.23
1172.54	78.7996
1175.91	96.8389
1179.29	89.4351
1182.66	96.9436
1186.04	124.825
1189.41	203.521
1192.79	183.48
1196.16	182.934
1199.54	89.6482
1202.91	22.7827
1206.29	45.3125
1209.66	33.6868
1213.03	102.736
1216.41	64.2615
1219.78	102.414
1223.16	144.537
1226.53	133.17
1229.91	148.163
1233.28	148.736
1236.66	139.38
1240.03	169.035
1243.41	191.769
1246.78	130.953
1250.16	67.1875
1253.53	56.6367
1256.91	63.3782
1260.28	31.3289
1263.66	4.87402
1267.03	10.2583
1270.41	48.5808
1273.78	43.3076
1277.16	68.9326
1280.53	22.7905
1283.9	57.6753
1287.28	0
