Measurement: Raman, 532 nm, unoriented, Raman Data Processed
Mineral: Kainosite-(Y)
Rruff sample: R070759
Ideal chemistry: Ca_2_Y_2_(SiO_3_)_4_(CO_3_)H_2_O
Locality: Bicroft mine, Cardiff Township, Haliburton Co., Ontario, Canada
Source: Michael Scott
Description: Light brown prismatic crystals associated with quartz and green fluorite
Raman shift (cm-1)	intensity
149.085	0
151.978	101.013
154.871	377.103
157.763	1387.42
160.656	2338.92
163.549	2997.37
166.441	3361.51
169.334	3550.85
172.227	3661.52
175.119	3237.44
178.012	2234.05
180.905	1308.92
183.798	1026.86
186.69	877.687
189.583	880.487
192.476	696.066
195.368	528.564
198.261	531.273
201.154	435.922
204.047	227.352
206.939	119.689
209.832	67.251
212.725	68.9824
215.617	165.588
218.51	35.291
221.403	123.073
224.295	233.436
227.188	493.44
230.081	848.889
232.974	1347.8
235.866	1910.75
238.759	2371.69
241.652	2520.69
244.544	2494.66
247.437	2323.97
250.33	2151.54
253.222	1833.42
256.115	1025.88
259.008	557.886
261.901	273.172
264.793	140.254
267.686	98.7393
270.579	138.921
273.471	4.67578
276.364	69.6455
279.257	26.833
282.149	220.844
285.042	357.165
287.935	806.18
290.827	1178.92
293.72	1530.83
296.613	1656.63
299.506	1746.56
302.398	2009.14
305.291	2743.97
308.184	3791.31
311.076	4676.94
313.969	4661.93
316.862	3875.39
319.755	3022.03
322.647	2798.58
325.54	2995.85
328.433	3615.77
331.325	4230.88
334.218	4366.32
337.111	3515.16
340.003	2590.51
342.896	1635.91
345.789	844.808
348.682	456.269
351.574	211.425
354.467	411.144
357.36	709.37
360.252	1400.45
363.145	2121.98
366.038	2802.95
368.93	3332
371.823	3417.23
374.716	2795.76
377.608	1927.13
380.501	988.195
383.394	315.603
386.287	108.397
389.179	182.409
392.072	158.621
394.965	119.456
397.857	732.301
400.75	1434.26
403.643	1854.29
406.536	2104.2
409.428	1903.01
412.321	1624.27
415.214	1508.14
418.106	1364.31
420.999	1174.39
423.892	742.424
426.784	311.57
429.677	167.685
432.57	66.1221
435.462	290.515
438.355	440.004
441.248	547.973
444.141	569.61
447.033	313.011
449.926	107.744
452.819	50.3574
455.711	30.4941
458.604	95.4824
461.497	260.19
464.389	675.679
467.282	1144.34
470.175	1175.54
473.067	1035.92
475.96	1078.09
478.853	1626.77
481.746	2750.38
484.638	4048.23
487.531	4197.14
490.424	2833.84
493.316	1405.17
496.209	817.998
499.102	660.463
501.995	863.769
504.887	1237.28
507.78	1568.22
510.673	2100.19
513.565	2508.28
516.458	2318.41
519.351	1929.2
522.243	1576.4
525.136	1238.28
528.029	1021.61
530.922	876.267
533.814	664.494
536.707	614.523
539.6	642.411
542.492	624.964
545.385	424.57
548.278	321.625
551.17	192.386
554.063	107.518
556.956	43.4228
559.848	49.5029
562.741	15.8652
565.634	40.5225
568.527	46.3115
571.419	26.5068
574.312	9.37207
577.205	35.3916
580.097	43.8652
582.99	27.9033
585.883	42.4795
588.775	56.6738
591.668	156.504
594.561	342.023
597.454	553.746
600.346	979.971
603.239	1337.32
606.132	2203.77
609.024	3379.32
611.917	5336.03
614.81	7525.76
617.702	9029.9
620.595	8274.2
623.488	5828.33
626.381	3798.63
629.273	2430.79
632.166	1678.6
635.059	1111.89
637.951	694.593
640.844	580.492
643.737	375.765
646.63	203.266
649.522	152.129
652.415	28.3477
655.308	9.66309
658.2	33.9824
661.093	133.231
663.986	79.5879
666.878	36.0166
669.771	50.7705
672.664	192.287
675.557	371.421
678.449	599.977
681.342	831.141
684.235	621.05
687.127	381.611
690.02	218.695
692.913	225.019
695.805	307.663
698.698	419.759
701.591	795.545
704.484	1251.33
707.376	1548.51
710.269	1516.7
713.162	1236.85
716.054	1213.24
718.947	1383.89
721.84	1217.63
724.732	1381.95
727.625	1199.74
730.518	1299.35
733.41	1037.25
736.303	972.705
739.196	827.056
742.089	814.289
744.981	808.126
747.874	716.309
750.767	687.981
753.659	657.036
756.552	707.809
759.445	1030.02
762.337	1666.06
765.23	2394.82
768.123	3357.74
771.016	2969.65
773.908	1830.74
776.801	1337.59
779.694	1180.79
782.586	1149.31
785.479	972.261
788.372	848.193
791.264	804.422
794.157	839.751
797.05	761.577
799.943	823.795
802.835	975.421
805.728	846.861
808.621	788.865
811.513	729.169
814.406	492.336
817.299	224.124
820.192	91.335
823.084	22.2568
825.977	80.9648
828.87	168.241
831.762	10.1592
834.655	2.39062
837.548	95.3467
840.44	237.675
843.333	391.457
846.226	729.964
849.118	908.44
852.011	1132.91
854.904	1372.16
857.797	1637.7
860.689	1735.44
863.582	1709.64
866.475	1727.34
869.367	1547.19
872.26	1409.96
875.153	1271.56
878.045	1213.48
880.938	1146.65
883.831	961.895
886.723	771.912
889.616	584.24
892.509	458.082
895.402	586.445
898.294	743.763
901.187	804.612
904.08	940.698
906.972	680.538
909.865	405.12
912.758	248.485
915.65	190.622
918.543	261.816
921.436	380.406
924.329	504.187
927.221	576.375
930.114	720.441
933.007	884.169
935.899	682.843
938.792	358.601
941.685	139.843
944.577	9.68945
947.47	73.7314
950.363	83.8066
953.256	26.7021
956.148	41.1377
959.041	40.1582
961.934	83.3828
964.826	57.374
967.719	63.5039
970.612	19.9102
973.505	88.5273
976.397	37.6152
979.29	17.5439
982.183	227.451
985.075	570.257
987.968	815.781
990.861	919.445
993.753	888.862
996.646	827.587
999.539	1148.11
1002.43	1621.87
1005.32	2037.93
1008.22	2018.97
1011.11	1675.12
1014	1347.58
1016.89	1232.09
1019.79	1452.44
1022.68	1939.95
1025.57	2876.84
1028.47	4342.85
1031.36	6321.79
1034.25	8370.28
1037.14	8783.78
1040.04	6899.3
1042.93	4650.18
1045.82	3302.94
1048.71	2573.5
1051.61	2381.76
1054.5	2207.85
1057.39	2142.79
1060.29	2204.44
1063.18	2019.81
1066.07	1969.2
1068.96	1702.44
1071.86	1524.87
1074.75	1332.11
1077.64	1153.73
1080.53	911.143
1083.43	884.963
1086.32	891.111
1089.21	938.953
1092.11	1066.54
1095	1179.05
1097.89	1078.09
1100.78	1246.76
1103.68	1435.28
1106.57	2010.68
1109.46	3527.42
1112.35	6396.36
1115.25	10522.4
1118.14	15458.9
1121.03	15922.1
1123.92	8399.07
1126.82	3517.37
1129.71	1509.98
1132.6	437.299
1135.5	179.289
1138.39	14.084
1141.28	148.069
1144.17	140.171
1147.07	96.7598
1149.96	6.11719
1152.85	92.5488
1155.74	88.3174
1158.64	149.891
1161.53	276.344
1164.42	331.192
1167.32	386.711
1170.21	334.065
1173.1	258.422
1175.99	198.186
1178.89	188.095
1181.78	81.1191
1184.67	93.1797
1187.56	9.80859
1190.46	10.6475
