Measurement: Raman, 780 nm, unoriented, Raman Data Processed
Mineral: Kainite
Rruff sample: R100021
Ideal chemistry: KMg(SO_4_)Cl3H_2_O
Locality: Leopoldshall, Stassfurt, Stassfurt Deposit, Saxony-Anhalt, Germany
Source: Michael Scott
Description: Colorless grains associated with carnallite R070291 and pentahydrite R100022
Raman shift (cm-1)	intensity
122.036	0
125.411	6.61612
128.786	20.1187
132.161	41.5054
135.536	47.6461
138.911	67.0996
142.285	56.4523
145.66	30.8837
149.035	3.43127
152.41	2.05111
155.785	6.05057
159.159	1.25876
162.534	1.43771
165.909	5.31885
169.284	3.17172
172.659	5.31973
176.034	22.5149
179.408	36.6838
182.783	38.0089
186.158	41.6606
189.533	38.0698
192.908	42.2874
196.282	35.6458
199.657	30.9209
203.032	30.2828
206.407	27.3186
209.782	29.5788
213.156	30.7299
216.531	26.0561
219.906	15.463
223.281	15.2992
226.656	15.1409
230.031	16.207
233.405	24.9202
236.78	34.902
240.155	44.3798
243.53	46.5249
246.905	48.9961
250.28	45.6691
253.654	45.7792
257.029	50.5398
260.404	52.0382
263.779	53.0911
267.154	57.4026
270.528	69.0821
273.903	72.9589
277.278	73.9836
280.653	67.7409
284.028	44.4132
287.402	35.3255
290.777	22.067
294.152	11.1242
297.527	5.73589
300.902	2.24992
304.277	3.34963
307.651	3.0632
311.026	0.720871
314.401	3.8481
317.776	2.70673
321.151	1.55855
324.526	3.02998
327.9	4.46928
331.275	4.19394
334.65	3.76334
338.025	7.31663
341.399	7.2229
344.774	6.21817
348.149	10.182
351.524	6.99782
354.899	7.71962
358.274	11.1114
361.648	6.71217
365.023	3.98949
368.398	1.32666
371.773	1.97002
375.148	1.60323
378.522	3.28246
381.897	1.02635
385.272	2.51109
388.647	8.67215
392.022	9.56358
395.397	11.959
398.771	17.1347
402.146	17.9892
405.521	22.3861
408.896	29.9882
412.271	41.7308
415.646	45.9348
419.02	60.7459
422.395	90.9768
425.77	128.432
429.145	180.849
432.52	257.621
435.894	354.302
439.269	393.52
442.644	414.436
446.019	413.048
449.394	383.073
452.769	281.322
456.143	163.582
459.518	110.927
462.893	90.9818
466.268	78.1358
469.643	61.0891
473.017	40.2482
476.392	17.2385
479.767	6.22072
483.142	0.955505
486.517	1.48346
489.892	0.655156
493.266	2.8821
496.641	3.1898
500.016	1.71133
503.391	6.37251
506.766	4.66568
510.14	11.3318
513.515	12.9818
516.89	12.5806
520.265	13.878
523.64	12.0993
527.014	12.9814
530.389	17.1904
533.764	18.429
537.139	13.8485
540.514	15.6569
543.889	15.5754
547.263	9.30742
550.638	15.1003
554.013	11.8533
557.388	12.1215
560.763	8.97072
564.138	7.54038
567.512	9.94418
570.887	5.71004
574.262	6.54462
577.637	7.67743
581.011	4.22827
584.386	2.08612
587.761	1.51407
591.136	6.5177
594.511	4.54987
597.886	11.4432
601.26	15.4803
604.635	21.036
608.01	26.9133
611.385	34.7426
614.76	53.0247
618.135	70.5311
621.509	91.1763
624.884	106.839
628.259	106.32
631.634	94.65
635.009	68.7836
638.383	44.5432
641.758	27.1797
645.133	13.7522
648.508	8.17128
651.883	3.92831
655.258	1.46637
658.632	0.702194
662.007	0.002731
665.382	0.203339
668.757	2.99007
672.132	1.41591
675.506	0.593353
678.881	3.09749
682.256	4.94762
685.631	5.67748
689.006	3.23982
692.38	3.00136
695.755	7.41562
699.13	2.31079
702.505	5.06786
705.88	8.74863
709.255	0.146301
712.629	2.60033
716.004	1.5153
719.379	3.80069
722.754	5.48088
726.129	4.73575
729.504	7.4364
732.878	8.83003
736.253	11.4939
739.628	8.81502
743.003	6.7615
746.378	8.29956
749.752	7.62474
753.127	2.18961
756.502	5.64859
759.877	3.23914
763.252	5.30655
766.626	2.85123
770.001	9.26511
773.376	10.3641
776.751	3.61792
780.126	1.93988
783.5	2.77242
786.875	2.362
790.25	5.0069
793.625	5.72809
797	2.05713
800.375	6.57117
803.75	4.3255
807.124	4.28389
810.499	6.51587
813.874	5.50574
817.249	9.40828
820.624	6.58662
823.998	6.09123
827.373	8.13954
830.748	5.64578
834.123	4.65894
837.498	8.73576
840.872	6.33334
844.247	4.52918
847.622	5.02441
850.997	6.46438
854.372	4.54105
857.746	5.81467
861.121	7.67864
864.496	6.92794
867.871	10.3858
871.246	5.11812
874.621	1.10477
877.995	8.28223
881.37	0.349449
884.745	1.00715
888.12	1.93157
891.495	2.31928
894.87	4.14823
898.244	2.56103
901.619	0.645676
904.994	1.02677
908.369	0.072632
911.744	2.80191
915.118	0.220139
918.493	5.39014
921.868	5.03899
925.243	4.02318
928.618	2.19038
931.992	4.4429
935.367	2.24721
938.742	2.04835
942.117	2.70022
945.492	1.27006
948.867	1.40987
952.241	0.960693
955.616	3.20049
958.991	0.249573
962.366	0.220711
965.741	0.881119
969.115	1.7398
972.49	2.1344
975.865	5.95469
979.24	4.85655
982.615	10.5424
985.99	9.48227
989.364	11.2056
992.739	14.4678
996.114	17.2802
999.489	27.1843
1002.86	37.484
1006.24	72.9096
1009.61	158.033
1012.99	312.401
1016.36	436.565
1019.74	574.239
1023.11	582.381
1026.49	400.693
1029.86	395.601
1033.24	479.95
1036.61	604.108
1039.99	570.587
1043.36	270.098
1046.74	82.8556
1050.11	35.3357
1053.49	18.2049
1056.86	10.0604
1060.24	2.70766
1063.61	0.627998
1066.98	2.28066
1070.36	5.05605
1073.73	15.5731
1077.11	5.20838
1080.48	15.8222
1083.86	20.1628
1087.23	22.8345
1090.61	22.4578
1093.98	39.1569
1097.36	29.5236
1100.73	30.0237
1104.11	21.9631
1107.48	8.98752
1110.86	9.18365
1114.23	6.52324
1117.61	3.79154
1120.98	2.70187
1124.36	3.11853
1127.73	0.04435
1131.11	2.62059
1134.48	2.15461
1137.86	4.89831
1141.23	5.61311
1144.61	6.69254
1147.98	10.6116
1151.36	9.27357
1154.73	10.1279
1158.11	9.40873
1161.48	6.66057
1164.86	4.40733
1168.23	10.1156
1171.6	15.6975
1174.98	21.7285
1178.35	33.4135
1181.73	39.5409
1185.1	60.2236
1188.48	84.0953
1191.85	100.557
1195.23	97.6147
1198.6	72.5124
1201.98	33.3272
1205.35	18.7249
1208.73	10.2519
1212.1	9.6826
1215.48	5.34966
1218.85	4.27817
1222.23	0.739937
1225.6	2.32449
1228.98	4.75428
1232.35	2.75464
1235.73	2.53735
1239.1	2.09673
1242.48	2.20519
1245.85	3.19055
1249.22	3.98286
1252.6	1.99469
1255.97	7.6814
1259.35	2.86554
1262.72	2.57965
1266.1	1.78469
1269.47	5.99104
1272.85	3.33758
1276.22	5.2486
1279.6	0.369888
