Measurement: Raman, 785 nm, unoriented, Raman Data Processed
Mineral: Kainite
Rruff sample: R070152
Ideal chemistry: KMg(SO_4_)Cl3H_2_O
Locality: Hansa mine, Hannover, Lower Saxony, Germany
Source: James Shigley
Description: Lavendar granular massive
Raman shift (cm-1)	intensity
167.111	0
170.004	105.556
172.896	104.27
175.789	70.0835
178.682	33.366
181.574	8.10791
184.467	18.9951
187.36	52.9932
190.252	9.50122
193.145	96.5471
196.038	128.487
198.93	136.271
201.823	124.987
204.716	101.954
207.609	134.33
210.501	133.179
213.394	119.552
216.287	46.3201
219.179	13.3171
222.072	53.8679
224.965	35.4116
227.857	114.898
230.75	114.656
233.643	219.538
236.536	279.382
239.428	395.724
242.321	542.128
245.214	607.553
248.106	630.185
250.999	519.526
253.892	507.375
256.784	446.844
259.677	422.745
262.57	265.629
265.463	253.89
268.355	196.113
271.248	210.652
274.141	224.468
277.033	250.668
279.926	317.076
282.819	363.903
285.712	370.019
288.604	402.892
291.497	381.909
294.39	444.3
297.282	370.607
300.175	189.824
303.068	102.149
305.96	9.57886
308.853	18.613
311.746	24.9529
314.639	17.6201
317.531	5.85522
320.424	30.6318
323.317	99.7336
326.209	170.776
329.102	196.948
331.995	89.3984
334.887	127.557
337.78	136.339
340.673	151.073
343.565	135.113
346.458	130.625
349.351	107.686
352.244	100.959
355.136	70.8506
358.029	105.322
360.922	95.7044
363.814	115.986
366.707	61.0876
369.6	68.168
372.493	22.9695
375.385	45.5859
378.278	34.803
381.171	14.688
384.063	0.25415
386.956	43.7749
389.849	1.55933
392.741	16.4204
395.634	16.7195
398.527	87.668
401.419	70.7896
404.312	76.5427
407.205	101.094
410.098	135.521
412.99	164.107
415.883	207.312
418.776	231.842
421.668	289.223
424.561	380.575
427.454	644.164
430.346	872.931
433.239	1201.53
436.132	1723.86
439.024	2104.19
441.917	2105.16
444.81	1549.46
447.703	1231.05
450.595	1196.64
453.488	965.111
456.381	686.497
459.273	600.94
462.166	599.249
465.059	557.18
467.952	448.412
470.844	311.89
473.737	244.431
476.63	107.04
479.522	48.2114
482.415	13.3906
485.308	5.87231
488.2	3.66675
491.093	48.3906
493.986	77.2495
496.878	13.3965
499.771	1.07105
502.664	3.74536
505.557	29.2012
508.449	8.56055
511.342	36.7249
514.235	16.4744
517.127	14.2063
520.02	30.9639
522.913	35.5022
525.806	68.5945
528.698	92.397
531.591	78.4504
534.484	79.8142
537.376	103.27
540.269	118.183
543.162	75.9473
546.054	109.677
548.947	128.02
551.84	118.49
554.732	183.487
557.625	195.998
560.518	211.579
563.411	189.863
566.303	160.127
569.196	175.773
572.089	123.136
574.981	105.689
577.874	76.6057
580.767	89.2771
583.659	67.9292
586.552	87.6165
589.445	36.248
592.338	19.4619
595.23	46.5034
598.123	40.4543
601.016	56.9324
603.908	123.475
606.801	124.601
609.694	154.613
612.587	198.055
615.479	279.617
618.372	375.993
621.265	565.154
624.157	705.15
627.05	849.251
629.943	962.757
632.835	804.738
635.728	594.72
638.621	473.328
641.514	329.521
644.406	211.332
647.299	221.725
650.192	112.914
653.084	81.6438
655.977	51.3489
658.87	103.423
661.762	39.9761
664.655	16.554
667.548	9.27222
670.441	0.240723
673.333	65.458
676.226	5.96143
679.119	64.471
682.011	37.488
684.904	9.12622
687.797	42.3997
690.689	12.8628
693.582	23.8025
696.475	5.52612
699.367	51.5488
702.26	21.7905
705.153	52.6685
708.046	10.0359
710.938	64.614
713.831	4.12085
716.724	39.3103
719.616	72.6621
722.509	74.4294
725.402	22.9109
728.294	24.8875
731.187	51.4424
734.08	65.9468
736.973	75.8227
739.865	55.3157
742.758	90.7795
745.651	75.5459
748.543	94.292
751.436	82.3144
754.329	84.1824
757.221	65.0571
760.114	99.8648
763.007	129.789
765.899	100.376
768.792	103.967
771.685	146.912
774.578	105.392
777.47	69.832
780.363	49.9277
783.256	111.377
786.148	34.3442
789.041	27.6843
791.934	50.4058
794.827	36.373
797.719	22.2214
800.612	34.0474
803.505	18.8325
806.397	60.3957
809.29	49.6633
812.183	107.593
815.075	95.6943
817.968	89.874
820.861	146.233
823.754	244.177
826.646	353.41
829.539	537.781
832.432	751.005
835.324	946.356
838.217	795.773
841.11	484.034
844.002	255.265
846.895	134.415
849.788	114.01
852.681	83.939
855.573	26.0872
858.466	31.2061
861.359	32.6287
864.251	17.8184
867.144	17.0693
870.037	10.6682
872.929	35.6128
875.822	24.2097
878.715	10.999
881.607	21.999
884.5	28.8401
887.393	21.9431
890.286	22.3369
893.178	30.02
896.071	1.99048
898.964	14.2732
901.856	2.26465
904.749	47.6714
907.642	45.5181
910.534	46.8303
913.427	1.56201
916.32	33.1008
919.213	37.3723
922.105	7.66748
924.998	68.7649
927.891	55.6375
930.783	67.0376
933.676	68.7869
936.569	38.9224
939.462	29.9089
942.354	36.5933
945.247	27.2773
948.14	33.458
951.032	1.78149
953.925	24.1953
956.818	9.25635
959.71	31.5513
962.603	10.71
965.496	28.6125
968.389	52.8181
971.281	59.9661
974.174	26.8919
977.067	65.7971
979.959	142.903
982.852	114.394
985.745	143.958
988.637	144.479
991.53	108.842
994.423	116.076
997.316	141.777
1000.21	157.938
1003.1	216.046
1005.99	230.985
1008.89	347.808
1011.78	641.859
1014.67	1210.11
1017.56	2057.43
1020.46	3496.57
1023.35	4678.79
1026.24	3321
1029.13	1813.58
1032.03	1693.62
1034.92	2483.31
1037.81	3780.26
1040.71	4781.61
1043.6	2897.98
1046.49	1136.34
1049.38	449.125
1052.28	236.647
1055.17	164.057
1058.06	77.5996
1060.95	71.9504
1063.85	8.92773
1066.74	36.8582
1069.63	7.38965
1072.53	2.54614
1075.42	25.2869
1078.31	11.4631
1081.2	28.8564
1084.1	22.2261
1086.99	55.1245
1089.88	66.7334
1092.78	125.677
1095.67	217.217
1098.56	304.517
1101.45	246.847
1104.35	160.583
1107.24	81.2044
1110.13	56.1304
1113.02	37.1968
1115.92	63.3005
1118.81	11.1069
1121.7	21.8176
1124.59	42.648
1127.49	22.6565
1130.38	5.43091
1133.27	8.15259
1136.16	42.6172
1139.06	9.53687
1141.95	29.3806
1144.84	31.6084
1147.74	32.4092
1150.63	11.949
1153.52	36.104
1156.41	18.385
1159.31	56.1182
1162.2	50.1331
1165.09	51.7795
1167.98	26.6602
1170.88	40.8897
1173.77	170.008
1176.66	220.393
1179.56	222.094
1182.45	190.419
1185.34	250.81
1188.23	294.259
1191.13	514.654
1194.02	693.174
1196.91	842.304
1199.8	767.932
1202.7	537.647
1205.59	480.3
1208.48	504.5
1211.38	440.906
1214.27	204.103
1217.16	111.75
1220.05	55.0444
1222.95	31.0947
1225.84	4.61255
1228.73	9.55688
1231.62	24.4831
1234.52	3.53076
