Measurement: Raman, 532 nm, unoriented, Raman Data Processed
Mineral: Kainite
Rruff sample: R070152
Ideal chemistry: KMg(SO_4_)Cl3H_2_O
Locality: Hansa mine, Hannover, Lower Saxony, Germany
Source: James Shigley
Description: Lavendar granular massive
Raman shift (cm-1)	intensity
136.682	0
140.057	113.865
143.432	87.5309
146.807	12.0615
150.182	32.95
153.556	58.7274
156.931	100.759
160.306	162.61
163.681	252.237
167.056	279.697
170.431	339.147
173.805	355.483
177.18	343.433
180.555	279.145
183.93	272.315
187.305	282.553
190.679	268.518
194.054	324.059
197.429	333.521
200.804	244.832
204.179	192.109
207.554	249.836
210.928	344.555
214.303	254.614
217.678	143.219
221.053	121.583
224.428	71.779
227.803	130.717
231.177	224.354
234.552	348.257
237.927	536.346
241.302	744.941
244.677	861.042
248.051	856.954
251.426	724.101
254.801	641.507
258.176	555.029
261.551	447.669
264.925	291.974
268.3	215.824
271.675	179.68
275.05	232.728
278.425	296.313
281.8	348.002
285.174	296.647
288.549	329.424
291.924	353.685
295.299	310.494
298.674	215.541
302.048	52.7647
305.423	6.42065
308.798	27.9187
312.173	70.3953
315.548	3.56323
318.923	52.7495
322.297	176.91
325.672	301.948
329.047	205.888
332.422	152.669
335.797	118.268
339.171	147.63
342.546	164.769
345.921	169.45
349.296	116.185
352.671	98.04
356.046	135.155
359.42	135.597
362.795	140.3
366.17	100.522
369.545	57.6521
372.92	14.762
376.295	12.8425
379.669	3.77173
383.044	5.10742
386.419	28.0715
389.794	29.5647
393.169	96.6643
396.543	107.498
399.918	165.292
403.293	166.936
406.668	288.283
410.043	284.74
413.418	364.242
416.792	467.899
420.167	566.783
423.542	669.985
426.917	937.684
430.292	1393.39
433.666	1955.25
437.041	2801.09
440.416	3231.37
443.791	2686.88
447.166	2268.13
450.541	2323.76
453.915	1844.45
457.29	1249.56
460.665	1182.96
464.04	1085.69
467.415	827.839
470.789	599.634
474.164	361.306
477.539	149.288
480.914	95.5322
484.289	94.0332
487.663	63.2815
491.038	98.4072
494.413	88.2498
497.788	13.3274
501.163	15.9331
504.538	18.7656
507.912	40.105
511.287	25.4172
514.662	23.7383
518.037	88.9077
521.412	190.887
524.787	334.343
528.161	700.045
531.536	1209.91
534.911	1792.41
538.286	2384.41
541.661	2148.57
545.035	1010.55
548.41	539.127
551.785	338.477
555.16	340.972
558.535	303.894
561.909	279.048
565.284	237.513
568.659	259.293
572.034	235.392
575.409	183.327
578.784	166.191
582.158	170.791
585.533	48.1484
588.908	58.5798
592.283	36.0523
595.658	18.3337
599.033	98.5967
602.407	122.753
605.782	187.627
609.157	326.579
612.532	433.865
615.907	540.328
619.281	766.472
622.656	1164.42
626.031	1496.26
629.406	1624.39
632.781	1510.9
636.155	1079.66
639.53	844.335
642.905	563.104
646.28	412.246
649.655	270.31
653.03	147.043
656.404	123.179
659.779	152.468
663.154	88.0403
666.529	94.1182
669.904	29.2588
673.279	49.1748
676.653	13.5352
680.028	6.96484
683.403	20.9477
686.778	24.5442
690.153	1.54102
693.527	6.70947
696.902	22.0081
700.277	21.6804
703.652	2.70312
707.027	31.5879
710.402	21.7898
713.776	4.97583
717.151	25.3806
720.526	29.8311
723.901	68.178
727.276	29.0203
730.65	13.6309
734.025	74.7688
737.4	68.5842
740.775	132.498
744.15	99.8906
747.524	97.4639
750.899	90.2339
754.274	107.216
757.649	138.782
761.024	117.733
764.399	128.234
767.773	114.248
771.148	73.3203
774.523	57.0981
777.898	73.0757
781.273	65.0618
784.648	46.5029
788.022	92.6792
791.397	22.6221
794.772	5.57617
798.147	66.1589
801.522	35.272
804.896	55.6177
808.271	48.2212
811.646	65.7922
815.021	130.082
818.396	194.988
821.77	309.009
825.145	525.615
828.52	853.436
831.895	1349.99
835.27	1549.67
838.645	1242.39
842.019	644.938
845.394	319.11
848.769	158.889
852.144	92.0527
855.519	91.5981
858.894	9.25708
862.268	28.8501
865.643	48.5474
869.018	9.49146
872.393	5.62109
875.768	8.16406
879.142	10.7944
882.517	1.52319
885.892	24.1335
889.267	18.2644
892.642	24.1372
896.016	40.6292
899.391	36.8479
902.766	36.4392
906.141	35.6213
909.516	95.291
912.891	87.3206
916.265	46.7341
919.64	81.8818
923.015	54.1611
926.39	63.937
929.765	39.1675
933.139	86.541
936.514	60.8545
939.889	64.5
943.264	51.3149
946.639	20.0034
950.014	24.4233
953.388	11.5889
956.763	21.4141
960.138	10.6089
963.513	6.66016
966.888	43.1924
970.263	3.65527
973.637	86.6641
977.012	113.874
980.387	163.323
983.762	158.386
987.137	117.506
990.511	144.886
993.886	128.655
997.261	138.217
1000.64	190.589
1004.01	260.832
1007.38	451.704
1010.76	811.563
1014.13	1990.46
1017.51	4287.62
1020.88	7242.44
1024.26	8395
1027.63	4216.34
1031.01	2919.58
1034.38	4706.88
1037.76	7498.42
1041.13	8656.66
1044.51	3610.86
1047.88	968.332
1051.26	323.414
1054.63	99.6338
1058.01	14.9062
1061.38	36.8745
1064.76	83.7612
1068.13	225.197
1071.51	377.253
1074.88	529.876
1078.26	508.805
1081.63	350.355
1085.01	153.335
1088.38	200.565
1091.76	242.057
1095.13	443.342
1098.51	488.002
1101.88	354.951
1105.26	180.181
1108.63	74.7764
1112.01	84.4536
1115.38	1.87891
1118.76	0.42041
1122.13	20.0449
1125.5	7.63574
1128.88	0.614258
1132.25	5.93604
1135.63	28.1626
1139	6.12842
1142.38	87.7871
1145.75	151.229
1149.13	188.263
1152.5	207.746
1155.88	238.309
1159.25	305.868
1162.63	233.087
1166	152.634
1169.38	279.578
1172.75	414.09
1176.13	583.395
1179.5	599.898
1182.88	551.895
1186.25	715.372
1189.63	1115.41
1193	1566.26
1196.38	1690.88
1199.75	1399.65
1203.12	962.5
1206.5	922.925
1209.88	920.675
1213.25	617.654
1216.62	281.86
1220	159.105
1223.37	85.3892
1226.75	10.2871
1230.12	72.6338
1233.5	29.8271
1236.87	8.62988
1240.25	23.5908
1243.62	0.081055
1247	47.8848
1250.37	24.4883
1253.75	11.5127
1257.12	65.7935
1260.5	70.5684
1263.87	107.019
1267.25	127.308
1270.62	131.053
1274	75.0718
1277.37	129.179
1280.75	120.89
1284.12	106.511
1287.49	69.8057
1290.87	123.873
1294.24	66.1079
1297.62	15.8911
1300.99	34.6816
1304.37	0.352051
