Measurement: Raman, 532 nm, unoriented, Raman Data Processed
Mineral: Kainite
Rruff sample: R100021
Ideal chemistry: KMg(SO_4_)Cl3H_2_O
Locality: Leopoldshall, Stassfurt, Stassfurt Deposit, Saxony-Anhalt, Germany
Source: Michael Scott
Description: Colorless grains associated with carnallite R070291 and pentahydrite R100022
Raman shift (cm-1)	intensity
155.171	0
158.064	0.166603
160.957	0.619938
163.85	3.42334
166.742	2.3384
169.635	1.80648
172.528	2.37658
175.42	6.91782
178.313	12.9338
181.206	17.3874
184.098	17.4964
186.991	16.9396
189.884	19.6744
192.776	21.0275
195.669	21.7826
198.562	18.3104
201.455	12.6126
204.347	11.0102
207.24	10.0538
210.133	11.7251
213.025	12.5532
215.918	12.8599
218.811	9.89812
221.703	8.37312
224.596	8.2586
227.489	8.28954
230.382	9.63433
233.274	12.4873
236.167	16.5918
239.06	19.3195
241.952	23.5731
244.845	24.9259
247.738	22.6239
250.631	19.3046
253.523	18.1523
256.416	17.6545
259.309	17.7497
262.201	16.0362
265.094	17.6905
267.987	17.4914
270.879	18.8615
273.772	23.1969
276.665	28.9721
279.558	31.6169
282.45	26.0737
285.343	18.4045
288.236	12.4459
291.128	8.20226
294.021	5.47915
296.914	3.49023
299.806	1.03376
302.699	0.822926
305.592	0.435001
308.485	0.511314
311.377	1.99218
314.27	0.030136
317.163	0.246544
320.055	0.98077
322.948	0.324749
325.841	0.060692
328.733	0.312218
331.626	0.858143
334.519	0.471123
337.411	0.35704
340.304	2.03975
343.197	1.19209
346.09	2.93326
348.982	1.88416
351.875	2.01321
354.768	3.38792
357.66	2.55442
360.553	2.87302
363.446	2.75063
366.339	2.69181
369.231	1.51829
372.124	0.591499
375.017	0.61467
377.909	0.135052
380.802	0.351944
383.695	0.853748
386.587	0.037758
389.48	1.53999
392.373	1.11398
395.265	2.45002
398.158	4.15297
401.051	4.13613
403.944	6.31792
406.836	6.73272
409.729	9.12843
412.622	10.7266
415.514	13.7238
418.407	15.0819
421.3	19.8218
424.192	26.1851
427.085	35.4221
429.978	47.0344
432.871	64.9389
435.763	89.4607
438.656	115.378
441.549	125.908
444.441	135.711
447.334	156.283
450.227	169.435
453.12	133.052
456.012	79.0571
458.905	56.0113
461.798	48.7145
464.69	46.9536
467.583	42.999
470.476	36.1748
473.368	22.7692
476.261	11.0358
479.154	5.37688
482.046	1.24242
484.939	0.80302
487.832	0.184322
490.725	1.04491
493.617	0.549709
496.51	1.01282
499.403	0.127121
502.295	0.606075
505.188	1.06529
508.081	1.96915
510.974	2.42823
513.866	3.61806
516.759	3.62917
519.652	4.50164
522.544	4.25427
525.437	4.91102
528.33	4.60964
531.222	5.90079
534.115	6.18378
537.008	5.60294
539.9	6.56672
542.793	5.18481
545.686	5.04921
548.579	4.57126
551.471	4.23203
554.364	4.76091
557.257	4.32875
560.149	3.50768
563.042	3.59519
565.935	3.2207
568.827	2.35514
571.72	2.66538
574.613	0.993988
577.506	2.96811
580.398	1.97987
583.291	1.03032
586.184	1.16117
589.076	0.586006
591.969	1.9783
594.862	1.97945
597.755	2.57907
600.647	3.82348
603.54	6.12048
606.433	7.12814
609.325	9.40782
612.218	12.2178
615.111	17.6647
618.003	26.1829
620.896	36.5947
623.789	48.0382
626.682	61.0866
629.574	64.6395
632.467	53.746
635.36	34.1334
638.252	21.6182
641.145	12.1759
644.038	6.91589
646.93	3.66632
649.823	1.15337
652.716	0.307415
655.609	0.422844
658.501	0.881481
661.394	0.078377
664.287	0.106033
667.179	1.04296
670.072	0.160316
672.965	0.745945
675.857	0.555378
678.75	1.34396
681.643	1.39526
684.535	0.960087
687.428	1.14535
690.321	1.00223
693.214	1.60484
696.106	0.043282
698.999	0.374126
701.892	0.427666
704.784	0.193024
707.677	0.038532
710.57	0.718575
713.462	0.313992
716.355	0.513836
719.248	0.355541
722.141	0.984585
725.033	1.90689
727.926	2.27117
730.819	1.92341
733.711	2.60157
736.604	2.8968
739.497	2.35121
742.389	3.58741
745.282	3.25608
748.175	3.37576
751.068	3.30596
753.96	3.21211
756.853	2.7386
759.746	2.63805
762.638	2.45775
765.531	2.14765
768.424	1.74562
771.317	1.63661
774.209	1.36446
777.102	1.30067
779.995	0.026077
782.887	0.088154
785.78	0.522095
788.673	0.079723
791.565	0.456772
794.458	0.222576
797.351	0.722359
800.244	0.30957
803.136	0.255119
806.029	1.17506
808.922	0.810314
811.814	0.741051
814.707	1.49215
817.6	1.56297
820.492	1.92766
823.385	1.31782
826.278	1.31204
829.17	0.600121
832.063	1.26071
834.956	0.939625
837.849	0.670238
840.741	0.760983
843.634	1.66991
846.527	1.84785
849.419	1.04345
852.312	1.31808
855.205	1.14148
858.097	0.842838
860.99	0.740837
863.883	0.257019
866.776	1.37173
869.668	0.466316
872.561	0.575851
875.454	0.012207
878.346	0.567078
881.239	0.047958
884.132	0.296764
887.024	0.947777
889.917	0.33255
892.81	0.560112
895.703	0.253654
898.595	0.097794
901.488	0.792408
904.381	0.275509
907.273	0.660694
910.166	1.13965
913.059	0.546585
915.952	0.966217
918.844	1.03836
921.737	1.3647
924.63	0.807297
927.522	1.18829
930.415	1.51116
933.308	0.792519
936.2	0.622467
939.093	0.404556
941.986	1.00178
944.879	0.750568
947.771	0.357536
950.664	0.131588
953.557	0.069866
956.449	0.169857
959.342	0.391567
962.235	0.092205
965.127	0.068066
968.02	0.976814
970.913	1.38982
973.806	0.870586
976.698	1.40764
979.591	2.14672
982.484	3.05324
985.376	3.67301
988.269	3.75026
991.162	5.61835
994.054	6.33259
996.947	7.08393
999.84	11.051
1002.73	14.2216
1005.62	19.8968
1008.52	34.4998
1011.41	66.0589
1014.3	113.845
1017.2	176.37
1020.09	284.615
1022.98	370.339
1025.87	269.99
1028.77	153.84
1031.66	162.863
1034.55	217.053
1037.44	321.482
1040.34	391.211
1043.23	232.07
1046.12	78.5076
1049.02	32.6443
1051.91	16.362
1054.8	9.38902
1057.69	5.365
1060.59	3.34314
1063.48	1.87948
1066.37	0.625252
1069.27	0.325703
1072.16	0.356487
1075.05	0.525993
1077.94	0.224873
1080.84	1.24737
1083.73	1.12167
1086.62	3.05057
1089.51	5.85249
1092.41	10.3043
1095.3	14.8038
1098.19	16.7028
1101.08	16.5553
1103.98	12.9652
1106.87	6.81305
1109.76	2.78027
1112.65	2.69178
1115.55	0.797325
1118.44	1.25087
1121.33	1.17754
1124.23	1.069
1127.12	0.242157
1130.01	0.129078
1132.9	0.140961
1135.8	0.406197
1138.69	1.79537
1141.58	3.96809
1144.47	5.6516
1147.37	10.0525
1150.26	11.0085
1153.15	10.3999
1156.05	13.1481
1158.94	14.466
1161.83	10.8001
1164.72	5.18501
1167.62	3.95602
1170.51	3.6469
1173.4	5.50418
1176.29	8.51437
1179.19	9.79936
1182.08	11.9012
1184.97	17.8282
1187.87	28.5311
1190.76	42.3032
1193.65	55.2568
1196.54	63.1482
1199.44	47.5719
1202.33	23.4896
1205.22	15.2149
1208.11	10.962
1211.01	7.91942
1213.9	4.32996
1216.79	2.7762
1219.68	1.35514
1222.58	1.66939
1225.47	0.796528
1228.36	1.57218
1231.26	1.4605
1234.15	0.172684
1237.04	0.822956
1239.93	0.188728
1242.83	1.35491
1245.72	0.611233
1248.61	0.136158
1251.51	1.23859
1254.4	0.542049
1257.29	0.519653
1260.18	0.983456
1263.08	1.41207
1265.97	0.951881
1268.86	0.9585
1271.75	1.3373
1274.65	1.16507
1277.54	0.109329
1280.43	0.255344
1283.32	1.26711
1286.22	0.931847
1289.11	1.24936
1292	0.540409
1294.89	0.662663
1297.79	0.114262
1300.68	0.39138
