Measurement: Raman, 532 nm, unoriented, Raman Data Processed
Mineral: Kaliborite
Rruff sample: R060352
Ideal chemistry: HKMg_2_B_12_O_16_(OH)_10_4H_2_O
Locality: Inder Boron deposit, Atyrau (Gur'yev), Atyrau Oblast', Kazakhstan
Source: Herb Obodda
Description: Colorless fragment
Measured chemistry: K_1.00_H_1.00_Mg_2.00_B_12.00_O_16_(OH)_10_Â·4H_2_O ; H and B not measured but estimated by stoichiometry
Raman shift (cm-1)	intensity
130.026	0
133.401	8.06705
136.775	1.41101
140.15	20.2384
143.525	57.0639
146.9	55.3125
150.275	60.1841
153.649	92.8264
157.024	146.594
160.399	184.488
163.774	197.667
167.149	176.992
170.524	165.766
173.898	190.554
177.273	201.366
180.648	230.67
184.023	262.734
187.398	274.374
190.773	196.119
194.147	138.268
197.522	106.253
200.897	72.5716
204.272	49.4034
207.647	42.299
211.021	44.8378
214.396	32.7308
217.771	15.3154
221.146	10.2719
224.521	17.5679
227.895	23.7775
231.27	4.70448
234.645	9.66469
238.02	8.50362
241.395	12.5049
244.769	46.0658
248.144	101.095
251.519	185.416
254.894	271.098
258.269	353.164
261.644	430.673
265.018	347.23
268.393	171.837
271.768	92.3416
275.143	65.3538
278.518	59.1395
281.892	55.6318
285.267	70.4307
288.642	105.908
292.017	130.285
295.392	102.105
298.767	84.4497
302.141	92.8862
305.516	115.085
308.891	86.3881
312.266	44.309
315.641	16.6045
319.015	3.80728
322.39	6.1786
325.765	7.82909
329.14	2.34191
332.515	4.65891
335.89	2.71722
339.264	17.3424
342.639	28.5365
346.014	52.9745
349.389	74.1346
352.764	78.9244
356.139	98.0782
359.513	122.691
362.888	142.877
366.263	149.38
369.638	129.896
373.012	142.372
376.387	144.372
379.762	129.475
383.137	137.034
386.512	168.185
389.887	226.229
393.261	282.575
396.636	264.026
400.011	221.772
403.386	264.902
406.761	372.246
410.135	544.852
413.51	657.021
416.885	542.948
420.26	379.068
423.635	269.24
427.01	211.268
430.384	184.51
433.759	157.392
437.134	112.885
440.509	69.8662
443.884	33.519
447.259	18.3498
450.633	1.46157
454.008	0.942017
457.383	0.234177
460.758	4.40672
464.133	3.86652
467.507	2.26695
470.882	9.82327
474.257	15.2292
477.632	18.9359
481.007	16.4748
484.382	9.50182
487.756	1.68369
491.131	1.96703
494.506	1.21794
497.881	2.34316
501.256	1.66556
504.63	2.12693
508.005	6.86214
511.38	12.2774
514.755	21.0591
518.13	23.7933
521.505	36.4704
524.879	50.9482
528.254	50.1283
531.629	21.9004
535.004	10.6657
538.379	2.58279
541.753	2.48636
545.128	2.26587
548.503	2.99893
551.878	0.336609
555.253	2.70924
558.628	7.22288
562.002	4.3541
565.377	13.1928
568.752	17.613
572.127	23.3987
575.502	30.5066
578.876	37.9526
582.251	43.6206
585.626	57.1837
589.001	66.1142
592.376	73.197
595.75	68.9518
599.125	59.5959
602.5	48.2957
605.875	39.3843
609.25	32.0927
612.625	22.4513
615.999	16.4807
619.374	15.9409
622.749	16.023
626.124	16.9483
629.499	14.546
632.873	5.37984
636.248	1.73684
639.623	0.84066
642.998	3.63074
646.373	10.7764
649.747	23.8057
653.122	47.1971
656.497	93.5171
659.872	177.24
663.247	283.147
666.622	283.577
669.996	189.015
673.371	112.406
676.746	74.1084
680.121	51.8036
683.496	34.9207
686.87	24.4787
690.245	24.9294
693.62	16.4983
696.995	15.0273
700.37	12.3128
703.745	3.62055
707.119	7.65547
710.494	2.28176
713.869	4.06475
717.244	0.971039
720.619	0.91745
723.994	0.637604
727.368	2.1038
730.743	3.9873
734.118	3.0625
737.493	3.32129
740.868	14.6648
744.242	21.3844
747.617	35.5998
750.992	58.9918
754.367	83.8201
757.742	83.4262
761.116	50.9851
764.491	25.3375
767.866	10.9019
771.241	5.28433
774.616	0.509491
777.99	0.796326
781.365	1.43283
784.74	5.79588
788.115	11.3459
791.49	15.3009
794.865	17.0358
798.239	22.6584
801.614	28.7599
804.989	37.1253
808.364	49.9362
811.739	70.5852
815.114	108.168
818.488	185.944
821.863	278.239
825.238	335.413
828.613	279.312
831.988	177.832
835.362	105.115
838.737	58.8782
842.112	30.7285
845.487	14.3051
848.862	7.2247
852.236	5.61166
855.611	1.32521
858.986	0.431297
862.361	0.291466
865.736	7.76109
869.111	15.7228
872.485	36.0031
875.86	49.5794
879.235	43.8466
882.61	33.4854
885.985	37.3057
889.36	34.8058
892.734	32.5901
896.109	29.7994
899.484	23.6564
902.859	24.5797
906.234	23.311
909.608	21.0426
912.983	13.0668
916.358	8.11415
919.733	1.62113
923.108	3.04977
926.482	0.177086
929.857	0.533707
933.232	2.53871
936.607	1.19562
939.982	1.78858
943.357	3.0465
946.731	4.44991
950.106	8.90156
953.481	21.2959
956.856	36.9936
960.231	59.6078
963.606	96.0131
966.98	140.344
970.355	170.006
973.73	130.796
977.105	80.3058
980.48	50.6611
983.854	31.2529
987.229	21.6115
990.604	14.4369
993.979	17.1608
997.354	12.5167
1000.73	16.5442
1004.1	17.0951
1007.48	15.3468
1010.85	15.4337
1014.23	16.651
1017.6	10.0368
1020.98	18.599
1024.35	14.9405
1027.73	15.7039
1031.1	10.1122
1034.48	12.1706
1037.85	6.68206
1041.23	7.97345
1044.6	3.99446
1047.98	2.74212
1051.35	1.153
1054.73	1.72564
1058.1	0.514771
1061.47	2.23501
1064.85	3.12555
1068.22	4.19665
1071.6	4.3619
1074.97	2.97887
1078.35	2.15649
1081.72	0.825165
1085.1	0.917793
1088.47	2.71587
1091.85	1.06083
1095.22	6.03291
1098.6	4.80391
1101.97	3.90984
1105.35	2.84806
1108.72	10.9459
1112.1	13.2744
1115.47	14.0644
1118.85	12.2856
1122.22	16.6011
1125.6	13.7236
1128.97	14.1555
1132.35	12.9954
1135.72	13.5821
1139.1	11.5411
1142.47	12.5188
1145.85	13.3032
1149.22	15.5218
1152.6	7.34569
1155.97	7.00889
1159.35	2.77035
1162.72	1.91697
1166.09	3.23309
1169.47	2.01857
1172.84	4.56323
1176.22	7.24496
1179.59	11.8402
1182.97	15.8108
1186.34	16.5954
1189.72	23.1135
1193.09	21.4144
1196.47	19.5852
1199.84	17.7351
1203.22	14.1384
1206.59	16.4437
1209.97	8.64461
1213.34	6.22382
1216.72	10.13
1220.09	8.80199
1223.47	8.14986
1226.84	11.493
1230.22	4.23628
1233.59	9.71591
1236.97	1.97285
1240.34	0.889404
1243.71	1.83541
1247.09	0.995125
1250.46	3.70545
1253.84	3.59844
1257.21	5.87479
1260.59	3.27879
1263.96	6.55177
1267.34	6.41931
1270.71	5.22098
1274.09	7.37148
1277.46	3.44178
1280.84	1.95975
1284.21	2.19221
1287.59	6.05174
1290.96	4.07983
1294.34	3.80636
1297.71	2.56096
1301.09	2.65421
