Measurement: Raman, 785 nm, unoriented, Raman Data Processed
Mineral: Kaliophilite
Rruff sample: R061113
Ideal chemistry: KAlSiO_4_
Locality: Bolsena, Lazio, Italy
Source: Michael Scott
Description: Colorless acicular silky crystals associated with colorless prismatic apatite, orange akermanite and black augite
Raman shift (cm-1)	intensity
181.766	0
184.659	21.3165
187.552	77.6687
190.444	93.3519
193.337	115.041
196.23	91.0897
199.122	104.619
202.015	141.868
204.908	192.324
207.8	299.303
210.693	321.522
213.586	279.496
216.478	229.37
219.371	218.82
222.264	212.367
225.157	193.628
228.049	168.296
230.942	160.581
233.835	149.25
236.727	151.236
239.62	135.095
242.513	144.54
245.405	127.51
248.298	138.639
251.191	147.857
254.084	66.7264
256.976	11.8003
259.869	54.9567
262.762	59.8628
265.654	10.2604
268.547	25.313
271.44	7.60669
274.332	53.6733
277.225	191.722
280.118	258.346
283.011	347.147
285.903	385.721
288.796	495.587
291.689	501.144
294.581	404.552
297.474	254.222
300.367	141.271
303.26	89.9198
306.152	35.7022
309.045	14.3097
311.938	0.829834
314.83	39.3424
317.723	128.29
320.616	187.804
323.508	187.175
326.401	148.201
329.294	44.3955
332.187	45.9668
335.079	124.124
337.972	233.07
340.865	336.166
343.757	451.499
346.65	608.94
349.543	824.241
352.435	1153.18
355.328	1446.86
358.221	1908.11
361.113	2096.5
364.006	1841.62
366.899	1495.9
369.792	1300.27
372.684	1313.82
375.577	1204.91
378.47	1091.22
381.362	1050.02
384.255	952.138
387.148	769.557
390.041	593.977
392.933	608.718
395.826	668.408
398.719	729.376
401.611	835.07
404.504	1211.92
407.397	1342.1
410.289	1204.59
413.182	1015.82
416.075	746.132
418.967	580.794
421.86	498.174
424.753	587.273
427.646	772.042
430.538	793.219
433.431	569.055
436.324	336.512
439.216	125.102
442.109	35.8403
445.002	9.38806
447.894	61.4257
450.787	25.6658
453.68	4.53064
456.573	73.1014
459.465	175.823
462.358	252.647
465.251	209.88
468.143	201.688
471.036	91.8012
473.929	50.5648
476.822	73.6553
479.714	80.4226
482.607	47.9238
485.5	170.513
488.392	239.951
491.285	248.532
494.178	171.349
497.07	128.363
499.963	92.9394
502.856	53.9807
505.748	29.2014
508.641	12.1818
511.534	3.44214
514.427	12.0633
517.319	11.3982
520.212	1.57544
523.105	20.5965
525.997	28.763
528.89	32.2762
531.783	9.4696
534.676	73.1227
537.568	41.9069
540.461	93.579
543.354	80.8802
546.246	92.6396
549.139	105.052
552.032	100.955
554.924	91.389
557.817	112.851
560.71	103.681
563.602	111.2
566.495	100.24
569.388	90.8502
572.281	108.578
575.173	86.5713
578.066	112.929
580.959	63.9918
583.851	100.345
586.744	48.7386
589.637	113.865
592.529	95.8154
595.422	78.7647
598.315	68.4945
601.208	64.1187
604.1	59.7704
606.993	59.523
609.886	53.9669
612.778	37.1653
615.671	46.2765
618.564	61.8217
621.457	30.9107
624.349	42.674
627.242	36.3005
630.135	30.6754
633.027	19.7269
635.92	12.2783
638.813	33.4132
641.705	14.0789
644.598	8.50269
647.491	5.03131
650.384	11.7832
653.276	13.1152
656.169	8.46906
659.062	32.7
661.954	12.9051
664.847	21.4138
667.74	1.54651
670.632	20.3492
673.525	12.9776
676.418	19.254
679.311	52.9141
682.203	29.412
685.096	18.8203
687.989	29.6381
690.881	34.6266
693.774	31.9166
696.667	53.3813
699.559	35.7418
702.452	77.7196
705.345	71.1104
708.237	59.2894
711.13	82.1397
714.023	73.1091
716.916	83.0745
719.808	127.257
722.701	130.024
725.594	69.728
728.486	74.7875
731.379	43.6301
734.272	45.6746
737.164	55.1109
740.057	41.5983
742.95	23.3821
745.843	34.8549
748.735	27.7746
751.628	25.8301
754.521	31.6594
757.413	20.8406
760.306	2.21326
763.199	31.9099
766.091	37.0167
768.984	20.5146
771.877	33.2839
774.77	28.8963
777.662	31.0374
780.555	5.61615
783.448	14.53
786.34	25.5928
789.233	44.9745
792.126	35.1754
795.019	21.039
797.911	20.3675
800.804	28.7545
803.697	28.8574
806.589	63.2771
809.482	38.3558
812.375	26.8729
815.267	20.0018
818.16	21.1665
821.053	30.0611
823.946	43.1763
826.838	47.9039
829.731	48.3079
832.624	29.1373
835.516	62.3386
838.409	24.0472
841.302	26.2861
844.194	25.0873
847.087	20.8755
849.98	22.4737
852.872	7.61713
855.765	32.4821
858.658	4.64764
861.551	10.4511
864.443	14.89
867.336	9.40259
870.229	10.9578
873.121	2.00079
876.014	12.4371
878.907	3.65552
881.799	1.52991
884.692	13.2702
887.585	23.3256
890.478	0.400085
893.37	45.6562
896.263	53.3531
899.156	83.4836
902.048	64.4415
904.941	102.475
907.834	137.789
910.726	150.797
913.619	113.225
916.512	165.219
919.405	184.492
922.297	191.45
925.19	188.355
928.083	130.288
930.975	92.8715
933.868	124.341
936.761	77.811
939.654	83.2292
942.546	96.9051
945.439	45.4912
948.332	110.327
951.224	125.824
954.117	130.473
957.01	133.258
959.902	122.499
962.795	144.959
965.688	156.435
968.581	151.061
971.473	191.845
974.366	201.711
977.259	206.03
980.151	211.337
983.044	251.559
985.937	229.892
988.829	216.572
991.722	251.649
994.615	268.839
997.508	284.659
1000.4	266.732
1003.29	290.24
1006.19	273.658
1009.08	297.273
1011.97	339.343
1014.86	326.01
1017.76	291.253
1020.65	224.492
1023.54	196.413
1026.43	171.737
1029.33	103.293
1032.22	83.3344
1035.11	46.5129
1038.01	34.3983
1040.9	23.455
1043.79	6.13739
1046.68	18.8712
1049.58	12.861
1052.47	2.68817
1055.36	14.1631
1058.25	2.86127
1061.15	1.74036
1064.04	13.7587
1066.93	19.3293
1069.83	8.62933
1072.72	55.8196
1075.61	26.2089
1078.5	14.7367
1081.4	19.22
1084.29	43.4745
1087.18	6.7865
1090.07	58.2343
1092.97	50.1673
1095.86	52.4264
1098.75	37.5536
1101.64	46.8094
1104.54	42.3741
1107.43	27.6732
1110.32	18.5723
1113.21	3.37775
1116.11	33.3691
1119	30.2014
1121.89	12.2411
1124.79	30.2257
1127.68	3.58167
1130.57	16.6566
1133.46	4.43866
1136.36	43.8969
1139.25	17.4561
1142.14	16.6208
1145.04	18.2399
1147.93	23.5169
1150.82	15.9024
1153.71	1.80035
1156.61	56.6486
1159.5	31.967
1162.39	33.0128
1165.28	55.4083
1168.18	53.0095
1171.07	41.6249
1173.96	67.6287
1176.86	28.8202
1179.75	7.60181
1182.64	43.6952
1185.53	47.6792
1188.43	63.9408
1191.32	41.038
1194.21	32.5598
1197.1	49.3036
1200	31.6747
1202.89	11.71
1205.78	23.2737
1208.67	25.6757
1211.57	10.5148
1214.46	21.7251
1217.35	35.6384
1220.24	39.6893
1223.14	40.3051
1226.03	15.2872
1228.92	31.0074
1231.82	23.4619
1234.71	49.801
1237.6	46.912
