Measurement: Raman, 780 nm, unoriented, Raman Data Processed
Mineral: Kalicinite
Rruff sample: R130026
Ideal chemistry: KHCO_3_
Locality: Lab-grown by bacteria in 15% potassium carbonate
Source: Dr. Flavia Pinzari
Raman shift (cm-1)	intensity
90.2353	0
93.6102	30.7809
96.985	91.1079
100.36	262.176
103.735	510.782
107.109	569.365
110.484	535.638
113.859	312.627
117.234	84.8192
120.609	35.6028
123.984	22.4489
127.358	32.8155
130.733	72.8188
134.108	131.086
137.483	91.79
140.858	20.4123
144.232	9.28677
147.607	16.6867
150.982	8.26941
154.357	12.9437
157.732	42.1172
161.107	82.8415
164.481	143.488
167.856	228.39
171.231	344.575
174.606	494.315
177.981	652.693
181.355	749.798
184.73	706.772
188.105	546.359
191.48	383.917
194.855	269.053
198.229	194.166
201.604	143.486
204.979	104.216
208.354	72.3571
211.729	52.535
215.103	42.1025
218.478	36.0456
221.853	30.3241
225.228	25.6132
228.603	19.5568
231.978	13.8682
235.352	12.9514
238.727	11.4495
242.102	7.83693
245.477	6.67641
248.852	4.31322
252.226	2.0038
255.601	0.297073
258.976	0.583023
262.351	0.297836
265.726	0.41024
269.101	0.507652
272.475	0.206718
275.85	2.20351
279.225	2.1915
282.6	1.5842
285.975	1.9986
289.349	2.52952
292.724	1.67582
296.099	1.05688
299.474	1.64582
302.849	0.872124
306.224	1.58852
309.598	1.40625
312.973	1.38012
316.348	1.10776
319.723	0.463264
323.098	0.606445
326.472	0.785469
329.847	0.632553
333.222	0.114853
336.597	0.770103
339.972	0.160736
343.346	0.590668
346.721	0.851387
350.096	0.341385
353.471	0.612717
356.846	0.74826
360.221	1.02691
363.595	1.7605
366.97	1.27785
370.345	1.81868
373.72	2.10844
377.095	3.26177
380.469	2.19353
383.844	2.17155
387.219	1.88263
390.594	1.07387
393.969	1.87858
397.344	0.510155
400.718	0.242455
404.093	1.32227
407.468	0.262726
410.843	0.581848
414.217	0.836342
417.592	1.65142
420.967	1.65615
424.342	1.46219
427.717	1.65076
431.092	1.93879
434.466	2.23293
437.841	1.4818
441.216	0.972046
444.591	1.75345
447.966	0.783531
451.341	1.5134
454.715	1.37274
458.09	1.7509
461.465	1.72036
464.84	1.05944
468.215	1.12452
471.589	1.89408
474.964	1.92513
478.339	1.04308
481.714	1.23264
485.089	0.634842
488.463	1.10656
491.838	1.14442
495.213	0.871002
498.588	1.62135
501.963	1.95096
505.337	1.02046
508.712	0.89846
512.087	0.871101
515.462	0.057968
518.837	0.71302
522.212	1.00574
525.586	0.166763
528.961	0.298599
532.336	0.049744
535.711	0.174965
539.086	2.68346
542.46	0.296104
545.835	0.23748
549.21	0.812965
552.585	4.53417
555.96	4.36526
559.335	2.38431
562.709	0.456039
566.084	1.27542
569.459	1.27547
572.834	0.713959
576.209	1.50862
579.583	1.09802
582.958	0.662483
586.333	0.040298
589.708	0.087387
593.083	0.973198
596.457	0.410095
599.832	0.411522
603.207	0.880066
606.582	0.714897
609.957	0.228249
613.332	0.053123
616.706	0.419617
620.081	1.60297
623.456	5.02234
626.831	9.20577
630.206	18.8702
633.58	41.2062
636.955	36.9255
640.33	9.55411
643.705	2.84007
647.08	1.68157
650.455	1.88037
653.829	1.39081
657.204	0.569084
660.579	0.901344
663.954	1.41668
667.329	3.29551
670.703	6.69322
674.078	15.4394
677.453	14.5244
680.828	4.15523
684.203	1.40065
687.577	2.65733
690.952	0.777229
694.327	0.608898
697.702	0.20924
701.077	0.286419
704.452	0.127197
707.826	0.858559
711.201	0.112396
714.576	0.771404
717.951	0.303967
721.326	0.318306
724.7	0.767941
728.075	1.3719
731.45	2.24654
734.825	0.987446
738.2	1.24201
741.574	1.83319
744.949	2.03653
748.324	1.20727
751.699	1.00192
755.074	1.25108
758.449	2.41444
761.823	0.651459
765.198	1.15701
768.573	2.47557
771.948	2.54529
775.323	1.26103
778.697	0.062229
782.072	0.277351
785.447	0.707832
788.822	0.155396
792.197	1.26137
795.572	0.854191
798.946	0.591862
802.321	1.19869
805.696	0.608608
809.071	1.43969
812.446	1.34129
815.82	1.25238
819.195	1.72569
822.57	3.19907
825.945	5.40549
829.32	12.2762
832.694	14.2705
836.069	3.56963
839.444	1.79139
842.819	1.71292
846.194	1.95207
849.569	0.914066
852.943	0.711853
856.318	1.16727
859.693	0.188904
863.068	0.818996
866.443	0.4552
869.817	0.263435
873.192	0.692169
876.567	0.549061
879.942	0.372601
883.317	0.296505
886.692	0.780479
890.066	1.01933
893.441	0.011669
896.816	0.37513
900.191	0.243507
903.566	1.33468
906.94	0.215527
910.315	0.549644
913.69	0.272583
917.065	1.01744
920.44	1.52085
923.814	1.09607
927.189	0.983795
930.564	0.920033
933.939	1.40356
937.314	0.757454
940.689	1.25977
944.063	1.21796
947.438	0.537289
950.813	1.27893
954.188	1.41542
957.563	0.498749
960.937	0.567055
964.312	0.001621
967.687	0.60041
971.062	0.413208
974.437	0.670223
977.812	0.776569
981.186	1.15527
984.561	0.811214
987.936	1.64169
991.311	0.349373
994.686	2.50135
998.06	2.84799
1001.43	2.98374
1004.81	3.53389
1008.18	4.48088
1011.56	7.72494
1014.93	14.6007
1018.31	27.6144
1021.68	56.523
1025.06	122.58
1028.43	190.589
1031.81	116.98
1035.18	41.5908
1038.56	16.484
1041.93	8.49567
1045.31	4.66451
1048.68	3.74479
1052.06	1.76463
1055.43	0.865135
1058.81	0.447254
1062.18	0.588505
1065.56	0.03558
1068.93	0.469685
1072.31	1.2798
1075.68	0.250607
1079.06	0.099018
1082.43	0.712017
1085.81	0.491539
1089.18	1.29768
1092.56	0.741554
1095.93	0.068615
1099.31	0.117023
1102.68	0.037117
1106.05	0.047558
1109.43	1.31076
1112.8	0.128098
1116.18	0.745369
1119.55	0.189301
1122.93	0.015701
1126.3	1.31663
1129.68	1.45346
1133.05	0.903419
1136.43	1.55254
1139.8	2.01162
1143.18	0.227577
1146.55	1.87702
1149.93	0.616684
1153.3	1.22522
1156.68	1.425
1160.05	2.29071
1163.43	1.8356
1166.8	2.8742
1170.18	1.45918
1173.55	1.99829
1176.93	1.81366
1180.3	1.82309
1183.67	1.13163
1187.05	1.33905
1190.42	1.30756
1193.8	1.45502
1197.17	0.625378
1200.55	1.66969
1203.92	1.25096
1207.3	0.738503
1210.67	0.012169
1214.05	1.56747
1217.42	0.103989
1220.8	0.464058
1224.17	1.78993
1227.55	1.40596
1230.92	1.25578
1234.3	2.3878
1237.67	1.47863
1241.05	1.11582
1244.42	0.413948
1247.8	0.366417
1251.17	0.304245
1254.55	0.415428
1257.92	0.543915
1261.3	1.115
1264.67	2.8326
1268.05	1.65937
1271.42	3.56702
1274.8	4.35197
1278.17	5.15569
1281.55	2.76324
