Measurement: Raman, 532 nm, unoriented, Raman Data Processed
Mineral: Kaliophilite
Rruff sample: R061113
Ideal chemistry: KAlSiO_4_
Locality: Bolsena, Lazio, Italy
Source: Michael Scott
Description: Colorless acicular silky crystals associated with colorless prismatic apatite, orange akermanite and black augite
Raman shift (cm-1)	intensity
173.768	0
176.66	16.7993
179.553	10.6001
182.446	6.05713
185.339	58.4648
188.231	152.055
191.124	259.025
194.017	326.848
196.909	179.774
199.802	223.677
202.695	267.672
205.587	280.349
208.48	396.076
211.373	368.265
214.266	295.435
217.158	279.159
220.051	426.919
222.944	356.357
225.836	387.435
228.729	290.823
231.622	342.861
234.514	418.812
237.407	423.18
240.3	347.937
243.192	310.838
246.085	404.647
248.978	385.019
251.871	424.6
254.763	312.61
257.656	136.056
260.549	36.3481
263.441	74.6948
266.334	75.2212
269.227	61.2783
272.12	144.195
275.012	364.829
277.905	587.812
280.798	734.388
283.69	927.15
286.583	1174.03
289.476	1376.85
292.368	1276.65
295.261	945.499
298.154	597.692
301.046	345.251
303.939	121.317
306.832	33.9111
309.725	141.07
312.617	26.5493
315.51	161.395
318.403	383.408
321.295	518.72
324.188	483.268
327.081	281.344
329.974	150.661
332.866	146.058
335.759	439.804
338.652	821.991
341.544	1062.48
344.437	1359.59
347.33	1852.84
350.222	2299.12
353.115	2828.04
356.008	3444.8
358.901	4135.46
361.793	4280.87
364.686	3658.95
367.579	3035.1
370.471	2721.05
373.364	2531.41
376.257	2099.28
379.149	1938.46
382.042	1963.83
384.935	1662.83
387.828	1226.4
390.72	1105.67
393.613	1129.41
396.506	1337.25
399.398	1375.44
402.291	1779.25
405.184	2534.71
408.077	2512.12
410.969	2121.8
413.862	1695.52
416.755	1187.98
419.647	900.547
422.54	887.616
425.433	1208.88
428.325	1639.64
431.218	1564.7
434.111	1047.68
437.003	707.766
439.896	279.627
442.789	68.5034
445.682	40.3882
448.574	59.104
451.467	38.4287
454.36	103.353
457.252	329.949
460.145	448.333
463.038	452.135
465.93	304.954
468.823	95.4878
471.716	1.37109
474.609	67.103
477.501	31.0523
480.394	86.9131
483.287	202.3
486.179	312.495
489.072	429.925
491.965	301.403
494.858	178.045
497.75	115.629
500.643	20.543
503.536	24.3604
506.428	34.9312
509.321	41.731
512.214	19.6997
515.106	57.46
517.999	44.5605
520.892	56.625
523.784	7.24609
526.677	58.937
529.57	73.1943
532.463	98.0166
535.355	135.608
538.248	187.37
541.141	170.035
544.033	249.3
546.926	301.935
549.819	263.37
552.712	282.619
555.604	284.478
558.497	307.488
561.39	273.392
564.282	230.903
567.175	232.792
570.068	202.12
572.96	272.697
575.853	212.875
578.746	258.378
581.639	239.574
584.531	314.53
587.424	378.191
590.317	308.095
593.209	260.854
596.102	308.648
598.995	250.662
601.888	288.924
604.78	228.794
607.673	223.172
610.566	154.207
613.458	171.516
616.351	143.68
619.244	125.424
622.136	100.286
625.029	83.1987
627.922	88.4981
630.814	56.5889
633.707	82.7944
636.6	79.7734
639.493	43.4453
642.385	24.2466
645.278	17.6733
648.171	11.0102
651.063	3.49853
653.956	24.1411
656.849	10.772
659.741	15.0337
662.634	27.6826
665.527	28.8257
668.42	31.0674
671.312	23.6055
674.205	77.0889
677.098	127.509
679.99	99.1572
682.883	171.068
685.776	142.455
688.668	127.782
691.561	140.477
694.454	157.118
697.347	174.555
700.239	151.647
703.132	164.831
706.025	139.238
708.917	176.29
711.81	179.28
714.703	217.549
717.596	176.716
720.488	192.946
723.381	265.422
726.274	248.602
729.166	139.239
732.059	108.418
734.952	56.8374
737.844	65.2905
740.737	66.562
743.63	7.82324
746.523	53.5122
749.415	20.2378
752.308	41.5273
755.201	33.27
758.093	26.6743
760.986	7.24609
763.879	7.89111
766.771	0.041016
769.664	4.19775
772.557	4.70361
775.45	23.2427
778.342	42.1733
781.235	32.896
784.128	27.6631
787.02	53.1016
789.913	96.2339
792.806	44.3892
795.698	79.208
798.591	72.8916
801.484	61.0957
804.377	85.894
807.269	86.0635
810.162	105.554
813.055	117.023
815.947	76.3477
818.84	107.692
821.733	145.328
824.625	128.256
827.518	93.9072
830.411	65.5698
833.304	66.0654
836.196	51.334
839.089	25.293
841.982	94.1055
844.874	82.7529
847.767	34.4756
850.66	29.8286
853.553	17.4517
856.445	1.14062
859.338	29.0327
862.231	35.9048
865.123	10.2441
868.016	22.6577
870.909	60.5562
873.801	40.8774
876.694	43.3765
879.587	26.2642
882.48	6.88135
885.372	57.6768
888.265	156.864
891.158	272.352
894.05	477.728
896.943	556.255
899.836	711.66
902.729	800.697
905.621	884.786
908.514	1014.36
911.407	1121.6
914.299	1236.27
917.192	1277.42
920.085	1371.18
922.977	1417.95
925.87	1335.39
928.763	1165.5
931.655	990.359
934.548	886.644
937.441	828.17
940.334	713.816
943.226	563.569
946.119	652.409
949.012	684.855
951.904	708.767
954.797	684.312
957.69	804.348
960.582	879.078
963.475	939.744
966.368	991.536
969.261	1133.61
972.153	1269.92
975.046	1301.77
977.939	1291.66
980.831	1283.19
983.724	1080.29
986.617	974.259
989.51	838.173
992.402	868.033
995.295	917.993
998.188	924.672
1001.08	996.293
1003.97	928.1
1006.87	952.451
1009.76	896.207
1012.65	834.986
1015.54	851.548
1018.44	717.719
1021.33	576.307
1024.22	418.077
1027.12	303.847
1030.01	164.036
1032.9	74.7773
1035.79	35.831
1038.68	43.9941
1041.58	68.4766
1044.47	34.6797
1047.36	8.15967
1050.26	32.688
1053.15	65.6973
1056.04	89.0454
1058.93	106.388
1061.83	113.647
1064.72	145.118
1067.61	189.435
1070.51	187.417
1073.4	188.815
1076.29	265.976
1079.18	252.385
1082.08	258.918
1084.97	260.643
1087.86	275.151
1090.75	245.126
1093.65	260.472
1096.54	215.581
1099.43	154.361
1102.33	122.998
1105.22	143.495
1108.11	148.248
1111	52.3394
1113.9	68.7837
1116.79	97.1167
1119.68	62.9365
1122.57	36.9424
1125.47	67.8989
1128.36	14.6685
1131.25	48.395
1134.14	30.6953
1137.04	39.9517
1139.93	43.227
1142.82	12.208
1145.71	10.5605
1148.61	53.5332
1151.5	13.147
1154.39	11.3125
1157.29	45.6484
1160.18	53.6201
1163.07	17.3994
1165.96	75.0762
1168.86	37.4209
1171.75	21.6821
1174.64	24.5361
1177.54	109.695
1180.43	47.1211
1183.32	44.7651
1186.21	59.8657
1189.11	67.8652
1192	122.517
1194.89	120.684
1197.78	26.6953
1200.68	82.6309
1203.57	27.9424
1206.46	69.5449
1209.36	86.6675
1212.25	38.6162
1215.14	84.9727
1218.03	42.7095
1220.93	77.1011
1223.82	41.5259
1226.71	66.751
1229.6	12.8267
1232.5	10.5889
1235.39	51.6553
1238.28	62.4849
1241.17	71.2896
1244.07	55.8477
1246.96	92.9746
1249.85	37.7881
1252.74	66.2642
1255.64	38.832
1258.53	8.97168
1261.42	59.7075
1264.32	75.2266
1267.21	14.4619
1270.1	37.8047
1272.99	73.2329
1275.89	56.6597
1278.78	21.7676
1281.67	93.6611
1284.57	85.4697
1287.46	46.4438
1290.35	56.2485
1293.24	74.1465
1296.14	23.9014
1299.03	14.1226
1301.92	88.2793
1304.81	57.3584
1307.71	71.5654
1310.6	69.6226
1313.49	0.327637
