Measurement: Raman, 780 nm, unoriented, Raman Data Processed
Mineral: Kaliborite
Rruff sample: R060352
Ideal chemistry: HKMg_2_B_12_O_16_(OH)_10_4H_2_O
Locality: Inder Boron deposit, Atyrau (Gur'yev), Atyrau Oblast', Kazakhstan
Source: Herb Obodda
Description: Colorless fragment
Measured chemistry: K_1.00_H_1.00_Mg_2.00_B_12.00_O_16_(OH)_10_Â·4H_2_O ; H and B not measured but estimated by stoichiometry
Raman shift (cm-1)	intensity
132.995	0
135.888	7.36981
138.781	49.8561
141.673	118.686
144.566	129.3
147.459	44.702
150.351	3.32541
153.244	0.283112
156.137	15.0359
159.03	45.6898
161.922	67.6132
164.815	54.5741
167.708	13.4376
170.6	3.03369
173.493	10.002
176.386	20.635
179.278	35.1151
182.171	54.587
185.064	68.3577
187.957	68.9777
190.849	51.5238
193.742	42.1902
196.635	38.2567
199.527	26.8352
202.42	10.5117
205.313	5.8436
208.205	10.197
211.098	19.72
213.991	11.8787
216.884	4.42816
219.776	7.10996
222.669	12.3198
225.562	20.0353
228.454	23.4604
231.347	9.94482
234.24	1.01205
237.132	2.59131
240.025	1.63434
242.918	2.46021
245.811	17.7181
248.703	34.0036
251.596	57.8428
254.489	76.5301
257.381	91.0438
260.274	111.604
263.167	107.953
266.059	75.817
268.952	39.0119
271.845	23.9268
274.738	21.3521
277.63	21.6887
280.523	13.3539
283.416	12.4053
286.308	11.3772
289.201	16.3655
292.094	16.1837
294.986	11.1046
297.879	3.18256
300.772	6.47037
303.665	5.20599
306.557	8.5253
309.45	4.57535
312.343	0.92366
315.235	0.057953
318.128	3.65115
321.021	0.994522
323.913	1.00224
326.806	0.778137
329.699	0.161224
332.592	1.28549
335.484	3.21591
338.377	7.83536
341.27	11.0434
344.162	13.7541
347.055	20.4318
349.948	28.1405
352.841	31.4135
355.733	41.4487
358.626	46.0597
361.519	49.9292
364.411	50.7831
367.304	44.5797
370.197	34.3059
373.089	29.2136
375.982	21.9384
378.875	10.7916
381.767	10.2218
384.66	18.6503
387.553	30.0934
390.446	48.6852
393.338	65.6101
396.231	66.1839
399.124	62.0238
402.016	71.969
404.909	106.762
407.802	160.494
410.695	229.122
413.587	251.786
416.48	199.282
419.373	131.68
422.265	89.2282
425.158	68.6318
428.051	60.0291
430.943	58.6604
433.836	58.8301
436.729	44.8725
439.622	32.6009
442.514	20.0642
445.407	13.8175
448.3	9.33284
451.192	4.03362
454.085	2.67918
456.978	3.80824
459.87	2.98646
462.763	1.69922
465.656	0.99437
468.548	2.06921
471.441	3.43819
474.334	7.08551
477.227	6.28153
480.119	3.44345
483.012	2.51721
485.905	1.05659
488.797	0.266876
491.69	1.22786
494.583	1.10318
497.476	0.072586
500.368	0.853546
503.261	0.464096
506.154	0.686371
509.046	0.719879
511.939	1.23087
514.832	0.760986
517.724	0.118073
520.617	1.91371
523.51	2.40122
526.403	1.74435
529.295	3.92943
532.188	3.49751
535.081	3.01808
537.973	1.95987
540.866	2.73708
543.759	2.12984
546.651	0.586075
549.544	1.68738
552.437	0.672379
555.33	3.77622
558.222	3.13132
561.115	2.1519
564.008	4.86879
566.9	7.18681
569.793	9.41489
572.686	10.3178
575.578	13.7896
578.471	17.8258
581.364	17.8872
584.256	23.1444
587.149	27.2115
590.042	32.8028
592.935	30.9923
595.827	28.9839
598.72	23.2398
601.613	20.2925
604.505	18.7816
607.398	14.4002
610.291	9.57387
613.183	8.7287
616.076	9.92586
618.969	9.45442
621.862	8.98488
624.754	9.50479
627.647	7.47166
630.54	4.25006
633.432	3.42316
636.325	1.85283
639.218	2.12448
642.111	1.53874
645.003	1.4205
647.896	3.73251
650.789	7.19505
653.681	14.5202
656.574	28.8305
659.467	53.4998
662.359	89.4324
665.252	101.773
668.145	79.1855
671.038	49.7971
673.93	33.2761
676.823	23.1314
679.716	16.636
682.608	11.0753
685.501	7.06749
688.394	7.9155
691.286	4.92784
694.179	5.12387
697.072	1.96927
699.965	0.460205
702.857	2.30258
705.75	3.77081
708.643	1.86903
711.535	0.796967
714.428	0.491913
717.321	0.152405
720.213	0.020508
723.106	1.80646
725.999	3.77949
728.891	3.24879
731.784	5.73498
734.677	5.2393
737.57	7.79828
740.462	9.86942
743.355	15.5254
746.248	19.6244
749.14	28.7785
752.033	41.6457
754.926	56.6397
757.818	51.6066
760.711	32.4509
763.604	17.8947
766.497	11.2357
769.389	5.28743
772.282	1.22554
775.175	1.14026
778.067	0.312103
780.96	1.91762
783.853	0.034805
786.745	1.43758
789.638	0.315399
792.531	0.937729
795.424	3.17239
798.316	1.4949
801.209	1.66353
804.102	2.48498
806.994	4.78998
809.887	2.94408
812.78	10.5841
815.673	16.6376
818.565	28.5541
821.458	46.1647
824.351	58.5281
827.243	59.0489
830.136	44.7804
833.029	32.5612
835.921	21.1147
838.814	15.1469
841.707	8.58717
844.6	6.41377
847.492	4.10506
850.385	1.35228
853.278	2.27603
856.17	1.59244
859.063	1.19232
861.956	1.71562
864.848	2.06717
867.741	6.36693
870.634	8.78452
873.527	15.5243
876.419	15.3241
879.312	13.7569
882.205	7.95371
885.097	4.39914
887.99	3.94232
890.883	0.689758
893.775	0.700775
896.668	2.47002
899.561	0.739563
902.454	0.587936
905.346	1.311
908.239	0.996704
911.132	1.96318
914.024	1.79964
916.917	1.10823
919.81	0.614304
922.702	1.1642
925.595	0.333771
928.488	0.577042
931.381	0.306747
934.273	0.269318
937.166	0.593307
940.059	0.319031
942.951	0.377075
945.844	1.25934
948.737	4.1907
951.63	4.43759
954.522	7.26421
957.415	9.24355
960.308	13.6082
963.2	23.653
966.093	34.706
968.986	44.2734
971.878	43.764
974.771	29.1581
977.664	20.1602
980.557	14.4737
983.449	10.6854
986.342	6.83263
989.235	3.85593
992.127	3.26344
995.02	5.04317
997.913	4.20728
1000.8	2.48955
1003.7	4.01842
1006.59	3.94482
1009.48	4.22902
1012.38	5.19254
1015.27	5.99345
1018.16	8.08054
1021.05	8.1533
1023.95	8.41373
1026.84	8.37193
1029.73	6.64414
1032.62	7.07861
1035.52	6.86177
1038.41	5.76077
1041.3	4.86943
1044.2	3.54854
1047.09	0.834335
1049.98	3.16025
1052.87	1.41634
1055.77	0.855606
1058.66	0.019135
1061.55	4.5392
1064.44	0.711945
1067.34	1.58389
1070.23	2.74338
1073.12	0.208344
1076.02	0.884094
1078.91	1.85638
1081.8	1.9276
1084.69	1.22539
1087.59	1.00882
1090.48	0.692383
1093.37	0.265076
1096.27	0.723221
1099.16	2.12651
1102.05	2.43782
1104.94	0.763367
1107.84	3.03394
1110.73	1.46118
1113.62	0.992172
1116.51	0.536606
1119.41	0.844131
1122.3	1.45198
1125.19	1.57871
1128.08	3.25664
1130.98	0.720276
1133.87	0.000763
1136.76	3.07143
1139.65	2.35199
1142.55	2.70281
1145.44	2.42015
1148.33	2.81142
1151.23	2.48407
1154.12	1.60165
1157.01	0.134705
1159.9	1.55069
1162.8	1.98441
1165.69	0.577103
1168.58	3.59093
1171.47	1.87091
1174.37	4.45647
1177.26	5.17364
1180.15	5.20865
1183.05	8.13818
1185.94	6.30124
1188.83	10.576
1191.72	12.2291
1194.62	10.377
1197.51	9.61409
1200.4	8.49948
1203.29	6.87263
1206.19	7.43474
1209.08	6.35629
1211.97	6.99133
1214.87	4.12943
1217.76	4.25348
1220.65	4.31523
1223.54	5.28123
1226.44	3.10248
1229.33	2.29715
1232.22	1.42694
1235.11	3.17841
1238.01	0.201736
1240.9	0.632416
1243.79	1.11415
1246.68	1.38692
1249.58	0.463165
1252.47	2.43582
1255.36	2.86331
1258.26	3.16885
1261.15	4.99585
1264.04	4.21663
1266.93	2.29833
1269.83	4.82825
1272.72	4.80632
1275.61	4.78874
1278.51	3.5808
1281.4	1.04256
1284.29	2.00908
