Measurement: Raman, 532 nm, unoriented, Raman Data Processed
Mineral: Kalicinite
Rruff sample: R130026
Ideal chemistry: KHCO_3_
Locality: Lab-grown by bacteria in 15% potassium carbonate
Source: Dr. Flavia Pinzari
Raman shift (cm-1)	intensity
186.749	0
189.642	6.36844
192.535	11.3573
195.427	8.32471
198.32	7.27429
201.213	5.23972
204.105	0.278198
206.998	0.078796
209.891	1.02191
212.784	2.96475
215.676	3.74567
218.569	5.74121
221.462	6.55685
224.354	5.50089
227.247	5.64651
230.14	4.79236
233.032	2.63544
235.925	1.73715
238.818	0.290771
241.71	2.65387
244.603	0.327789
247.496	2.92261
250.389	0.56488
253.281	0.244873
256.174	1.75308
259.067	6.07346
261.959	5.53915
264.852	3.65234
267.745	6.41266
270.637	5.32404
273.53	4.85831
276.423	4.0351
279.316	5.27719
282.208	5.35992
285.101	4.98666
287.994	6.25726
290.886	6.59293
293.779	5.16879
296.672	3.88303
299.565	4.78528
302.457	3.99417
305.35	2.67908
308.243	2.25345
311.135	5.44992
314.028	4.46423
316.921	8.83203
319.813	3.64929
322.706	4.8147
325.599	2.55887
328.491	4.15149
331.384	4.25458
334.277	3.16489
337.17	4.28873
340.062	3.53506
342.955	3.95514
345.848	3.44919
348.74	5.67422
351.633	3.82489
354.526	4.84875
357.418	0.802124
360.311	3.17529
363.204	1.22348
366.097	2.1626
368.989	1.92779
371.882	2.3418
374.775	2.035
377.667	2.55692
380.56	0.947693
383.453	0.965302
386.346	0.009247
389.238	0.610565
392.131	0.406311
395.024	1.14401
397.916	0.159973
400.809	0.709106
403.702	1.79901
406.594	1.57303
409.487	1.83215
412.38	1.89404
415.272	2.33221
418.165	0.412476
421.058	1.19736
423.951	0.870392
426.843	2.44922
429.736	1.65674
432.629	0.579742
435.521	4.2912
438.414	1.42914
441.307	1.72549
444.2	2.89404
447.092	2.40814
449.985	3.27817
452.878	2.01035
455.77	2.36603
458.663	0.84726
461.556	0.548218
464.448	1.75028
467.341	2.31515
470.234	2.91983
473.127	3.6283
476.019	2.62421
478.912	2.37335
481.805	1.33722
484.697	2.71649
487.59	0.697205
490.483	1.62705
493.375	2.67932
496.268	1.31619
499.161	5.04529
502.053	1.59924
504.946	1.89127
507.839	0.07312
510.732	3.0332
513.624	1.77747
516.517	0.586151
519.41	1.65683
522.302	1.34668
525.195	0.25766
528.088	2.31445
530.981	0.545746
533.873	1.65662
536.766	1.31741
539.659	1.97803
542.551	1.08774
545.444	0.13385
548.337	0.541718
551.229	1.87927
554.122	0.606049
557.015	1.53717
559.908	0.08844
562.8	3.62585
565.693	2.05658
568.586	1.22681
571.478	0.659302
574.371	0.347839
577.264	0.691071
580.156	2.32642
583.049	0.915283
585.942	0.51651
588.835	1.59952
591.727	0.855865
594.62	2.38934
597.513	1.92035
600.405	1.24963
603.298	2.75604
606.191	2.08481
609.083	1.52502
611.976	1.18732
614.869	2.03095
617.761	1.99863
620.654	4.69595
623.547	5.43515
626.44	7.00177
629.332	10.1484
632.225	18.192
635.118	35.7753
638.01	31.77
640.903	7.86356
643.796	4.4195
646.688	2.84897
649.581	0.341034
652.474	0.302307
655.367	0.506683
658.259	0.156647
661.152	2.68765
664.045	2.22183
666.937	5.82642
669.83	11.1726
672.723	16.9602
675.615	35.8746
678.508	31.3635
681.401	6.93301
684.294	3.16953
687.186	1.1015
690.079	1.54041
692.972	1.6785
695.864	1.0907
698.757	1.03421
701.65	0.770477
704.543	0.81778
707.435	0.990753
710.328	1.14023
713.221	1.9678
716.113	1.57703
719.006	1.40726
721.899	1.05704
724.791	1.65314
727.684	0.510681
730.577	0.6922
733.47	2.02719
736.362	0.772308
739.255	3.88495
742.148	2.33826
745.04	3.08929
747.933	2.86221
750.826	1.39709
753.718	0.354462
756.611	0.55661
759.504	0.082916
762.396	2.63168
765.289	2.35834
768.182	0.65744
771.075	1.68399
773.967	1.76492
776.86	5.01739
779.753	2.53604
782.645	2.64374
785.538	0.951172
788.431	0.34845
791.323	1.87006
794.216	1.59341
797.109	0.613159
800.002	0.203857
802.894	0.109314
805.787	1.06329
808.68	1.58829
811.572	0.968506
814.465	1.3024
817.358	2.98407
820.25	3.58362
823.143	6.30173
826.036	6.1481
828.929	10.3634
831.821	22.8327
834.714	13.4458
837.607	5.89749
840.5	4.345
843.392	3.00098
846.285	2.48816
849.178	3.0557
852.07	2.60614
854.963	2.67807
857.856	3.53049
860.748	2.41101
863.641	2.901
866.534	3.79373
869.427	1.52368
872.319	1.49673
875.212	2.42184
878.105	2.97745
880.997	1.80035
883.89	0.582794
886.783	0.01593
889.675	2.23615
892.568	0.245575
895.461	2.75226
898.354	2.16867
901.246	1.7952
904.139	2.70459
907.032	0.735291
909.924	2.88535
912.817	2.51514
915.71	1.65927
918.602	4.2027
921.495	1.84451
924.388	2.29025
927.28	2.28195
930.173	2.9664
933.066	3.66525
935.959	1.77225
938.851	1.8205
941.744	2.09204
944.637	3.07165
947.529	2.00601
950.422	1.03613
953.315	0.625122
956.207	1.70471
959.1	0.877991
961.993	0.94632
964.886	1.82718
967.778	2.2699
970.671	2.22702
973.564	3.86472
976.456	0.511414
979.349	1.90762
982.242	2.17899
985.135	1.56534
988.027	2.42007
990.92	3.11237
993.813	3.30051
996.705	3.40726
999.598	5.52307
1002.49	7.91666
1005.38	8.34787
1008.28	13.8036
1011.17	20.3621
1014.06	30.4474
1016.95	57.9314
1019.85	99.5431
1022.74	160.142
1025.63	259.394
1028.53	396.918
1031.42	359.475
1034.31	172.258
1037.2	69.5069
1040.1	32.6859
1042.99	18.5823
1045.88	13.8963
1048.77	7.38174
1051.67	5.79532
1054.56	2.89645
1057.45	2.84821
1060.35	0.475891
1063.24	2.07294
1066.13	1.12781
1069.02	1.33731
1071.92	1.07559
1074.81	1.93823
1077.7	0.098877
1080.59	0.891815
1083.49	1.52139
1086.38	3.09793
1089.27	2.23389
1092.16	0.829773
1095.06	0.546906
1097.95	1.70371
1100.84	2.64304
1103.73	0.988708
1106.63	0.35968
1109.52	2.49728
1112.41	1.92816
1115.31	2.0556
1118.2	2.76984
1121.09	2.43027
1123.98	1.87241
1126.88	2.36969
1129.77	1.36966
1132.66	3.49796
1135.56	3.36087
1138.45	3.9433
1141.34	4.10974
1144.23	3.55969
1147.13	3.49094
1150.02	3.38931
1152.91	2.30975
1155.8	1.72046
1158.7	4.51917
1161.59	3.19882
1164.48	0.233124
1167.38	1.99643
1170.27	0.292603
1173.16	2.01157
1176.05	2.25149
1178.94	1.09305
1181.84	1.50406
1184.73	0.050354
1187.62	0.946014
1190.52	1.61691
1193.41	1.04727
1196.3	0.494812
1199.19	1.02307
1202.09	0.04837
1204.98	1.38556
1207.87	0.135101
1210.77	1.29559
1213.66	2.02618
1216.55	0.460114
1219.44	1.3689
1222.34	2.04715
1225.23	5.90765
1228.12	4.85599
1231.01	7.20859
1233.91	7.44485
1236.8	8.80362
1239.69	6.71945
1242.59	8.03104
1245.48	9.18375
1248.37	7.6283
1251.26	9.3093
1254.16	11.2207
1257.05	13.1289
1259.94	17.4786
1262.83	20.8943
1265.73	21.6789
1268.62	26.7083
1271.51	30.824
1274.4	38.0175
1277.3	41.0406
1280.19	42.8633
1283.08	40.2649
1285.97	33.5408
1288.87	26.1193
1291.76	17.2343
1294.65	9.17627
1297.55	2.22473
1300.44	0.567566
