Measurement: Raman, 532 nm, unoriented, Raman Data Processed
Mineral: Kalsilite
Rruff sample: R060030
Ideal chemistry: KAlSiO_4_
Locality: San Venanzo, Italy
Source: University of Arizona Mineral Museum
Description: White acicular single crystals of kalsilite, associated with thinner colorless fluorapatite and brown tabular phlogopite
Measured chemistry: (K_0.88_Na_0.10_[box]_0.02_)Si_1.02_Al_0.94_Fe_0.04_O_4_
Raman shift (cm-1)	intensity
149.752	0
152.645	1.45291
155.537	0.489563
158.43	0.031219
161.323	1.08324
164.215	2.06407
167.108	2.46533
170.001	3.91893
172.894	3.78737
175.786	4.17935
178.679	3.83249
181.572	3.8571
184.464	3.18822
187.357	3.21954
190.25	3.36002
193.143	1.19519
196.035	2.55762
198.928	0.655319
201.821	0.223358
204.713	2.12297
207.606	1.4646
210.499	2.51067
213.391	5.17874
216.284	5.36696
219.177	6.60387
222.07	7.04587
224.962	7.25178
227.855	9.44154
230.748	9.63165
233.64	11.4007
236.533	9.75186
239.426	9.92525
242.318	9.51681
245.211	7.23907
248.104	5.6779
250.996	4.44774
253.889	1.46854
256.782	1.02467
259.675	0.016098
262.567	0.457535
265.46	3.08852
268.353	1.07114
271.245	1.58258
274.138	1.19513
277.031	0.214401
279.923	0.02562
282.816	2.19733
285.709	5.02071
288.601	9.26942
291.494	13.2254
294.387	18.4326
297.28	25.0798
300.172	32.6751
303.065	41.0803
305.958	53.1607
308.85	68.12
311.743	81.3764
314.636	100.67
317.529	120.546
320.421	145.154
323.314	174.515
326.207	205.339
329.099	244.817
331.992	282.947
334.885	325.945
337.777	356.985
340.67	377.085
343.563	375.869
346.455	354.36
349.348	318.583
352.241	278.75
355.134	230.5
358.026	189.939
360.919	152.376
363.812	125.339
366.704	104.1
369.597	87.3012
372.49	75.5578
375.382	64.2571
378.275	56.0474
381.168	47.6328
384.061	38.3628
386.953	30.2422
389.846	23.0183
392.739	17.1301
395.631	14.0576
398.524	8.10989
401.417	6.78012
404.31	2.63646
407.202	3.39864
410.095	1.37708
412.988	0.274887
415.88	0.402237
418.773	0.305557
421.666	1.42288
424.558	1.14703
427.451	0.787964
430.344	2.1421
433.236	2.35716
436.129	5.21187
439.022	5.90927
441.915	4.5314
444.807	4.76794
447.7	3.94498
450.593	5.16544
453.485	4.80347
456.378	0.841873
459.271	1.3672
462.163	2.78831
465.056	1.32916
467.949	0.805542
470.842	1.51189
473.734	2.85686
476.627	5.70047
479.52	8.48303
482.412	11.9748
485.305	14.9484
488.198	17.4317
491.091	21.8178
493.983	26.64
496.876	29.0361
499.769	24.9744
502.661	19.6217
505.554	14.603
508.447	12.2846
511.339	10.6196
514.232	9.3979
517.125	8.32355
520.018	5.28255
522.91	2.93935
525.803	2.93011
528.696	1.6467
531.588	1.83679
534.481	0.971802
537.374	0.751297
540.266	1.15768
543.159	0.040451
546.052	0.908447
548.944	0.036041
551.837	1.03314
554.73	1.47461
557.622	0.828552
560.515	0.963318
563.408	0.358276
566.301	1.22382
569.193	1.85115
572.086	3.06543
574.979	4.01886
577.871	4.74121
580.764	3.55408
583.657	3.69263
586.549	3.60884
589.442	3.31238
592.335	2.48599
595.228	1.265
598.12	2.19229
601.013	2.15636
603.906	1.73119
606.798	2.30266
609.691	1.10321
612.584	2.13275
615.476	2.10356
618.369	1.87358
621.262	1.67551
624.155	2.45
627.047	2.22199
629.94	3.57497
632.833	2.97778
635.725	2.77417
638.618	4.34955
641.511	5.14674
644.404	3.21986
647.296	2.64267
650.189	2.5878
653.082	2.60883
655.974	2.00819
658.867	1.80495
661.76	2.03209
664.652	1.23999
667.545	0.709015
670.438	0.607239
673.33	1.40689
676.223	0.982742
679.116	0.984451
682.009	0.194458
684.901	0.08194
687.794	0.520615
690.687	0.407455
693.579	0.576233
696.472	0.732285
699.365	0.095825
702.257	1.3878
705.15	0.909805
708.043	0.82515
710.936	1.5607
713.828	0.115067
716.721	0.30867
719.614	0.179276
722.506	0.920883
725.399	1.2148
728.292	0.782654
731.184	1.15625
734.077	1.89214
736.97	1.13061
739.862	0.779282
742.755	0.44902
745.648	0.281616
748.541	0.229538
751.433	0.132385
754.326	0.555099
757.219	0.69603
760.111	1.19205
763.004	0.890411
765.897	0.520264
768.79	0.76152
771.682	0.862518
774.575	1.05437
777.468	0.405487
780.36	0.373444
783.253	0.193695
786.146	1.3954
789.038	1.26761
791.931	1.34747
794.824	1.53601
797.716	3.25928
800.609	2.8971
803.502	3.59699
806.395	2.65222
809.287	4.92433
812.18	5.15391
815.073	3.22583
817.965	3.03374
820.858	2.70761
823.751	2.97676
826.644	4.63344
829.536	3.38805
832.429	2.87068
835.322	3.46631
838.214	3.36211
841.107	2.24625
844	2.49831
846.892	3.55405
849.785	3.27737
852.678	3.91806
855.571	3.14693
858.463	4.45432
861.356	4.17323
864.249	2.56232
867.141	2.04509
870.034	1.6765
872.927	1.51576
875.819	0.27829
878.712	0.46756
881.605	1.01289
884.497	0.47876
887.39	0.562759
890.283	3.35948
893.176	5.10643
896.068	6.68984
898.961	10.4639
901.854	16.6195
904.746	20.7485
907.639	24.6108
910.532	30.3951
913.424	36.1375
916.317	40.7089
919.21	41.2785
922.102	40.8188
924.995	35.5915
927.888	28.6477
930.781	19.3523
933.673	11.6996
936.566	6.11209
939.459	2.07417
942.351	0.210236
945.244	0.906952
948.137	0.835846
951.029	0.762833
953.922	4.22653
956.815	7.9561
959.708	12.5306
962.6	18.4924
965.493	23.8746
968.386	25.0524
971.278	21.7875
974.171	19.1164
977.064	17.1413
979.957	14.0093
982.849	9.94228
985.742	8.32614
988.635	6.26047
991.527	7.98439
994.42	9.83058
997.313	13.7192
1000.21	16.444
1003.1	21.6109
1005.99	26.5966
1008.88	27.8003
1011.78	34.1473
1014.67	38.8588
1017.56	42.1374
1020.45	41.6343
1023.35	36.3607
1026.24	31.6669
1029.13	23.8379
1032.03	17.6796
1034.92	10.9676
1037.81	6.9521
1040.7	4.24754
1043.6	2.98593
1046.49	1.65562
1049.38	1.6936
1052.27	2.49214
1055.17	1.27434
1058.06	1.52968
1060.95	0.922226
1063.85	0.463226
1066.74	0.422699
1069.63	1.25211
1072.52	0.84436
1075.42	0.167969
1078.31	0.38829
1081.2	2.45827
1084.09	4.17688
1086.99	4.84668
1089.88	3.51971
1092.77	3.69553
1095.66	3.69095
1098.56	2.40282
1101.45	3.22614
1104.34	4.58398
1107.23	5.23192
1110.13	5.99681
1113.02	6.94313
1115.91	5.17264
1118.81	4.10724
1121.7	3.06848
1124.59	1.38379
1127.48	1.07689
1130.38	0.354309
1133.27	0.403488
1136.16	1.05893
1139.06	0.194107
1141.95	0.227264
1144.84	0.809067
1147.73	0.147369
1150.63	0.475281
1153.52	0.621536
1156.41	2.26862
1159.3	1.26366
1162.2	1.82715
1165.09	0.126419
1167.98	0.497757
1170.88	0.954758
1173.77	0.779083
1176.66	0.791031
1179.55	0.894974
1182.44	2.28151
1185.34	3.21347
1188.23	2.76335
1191.12	2.92226
1194.02	1.2512
1196.91	0.451843
1199.8	0.134155
1202.69	0.525314
1205.59	0.466415
1208.48	0.590561
1211.37	0.843796
1214.27	0.539871
1217.16	2.66849
1220.05	2.64771
1222.94	3.77869
1225.84	4.15408
1228.73	3.57115
1231.62	2.58446
1234.51	3.51167
1237.41	2.50522
1240.3	2.48004
1243.19	3.45013
1246.09	2.6421
1248.98	4.76674
1251.87	3.57455
1254.76	4.12544
1257.66	3.52754
1260.55	3.05641
1263.44	3.32919
1266.33	1.50101
1269.23	1.09013
1272.12	1.08534
1275.01	0.690536
1277.9	1.65199
1280.8	0.808777
1283.69	1.61945
1286.58	0.054184
1289.47	0.993759
1292.37	0.969833
1295.26	0.969421
1298.15	1.4205
1301.05	1.38563
1303.94	0.118881
