Measurement: Raman, 780 nm, unoriented, Raman Data Processed
Mineral: Kalsilite
Rruff sample: R060030
Ideal chemistry: KAlSiO_4_
Locality: San Venanzo, Italy
Source: University of Arizona Mineral Museum
Description: White acicular single crystals of kalsilite, associated with thinner colorless fluorapatite and brown tabular phlogopite
Measured chemistry: (K_0.88_Na_0.10_[box]_0.02_)Si_1.02_Al_0.94_Fe_0.04_O_4_
Raman shift (cm-1)	intensity
150.025	0
152.918	3.02347
155.811	1.2496
158.703	2.48947
161.596	2.51962
164.489	2.42453
167.382	1.82504
170.274	1.27838
173.167	1.71191
176.06	1.65817
178.952	2.31277
181.845	1.03757
184.738	1.60931
187.631	0.89978
190.523	1.22241
193.416	1.05817
196.309	1.44705
199.201	2.38632
202.094	0.387238
204.987	3.38623
207.879	2.2962
210.772	3.44885
213.665	4.54541
216.558	4.32703
219.45	6.57449
222.343	9.49432
225.236	12.2791
228.128	12.4382
231.021	13.3428
233.914	13.0577
236.806	12.3139
239.699	12.0818
242.592	8.30676
245.484	6.89377
248.377	5.21411
251.27	0.363525
254.163	2.0293
257.055	2.0549
259.948	1.07993
262.841	0.022095
265.733	0.89679
268.626	0.770264
271.519	0.3526
274.411	2.22409
277.304	1.56955
280.197	4.73999
283.089	5.29895
285.982	7.92764
288.875	10.4829
291.768	16.1356
294.66	20.8037
297.553	26.6678
300.446	33.5879
303.338	41.5721
306.231	50.3668
309.124	60.9051
312.017	74.8343
314.909	88.1321
317.802	106.469
320.695	124.512
323.587	144.716
326.48	164.548
329.373	186.513
332.265	198.756
335.158	210.366
338.051	210.79
340.943	204.365
343.836	187.758
346.729	164.741
349.622	141.411
352.514	115.228
355.407	92.6077
358.3	74.8298
361.192	60.6447
364.085	48.1229
366.978	39.5033
369.87	30.9376
372.763	26.5055
375.656	19.0346
378.549	16.5406
381.441	12.1824
384.334	8.94604
387.227	5.66995
390.119	4.52918
393.012	2.75757
395.905	2.39563
398.798	0.512299
401.69	1.03821
404.583	0.889709
407.476	1.45911
410.368	1.67975
413.261	1.64664
416.154	1.87622
419.046	3.69486
421.939	4.34695
424.832	5.95746
427.724	7.46124
430.617	7.62235
433.51	10.4558
436.402	12.0533
439.295	10.1146
442.188	10.5478
445.081	9.30518
447.973	7.82364
450.866	6.77771
453.759	5.1878
456.651	3.53494
459.544	0.005341
462.437	0.382843
465.329	0.900299
468.222	0.68808
471.115	0.890991
474.008	2.01038
476.9	2.43323
479.793	3.56454
482.686	3.47562
485.578	5.21423
488.471	6.7945
491.364	7.66348
494.257	9.58029
497.149	7.93381
500.042	7.01074
502.935	4.99835
505.827	4.46722
508.72	4.53439
511.613	5.0253
514.505	3.58887
517.398	2.44305
520.291	0.985016
523.183	1.91727
526.076	1.92279
528.969	0.566345
531.862	1.06409
534.754	0.797913
537.647	0.423096
540.54	0.489319
543.432	0.605682
546.325	0.230865
549.218	0.088867
552.111	0.017883
555.003	0.022675
557.896	2.33655
560.789	0.051514
563.681	2.58749
566.574	0.17569
569.467	0.358276
572.359	2.42413
575.252	1.03888
578.145	1.29703
581.038	1.45398
583.93	0.325134
586.823	2.30856
589.716	2.81943
592.608	1.32004
595.501	3.70673
598.394	3.00974
601.286	2.86551
604.179	2.23108
607.072	1.70453
609.964	3.48846
612.857	3.90002
615.75	1.69
618.643	4.16257
621.535	0.963989
624.428	3.0318
627.321	2.46414
630.213	1.85767
633.106	1.97138
635.999	3.03909
638.891	3.70551
641.784	1.82935
644.677	2.61893
647.569	2.16754
650.462	2.67856
653.355	2.4426
656.248	0.75116
659.14	1.80066
662.033	0.930145
664.926	2.56595
667.818	1.14706
670.711	3.01791
673.604	1.86417
676.496	1.1926
679.389	0.093506
682.282	0.969055
685.175	2.35025
688.067	0.374176
690.96	1.51968
693.853	0.767517
696.745	0.22583
699.638	1.11224
702.531	1.67682
705.423	0.328247
708.316	1.12695
711.209	0.994904
714.102	0.243134
716.994	1.17572
719.887	0.581757
722.78	1.9202
725.672	1.10559
728.565	0.837646
731.458	1.0791
734.351	1.12842
737.243	2.51251
740.136	1.53455
743.029	0.235016
745.921	0.025482
748.814	0.758728
751.707	1.45468
754.599	0.546265
757.492	0.66571
760.385	1.72138
763.278	0.085205
766.17	0.350861
769.063	0.328461
771.956	0.350739
774.848	0.474091
777.741	1.00259
780.634	0.252167
783.526	1.30838
786.419	1.11916
789.312	1.47302
792.204	2.00772
795.097	1.46631
797.99	2.37231
800.883	2.0085
803.775	3.36327
806.668	2.16591
809.561	3.06413
812.453	2.7921
815.346	1.96246
818.239	2.67078
821.131	1.76816
824.024	2.47421
826.917	2.31186
829.809	3.04944
832.702	4.51111
835.595	3.01485
838.488	3.73181
841.38	3.45775
844.273	3.75601
847.166	2.90736
850.058	2.7757
852.951	3.82657
855.844	5.29042
858.736	4.0221
861.629	4.24007
864.522	2.29343
867.415	2.19127
870.307	1.55698
873.2	1.23451
876.093	0.535156
878.985	1.39162
881.878	1.33211
884.771	1.23787
887.663	0.491119
890.556	0.444321
893.449	1.22177
896.342	1.83824
899.234	3.73766
902.127	5.08881
905.02	5.45961
907.912	5.66261
910.805	6.98415
913.698	8.56251
916.591	8.69878
919.483	8.15704
922.376	6.44635
925.269	4.53014
928.161	3.18756
931.054	1.35365
933.947	1.21747
936.839	0.161987
939.732	1.48303
942.625	1.63527
945.518	1.28787
948.41	2.76018
951.303	3.97868
954.196	6.3159
957.088	8.58426
959.981	10.1816
962.874	13.5376
965.766	12.8783
968.659	11.4623
971.552	9.02824
974.444	8.94276
977.337	8.63493
980.23	5.7758
983.122	3.65939
986.015	2.94243
988.908	2.31068
991.801	3.86072
994.693	2.9969
997.586	3.85792
1000.48	3.86838
1003.37	5.6693
1006.26	7.50282
1009.16	7.03589
1012.05	7.46112
1014.94	8.94356
1017.84	8.91994
1020.73	7.15671
1023.62	6.64224
1026.51	4.71777
1029.41	3.65092
1032.3	1.99409
1035.19	1.84022
1038.08	2.64031
1040.98	0.355972
1043.87	0.414276
1046.76	0.013031
1049.65	0.343918
1052.55	0.603745
1055.44	0.697464
1058.33	1.53091
1061.22	0.031219
1064.12	0.017731
1067.01	0.162689
1069.9	0.675461
1072.8	0.990005
1075.69	0.30777
1078.58	0.4496
1081.47	1.18091
1084.37	0.645462
1087.26	1.67793
1090.15	0.934631
1093.05	1.20012
1095.94	1.01483
1098.83	1.23898
1101.72	2.70111
1104.62	1.31064
1107.51	1.46503
1110.4	2.45624
1113.29	3.69849
1116.19	1.85727
1119.08	2.48498
1121.97	2.00342
1124.87	1.25412
1127.76	1.13731
1130.65	0.030624
1133.54	0.303741
1136.44	1.53262
1139.33	0.41156
1142.22	0.01973
1145.11	1.26306
1148.01	0.677765
1150.9	0.656693
1153.79	1.81271
1156.68	0.329361
1159.58	0.941025
1162.47	1.04315
1165.36	1.53061
1168.26	0.861633
1171.15	1.27402
1174.04	0.284729
1176.93	1.95241
1179.83	1.67748
1182.72	2.42601
1185.61	1.67592
1188.5	1.27806
1191.4	2.97642
1194.29	1.6877
1197.18	1.61706
1200.08	1.76587
1202.97	1.02351
1205.86	0.68187
1208.75	1.84634
1211.65	0.506836
1214.54	0.199265
1217.43	0.292618
1220.32	0.633682
1223.22	1.03119
1226.11	0.198456
1229	1.09476
1231.89	2.05022
1234.79	1.64014
1237.68	1.09363
1240.57	2.59241
1243.46	1.4706
1246.36	1.96814
1249.25	2.25876
1252.14	1.00023
1255.04	2.10085
1257.93	1.2003
1260.82	1.12231
1263.71	0.603714
1266.61	0.909149
1269.5	0.18248
1272.39	1.15335
1275.29	1.46555
1278.18	0.856781
1281.07	1.38663
1283.96	0.761169
1286.86	0
