Measurement: Raman, 532 nm, unoriented, Raman Data Processed
Mineral: Kalsilite
Rruff sample: R060801
Ideal chemistry: KAlSiO_4_
Locality: Marino, Latium, Italy
Source: Smithsonian Institute
Description: White anhedral blebs
Measured chemistry: (K_0.90_Na_0.09_[box]_0.01_)_Î£=1_Al_0.99_Si_1.01_O_4_
Raman shift (cm-1)	intensity
150.292	0
153.185	1.06848
156.078	2.85021
158.97	0.338375
161.863	1.29107
164.756	1.04992
167.649	1.31265
170.541	1.83927
173.434	1.97731
176.327	1.24121
179.219	0.959888
182.112	0.177055
185.005	0.663712
187.898	0.269176
190.79	0.130871
193.683	0.550373
196.576	1.18403
199.468	1.05853
202.361	2.04438
205.254	2.7523
208.146	3.67554
211.039	7.41568
213.932	11.7104
216.825	17.8975
219.717	24.4563
222.61	31.251
225.503	40.4739
228.395	48.6466
231.288	59.5745
234.181	68.5511
237.073	74.5885
239.966	70.8099
242.859	57.6066
245.751	42.2707
248.644	26.8138
251.537	16.6246
254.43	10.0642
257.322	5.74126
260.215	1.80999
263.108	0.916065
266	0.939667
268.893	1.73957
271.786	1.79244
274.678	2.7049
277.571	0.032478
280.464	0.105522
283.357	1.782
286.249	4.79949
289.142	8.58257
292.035	15.3713
294.927	20.6721
297.82	29.1683
300.713	40.4409
303.606	54.4666
306.498	69.8494
309.391	90.6681
312.284	115.983
315.176	141.658
318.069	172.011
320.962	206.988
323.854	242.331
326.747	291.616
329.64	356.387
332.533	427.638
335.425	509.152
338.318	582.406
341.211	644.417
344.103	672.464
346.996	655.411
349.889	587.693
352.781	493.982
355.674	391.102
358.567	305.803
361.459	235.524
364.352	184.822
367.245	147.763
370.138	117.088
373.03	95.4469
375.923	77.152
378.816	62.7541
381.708	50.1042
384.601	41.13
387.494	32.5559
390.387	27.442
393.279	20.5495
396.172	15.477
399.065	11.434
401.957	7.44891
404.85	3.33337
407.743	1.9703
410.635	0.799263
413.528	0.441956
416.421	0.718903
419.313	1.28566
422.206	1.86083
425.099	1.82187
427.991	1.44165
430.884	0.527935
433.777	1.51527
436.67	4.6826
439.562	9.79693
442.455	13.2562
445.348	19.8609
448.24	29.3864
451.133	42.3374
454.026	47.0636
456.918	27.7471
459.811	8.48362
462.704	2.02338
465.597	0.574223
468.489	0.411655
471.382	0.604481
474.275	0.877857
477.167	1.70974
480.06	2.40642
482.953	3.34171
485.846	5.83554
488.738	7.84189
491.631	11.5928
494.524	15.8111
497.416	22.1584
500.309	31.2477
503.202	37.8471
506.094	31.9076
508.987	19.0871
511.88	11.2573
514.773	7.97602
517.665	6.62071
520.558	5.23715
523.451	4.79399
526.343	3.7852
529.236	2.56671
532.129	2.01486
535.021	1.23167
537.914	1.6521
540.807	0.5163
543.699	0.367779
546.592	0.018818
549.485	0.13839
552.378	0.089386
555.27	0.043053
558.163	0.530666
561.056	0.219585
563.948	0.356461
566.841	0.194298
569.734	0.452896
572.626	0.176426
575.519	0.910877
578.412	1.82273
581.305	0.645126
584.197	1.32808
587.09	1.06452
589.983	1.54708
592.875	0.593327
595.768	0.837463
598.661	0.627407
601.553	1.00073
604.446	0.47142
607.339	0.320858
610.232	0.092216
613.124	0.279427
616.017	0.136211
618.91	0.871342
621.802	0.275982
624.695	0.308086
627.588	0.491657
630.481	1.08932
633.373	1.22253
636.266	1.8662
639.159	2.86009
642.051	3.92624
644.944	5.22762
647.837	6.55474
650.729	6.33557
653.622	3.9975
656.515	2.17722
659.408	2.418
662.3	1.44623
665.193	1.18111
668.086	0.785847
670.978	1.74459
673.871	1.80018
676.764	1.6283
679.656	2.07011
682.549	2.70612
685.442	2.93392
688.335	2.66491
691.227	2.27873
694.12	1.28306
697.013	0.86113
699.905	0.671631
702.798	0.324127
705.691	0.618061
708.583	0.438374
711.476	0.70863
714.369	0.445057
717.261	0.059582
720.154	0.062687
723.047	0.9533
725.94	0.215004
728.832	0.260742
731.725	0.99094
734.618	0.355785
737.51	0.984318
740.403	0.190754
743.296	0.567047
746.188	0.190083
749.081	0.443424
751.974	1.20093
754.867	0.593712
757.759	0.643864
760.652	0.490288
763.545	1.01067
766.437	0.009361
769.33	0.413265
772.223	0.359936
775.115	0.124283
778.008	0.342049
780.901	0.246357
783.794	0.223331
786.686	0.522022
789.579	0.917011
792.472	0.490482
795.364	0.300934
798.257	0.56007
801.15	0.536125
804.043	0.546478
806.935	0.65173
809.828	1.39386
812.721	1.62952
815.613	1.3204
818.506	0.233536
821.399	0.815735
824.291	0.774536
827.184	0.575008
830.077	1.27646
832.97	1.2364
835.862	1.36376
838.755	1.88409
841.648	1.06345
844.54	1.73133
847.433	1.30726
850.326	1.53544
853.218	1.90462
856.111	1.84515
859.004	1.92814
861.896	2.11419
864.789	2.06009
867.682	1.7715
870.575	2.43801
873.467	1.20711
876.36	0.537262
879.253	0.885036
882.145	0.270218
885.038	0.668198
887.931	0.540329
890.823	0.083637
893.716	0.406601
896.609	0.617268
899.502	1.26372
902.394	1.98082
905.287	4.50388
908.18	7.34182
911.072	10.5925
913.965	13.5804
916.858	15.7123
919.75	15.898
922.643	13.1353
925.536	9.79892
928.429	5.62149
931.321	2.36459
934.214	1.37824
937.107	0.153904
939.999	0.45668
942.892	0.651585
945.785	0.811424
948.678	2.54037
951.57	4.59896
954.463	8.31516
957.356	12.3607
960.248	20.1179
963.141	29.7816
966.034	43.6566
968.926	59.8759
971.819	77.5008
974.712	92.1981
977.604	98.44
980.497	94.3248
983.39	85.2976
986.283	82.8706
989.175	93.1967
992.068	115.223
994.961	137.648
997.853	131.504
1000.75	95.481
1003.64	63.3627
1006.53	42.6482
1009.42	29.9527
1012.32	21.2169
1015.21	15.4243
1018.1	11.6192
1021	8.53906
1023.89	6.47256
1026.78	4.25492
1029.67	2.76688
1032.57	1.96738
1035.46	1.2359
1038.35	0.80891
1041.24	0.367203
1044.14	0.504112
1047.03	0.399296
1049.92	0.189533
1052.82	1.01404
1055.71	0.587971
1058.6	1.27443
1061.49	1.16664
1064.38	0.049763
1067.28	0.076054
1070.17	0.058121
1073.06	0.376945
1075.96	0.673252
1078.85	0.178905
1081.74	0.504791
1084.63	0.265717
1087.53	0.427948
1090.42	0.631416
1093.31	0.164772
1096.2	0.129463
1099.1	1.04222
1101.99	1.26334
1104.88	1.63718
1107.78	1.33864
1110.67	2.37419
1113.56	2.95741
1116.45	1.94976
1119.35	1.82488
1122.24	1.36677
1125.13	0.985596
1128.03	1.20996
1130.92	0.481163
1133.81	0.598976
1136.7	0.362495
1139.6	0.602222
1142.49	0.675858
1145.38	0.849392
1148.27	0.562298
1151.17	0.162418
1154.06	0.280025
1156.95	0.079544
1159.84	0.053692
1162.74	0.871994
1165.63	0.565052
1168.52	0.389469
1171.41	0.233158
1174.31	0.811424
1177.2	0.782097
1180.09	1.34367
1182.99	0.676609
1185.88	0.818626
1188.77	0.932392
1191.66	0.647133
1194.56	0.663418
1197.45	1.03716
1200.34	0.853306
1203.23	1.27315
1206.13	0.839436
1209.02	0.459507
1211.91	0.785934
1214.81	0.942734
1217.7	0.783596
1220.59	0.342445
1223.48	0.061977
1226.38	0.843094
1229.27	0.290295
1232.16	0.647755
1235.06	0.38776
1237.95	0.578934
1240.84	0.605656
1243.73	0.219398
1246.62	0.964962
1249.52	0.513901
1252.41	0.697998
1255.3	1.06764
1258.2	0.007839
1261.09	0.348717
1263.98	0.693756
1266.87	0.201351
1269.77	0.73571
1272.66	0.314434
1275.55	0.320057
1278.44	0.718288
1281.34	0.758381
1284.23	0.537918
1287.12	0.556065
1290.02	0.844788
1292.91	0.434395
1295.8	0.740864
1298.69	1.00419
1301.59	0.916893
1304.48	0.360786
