Measurement: Raman, 780 nm, unoriented, Raman Data Processed
Mineral: Kalsilite
Rruff sample: R060801
Ideal chemistry: KAlSiO_4_
Locality: Marino, Latium, Italy
Source: Smithsonian Institute
Description: White anhedral blebs
Measured chemistry: (K_0.90_Na_0.09_[box]_0.01_)_Î£=1_Al_0.99_Si_1.01_O_4_
Raman shift (cm-1)	intensity
149.975	0
152.868	0.794067
155.76	1.02918
158.653	0.624165
161.546	0.826283
164.439	1.34596
167.331	1.31352
170.224	0.934055
173.117	1.01675
176.009	0.070282
178.902	0.554352
181.795	0.257435
184.687	0.581142
187.58	0.21674
190.473	1.0273
193.365	0.775936
196.258	0.930897
199.151	0.329445
202.044	1.94259
204.936	1.83491
207.829	3.07476
210.722	5.44764
213.614	8.27959
216.507	10.662
219.4	13.1598
222.292	16.5917
225.185	18.8179
228.078	20.4679
230.971	21.8989
233.863	22.5806
236.756	21.2009
239.649	18.2092
242.541	12.7624
245.434	8.72207
248.327	5.45617
251.22	3.08779
254.112	1.40489
257.005	0.442299
259.898	0.191391
262.79	0.719002
265.683	0.750282
268.576	0.637642
271.468	0.209236
274.361	0.456146
277.254	0.470421
280.147	2.11272
283.039	1.83406
285.932	3.12776
288.825	6.00368
291.717	8.97975
294.61	12.2413
297.503	16.4637
300.395	21.5598
303.288	28.7095
306.181	35.954
309.074	43.9348
311.966	54.6081
314.859	66.002
317.752	80.4643
320.644	98.6005
323.537	117.999
326.43	141.631
329.322	166.112
332.215	189.521
335.108	212.23
338	227.375
340.893	232.94
343.786	229.002
346.679	208.022
349.571	177.968
352.464	146.172
355.357	115.874
358.249	89.8601
361.142	70.8653
364.035	56.1285
366.928	43.6369
369.82	36.1943
372.713	28.3841
375.606	23.7572
378.498	19.0864
381.391	15.708
384.284	11.8295
387.176	9.96366
390.069	7.3743
392.962	5.29445
395.854	4.36674
398.747	2.94753
401.64	1.94647
404.533	0.013519
407.425	0.66972
410.318	0.211666
413.211	0.689144
416.103	0.661293
418.996	0.286182
421.889	0.772694
424.781	0.637104
427.674	0.166397
430.567	0.880142
433.46	2.47834
436.352	5.0669
439.245	6.77443
442.138	8.05504
445.03	9.94514
447.923	11.1811
450.816	12.3129
453.709	11.6496
456.601	5.63059
459.494	1.90699
462.387	0.701031
465.279	0.560635
468.172	0.048214
471.065	0.077866
473.957	0.577034
476.85	0.461479
479.743	1.15258
482.635	2.2078
485.528	3.67094
488.421	4.37708
491.314	5.87055
494.206	7.21028
497.099	8.13296
499.992	9.71613
502.884	8.55795
505.777	5.9368
508.67	3.9482
511.562	2.66475
514.455	2.15713
517.348	1.72736
520.241	1.22868
523.133	1.20009
526.026	1.02422
528.919	1.55187
531.811	0.035904
534.704	0.642784
537.597	0.388103
540.49	0.563316
543.382	0.590248
546.275	0.000107
549.168	0.2953
552.06	0.58989
554.953	0.430428
557.846	0.571411
560.738	0.718922
563.631	0.056465
566.524	0.683086
569.417	0.462307
572.309	0.472618
575.202	0.707397
578.095	1.10617
580.987	0.741802
583.88	0.730274
586.773	1.48014
589.665	0.338573
592.558	0.868877
595.451	0.753365
598.343	0.660137
601.236	0.430515
604.129	0.088028
607.022	0.092613
609.914	0.461048
612.807	0.668182
615.7	0.195488
618.592	0.630272
621.485	0.467834
624.378	0.07291
627.27	0.888699
630.163	0.88269
633.056	0.958237
635.949	1.43645
638.841	1.43877
641.734	1.55159
644.627	1.68534
647.519	1.74479
650.412	1.48056
653.305	1.2606
656.197	0.605564
659.09	0.537334
661.983	0.05521
664.876	0.730083
667.768	0.973568
670.661	0.305359
673.554	0.335693
676.446	0.569664
679.339	0.7103
682.232	1.08881
685.125	0.813869
688.017	0.984894
690.91	1.25448
693.803	0.641235
696.695	0.254993
699.588	0.697159
702.481	0.451572
705.373	0.30555
708.266	0.389069
711.159	0.681946
714.052	0.373569
716.944	0.648945
719.837	0.373005
722.73	0.037655
725.622	0.017063
728.515	0.36134
731.408	0.054874
734.3	0.459656
737.193	0.225349
740.086	0.057049
742.979	0.388901
745.871	0.247627
748.764	0.017151
751.657	0.078117
754.549	0.335346
757.442	0.234028
760.335	0.240189
763.227	0.766911
766.12	0.090504
769.013	1.02145
771.905	0.392078
774.798	0.250755
777.691	0.276226
780.584	0.199863
783.476	0.328331
786.369	0.491638
789.262	0.494476
792.154	0.856789
795.047	0.882412
797.94	0.937256
800.832	0.534203
803.725	0.470268
806.618	0.452835
809.511	0.755264
812.403	1.48321
815.296	1.60966
818.189	1.08237
821.081	0.48053
823.974	0.76218
826.867	1.24517
829.76	1.23779
832.652	0.793251
835.545	1.924
838.438	1.03593
841.33	1.93796
844.223	1.35677
847.116	1.08562
850.008	1.41646
852.901	1.46762
855.794	1.37913
858.687	1.50795
861.579	1.46286
864.472	1.29452
867.365	1.16339
870.257	1.25001
873.15	0.625919
876.043	0.668205
878.935	0.509251
881.828	0.854259
884.721	0.619946
887.614	0.021042
890.506	0.20882
893.399	0.224178
896.292	0.255806
899.184	0.377888
902.077	0.586391
904.97	1.02087
907.862	1.96941
910.755	1.34626
913.648	2.28687
916.54	2.81349
919.433	2.94408
922.326	1.60751
925.219	0.913246
928.111	0.787258
931.004	0.348724
933.897	0.136627
936.789	0.114765
939.682	0.079285
942.575	0.130314
945.467	0.955677
948.36	0.95039
951.253	2.52336
954.146	2.81981
957.038	5.16685
959.931	7.931
962.824	11.5906
965.716	15.4989
968.609	18.6937
971.502	20.8405
974.394	22.8471
977.287	22.1421
980.18	21.3002
983.073	20.6916
985.965	21.7128
988.858	22.9771
991.751	24.0087
994.643	22.3652
997.536	18.5656
1000.43	13.7198
1003.32	10.2289
1006.21	7.69757
1009.11	5.85039
1012	4.40626
1014.89	3.76412
1017.78	2.96454
1020.68	1.4816
1023.57	1.43973
1026.46	1.19416
1029.36	1.25157
1032.25	1.07736
1035.14	0.449692
1038.03	0.336058
1040.93	0.069796
1043.82	0.332247
1046.71	0.612967
1049.61	0.85486
1052.5	0.128044
1055.39	0.159702
1058.28	0.047096
1061.18	0.306374
1064.07	0.547224
1066.96	0.447878
1069.85	0.604588
1072.75	0.069248
1075.64	0.634825
1078.53	0.607378
1081.42	0.091043
1084.32	0.183239
1087.21	0.74004
1090.1	1.02368
1092.99	0.473364
1095.89	0.391893
1098.78	1.31824
1101.67	0.268116
1104.57	0.533699
1107.46	0.196701
1110.35	0.523083
1113.24	0.322424
1116.14	0.010239
1119.03	0.612198
1121.92	0.009081
1124.82	0.149403
1127.71	0.421719
1130.6	0.737173
1133.49	0.069851
1136.39	0.110556
1139.28	0.261105
1142.17	0.096386
1145.06	0.507889
1147.96	0.403662
1150.85	0.598215
1153.74	0.370335
1156.63	0.567591
1159.53	0.81848
1162.42	0.422194
1165.31	0.581001
1168.2	0.50131
1171.1	0.53686
1173.99	0.972549
1176.88	0.437302
1179.78	0.77383
1182.67	0.730211
1185.56	0.440569
1188.45	0.985313
1191.35	0.653837
1194.24	0.600933
1197.13	0.513411
1200.03	0.672005
1202.92	0.800051
1205.81	0.323448
1208.7	0.076422
1211.6	0.118004
1214.49	0.542418
1217.38	0.362307
1220.27	0.593071
1223.17	0.340586
1226.06	0.2665
1228.95	0.550417
1231.85	0.105362
1234.74	0.893629
1237.63	0.358221
1240.52	0.725111
1243.42	0.124357
1246.31	0.813213
1249.2	0.4657
1252.09	0.56526
1254.99	0.419127
1257.88	0.150179
1260.77	0.547659
1263.66	0.22423
1266.56	0.35696
1269.45	0.188301
1272.34	0.345362
1275.23	0.523275
1278.13	0.560808
1281.02	0.496197
1283.91	0.104303
1286.81	0
