Measurement: Raman, 780 nm, unoriented, Raman Data Processed
Mineral: Kamarizaite
Rruff sample: R090020
Ideal chemistry: Fe^3+^_3_(As^5+^O_4_)_2_(OH)_3_3H_2_O
Locality: Kamareza Mines, Laurion, Greece
Source: William W. Pinch
Description: Tan colored massive on brown matrix.
Raman shift (cm-1)	intensity
115.519	0
118.893	21.3613
122.268	64.6798
125.643	36.0896
129.018	31.9087
132.393	85.1609
135.767	186.032
139.142	305.674
142.517	280.123
145.892	266.351
149.267	340.121
152.642	445.683
156.016	552.103
159.391	503.785
162.766	279.331
166.141	135.919
169.516	88.0233
172.89	79.6288
176.265	94.0772
179.64	103.821
183.015	86.2435
186.39	60.6562
189.764	31.4836
193.139	25.1448
196.514	32.7069
199.889	42.1812
203.264	32.1984
206.639	23.1926
210.013	17.5278
213.388	28.7792
216.763	50.2558
220.138	67.1187
223.513	58.8278
226.887	31.7726
230.262	3.64691
233.637	14.0639
237.012	6.2525
240.387	10.2344
243.762	15.5403
247.136	33.2647
250.511	72.4332
253.886	119.575
257.261	171.159
260.636	229.581
264.01	279.864
267.385	331.257
270.76	354.54
274.135	354.68
277.51	324.334
280.885	261.598
284.259	189.686
287.634	142.908
291.009	111.528
294.384	79.9359
297.759	62.1224
301.134	46.6502
304.508	39.2773
307.883	22.8649
311.258	11.5838
314.633	0.426392
318.007	7.1955
321.382	11.6414
324.757	3.83258
328.132	7.94171
331.507	34.114
334.882	57.4675
338.256	92.816
341.631	134.909
345.006	170.181
348.381	212.552
351.756	252.519
355.13	274.128
358.505	262.408
361.88	225.235
365.255	187.4
368.63	163.479
372.005	146.974
375.379	133.783
378.754	96.3973
382.129	66.0119
385.504	38.2187
388.879	22.9139
392.253	9.19812
395.628	0.007385
399.003	3.33228
402.378	9.7973
405.753	11.8221
409.128	18.7526
412.502	31.6188
415.877	57.3753
419.252	89.869
422.627	126.986
426.002	167.556
429.377	210.678
432.751	255.624
436.126	293.349
439.501	327.221
442.876	342.916
446.25	312.61
449.625	253.335
453	195.697
456.375	156.989
459.75	129.604
463.125	116.112
466.5	99.2032
469.874	86.5673
473.249	81.6049
476.624	64.6875
479.999	47.6512
483.373	29.629
486.748	14.2788
490.123	3.18188
493.498	3.51648
496.873	3.21912
500.248	20.8065
503.622	38.814
506.997	59.9272
510.372	74.0374
513.747	80.0776
517.122	73.9286
520.496	62.5985
523.871	52.0402
527.246	48.3599
530.621	42.9138
533.996	36.3276
537.371	27.562
540.745	17.8672
544.12	7.98502
547.495	4.22156
550.87	3.52643
554.245	2.02869
557.62	3.77551
560.994	4.27246
564.369	3.02524
567.744	0.719971
571.119	3.19498
574.494	5.75333
577.868	13.2633
581.243	12.785
584.618	19.4188
587.993	24.0578
591.368	27.2457
594.742	31.2047
598.117	34.0296
601.492	37.379
604.867	39.996
608.242	41.987
611.616	43.3242
614.991	40.0901
618.366	38.8337
621.741	33.6108
625.116	27.8454
628.491	30.3169
631.865	30.6551
635.24	28.0904
638.615	28.5968
641.99	27.7594
645.365	28.6115
648.74	28.689
652.114	27.8607
655.489	29.3928
658.864	29.0422
662.239	28.17
665.614	29.2148
668.988	30.673
672.363	29.973
675.738	29.4621
679.113	30.8485
682.488	31.9035
685.862	35.1499
689.237	37.5416
692.612	39.0173
695.987	38.6044
699.362	37.7968
702.737	33.2137
706.111	30.4327
709.486	27.7894
712.861	24.6244
716.236	20.7334
719.611	16.207
722.986	11.9727
726.36	8.32614
729.735	7.62328
733.11	0.928772
736.485	0.565689
739.86	3.24034
743.234	7.67247
746.609	8.58899
749.984	7.92383
753.359	8.10523
756.734	6.25064
760.109	0.508911
763.483	7.04343
766.858	16.9374
770.233	30.518
773.608	48.4593
776.982	59.3493
780.357	77.8124
783.732	98.8828
787.107	117.356
790.482	140.056
793.857	167.094
797.231	195.112
800.606	221.89
803.981	248.439
807.356	273.585
810.731	313.896
814.106	395.225
817.48	512.911
820.855	640.981
824.23	757.178
827.605	797.614
830.98	694.34
834.354	502.239
837.729	331.421
841.104	218.195
844.479	163.76
847.854	146.516
851.229	162.902
854.603	199.304
857.978	243.959
861.353	282.048
864.728	321.14
868.103	366.049
871.477	422.031
874.852	495.877
878.227	581.862
881.602	605.21
884.977	507.69
888.351	379.029
891.726	301.89
895.101	266.603
898.476	240.02
901.851	196.551
905.226	135.22
908.6	79.7449
911.975	35.8691
915.35	11.1658
918.725	3.83649
922.1	8.89945
925.474	9.53332
928.849	9.83008
932.224	5.09808
935.599	0.678589
938.974	4.7854
942.348	4.10547
945.723	0.361191
949.098	2.61235
952.473	1.14786
955.848	1.19403
959.223	0.191742
962.597	0.069885
965.972	2.70274
969.347	5.68071
972.722	8.67947
976.097	13.8818
979.471	13.1798
982.846	13.5633
986.221	14.9575
989.596	14.6163
992.971	17.2713
996.346	22.0375
999.72	21.5957
1003.1	26.7473
1006.47	27.9932
1009.85	32.723
1013.22	29.2224
1016.59	27.9351
1019.97	23.1848
1023.34	19.26
1026.72	17.9516
1030.09	16.343
1033.47	12.91
1036.84	14.1442
1040.22	13.008
1043.59	14.7278
1046.97	10.7316
1050.34	9.1292
1053.72	9.81222
1057.09	11.918
1060.47	12.7421
1063.84	12.5447
1067.22	13.1109
1070.59	13.6946
1073.97	16.8293
1077.34	16.9869
1080.72	18.2769
1084.09	16.1121
1087.47	13.7682
1090.84	10.1783
1094.21	7.68413
1097.59	5.18022
1100.96	2.12959
1104.34	1.5616
1107.71	2.94988
1111.09	2.27855
1114.46	3.34738
1117.84	1.94475
1121.21	7.90608
1124.59	5.0479
1127.96	2.17911
1131.34	3.54842
1134.71	0.936203
1138.09	0.104202
1141.46	1.97414
1144.84	1.0397
1148.21	0.795929
1151.59	5.6208
1154.96	1.39159
1158.34	0.073593
1161.71	0.612762
1165.09	0.972504
1168.46	0.689011
1171.84	0.350723
1175.21	0.027847
1178.59	1.37338
1181.96	0.448456
1185.34	1.24783
1188.71	2.20145
1192.09	1.50226
1195.46	1.65897
1198.84	0.005127
1202.21	0.499023
1205.58	0.839767
1208.96	3.00284
1212.33	4.09827
1215.71	1.20293
1219.08	1.16405
1222.46	1.5562
1225.83	2.3463
1229.21	3.20853
1232.58	3.31078
1235.96	1.72641
1239.33	3.4187
1242.71	2.26086
1246.08	3.5889
1249.46	2.44058
1252.83	2.5177
1256.21	2.00533
1259.58	3.50198
1262.96	2.6723
1266.33	3.30443
1269.71	2.37576
1273.08	2.56633
1276.45	2.98427
1279.83	4.61734
1283.2	1.73038
