Measurement: Raman, 532 nm, unoriented, Raman Data Processed
Mineral: Kamarizaite
Rruff sample: R090020
Ideal chemistry: Fe^3+^_3_(As^5+^O_4_)_2_(OH)_3_3H_2_O
Locality: Kamareza Mines, Laurion, Greece
Source: William W. Pinch
Description: Tan colored massive on brown matrix.
Raman shift (cm-1)	intensity
136.245	0
139.62	42.8879
142.995	103.969
146.369	175.547
149.744	298.645
153.119	453.906
156.494	562.165
159.869	480.49
163.244	264.014
166.618	119.653
169.993	73.6569
173.368	70.275
176.743	80.9073
180.118	90.9813
183.493	80.8635
186.867	61.8507
190.242	44.8239
193.617	48.9458
196.992	44.3281
200.367	39.6432
203.741	19.2927
207.116	0.019897
210.491	9.05225
213.866	10.9867
217.241	41.4484
220.615	41.5499
223.99	31.3011
227.365	3.74353
230.74	19.5568
234.115	12.9748
237.489	8.94434
240.864	28.5649
244.239	52.2407
247.614	74.3934
250.989	120.069
254.364	176.757
257.738	246.263
261.113	334.125
264.488	417.322
267.863	496.639
271.238	532.027
274.613	551.287
277.987	516.353
281.362	442.839
284.737	356.816
288.112	287.101
291.487	230.737
294.861	172.772
298.236	142.74
301.611	114.464
304.986	85.4146
308.361	54.0465
311.736	32.5148
315.11	5.51178
318.485	8.94751
321.86	11.9919
325.235	8.19006
328.61	1.10346
331.984	31.796
335.359	72.2051
338.734	114.084
342.109	180.7
345.484	244.511
348.858	314.042
352.233	373.422
355.608	394.74
358.983	370.614
362.358	319.428
365.733	268.349
369.107	245.67
372.482	222.574
375.857	194.593
379.232	144.253
382.607	92.6122
385.981	57.9448
389.356	24.6324
392.731	10.4144
396.106	0.245361
399.481	0.093018
402.856	10.4122
406.23	13.5835
409.605	27.2539
412.98	44.8945
416.355	75.3646
419.73	122.888
423.104	171.458
426.479	230.064
429.854	303.132
433.229	380.772
436.604	464.365
439.978	531.097
443.353	541.372
446.728	479.241
450.103	393.02
453.478	298.11
456.853	223.376
460.227	176.984
463.602	141.533
466.977	115.198
470.352	97.2798
473.727	84.8813
477.101	72.5273
480.476	63.1942
483.851	25.1702
487.226	3.05188
490.601	2.36999
493.976	2.74951
497.35	23.3597
500.725	47.7924
504.1	76.6834
507.475	106.717
510.85	125.69
514.224	131.069
517.599	120.488
520.974	109.836
524.349	99.8438
527.724	97.2117
531.098	87.9714
534.473	84.3592
537.848	67.2481
541.223	54.791
544.598	36.2779
547.973	22.3403
551.347	12.5219
554.722	3.91382
558.097	2.95496
561.472	5.57104
564.847	7.56513
568.221	6.94299
571.596	0.372925
574.971	1.3598
578.346	1.02441
581.721	11.3429
585.096	15.6733
588.47	21.081
591.845	27.1698
595.22	34.2004
598.595	34.7908
601.97	42.041
605.344	44.1867
608.719	48.8777
612.094	55.7802
615.469	54.2628
618.844	56.7505
622.218	57.3536
625.593	57.2167
628.968	59.0057
632.343	54.1659
635.718	53.906
639.093	54.0286
642.467	55.4182
645.842	56.4876
649.217	59.7747
652.592	60.4865
655.967	61.5953
659.341	59.4764
662.716	62.6035
666.091	62.946
669.466	68.2777
672.841	66.0615
676.216	69.0137
679.59	71.8435
682.965	77.762
686.34	83.0484
689.715	86.4672
693.09	86.6409
696.465	85.378
699.839	82.1183
703.214	76.5065
706.589	66.8809
709.964	59.3821
713.339	51.7864
716.713	43.8802
720.088	36.8138
723.463	25.9027
726.838	16.5838
730.213	12.7654
733.587	1.03259
736.962	5.24353
740.337	8.23373
743.712	15.9172
747.087	13.0876
750.462	16.6314
753.836	15.2281
757.211	5.81018
760.586	2.29944
763.961	24.1968
767.336	48.1151
770.71	77.3495
774.085	112.093
777.46	149.791
780.835	188.058
784.21	223.182
787.585	259.025
790.959	309.594
794.334	363.899
797.709	422.662
801.084	477.917
804.459	518.287
807.833	566.761
811.208	652.71
814.583	842.335
817.958	1092.36
821.333	1379.81
824.707	1603.56
828.082	1602.72
831.457	1322.09
834.832	927.846
838.207	608.895
841.582	406.651
844.956	288.368
848.331	252.384
851.706	265.255
855.081	320.435
858.456	371.867
861.83	404.849
865.205	422.405
868.58	463.428
871.955	536.929
875.33	650.974
878.705	779.208
882.079	809.659
885.454	688.07
888.829	564.964
892.204	502.452
895.579	483.082
898.953	447.466
902.328	362.595
905.703	239.404
909.078	130.111
912.453	58.0117
915.827	14.9609
919.202	7.27496
922.577	17.8563
925.952	16.3284
929.327	14.0437
932.702	4.8504
936.076	2.57526
939.451	7.61981
942.826	7.51739
946.201	3.67938
949.576	1.99469
952.951	4.55374
956.325	5.21622
959.7	4.23184
963.075	0.745789
966.45	2.91479
969.825	3.36981
973.199	9.64288
976.574	15.4735
979.949	24.6659
983.324	26.7521
986.699	30.2871
990.073	34.337
993.448	38.3785
996.823	47.0157
1000.2	57.8227
1003.57	59.5916
1006.95	63.1921
1010.32	65.4023
1013.7	64.9732
1017.07	62.6905
1020.45	57.8237
1023.82	54.1271
1027.2	46.7756
1030.57	44.3424
1033.95	41.1371
1037.32	39.491
1040.7	34.3907
1044.07	36.7619
1047.44	31.8901
1050.82	33.214
1054.19	33.8506
1057.57	31.6638
1060.94	31.9155
1064.32	35.236
1067.69	36.8593
1071.07	39.4552
1074.44	41.6324
1077.82	45.4826
1081.19	44.6866
1084.57	41.5436
1087.94	30.4765
1091.32	24.1586
1094.69	18.0085
1098.07	11.2463
1101.44	9.75934
1104.82	10.9628
1108.19	7.11121
1111.57	7.55002
1114.94	6.52753
1118.32	8.95688
1121.69	8.56824
1125.07	8.94836
1128.44	9.09543
1131.82	7.35992
1135.19	7.93988
1138.57	6.67554
1141.94	3.51602
1145.32	1.35687
1148.69	3.97678
1152.07	2.41571
1155.44	3.22553
1158.81	2.1301
1162.19	0.173401
1165.56	0.104675
1168.94	2.19772
1172.31	1.71271
1175.69	4.857
1179.06	1.2626
1182.44	0.978119
1185.81	0.326965
1189.19	0.424194
1192.56	0.989777
1195.94	3.03552
1199.31	0.739563
1202.69	0.654968
1206.06	2.93588
1209.44	2.2771
1212.81	4.09415
1216.19	2.88852
1219.56	3.36081
1222.94	4.78934
1226.31	3.98193
1229.68	4.24139
1233.06	2.79898
1236.43	3.42184
1239.81	2.03079
1243.18	4.26996
1246.56	1.81561
1249.93	2.19751
1253.31	2.41211
1256.68	2.01746
1260.06	0.230133
1263.43	2.3801
1266.81	0.883026
1270.18	3.86298
1273.56	2.87323
1276.93	5.85486
1280.31	2.73321
1283.68	3.92368
1287.06	1.77283
1290.43	3.08835
1293.81	3.60803
1297.18	1.83606
1300.56	5.38742
