Measurement: Raman, 532 nm, unoriented, Raman Data Processed
Mineral: Kambaldaite
Rruff sample: R060885
Ideal chemistry: NaNi_4_(CO_3_)_3_(OH)_3_3H_2_O
Locality: Kambalda, Western Australia
Source: Bob Jenkins
Description: Apple green botryoidal SPECTRA ARE GASPEITE
Raman shift (cm-1)	intensity
140.808	0
143.7	18.538
146.593	19.7681
149.486	12.5083
152.379	15.2841
155.271	1.91785
158.164	19.3648
161.057	17.6674
163.949	61.686
166.842	12.9963
169.735	22.3178
172.627	25.2438
175.52	38.8973
178.413	29.0109
181.305	54.8977
184.198	82.3934
187.091	74.254
189.983	91.93
192.876	89.3983
195.769	129.745
198.662	140.816
201.554	210.879
204.447	334.422
207.34	401.05
210.232	583.771
213.125	795.923
216.018	1091.04
218.911	1364.45
221.803	1629.85
224.696	1727.1
227.589	1529.88
230.481	1198.6
233.374	812.25
236.267	502.142
239.159	298.386
242.052	214.82
244.945	150.139
247.838	76.8337
250.73	35.4998
253.623	19.9341
256.516	4.75842
259.408	8.01623
262.301	10.5181
265.194	3.28247
268.086	17.7996
270.979	31.6089
273.872	5.31299
276.764	32.4861
279.657	33.6149
282.55	64.3246
285.442	98.2025
288.335	144.811
291.228	158.279
294.121	189.933
297.013	227.671
299.906	347.551
302.799	441.075
305.691	549.062
308.584	712.043
311.477	880.944
314.37	1135.52
317.262	1467.89
320.155	2030.98
323.048	2922.19
325.94	4118.27
328.833	5473.04
331.726	6655.69
334.618	7289.26
337.511	6507.32
340.404	4713.43
343.296	2985.02
346.189	1816.67
349.082	1270.62
351.975	829.013
354.867	598.96
357.76	428.373
360.653	302.297
363.545	248.09
366.438	200.312
369.331	148.221
372.224	128.169
375.116	111.55
378.009	103.495
380.902	87.4343
383.794	81.5538
386.687	84.0654
389.58	61.5282
392.472	70.2675
395.365	49.3356
398.258	31.2188
401.151	47.5547
404.043	33.0966
406.936	17.7101
409.829	32.2389
412.721	17.8871
415.614	16.2809
418.507	3.20532
421.399	4.40173
424.292	23.7621
427.185	5.28113
430.077	3.87109
432.97	1.13843
435.863	5.29224
438.755	0.779053
441.648	33.7284
444.541	4.48425
447.434	22.8307
450.326	37.648
453.219	26.7033
456.112	11.1957
459.004	24.9987
461.897	23.6332
464.79	43.8409
467.683	50.2396
470.575	80.4227
473.468	51.816
476.361	35.9269
479.253	64.4194
482.146	58.7399
485.039	68.1348
487.931	58.1849
490.824	65.3652
493.717	64.4191
496.61	14.6173
499.502	73.9197
502.395	39.0255
505.288	12.1354
508.18	45.2382
511.073	29.1986
513.966	19.2568
516.858	28.6696
519.751	45.2825
522.644	35.6395
525.536	22.3132
528.429	36.3754
531.322	14.5355
534.215	43.4019
537.107	31.7331
540	23.5131
542.893	24.8636
545.785	4.99268
548.678	14.0178
551.571	15.2965
554.463	4.84961
557.356	19.7979
560.249	17.6383
563.141	31.1554
566.034	23.9642
568.927	24.606
571.82	23.6813
574.712	27.9017
577.605	13.6491
580.498	21.7152
583.39	13.7052
586.283	9.74731
589.176	0.213013
592.068	29.5964
594.961	19.5254
597.854	4.25769
600.747	13.8697
603.639	19.8694
606.532	31.3383
609.425	36.3204
612.317	12.0024
615.21	25.5796
618.103	48.2389
620.995	22.3335
623.888	41.6477
626.781	3.7428
629.673	28.4772
632.566	15.4388
635.459	1.26892
638.352	41.3937
641.244	1.47632
644.137	8.88147
647.03	12.3669
649.922	20.98
652.815	34.2019
655.708	18.522
658.601	10.6316
661.493	24.908
664.386	0.807251
667.279	11.3495
670.171	27.9978
673.064	6.0293
675.957	10.6005
678.849	4.15747
681.742	42.9209
684.635	35.2876
687.528	30.3143
690.42	21.5116
693.313	24.0201
696.206	42.4699
699.098	44.5942
701.991	46.1942
704.884	43.6792
707.776	53.3931
710.669	49.0189
713.562	103.286
716.455	120.803
719.347	161.876
722.24	216.417
725.133	280.072
728.025	359.216
730.918	442.358
733.811	525.836
736.703	622.781
739.596	639.293
742.489	527.575
745.381	424.276
748.274	312.821
751.167	213.314
754.059	127.239
756.952	118.632
759.845	37.6045
762.738	29.2778
765.63	36.898
768.523	43.7385
771.416	14.6183
774.308	16.9762
777.201	39.0289
780.094	3.22339
782.986	10.2942
785.879	4.93591
788.772	15.265
791.665	31.8054
794.557	15.0369
797.45	18.2616
800.343	25.7166
803.235	18.9856
806.128	17.9625
809.021	19.7085
811.913	32.5721
814.806	30.1589
817.699	23.6542
820.592	2.03967
823.484	26.9885
826.377	13.4795
829.27	30.6571
832.162	32.3892
835.055	44.9927
837.948	24.1312
840.841	26.9601
843.733	6.50391
846.626	34.0106
849.519	47.7293
852.411	2.72949
855.304	26.9584
858.197	16.0735
861.089	55.294
863.982	61.162
866.875	80.5192
869.767	85.9103
872.66	49.923
875.553	49.6725
878.446	43.6282
881.338	54.0267
884.231	13.9747
887.124	31.3064
890.016	27.9198
892.909	17.6509
895.802	57.7347
898.694	36.9014
901.587	0.374756
904.48	30.1298
907.372	24.8463
910.265	18.118
913.158	19.0144
916.051	14.6791
918.943	14.1349
921.836	19.2013
924.729	51.9239
927.621	23.2758
930.514	21.0278
933.407	21.057
936.299	41.4128
939.192	18.673
942.085	17.3429
944.977	11.9813
947.87	56.2728
950.763	21.3868
953.656	11.4077
956.548	31.3425
959.441	3.30566
962.334	14.2324
965.226	20.9563
968.119	12.2454
971.012	28.8751
973.904	16.0985
976.797	43.0358
979.69	35.3702
982.583	34.8204
985.475	12.2131
988.368	23.8865
991.261	5.36206
994.153	10.8151
997.046	3.23853
999.939	1.92578
1002.83	12.6893
1005.72	26.7256
1008.62	5.63306
1011.51	18.2958
1014.4	5.8667
1017.29	27.5997
1020.19	10.8142
1023.08	12.0304
1025.97	4.16516
1028.87	12.3007
1031.76	30.457
1034.65	37.8018
1037.54	20.6337
1040.44	74.8419
1043.33	98.1258
1046.22	132.208
1049.12	204.775
1052.01	235.486
1054.9	355.58
1057.79	523.392
1060.68	735.396
1063.58	1070.57
1066.47	1581.75
1069.36	2373.34
1072.26	3547.58
1075.15	5353.22
1078.04	7610.75
1080.93	10399.7
1083.83	12954.4
1086.72	14475.9
1089.61	14054.2
1092.51	11925.6
1095.4	9352.06
1098.29	6840.09
1101.18	4786.53
1104.08	3333.74
1106.97	2324.68
1109.86	1592.94
1112.75	1147.07
1115.65	835.881
1118.54	575.16
1121.43	439.067
1124.33	295.012
1127.22	231.175
1130.11	185.8
1133	148.953
1135.9	89.7104
1138.79	59.1726
1141.68	19.3353
1144.57	36.1395
1147.47	16.3604
1150.36	1.99439
1153.25	11.677
1156.14	21.2185
1159.04	7.85522
1161.93	3.06128
1164.82	24.0017
1167.71	7.02734
1170.61	14.5948
1173.5	0.089233
1176.39	16.3674
1179.29	21.3732
1182.18	20.9777
1185.07	30.5627
1187.96	26.1803
1190.86	3.42578
1193.75	17.5028
1196.64	29.8854
1199.54	24.665
1202.43	40.8522
1205.32	26.0095
1208.21	36.4824
1211.11	47.2006
1214	57.1301
1216.89	39.7011
1219.78	22.2567
1222.68	26.0059
1225.57	26.4656
1228.46	32.3117
1231.36	42.036
1234.25	37.1003
1237.14	33.2998
1240.03	29.0336
1242.92	34.7747
1245.82	30.7041
1248.71	56.6469
1251.6	7.38928
1254.5	0.107056
1257.39	18.2213
1260.28	0.17334
1263.17	11.5408
1266.07	28.8628
1268.96	17.1975
1271.85	13.3965
1274.74	20.1619
1277.64	29.0825
1280.53	7.83093
1283.42	8.05371
