Measurement: Raman, 785 nm, unoriented, Raman Data Processed
Mineral: Kambaldaite
Rruff sample: R060885
Ideal chemistry: NaNi_4_(CO_3_)_3_(OH)_3_3H_2_O
Locality: Kambalda, Western Australia
Source: Bob Jenkins
Description: Apple green botryoidal SPECTRA ARE GASPEITE
Raman shift (cm-1)	intensity
143.223	0
146.116	23.3715
149.009	57.6435
151.901	68.4233
154.794	44.5293
157.687	7.90924
160.579	8.24689
163.472	31.3873
166.365	33.3347
169.258	56.7592
172.15	40.2158
175.043	14.5442
177.936	7.08044
180.828	7.66657
183.721	11.2493
186.614	17.5264
189.506	14.1063
192.399	5.21002
195.292	49.6462
198.185	55.245
201.077	84.2278
203.97	107.345
206.863	127.872
209.755	186.274
212.648	265.046
215.541	394.103
218.434	506.267
221.326	646.347
224.219	711.035
227.112	620.955
230.004	482.263
232.897	349.721
235.79	199.347
238.682	119.296
241.575	78.2126
244.468	45.6678
247.361	32.5416
250.253	27.5232
253.146	15.5487
256.039	12.0393
258.931	13.4668
261.824	0.652985
264.717	9.43012
267.609	23.5682
270.502	0.037292
273.395	5.0462
276.287	1.69299
279.18	15.4173
282.073	11.6873
284.966	15.8323
287.858	25.6034
290.751	42.9005
293.644	90.6052
296.536	84.6245
299.429	124.811
302.322	172.253
305.214	200.149
308.107	245.902
311	291.886
313.892	380.39
316.785	494.291
319.678	681.277
322.571	901.662
325.463	1311.14
328.356	1882.35
331.249	2334.62
334.141	2391.7
337.034	1966.88
339.927	1350.1
342.82	888.554
345.712	567.224
348.605	381.786
351.498	286.563
354.39	198.474
357.283	148.876
360.176	114.421
363.068	83.1961
365.961	67.069
368.854	70.7506
371.747	47.4638
374.639	35.1912
377.532	40.6209
380.425	27.6821
383.317	57.3835
386.21	36.7558
389.103	13.5849
391.995	22.7477
394.888	39.0555
397.781	15.8801
400.673	2.82269
403.566	7.68552
406.459	12.5075
409.352	3.32553
412.244	1.11343
415.137	12.6808
418.03	1.65552
420.922	11.2194
423.815	0.555298
426.708	25.9393
429.601	5.74472
432.493	33.7089
435.386	4.26071
438.279	30.3353
441.171	16.9364
444.064	9.81631
446.957	27.1445
449.849	20.4985
452.742	32.1321
455.635	24.2337
458.527	10.9999
461.42	10.1653
464.313	29.5125
467.206	30.3168
470.098	29.5164
472.991	25.8271
475.884	29.9547
478.776	33.1891
481.669	0.231018
484.562	32.7368
487.454	30.7381
490.347	21.1769
493.24	30.8183
496.133	37.528
499.025	36.2429
501.918	20.0804
504.811	21.5112
507.703	22.5733
510.596	31.6814
513.489	32.1715
516.381	27.0456
519.274	27.8203
522.167	18.4461
525.06	19.6068
527.952	30.4159
530.845	41.7339
533.738	13.8468
536.63	5.98163
539.523	25.4217
542.416	29.927
545.308	2.1683
548.201	1.66827
551.094	11.714
553.987	32.8856
556.879	34.4003
559.772	12.6915
562.665	0.291779
565.557	26.6411
568.45	1.87964
571.343	19.0141
574.236	11.9869
577.128	16.2223
580.021	13.8272
582.913	12.0873
585.806	9.94928
588.699	36.4615
591.592	10.441
594.484	9.48044
597.377	33.7304
600.27	7.36774
603.162	21.6648
606.055	18.9491
608.948	14.995
611.841	12.9434
614.733	8.19586
617.626	9.6619
620.519	16.5665
623.411	6.69928
626.304	23.2147
629.197	10.7715
632.089	4.87112
634.982	10.0902
637.875	21.0148
640.768	12.3045
643.66	16.1657
646.553	11.3243
649.446	2.34287
652.338	2.62833
655.231	1.3551
658.124	20.8704
661.016	4.94849
663.909	18.1516
666.802	3.24878
669.694	19.6256
672.587	21.4931
675.48	17.6132
678.373	6.68634
681.265	18.5415
684.158	11.6332
687.051	17.187
689.943	31.5775
692.836	2.84772
695.729	46.0903
698.621	32.4132
701.514	15.0784
704.407	13.3955
707.3	39.967
710.192	37.533
713.085	56.2807
715.978	53.6737
718.87	75.4665
721.763	78.8553
724.656	99.8399
727.548	127.355
730.441	153.457
733.334	204.012
736.227	242.104
739.119	241.366
742.012	224.905
744.905	179.157
747.797	149.805
750.69	103.368
753.583	76.2608
756.476	64.9414
759.368	63.756
762.261	46.5943
765.154	28.8603
768.046	2.05725
770.939	24.6434
773.832	26.7554
776.724	20.2835
779.617	41.3363
782.51	35.2386
785.403	21.9979
788.295	49.5254
791.188	34.4794
794.081	26.2087
796.973	9.29285
799.866	8.01996
802.759	20.3917
805.651	16.99
808.544	32.4447
811.437	5.91843
814.33	26.8468
817.222	14.9786
820.115	41.9695
823.008	19.3298
825.9	14.9428
828.793	11.9726
831.686	36.965
834.578	1.42822
837.471	26.2072
840.364	25.0901
843.256	3.16684
846.149	37.5562
849.042	15.9147
851.935	13.3858
854.827	18.5646
857.72	42.2149
860.613	14.9164
863.505	14.3211
866.398	18.9084
869.291	21.1544
872.183	27.0517
875.076	26.808
877.969	25.6133
880.861	24.4867
883.754	12.9778
886.647	27.7171
889.54	8.53433
892.432	8.59845
895.325	29.1583
898.218	6.70822
901.11	13.4611
904.003	25.9894
906.896	10.7285
909.788	21.3607
912.681	19.1485
915.574	10.4237
918.467	17.4187
921.359	8.4436
924.252	19.3054
927.145	1.98062
930.037	2.63565
932.93	35.092
935.823	30.1342
938.716	17.4953
941.608	26.8344
944.501	14.4156
947.394	30.7615
950.286	19.6333
953.179	29.0704
956.072	23.193
958.964	28.4184
961.857	51.0689
964.75	23.3186
967.643	48.8643
970.535	29.4675
973.428	35.8362
976.321	40.5003
979.213	30.8926
982.106	24.402
984.999	58.2243
987.891	20.6958
990.784	24.3837
993.677	25.4719
996.569	22.9354
999.462	25.1526
1002.36	13.1718
1005.25	30.5075
1008.14	13.7986
1011.03	29.3943
1013.93	45.0893
1016.82	23.0776
1019.71	3.07523
1022.6	13.4699
1025.5	15.9101
1028.39	6.00571
1031.28	37.3556
1034.17	8.11221
1037.07	37.6372
1039.96	35.6841
1042.85	71.7977
1045.74	64.6287
1048.64	56.999
1051.53	68.9603
1054.42	52.7729
1057.32	121.234
1060.21	172.282
1063.1	244.128
1065.99	387.499
1068.89	566.184
1071.78	821.176
1074.67	1217.61
1077.57	1791.1
1080.46	2497.17
1083.35	3301.96
1086.24	3797
1089.14	3823.28
1092.03	3281.08
1094.92	2657.24
1097.81	2009.89
1100.71	1445.85
1103.6	975.535
1106.49	675.589
1109.38	472.937
1112.28	348.47
1115.17	248.803
1118.06	179.87
1120.96	114.015
1123.85	72.2362
1126.74	55.8368
1129.63	29.0415
1132.53	14.9087
1135.42	20.5847
1138.31	25.5174
1141.2	18.7349
1144.1	0.862488
1146.99	13.8198
1149.88	2.0665
1152.78	16.9457
1155.67	7.08102
1158.56	25.911
1161.45	0.607269
1164.35	1.3544
1167.24	2.36917
1170.13	15.6043
1173.02	11.5077
1175.92	26.3832
1178.81	7.38162
1181.7	13.4062
1184.6	25.4564
1187.49	40.555
1190.38	16.3012
1193.27	6.57053
1196.17	11.5714
1199.06	4.54416
1201.95	14.7404
1204.84	8.03265
1207.74	23.1136
1210.63	14.9085
1213.52	15.6487
1216.41	25.0865
1219.31	26.8878
1222.2	39.9801
1225.09	34.437
1227.98	33.1201
1230.88	43.6162
1233.77	52.3009
1236.66	46.8219
1239.56	24.1641
1242.45	20.1171
1245.34	21.9013
1248.23	16.8446
1251.13	7.88889
1254.02	40.7075
1256.91	20.5049
1259.81	9.58334
1262.7	9.28613
1265.59	6.48398
