Measurement: Raman, 532 nm, unoriented, Raman Data Processed
Mineral: Kamchatkite
Rruff sample: R070039
Ideal chemistry: KCu_3_O(SO_4_)_2_Cl
Locality: Great Tolbachik Eruption (1975-6), Tolbachik Volcano, Kamchatka Peninsula, Russia
Source: Michael Scott
Description: Light apple green poorly formed crystals, co-type material
Raman shift (cm-1)	intensity
117.398	0
120.773	3.32391
124.148	57.2393
127.522	177.785
130.897	252.657
134.272	363.692
137.647	527.49
141.022	566.771
144.397	445.125
147.771	334.218
151.146	296.729
154.521	204.545
157.896	200.784
161.271	221.962
164.645	428.147
168.02	531.942
171.395	632.471
174.77	735.612
178.145	966.601
181.519	1038.76
184.894	598.745
188.269	427.259
191.644	387.398
195.019	413.827
198.394	404.238
201.768	397.218
205.143	553.799
208.518	696.677
211.893	1121.22
215.268	1694.6
218.642	2204.87
222.017	2840.78
225.392	3597.2
228.767	4113.15
232.142	3634.19
235.517	2040.13
238.891	997.23
242.266	601.045
245.641	465.652
249.016	290.011
252.391	125.044
255.765	50.1779
259.14	25.368
262.515	23.6064
265.89	36.8712
269.265	7.14685
272.639	26.3775
276.014	68.569
279.389	7.50623
282.764	28.5375
286.139	1.56811
289.514	57.5428
292.888	7.30804
296.263	26.5392
299.638	44.6471
303.013	51.4429
306.388	26.1989
309.762	36.6379
313.137	16.307
316.512	4.12036
319.887	20.3372
323.262	15.0094
326.637	36.229
330.011	90.8984
333.386	111.665
336.761	92.4841
340.136	104.888
343.511	148.978
346.885	105.623
350.26	96.3388
353.635	147.792
357.01	157.252
360.385	217.305
363.76	246.532
367.134	183.963
370.509	184.344
373.884	176.106
377.259	203.484
380.634	205.412
384.008	151.225
387.383	147.342
390.758	119.776
394.133	120.389
397.508	101.471
400.882	74.2531
404.257	22.4322
407.632	29.7717
411.007	27.1804
414.382	0.325195
417.757	48.992
421.131	67.204
424.506	7.92371
427.881	23.7333
431.256	106.843
434.631	122.096
438.005	195.17
441.38	316.255
444.755	257.047
448.13	223.182
451.505	198.558
454.88	166.262
458.254	143.228
461.629	246.948
465.004	281.509
468.379	280.363
471.753	220.861
475.128	126.829
478.503	80.746
481.878	59.5405
485.253	169.675
488.628	491.585
492.002	812.813
495.377	1157.92
498.752	1392.53
502.127	1115.44
505.502	825.035
508.877	983.231
512.251	1266.16
515.626	1604.19
519.001	1833.38
522.376	1526.6
525.75	983.922
529.125	646.967
532.5	453.411
535.875	283.071
539.25	273.546
542.625	352.15
546	451.518
549.374	399.756
552.749	316.297
556.124	198.31
559.499	80.7425
562.874	18.3167
566.248	15.0373
569.623	36.1658
572.998	44.1754
576.373	51.4736
579.748	22.4554
583.122	34.0507
586.497	56.269
589.872	7.12476
593.247	1.50616
596.622	178.629
599.996	476.132
603.371	853.654
606.746	1178.73
610.121	1354.08
613.496	802.975
616.87	443.349
620.245	369.32
623.62	506.388
626.995	680.619
630.37	894.112
633.745	1031.82
637.119	869.653
640.494	525.461
643.869	272.448
647.244	99.7187
650.619	64.2742
653.994	19.421
657.368	49.036
660.743	177.336
664.118	246.937
667.493	377.585
670.868	457.909
674.242	361.776
677.617	283.29
680.992	152.979
684.367	94.3413
687.742	30.333
691.116	17.0294
694.491	53.21
697.866	22.6613
701.241	26.9859
704.616	44.9851
707.99	60.3034
711.365	50.8405
714.74	7.04959
718.115	17.429
721.49	35.868
724.865	83.3134
728.239	73.5998
731.614	20.3952
734.989	42.7532
738.364	3.73758
741.739	21.5487
745.114	36.104
748.488	40.5191
751.863	64.4565
755.238	85.0817
758.613	3.78671
761.988	103.989
765.362	149.835
768.737	46.8615
772.112	55.0121
775.487	61.5508
778.862	13.2336
782.236	46.3363
785.611	20.7528
788.986	29.7184
792.361	17.6643
795.736	59.7722
799.111	40.4864
802.485	45.4802
805.86	15.3943
809.235	28.7421
812.61	46.1335
815.985	7.4794
819.359	78.0857
822.734	24.6627
826.109	72.6423
829.484	64.6012
832.859	21.2451
836.234	25.4363
839.608	70.6189
842.983	34.8682
846.358	40.1933
849.733	2.94354
853.108	29.6134
856.482	48.9926
859.857	2.79306
863.232	35.99
866.607	40.0985
869.982	49.7381
873.356	37.3591
876.731	31.59
880.106	16.2158
883.481	34.6865
886.856	49.8293
890.231	5.86191
893.605	60.4599
896.98	96.7231
900.355	47.903
903.73	105.528
907.105	90.8744
910.479	87.543
913.854	73.0192
917.229	75.568
920.604	116.713
923.979	50.5401
927.354	55.5985
930.728	63.3532
934.103	76.1734
937.478	86.0074
940.853	50.2215
944.228	13.4967
947.602	30.2469
950.977	29.5079
954.352	19.0555
957.727	59.2285
961.102	11.7651
964.476	45.8664
967.851	48.6868
971.226	62.7271
974.601	194.904
977.976	349.545
981.351	572.005
984.725	870.724
988.1	1359.93
991.475	2288.73
994.85	4299.61
998.225	7399.85
1001.6	10031.8
1004.97	10736.9
1008.35	5434.02
1011.72	1869.16
1015.1	857.057
1018.47	631.432
1021.85	724.957
1025.22	894.187
1028.6	649.238
1031.97	529.697
1035.35	650.583
1038.72	858.013
1042.1	1187.51
1045.47	1531.38
1048.85	1869.13
1052.22	1992.24
1055.6	1920.04
1058.97	1391.03
1062.35	743.968
1065.72	384.824
1069.1	56.6038
1072.47	52.0043
1075.85	39.6862
1079.22	61.2279
1082.6	74.6822
1085.97	90.3922
1089.35	175.155
1092.72	295.656
1096.09	615.828
1099.47	784.767
1102.84	895.52
1106.22	1019.9
1109.59	1220.37
1112.97	1179.54
1116.34	807.507
1119.72	415.617
1123.09	250.254
1126.47	155.211
1129.84	19.9362
1133.22	5.39856
1136.59	6.29547
1139.97	32.6007
1143.34	91.0296
1146.72	352.542
1150.09	616.186
1153.47	710.074
1156.84	442.026
1160.22	211.383
1163.59	73.2223
1166.96	118.258
1170.34	206.133
1173.71	410.204
1177.09	657.804
1180.46	565.503
1183.84	355.305
1187.21	211.581
1190.59	207.463
1193.96	244.482
1197.34	387.711
1200.71	615.181
1204.09	1105.99
1207.46	1608.94
1210.84	2246.05
1214.21	2329.43
1217.59	1732.77
1220.96	880.721
1224.34	371.115
1227.71	149.168
1231.09	91.4337
1234.46	8.35654
1237.84	53.1292
1241.21	60.6993
1244.59	39.0558
1247.96	89.6097
1251.34	103.557
1254.71	111.754
1258.09	101.582
1261.46	84.1048
1264.84	5.57275
1268.21	45.1549
1271.59	21.7479
1274.96	24.9135
1278.33	15.3481
1281.71	21.9138
1285.08	48.8746
1288.46	8.08101
1291.83	50.1415
1295.21	59.0808
1298.58	30.7534
1301.96	19.4976
1305.33	21.499
1308.71	34.1235
1312.08	31.6744
1315.46	20.9311
