Measurement: Raman, 780 nm, unoriented, Raman Data Processed
Mineral: Kamphaugite-(Y)
Rruff sample: R080085
Ideal chemistry: Ca_2_Y_2_(CO_3_)_4_(OH)_2_3H_2_O
Locality: Ashland, Massachusetts, USA
Source: Peter Cristofono
Description: Spherical clusters of peach colored radiating crystals, associated with colorless calcite and prismatic laumonite. The orange spheres are a mixture of stellerite and a thin coating, assumed to be the kamphaugite-(Y), that we cannot confirm (amorphous).
Raman shift (cm-1)	intensity
110.362	0
113.254	1.56412
116.147	2.23776
119.04	2.39751
121.933	2.99233
124.825	4.48967
127.718	5.21857
130.611	4.45789
133.503	4.83556
136.396	3.63734
139.289	4.76285
142.181	6.35078
145.074	6.12489
147.967	4.24538
150.859	3.35414
153.752	4.57237
156.645	1.73409
159.538	1.40384
162.43	0.483963
165.323	2.83574
168.216	0.212288
171.108	1.75849
174.001	1.26752
176.894	1.69968
179.786	2.26938
182.679	3.90641
185.572	6.40789
188.465	5.56894
191.357	6.99424
194.25	10.4927
197.143	14.9085
200.035	20.2374
202.928	24.7662
205.821	26.461
208.714	27.8938
211.606	27.6437
214.499	29.2241
217.392	28.5014
220.284	26.1915
223.177	21.0734
226.07	17.8774
228.962	16.5498
231.855	14.9309
234.748	13.7816
237.641	15.6425
240.533	18.4631
243.426	20.1926
246.319	22.229
249.211	21.6242
252.104	19.3108
254.997	19.8768
257.889	18.5084
260.782	14.9052
263.675	12.4818
266.567	11.4509
269.46	10.014
272.353	11.7269
275.246	12.156
278.138	14.9191
281.031	15.0195
283.924	18.0763
286.816	18.6094
289.709	18.5633
292.602	19.7692
295.495	20.4929
298.387	22.6547
301.28	18.6441
304.173	13.4634
307.065	6.17232
309.958	2.55936
312.851	1.58388
315.743	0.052048
318.636	0.29203
321.529	1.03803
324.421	1.31137
327.314	1.62742
330.207	1.47555
333.1	0.43084
335.992	0.90358
338.885	1.04627
341.778	0.14669
344.67	0.448822
347.563	2.18729
350.456	2.42017
353.349	2.84512
356.241	5.24219
359.134	6.64979
362.027	10.8437
364.919	15.7606
367.812	20.0661
370.705	27.1908
373.597	33.7049
376.49	40.3249
379.383	49.152
382.276	56.1638
385.168	64.2745
388.061	67.0421
390.954	65.5912
393.846	67.8903
396.739	67.464
399.632	72.0561
402.524	73.6098
405.417	74.1331
408.31	73.2275
411.202	69.6887
414.095	62.1799
416.988	52.8701
419.881	43.8739
422.773	37.9907
425.666	31.7505
428.559	25.3924
431.451	24.71
434.344	19.5354
437.237	17.6101
440.13	15.727
443.022	15.6907
445.915	15.0404
448.808	16.0464
451.7	16.6343
454.593	19.1186
457.486	18.9634
460.378	17.1407
463.271	13.99
466.164	10.7161
469.057	8.06741
471.949	7.95926
474.842	7.85261
477.735	8.8761
480.627	10.0865
483.52	12.4301
486.413	15.5279
489.305	18.3979
492.198	19.7129
495.091	22.9329
497.983	18.161
500.876	12.2297
503.769	6.81669
506.662	1.26611
509.554	1.289
512.447	2.10347
515.34	1.6097
518.232	2.48289
521.125	1.03171
524.018	1.18679
526.91	1.23277
529.803	1.47746
532.696	3.10579
535.589	5.2637
538.481	6.48389
541.374	9.40273
544.267	9.49819
547.159	11.1973
550.052	11.6585
552.945	11.7232
555.837	11.0427
558.73	9.10601
561.623	8.07719
564.516	6.14269
567.408	5.28328
570.301	4.16844
573.194	2.74287
576.086	1.51523
578.979	0.824886
581.872	0.384251
584.764	0.074474
587.657	0.203712
590.55	0.098778
593.443	0.60672
596.335	0.803505
599.228	1.63858
602.121	1.01737
605.013	2.52175
607.906	2.03934
610.799	2.69215
613.692	2.36755
616.584	2.70176
619.477	1.95981
622.37	2.34454
625.262	2.82878
628.155	1.69539
631.048	2.02582
633.94	0.878822
636.833	1.41806
639.726	0.762936
642.619	1.17849
645.511	1.72496
648.404	0.49155
651.297	0.49955
654.189	1.21104
657.082	1.83491
659.975	1.7892
662.867	1.55577
665.76	1.12524
668.653	2.32885
671.545	3.08739
674.438	2.97743
677.331	3.10325
680.224	2.32435
683.116	1.35839
686.009	1.90854
688.902	1.94804
691.794	0.828289
694.687	1.05542
697.58	1.19958
700.472	0.131172
703.365	0.637524
706.258	0.337456
709.15	0.033642
712.043	0.791897
714.936	0.0051
717.829	0.109432
720.721	0.552856
723.614	0.865665
726.507	0.614616
729.399	0.817722
732.292	0.883507
735.185	1.24541
738.077	1.51809
740.97	1.70797
743.863	1.69582
746.756	3.50619
749.648	4.36541
752.541	3.6295
755.434	4.51931
758.326	5.26739
761.219	5.87242
764.112	4.52084
767.005	2.00844
769.897	1.60671
772.79	2.05483
775.683	1.69504
778.575	1.32084
781.468	0.001686
784.361	0.997284
787.253	0.52939
790.146	0.650133
793.039	1.08965
795.932	0.207079
798.824	0.990444
801.717	0.882679
804.61	0.376104
807.502	0.27807
810.395	0.664762
813.288	0.083895
816.18	0.75309
819.073	0.580576
821.966	0.048641
824.859	0.983969
827.751	1.3367
830.644	1.88666
833.537	1.47605
836.429	2.46265
839.322	2.52714
842.215	3.66738
845.107	3.22812
848	2.25238
850.893	2.45188
853.785	2.5764
856.678	2.80002
859.571	2.11131
862.464	2.4803
865.356	1.79197
868.249	2.05416
871.142	1.67372
874.034	1.17382
876.927	0.917124
879.82	0.966471
882.712	0.077015
885.605	1.3244
888.498	0.097601
891.391	1.15594
894.283	0.47451
897.176	0.232792
900.069	0.372927
902.961	0.317978
905.854	0.17329
908.747	1.15344
911.639	1.13923
914.532	1.09607
917.425	0.650513
920.318	1.42412
923.21	0.636887
926.103	1.16538
928.996	1.12125
931.888	1.89215
934.781	0.621792
937.674	0.887127
940.567	1.42072
943.459	1.29659
946.352	0.762238
949.245	0.820297
952.137	0.948229
955.03	0.565111
957.923	0.242146
960.815	0.481312
963.708	0.343969
966.601	0.523136
969.494	0.08012
972.386	0.632322
975.279	0.920481
978.172	0.49358
981.064	0.290871
983.957	0.542933
986.85	1.16011
989.742	0.858088
992.635	1.02564
995.528	0.890348
998.42	0.51598
1001.31	1.14962
1004.21	1.56558
1007.1	1.82751
1009.99	1.18234
1012.88	0.511496
1015.78	0.518602
1018.67	0.230551
1021.56	0.183172
1024.45	0.455608
1027.35	0.056059
1030.24	0.419649
1033.13	0.351059
1036.03	0.518969
1038.92	0.487612
1041.81	0.382618
1044.7	0.511755
1047.6	0.426073
1050.49	0.809847
1053.38	0.707403
1056.28	2.5046
1059.17	3.96157
1062.06	7.64942
1064.95	12.9671
1067.85	20.3762
1070.74	31.1535
1073.63	43.8322
1076.52	54.6285
1079.42	58.2527
1082.31	52.0493
1085.2	45.8385
1088.09	37.9933
1090.99	24.6354
1093.88	14.262
1096.77	7.96954
1099.66	6.20736
1102.56	4.94046
1105.45	4.9438
1108.34	5.08686
1111.24	6.63487
1114.13	6.46292
1117.02	7.0854
1119.91	8.07427
1122.81	8.83148
1125.7	10.1045
1128.59	11.4569
1131.48	12.5083
1134.38	12.6944
1137.27	12.7356
1140.16	13.1759
1143.06	13.9427
1145.95	13.9593
1148.84	14.4916
1151.73	15.4402
1154.63	16.2902
1157.52	18.5601
1160.41	18.8328
1163.3	21.7565
1166.2	23.9567
1169.09	24.8889
1171.98	26.2354
1174.88	24.4168
1177.77	22.417
1180.66	22.7761
1183.55	20.0095
1186.45	18.4931
1189.34	16.0073
1192.23	15.7579
1195.12	14.6628
1198.02	12.1952
1200.91	10.3215
1203.8	7.48856
1206.69	4.81601
1209.59	3.03565
1212.48	0.683678
1215.37	0.049026
1218.27	4.83684
1221.16	5.24802
1224.05	6.16832
1226.94	3.23729
1229.84	0.259903
