Measurement: Raman, 532 nm, unoriented, Raman Data Processed
Mineral: Kamphaugite-(Y)
Rruff sample: R080085
Ideal chemistry: Ca_2_Y_2_(CO_3_)_4_(OH)_2_3H_2_O
Locality: Ashland, Massachusetts, USA
Source: Peter Cristofono
Description: Spherical clusters of peach colored radiating crystals, associated with colorless calcite and prismatic laumonite. The orange spheres are a mixture of stellerite and a thin coating, assumed to be the kamphaugite-(Y), that we cannot confirm (amorphous).
Raman shift (cm-1)	intensity
126.102	0
129.476	10.7153
132.851	34.3076
136.226	45.0832
139.601	55.7976
142.976	48.1235
146.351	53.3736
149.725	50.0895
153.1	49.892
156.475	47.0536
159.85	41.7671
163.225	38.507
166.6	29.3754
169.974	23.4738
173.349	12.4167
176.724	9.33527
180.099	4.89737
183.474	0.656418
186.848	0.803696
190.223	4.61975
193.598	3.40897
196.973	0.075989
200.348	4.99847
203.722	10.0336
207.097	12.9969
210.472	17.8484
213.847	22.4573
217.222	23.007
220.596	24.8885
223.971	22.1613
227.346	19.5017
230.721	20.7728
234.096	23.7918
237.471	27.7077
240.845	30.3458
244.22	30.0194
247.595	24.5877
250.97	15.6502
254.345	13.8426
257.719	8.16214
261.094	4.59319
264.469	2.62718
267.844	0.238815
271.219	0.840424
274.594	5.71016
277.968	11.9731
281.343	17.4841
284.718	27.6001
288.093	38.2566
291.468	51.0465
294.842	68.0285
298.217	73.5919
301.592	55.6465
304.967	38.8037
308.342	28.9754
311.717	18.4997
315.091	15.7847
318.466	15.2618
321.841	12.9827
325.216	11.4899
328.591	7.51727
331.966	5.2032
335.34	0.981674
338.715	1.41408
342.09	4.21353
345.465	5.222
348.84	2.84546
352.214	5.61813
355.589	12.061
358.964	19.1621
362.339	31.7453
365.714	47.8497
369.089	67.2645
372.463	85.5721
375.838	111.779
379.213	140.484
382.588	168.772
385.963	194.749
389.337	217.058
392.712	236.86
396.087	249.923
399.462	259.877
402.837	266.195
406.212	269.541
409.586	259.665
412.961	231.414
416.336	186.456
419.711	146.523
423.086	107.034
426.46	77.0744
429.835	55.8289
433.21	39.3649
436.585	24.021
439.96	15.1442
443.334	9.87836
446.709	11.5332
450.084	15.703
453.459	21.9269
456.834	24.22
460.209	23.1487
463.583	20.4568
466.958	18.5131
470.333	16.7911
473.708	18.6262
477.083	25.6092
480.457	35.1374
483.832	48.0724
487.207	65.5371
490.582	86.307
493.957	101.182
497.332	90.4944
500.706	59.1892
504.081	29.0313
507.456	13.9067
510.831	2.95517
514.206	2.02908
517.58	3.89221
520.955	3.92598
524.33	2.52235
527.705	1.3783
531.08	1.49033
534.455	4.48291
537.829	6.7924
541.204	15.5784
544.579	20.2531
547.954	23.7486
551.329	19.8035
554.703	14.9571
558.078	9.13374
561.453	6.57426
564.828	2.52318
568.203	0.777008
571.577	1.22005
574.952	1.86397
578.327	1.20117
581.702	0.305191
585.077	1.66463
588.452	4.52466
591.826	6.73456
595.201	9.97395
598.576	9.92232
601.951	13.8438
605.326	16.0198
608.7	17.734
612.075	19.0256
615.45	18.7457
618.825	16.761
622.2	16.2285
625.574	16.2234
628.949	12.6544
632.324	11.1457
635.699	10.2944
639.074	7.55868
642.449	7.32974
645.823	10.4453
649.198	9.5143
652.573	11.0228
655.948	11.7885
659.323	14.7375
662.697	15.7093
666.072	16.2492
669.447	19.4788
672.822	23.5592
676.197	25.5319
679.572	25.7595
682.946	24.0384
686.321	21.9213
689.696	17.7552
693.071	14.6587
696.446	10.3377
699.821	8.03674
703.195	5.2137
706.57	5.48291
709.945	2.6328
713.32	1.87709
716.695	0.973358
720.069	0.210449
723.444	1.00125
726.819	0.729782
730.194	0.365387
733.569	0.672867
736.943	0.378525
740.318	0.381012
743.693	1.89467
747.068	3.91183
750.443	1.7289
753.818	6.20837
757.192	7.04917
760.567	6.57432
763.942	8.79682
767.317	11.2082
770.692	11.5038
774.067	10.5708
777.441	15.3082
780.816	16.6726
784.191	19.0772
787.566	20.3359
790.941	21.5149
794.315	21.3218
797.69	19.3798
801.065	16.0367
804.44	12.5833
807.815	11.4502
811.189	7.78927
814.564	4.13291
817.939	3.81464
821.314	2.54383
824.689	1.1284
828.063	1.04408
831.438	1.04864
834.813	1.60011
838.188	1.15785
841.563	2.90654
844.938	2.31686
848.312	2.79068
851.687	1.42458
855.062	1.73139
858.437	1.6898
861.812	1.23752
865.187	2.50539
868.561	2.6746
871.936	3.13529
875.311	2.11878
878.686	2.66985
882.061	2.47916
885.435	3.20189
888.81	3.282
892.185	2.91499
895.56	2.89516
898.935	4.46575
902.309	4.84714
905.684	5.33164
909.059	4.84407
912.434	4.66414
915.809	6.66345
919.184	4.24122
922.558	5.65376
925.933	4.47853
929.308	4.37889
932.683	2.93889
936.058	2.57666
939.433	2.48259
942.807	1.05659
946.182	1.72433
949.557	0.189728
952.932	0.292511
956.307	0.753235
959.681	0.17662
963.056	0.447937
966.431	1.48869
969.806	2.41647
973.181	3.72876
976.556	4.32623
979.93	5.94005
983.305	7.1469
986.68	8.75957
990.055	13.1535
993.43	14.2011
996.804	13.8868
1000.18	16.4456
1003.55	15.9223
1006.93	14.5723
1010.3	16.2814
1013.68	14.8114
1017.05	13.0649
1020.43	13.467
1023.8	10.4423
1027.18	11.2531
1030.55	7.3244
1033.93	4.93309
1037.3	5.27406
1040.68	1.97166
1044.05	1.45302
1047.43	0.248291
1050.8	0.150879
1054.18	1.15619
1057.55	0.055405
1060.93	3.90923
1064.3	14.2701
1067.68	32.1148
1071.05	62.7948
1074.42	94.3892
1077.8	115.867
1081.17	107.22
1084.55	92.8612
1087.92	73.7204
1091.3	41.9729
1094.67	17.4182
1098.05	6.74777
1101.42	6.27229
1104.8	4.35138
1108.17	5.50507
1111.55	5.98279
1114.92	9.25053
1118.3	8.55823
1121.67	9.98926
1125.05	10.6167
1128.42	10.1784
1131.8	11.3464
1135.17	10.9887
1138.55	12.0815
1141.92	11.1668
1145.3	10.8778
1148.67	10.1752
1152.05	10.8512
1155.42	9.00848
1158.8	7.17024
1162.17	7.11496
1165.55	8.37035
1168.92	5.05952
1172.3	4.40088
1175.67	2.98909
1179.04	2.08815
1182.42	2.26776
1185.79	1.88301
1189.17	1.16876
1192.54	1.13304
1195.92	0.671097
1199.29	1.42134
1202.67	2.21074
1206.04	0.117065
1209.42	0.872467
1212.79	0.670715
1216.17	0.815948
1219.54	1.08829
1222.92	0.191208
1226.29	1.1478
1229.67	0.922028
1233.04	1.8885
1236.42	1.07333
1239.79	2.46555
1243.17	3.58756
1246.54	2.84438
1249.92	3.79323
1253.29	4.60063
1256.66	3.16121
1260.04	3.3513
1263.41	2.66043
1266.79	1.55637
1270.16	2.65648
1273.54	5.17215
1276.91	2.18384
1280.29	2.88364
1283.66	2.24516
1287.04	3.83849
1290.41	2.36479
1293.79	2.72835
1297.16	0.489243
1300.54	0.260773
1303.91	1.20065
