Measurement: Raman, 785 nm, unoriented, Raman Data Processed
Mineral: Kankite
Rruff sample: R060783
Ideal chemistry: Fe^3+^As^5+^O_4_3.5H_2_O
Locality: Kank by Kutna Hora, Bohemia, Czech Republic
Source: Michael Scott
Description: Gray botryoidal crust
Raman shift (cm-1)	intensity
213.612	0
216.505	135.119
219.397	391.96
222.29	508.472
225.183	439.982
228.076	484.057
230.968	857.026
233.861	1767.24
236.754	2405.07
239.646	2429.28
242.539	1529.42
245.432	601.55
248.324	152.643
251.217	72.7012
254.11	32.9805
257.002	3.77246
259.895	256.135
262.788	552.674
265.681	998.977
268.573	1529.65
271.466	2072.17
274.359	2755.43
277.251	3613.36
280.144	4573.86
283.037	5333.68
285.93	5600.78
288.822	5373.81
291.715	4317.49
294.608	3501.17
297.5	2776.62
300.393	2353.13
303.286	1803.01
306.178	1255.85
309.071	834.608
311.964	424.881
314.856	46.1338
317.749	31.2793
320.642	108.495
323.535	112.878
326.427	366.555
329.32	452.017
332.213	300.982
335.105	56.9365
337.998	70.376
340.891	81.7432
343.784	225.011
346.676	465.191
349.569	660.497
352.462	699.283
355.354	755.229
358.247	798.306
361.14	984.181
364.033	1431.12
366.925	2156.61
369.818	3129.59
372.711	3975.69
375.603	4318.64
378.496	4079.38
381.389	3281.49
384.281	2725.07
387.174	2068.81
390.067	1789.07
392.959	1636.12
395.852	1489.52
398.745	1486.76
401.638	1518.74
404.53	1556.26
407.423	1346.12
410.316	1154.99
413.208	947.566
416.101	668.499
418.994	422.808
421.887	209.909
424.779	64.9795
427.672	84.4717
430.565	102.986
433.457	106.2
436.35	15.3496
439.243	28.1689
442.135	186.472
445.028	331.346
447.921	393.625
450.813	563.97
453.706	618.213
456.599	830.481
459.492	1096.32
462.384	1407.2
465.277	1846.81
468.17	2311.1
471.062	2840.21
473.955	3522.56
476.848	4270.81
479.74	5356.82
482.633	6497.06
485.526	7330.19
488.419	7744.71
491.311	7654.39
494.204	6754.48
497.097	5562.18
499.989	4556.58
502.882	3581.06
505.775	2806.85
508.668	2083.18
511.56	1587.06
514.453	1166.68
517.346	852.808
520.238	617.519
523.131	334.201
526.024	319.834
528.916	144.485
531.809	34.5625
534.702	13.0146
537.595	52.7422
540.487	36.7783
543.38	14.085
546.273	16.2383
549.165	71.9228
552.058	68.8535
554.951	117.514
557.843	172.463
560.736	303.303
563.629	477.617
566.521	414.685
569.414	420.269
572.307	395.023
575.2	409.847
578.092	357.482
580.985	273.276
583.878	272.622
586.77	172.628
589.663	150.443
592.556	107.238
595.448	104.685
598.341	108.696
601.234	102.808
604.127	86.5537
607.019	46.8003
609.912	55.4224
612.805	81.54
615.697	59.8066
618.59	67.0308
621.483	106.185
624.375	60.7656
627.268	102.141
630.161	20.9248
633.054	37.8296
635.946	5.13281
638.839	58.8813
641.732	76.3809
644.625	92.7022
647.517	106.306
650.41	170.428
653.303	185.656
656.195	209.297
659.088	186.335
661.981	185.907
664.873	163.977
667.766	160.357
670.659	169.846
673.552	107.766
676.444	148.723
679.337	149.92
682.23	94.3574
685.122	97.0044
688.015	71.0566
690.908	43.3852
693.8	42.3369
696.693	35.9336
699.586	38.7109
702.479	33.4727
705.371	13.875
708.264	64.4814
711.157	11.0283
714.049	36.1445
716.942	20.0303
719.835	125.9
722.727	216.25
725.62	333.931
728.513	488.539
731.405	830.054
734.298	1305.18
737.191	1854.34
740.084	2335.47
742.976	2409.51
745.869	1820.86
748.762	1148.62
751.654	547.106
754.547	132.04
757.44	65.0811
760.332	184.873
763.225	117.114
766.118	117.134
769.011	88.3408
771.903	346.863
774.796	636.62
777.689	962.462
780.581	1597.21
783.474	2261.36
786.367	3059.88
789.26	3827.78
792.152	4479.28
795.045	5027.43
797.938	5206.53
800.83	5480.56
803.723	6141.51
806.616	6850.47
809.508	7401.74
812.401	7160.57
815.294	6109.46
818.187	4942.76
821.079	3713.14
823.972	2986.89
826.865	2742.97
829.757	2985.62
832.65	3271.69
835.543	3502.52
838.435	3085.45
841.328	2193.33
844.221	1437.42
847.114	943.659
850.006	700.408
852.899	532.691
855.792	657.684
858.684	1040.26
861.577	1641.38
864.47	2516.36
867.362	3567.76
870.255	4537.61
873.148	5385.9
876.04	6250.14
878.933	6999.86
881.826	7372.95
884.719	7127.49
887.611	6577.25
890.504	5853.05
893.397	5090.34
896.289	4349.75
899.182	3699.2
902.075	2917.48
904.967	2151.22
907.86	1526.98
910.753	957.261
913.646	566.264
916.538	330.898
919.431	119.321
922.324	11.7266
925.216	65.1162
928.109	41.2217
931.002	37.1909
933.894	13.9155
936.787	55.7144
939.68	35.0869
942.573	54.4033
945.465	19.8023
948.358	12.7847
951.251	26.459
954.143	79.1489
957.036	108.363
959.929	132.66
962.822	165.293
965.714	225.14
968.607	220.439
971.5	290.104
974.392	291.922
977.285	315.183
980.178	311.425
983.07	402.224
985.963	369.263
988.856	319.232
991.749	340.331
994.641	209.374
997.534	360.109
1000.43	415.821
1003.32	366.196
1006.21	356.721
1009.11	259.617
1012	234.296
1014.89	189.37
1017.78	210.766
1020.68	147.018
1023.57	159.232
1026.46	69.52
1029.35	103.998
1032.25	136.968
1035.14	141.093
1038.03	156.608
1040.92	154.448
1043.82	146.947
1046.71	152.056
1049.6	149.087
1052.49	190.607
1055.39	126.651
1058.28	220.262
1061.17	183.543
1064.07	158.295
1066.96	197.989
1069.85	216.238
1072.74	207.03
1075.64	210.006
1078.53	213.153
1081.42	154.358
1084.32	176.398
1087.21	85.543
1090.1	59.5972
1092.99	103.326
1095.89	75.5615
1098.78	81.7544
1101.67	36.6665
1104.56	7.97363
1107.46	42.3965
1110.35	41.2666
1113.24	27.7212
1116.13	77.7759
1119.03	7.94824
1121.92	40.1675
1124.81	7.13721
1127.7	32.3203
1130.6	28.0855
1133.49	6.70068
1136.38	14.6875
1139.28	16.3135
1142.17	18.9477
1145.06	46.8599
1147.95	30.0225
1150.85	38.2427
1153.74	39.647
1156.63	73.7993
1159.53	47.2456
1162.42	4.9668
1165.31	53.5688
1168.2	1.2417
1171.1	72.0215
1173.99	7.76856
1176.88	31.8071
1179.77	9.68652
1182.67	43.1352
1185.56	64.6328
1188.45	54.7583
1191.35	102.668
1194.24	60.3486
1197.13	88.2744
1200.02	117.221
1202.92	44.3003
1205.81	35.7139
1208.7	37.5298
1211.59	119.12
1214.49	97.0249
1217.38	90.5269
1220.27	167.032
1223.16	130.291
1226.06	107.186
1228.95	105.79
1231.84	148.993
1234.73	45.5283
1237.63	6.58691
1240.52	66.6523
1243.41	91.8955
1246.31	129.119
1249.2	73.2192
1252.09	99.9351
1254.98	48.0703
1257.88	81.9282
1260.77	2.64697
