Measurement: Raman, 532 nm, unoriented, Raman Data Processed
Mineral: Kankite
Rruff sample: R060783
Ideal chemistry: Fe^3+^As^5+^O_4_3.5H_2_O
Locality: Kank by Kutna Hora, Bohemia, Czech Republic
Source: Michael Scott
Description: Gray botryoidal crust
Raman shift (cm-1)	intensity
212.161	0
215.054	34.3608
217.946	60.4316
220.839	69.8306
223.732	102.675
226.624	86.2935
229.517	166.865
232.41	206.984
235.302	319.9
238.195	376.977
241.088	446.134
243.981	226.42
246.873	122.054
249.766	66.7656
252.659	10.1509
255.551	24.7578
258.444	48.4399
261.337	64.5083
264.229	135.778
267.122	228.364
270.015	340.551
272.908	387.777
275.8	541.894
278.693	699.593
281.586	882.587
284.478	986.764
287.371	1021.12
290.264	902.342
293.156	689.835
296.049	560.009
298.942	453.191
301.834	401.315
304.727	332.129
307.62	247.206
310.513	135.899
313.405	87.1533
316.298	26.77
319.191	19.5195
322.083	4.021
324.976	71.7012
327.869	90.374
330.761	52.9663
333.654	22.6235
336.547	24.6362
339.44	63.6255
342.332	52.8091
345.225	58.7837
348.118	65.8999
351.01	111.666
353.903	136.777
356.796	103.437
359.688	154.411
362.581	131.321
365.474	265.008
368.366	370.769
371.259	556.948
374.152	623.615
377.045	700.718
379.937	648.816
382.83	513.693
385.723	451.062
388.615	328.307
391.508	275.437
394.401	267.157
397.293	188.237
400.186	245.211
403.079	173.368
405.972	231.54
408.864	177.669
411.757	197.102
414.65	144.625
417.542	132.128
420.435	81.4688
423.328	90.0845
426.221	8.76318
429.113	18.9917
432.006	15.8394
434.899	0.34668
437.791	0.756836
440.684	35.4106
443.577	44.5361
446.469	64.582
449.362	119.392
452.255	71.9077
455.147	127.868
458.04	140.112
460.933	195.79
463.825	253.792
466.718	335.327
469.611	463.092
472.504	630.846
475.396	745.085
478.289	926.967
481.182	1145.94
484.074	1387.96
486.967	1479.52
489.86	1515.22
492.752	1369.73
495.645	1193.92
498.538	1019.08
501.431	820.178
504.323	652.099
507.216	507.524
510.109	393.372
513.001	275.419
515.894	214.356
518.787	171.279
521.679	171.149
524.572	145.583
527.465	81.3716
530.357	57.27
533.25	25.4912
536.143	30.1641
539.036	36.1255
541.928	25.8906
544.821	48.9038
547.714	33.6953
550.606	29.9268
553.499	21.8218
556.392	1.70752
559.284	65.4951
562.177	113.288
565.07	66.855
567.963	132.382
570.855	156.549
573.748	134.945
576.641	99.3203
579.533	92.9087
582.426	78.1074
585.319	57.356
588.212	91.166
591.104	113.576
593.997	55.0605
596.89	23.4434
599.782	30.0972
602.675	11.8877
605.568	80.4307
608.46	55.5361
611.353	87.1841
614.246	31.727
617.139	45.8892
620.031	108.023
622.924	63.2422
625.817	85.6064
628.709	73.1123
631.602	13.7969
634.495	46.1431
637.387	4.48438
640.28	37.7217
643.173	14.686
646.065	11.7275
648.958	99.4673
651.851	89.8315
654.744	130.955
657.636	105.172
660.529	70.354
663.422	108.765
666.314	99.7871
669.207	140.802
672.1	139.056
674.992	67.334
677.885	71.1055
680.778	86.5928
683.67	103.987
686.563	52.7642
689.456	87.7368
692.349	124.603
695.241	76.4834
698.134	41.7583
701.027	43.6519
703.919	54.6616
706.812	6.77783
709.705	16.1533
712.597	40.665
715.49	17.5503
718.383	15.5835
721.276	76.1938
724.168	96.4336
727.061	128.761
729.954	155.394
732.846	163.024
735.739	206.508
738.632	333.482
741.524	391.375
744.417	415.555
747.31	441.446
750.203	206.292
753.095	26.8755
755.988	0.60791
758.881	20.4653
761.773	70.0303
764.666	8.83545
767.559	50.6372
770.451	103.67
773.344	209.558
776.237	200.306
779.13	308.888
782.022	456.215
784.915	644.331
787.808	758.576
790.7	951.432
793.593	1177.5
796.486	1200.09
799.378	1342.37
802.271	1338.66
805.164	1512.77
808.057	1592.64
810.949	1781.12
813.842	1625.88
816.735	1326.06
819.627	1108.04
822.52	848.1
825.413	709.468
828.305	681.963
831.198	721.269
834.091	800.985
836.984	801.746
839.876	662.719
842.769	449.983
845.662	261.607
848.554	172.169
851.447	115.492
854.34	62.8008
857.232	101.586
860.125	238.267
863.018	414.613
865.91	544.394
868.803	734.078
871.696	917.692
874.588	981.432
877.481	1117.69
880.374	1282.81
883.267	1320.27
886.159	1282.91
889.052	1195.38
891.945	1104.2
894.837	1007.75
897.73	969.581
900.623	712.896
903.515	513.137
906.408	367.131
909.301	304.211
912.194	132.292
915.086	77.9463
917.979	24.8447
920.872	36.8047
923.764	44.1465
926.657	57.7163
929.55	40.0337
932.442	12.0586
935.335	52.5254
938.228	7.56982
941.12	44.7817
944.013	8.73291
946.906	34.9087
949.799	44.876
952.691	0.804688
955.584	57.4893
958.477	68.0859
961.369	47.9624
964.262	82.3428
967.155	42.9287
970.048	133.924
972.94	86.8652
975.833	103.065
978.726	133.863
981.618	102.181
984.511	87.8623
987.404	97.5815
990.296	65.6787
993.189	80.6943
996.082	120.033
998.975	162.207
1001.87	122.342
1004.76	90.5684
1007.65	131.565
1010.54	56.0923
1013.44	75.3921
1016.33	21.3379
1019.22	74.5454
1022.12	41.1279
1025.01	99.6103
1027.9	130.682
1030.79	62.2227
1033.69	58.0425
1036.58	51.0723
1039.47	120.685
1042.37	86.563
1045.26	115.639
1048.15	37.3276
1051.04	24.0537
1053.94	103.738
1056.83	129.068
1059.72	123.918
1062.61	75.9341
1065.51	71.5825
1068.4	72.6538
1071.29	117.582
1074.18	119.785
1077.08	67.4639
1079.97	105.004
1082.86	127.488
1085.76	31.6406
1088.65	90.0527
1091.54	27.6152
1094.43	76.3477
1097.33	63.084
1100.22	45.625
1103.11	89.3496
1106	94.5547
1108.9	41.792
1111.79	39.2998
1114.68	41.3027
1117.58	91.1602
1120.47	4.52637
1123.36	46.2344
1126.25	27.7939
1129.15	118.305
1132.04	75.1934
1134.93	88.4502
1137.82	45.5576
1140.72	61.9971
1143.61	70.3428
1146.5	64.1514
1149.39	32.4619
1152.29	115.459
1155.18	71.3779
1158.07	56.4522
1160.97	67.9219
1163.86	89.7715
1166.75	12.9678
1169.64	60.3857
1172.54	66.2881
1175.43	42.5977
1178.32	73.5615
1181.21	91.1982
1184.11	136.974
1187	80.2412
1189.89	36.3477
1192.79	8.23242
1195.68	22.3955
1198.57	54.5156
1201.46	76.4746
1204.36	4.24512
1207.25	87.3965
1210.14	144.418
1213.03	36.3955
1215.93	60.1533
1218.82	32.4658
1221.71	23.1777
1224.61	67.9727
1227.5	4.07031
1230.39	79.2812
1233.28	60.5352
1236.18	48.0557
1239.07	77.5019
1241.96	92.6094
1244.85	83.8965
1247.75	82.3731
1250.64	125.485
1253.53	6.41699
1256.42	13.0479
1259.32	86.3975
