Measurement: Raman, 785 nm, unoriented, Raman Data Processed
Mineral: Kanoite
Rruff sample: R061134
Ideal chemistry: Mn^2+^MgSi_2_O_6_
Locality: Balmat, St. Lawrence County, New York, USA
Source: Michael Scott
Description: Yellowish brown granular aggregate
Measured chemistry: (Mn^2+^_0.88_Ca_0.12_)_Σ=1_(Mg_0.98_Fe^3+^_0.02_)_Σ=1_(Si_0.98_Al_0.02_)_Σ=2_O_6_
Raman shift (cm-1)	intensity
174.825	0
177.718	8.57031
180.61	66.5019
183.503	168.562
186.396	194.487
189.288	251.898
192.181	366.218
195.074	324.034
197.966	355.056
200.859	432.269
203.752	485.381
206.645	440.456
209.537	479.099
212.43	582.757
215.323	703.328
218.215	656.933
221.108	712.031
224.001	648.489
226.893	670.471
229.786	672.466
232.679	568.867
235.572	547.308
238.464	501.418
241.357	455.599
244.25	393.99
247.142	296.424
250.035	203.261
252.928	172.76
255.821	134.442
258.713	96.7617
261.606	33.4941
264.499	12.5488
267.391	16.1963
270.284	60.6309
273.177	33.085
276.069	56.8086
278.962	8.4248
281.855	26.1748
284.748	161.673
287.64	95.2529
290.533	69.0537
293.426	119.487
296.318	204.998
299.211	411.581
302.104	538.205
304.996	730.794
307.889	931.47
310.782	1131.03
313.675	1391.98
316.567	1882.27
319.46	2292.6
322.353	2503.36
325.245	2402.54
328.138	2026.08
331.031	1573.48
333.923	1159.12
336.816	774.89
339.709	565.939
342.601	283.004
345.494	247.718
348.387	255.81
351.28	230.861
354.172	211.765
357.065	185.727
359.958	50.0947
362.85	20.4922
365.743	5.9834
368.636	134.464
371.529	98.2744
374.421	290.199
377.314	217.119
380.207	236.001
383.099	272.937
385.992	411.75
388.885	379.364
391.777	522.829
394.67	491.152
397.563	360.285
400.455	286.788
403.348	306.45
406.241	359.059
409.134	400.865
412.026	482.199
414.919	450.585
417.812	403.425
420.704	298.236
423.597	86.0322
426.49	39.9795
429.382	127.5
432.275	12.4531
435.168	3.81055
438.06	27.8223
440.953	36.6367
443.846	20.377
446.739	8.65039
449.631	13.8506
452.524	38.7988
455.417	133.123
458.309	86.4961
461.202	114.224
464.095	223.662
466.988	289.649
469.88	244.52
472.773	177.897
475.666	23.9502
478.558	33.1475
481.451	92.3633
484.344	16.2012
487.236	145.269
490.129	79.126
493.022	195.065
495.915	230.745
498.807	287.047
501.7	393.258
504.593	410.833
507.485	506.741
510.378	578.995
513.271	501.82
516.163	440.341
519.056	396.596
521.949	371.785
524.842	286.094
527.734	197.624
530.627	187.759
533.52	192.527
536.412	169.715
539.305	275.065
542.198	224.455
545.091	310.724
547.983	335.848
550.876	436.161
553.769	484.369
556.661	519.392
559.554	429.818
562.447	197.087
565.339	95.2705
568.232	112.35
571.125	80.6123
574.017	97.7285
576.91	32.4512
579.803	34.206
582.696	154.82
585.588	48.3975
588.481	15.9736
591.374	36.8232
594.266	43.332
597.159	56.2588
600.052	30.3613
602.944	23.6846
605.837	6.05273
608.73	46.9199
611.622	6.47168
614.515	42.501
617.408	33.334
620.301	47.0449
623.193	69.5107
626.086	146.988
628.979	172.342
631.871	236.698
634.764	277.348
637.657	402.049
640.549	551.031
643.442	779.72
646.335	1180.53
649.228	1708.17
652.12	2489.59
655.013	3415.85
657.906	4338.42
660.798	5263.62
663.691	6043.35
666.584	6511.12
669.476	5831.89
672.369	4270.49
675.262	2779.74
678.155	1888.54
681.047	1272.31
683.94	830.292
686.833	598.412
689.725	371.345
692.618	297.36
695.511	218.496
698.404	130.711
701.296	155.752
704.189	165.273
707.082	186.498
709.974	91.8359
712.867	59.8359
715.76	44.5293
718.652	21.4473
721.545	30.1367
724.438	120.303
727.331	94.7715
730.223	13.083
733.116	45.3174
736.009	34.0147
738.901	15.7764
741.794	87.6455
744.687	14.5303
747.579	28.0234
750.472	94.5986
753.365	52.7041
756.257	125.861
759.15	28.3291
762.043	18.5547
764.936	34.8955
767.828	108.573
770.721	78.96
773.614	56.917
776.506	52.3828
779.399	92.3154
782.292	36.5996
785.184	85.9707
788.077	3.77344
790.97	5.12305
793.862	52.8496
796.755	80.8603
799.648	27.3682
802.541	53.126
805.433	106.223
808.326	24.8975
811.219	136.887
814.111	74.3242
817.004	61.0742
819.897	79.3379
822.79	77.7832
825.682	40.0772
828.575	51.7285
831.468	25.4805
834.36	131.77
837.253	70.0684
840.146	47.0254
843.038	37.5723
845.931	35.1025
848.824	93.2764
851.717	99.1816
854.609	70.9287
857.502	58.7568
860.395	23.5508
863.287	6.33203
866.18	89.2529
869.073	27.7158
871.966	85.2793
874.858	97.7041
877.751	124.263
880.644	118.417
883.536	116.897
886.429	94.6924
889.322	26.0176
892.214	165.231
895.107	60.3252
898	67.2783
900.893	74.9697
903.785	37.1289
906.678	89.4981
909.571	63.6484
912.463	114.465
915.356	75.7793
918.249	105.874
921.141	27.5293
924.034	68.832
926.927	76.3174
929.819	99.5332
932.712	127.108
935.605	185.435
938.498	236.518
941.39	191.58
944.283	128.787
947.176	28.3428
950.068	34.1719
952.961	49.5293
955.854	4.85449
958.746	73.2959
961.639	3.01758
964.532	3.09766
967.424	56.9629
970.317	44.3652
973.21	86.8447
976.103	255.112
978.995	352.367
981.888	462.971
984.781	838.771
987.673	1281.63
990.566	2030.02
993.459	3201.95
996.351	4624.35
999.244	5949.41
1002.14	6580.87
1005.03	6279.16
1007.92	5205.33
1010.82	3811.88
1013.71	2840.1
1016.6	2101.26
1019.49	1535.01
1022.39	1394.43
1025.28	802.541
1028.17	850.732
1031.06	662.684
1033.96	703.965
1036.85	733.874
1039.74	553.001
1042.63	522.299
1045.53	448.878
1048.42	347.206
1051.31	281.921
1054.2	225.531
1057.1	199.899
1059.99	36.5
1062.88	71.2666
1065.78	1.53223
1068.67	2.09082
1071.56	58.9473
1074.45	59.7012
1077.35	0.429688
1080.24	121.997
1083.13	236.939
1086.03	152.741
1088.92	167.514
1091.81	50.1787
1094.7	170.774
1097.6	182.492
1100.49	156.394
1103.38	185.94
1106.27	51.4824
1109.17	150.182
1112.06	271.671
1114.95	262.511
1117.85	257.717
1120.74	304.496
1123.63	240.825
1126.52	219.897
1129.42	312.184
1132.31	179.528
1135.2	121.545
1138.09	111.167
1140.99	156.436
1143.88	91.832
1146.77	51.7051
1149.66	86.2803
1152.56	40.4434
1155.45	29.6133
1158.34	66.3447
1161.23	79.9717
1164.13	124.487
1167.02	84.7148
1169.91	5.35352
1172.81	48.706
1175.7	35.2578
1178.59	26.417
1181.48	63.0137
1184.38	43.0352
1187.27	27.9512
1190.16	42
1193.06	66.96
1195.95	175.306
1198.84	161.575
1201.73	205.518
1204.63	150.824
1207.52	123.857
1210.41	219.327
1213.3	257.829
1216.2	226.742
1219.09	249.556
1221.98	220.891
1224.88	152.358
1227.77	57.4805
1230.66	101.746
1233.55	133.798
1236.45	29.9248
1239.34	49.626
1242.23	0.268555
1245.12	0
