Measurement: Raman, 532 nm, unoriented, Raman Data Processed
Mineral: Kanoite
Rruff sample: R061134
Ideal chemistry: Mn^2+^MgSi_2_O_6_
Locality: Balmat, St. Lawrence County, New York, USA
Source: Michael Scott
Description: Yellowish brown granular aggregate
Measured chemistry: (Mn^2+^_0.88_Ca_0.12_)_Σ=1_(Mg_0.98_Fe^3+^_0.02_)_Σ=1_(Si_0.98_Al_0.02_)_Σ=2_O_6_
Raman shift (cm-1)	intensity
160.305	0
163.198	123.747
166.091	158.905
168.983	180.977
171.876	193.568
174.769	222.336
177.662	145.143
180.554	274.166
183.447	248.469
186.34	224.953
189.232	305.159
192.125	359.19
195.018	263.316
197.911	357.111
200.803	434.721
203.696	401.876
206.589	615.405
209.481	709.443
212.374	892.484
215.267	1184.3
218.159	1263.11
221.052	1127.05
223.945	930.682
226.838	1021.91
229.73	942.857
232.623	684.865
235.516	546.057
238.408	457.166
241.301	426.893
244.194	255.996
247.086	211.779
249.979	199.986
252.872	152.32
255.764	114.719
258.657	95.5566
261.55	3.23633
264.443	17.4023
267.335	71.0234
270.228	1.4082
273.121	35.6445
276.013	85.0332
278.906	4.9082
281.799	25.3418
284.692	160.834
287.584	112.213
290.477	168.842
293.37	255.803
296.262	308.06
299.155	643.947
302.048	916.176
304.94	1207.57
307.833	1761.05
310.726	2569.44
313.618	3475.6
316.511	4779.54
319.404	5935.52
322.297	6583.1
325.189	6413.69
328.082	5572.89
330.975	4176.72
333.867	3148.16
336.76	2311.37
339.653	1765.41
342.546	1337.9
345.438	1140.89
348.331	1059.18
351.224	1004.66
354.116	883.984
357.009	815.648
359.902	593.561
362.794	615.602
365.687	612.492
368.58	890.836
371.473	1162.94
374.365	1186.9
377.258	1193.67
380.151	1382.28
383.043	1900.06
385.936	2341.87
388.829	3091.12
391.721	3264.38
394.614	2777.88
397.507	1782.19
400.399	1017.46
403.292	791.475
406.185	654.092
409.078	698.078
411.97	764.959
414.863	880.861
417.756	622.648
420.648	374.129
423.541	224.416
426.434	122.795
429.327	69.375
432.219	8.18555
435.112	115.643
438.005	73.2891
440.897	118.518
443.79	20.291
446.683	42.2695
449.575	20.3027
452.468	23.2012
455.361	121.301
458.253	229.988
461.146	273.685
464.039	314.312
466.932	417.656
469.824	318.879
472.717	247.318
475.61	114.041
478.502	151.268
481.395	43.3438
484.288	114.232
487.18	195.398
490.073	249.805
492.966	259.435
495.859	381.402
498.751	667.471
501.644	926.104
504.537	1018.76
507.429	995.875
510.322	987.832
513.215	1058.55
516.107	971.031
519	900.484
521.893	920.207
524.786	610.893
527.678	557.916
530.571	640.9
533.464	803.967
536.356	978.549
539.249	1251.71
542.142	1052.32
545.034	914.244
547.927	997.76
550.82	1257.66
553.713	1411.38
556.605	1280.69
559.498	948.99
562.391	530.979
565.283	438.598
568.176	258.207
571.069	84.2676
573.962	159.131
576.854	8.01562
579.747	89.8359
582.64	59.418
585.532	48.9082
588.425	107.252
591.318	7.16016
594.21	84.4785
597.103	65.9219
599.996	14.8535
602.889	66.168
605.781	61.9004
608.674	78.1133
611.567	11.3984
614.459	16.8574
617.352	97.793
620.245	124.586
623.138	222.441
626.03	297.272
628.923	453.144
631.816	479.219
634.708	686.545
637.601	935.291
640.494	1309.81
643.386	1795.16
646.279	2473.95
649.172	3409.05
652.064	4756.67
654.957	6612.32
657.85	8439.21
660.743	9743.5
663.635	10883.4
666.528	11355
669.421	9999.48
672.313	7343.13
675.206	4906.83
678.099	3293.34
680.991	2151.27
683.884	1410.73
686.777	1108.01
689.67	733.082
692.562	603.582
695.455	471.478
698.348	253.728
701.24	267.199
704.133	196.846
707.026	145.342
709.918	198.975
712.811	159.127
715.704	137.285
718.597	157.607
721.489	222.815
724.382	152.574
727.275	103.676
730.167	43.7617
733.06	227.629
735.953	121.301
738.846	58.7891
741.738	9.15234
744.631	78.666
747.524	11.4531
750.416	9.04883
753.309	28.6523
756.202	148.693
759.094	40.4609
761.987	75.2949
764.88	45.8555
767.773	18.1211
770.665	89.1602
773.558	195.209
776.451	20.2773
779.343	44.4961
782.236	95.9668
785.129	148.838
788.021	95.4824
790.914	125.242
793.807	207.191
796.699	116.703
799.592	187.588
802.485	280.533
805.378	125.57
808.27	30.7148
811.163	154.844
814.056	43.0293
816.948	159.205
819.841	155.027
822.734	198.732
825.626	58.9512
828.519	60.1113
831.412	109.043
834.305	81.0293
837.197	102.393
840.09	44.3965
842.983	66.5449
845.875	38.5254
848.768	52.8027
851.661	125.561
854.553	53.9473
857.446	40.2812
860.339	176.359
863.232	127.107
866.124	69.2578
869.017	92.043
871.91	46.7324
874.802	97.4844
877.695	42.9043
880.588	195.91
883.481	78.043
886.373	233.705
889.266	331.131
892.159	234.734
895.051	45.2207
897.944	256.078
900.837	153.168
903.729	8.31445
906.622	32.8164
909.515	95.8965
912.408	51.4746
915.3	3.35742
918.193	196.81
921.086	260.701
923.978	408.562
926.871	474.065
929.764	554.529
932.657	374.533
935.549	425.973
938.442	327.545
941.335	284.256
944.227	183.982
947.12	21.3457
950.013	17.2715
952.905	17.998
955.798	34.2598
958.691	17.6738
961.583	112.43
964.476	283.627
967.369	300.348
970.262	247.254
973.154	543.51
976.047	660.762
978.94	1126.9
981.832	1524.05
984.725	2424.06
987.618	3858.9
990.51	6222.16
993.403	9832.6
996.296	13903.4
999.189	17502.4
1002.08	19143.3
1004.97	18017.3
1007.87	15036.1
1010.76	11331.7
1013.65	8461.37
1016.54	6283.56
1019.44	4435.01
1022.33	3150.6
1025.22	2121.98
1028.12	1648.81
1031.01	1133.86
1033.9	832.49
1036.79	729.256
1039.69	483.1
1042.58	388.848
1045.47	345.908
1048.37	283.986
1051.26	236.234
1054.15	239.852
1057.04	21.6992
1059.93	54.1406
1062.83	105.637
1065.72	30.4688
1068.61	63.6602
1071.51	74.3008
1074.4	97.1914
1077.29	226.527
1080.18	371.527
1083.08	496.004
1085.97	481.289
1088.86	288.867
1091.76	281.769
1094.65	157.231
1097.54	107.231
1100.43	81.6172
1103.33	41.6406
1106.22	193.547
1109.11	77.8633
1112	82.4648
1114.9	161.664
1117.79	56.2031
1120.68	19.4922
1123.58	145.754
1126.47	41.6836
1129.36	85.2578
1132.25	100.504
1135.15	56.8203
1138.04	7.00781
1140.93	140.082
1143.82	35.9062
1146.72	129.309
1149.61	59.0391
1152.5	260.973
1155.39	90.625
1158.29	153.492
1161.18	71.332
1164.07	235.617
1166.96	78.2227
1169.86	122.762
1172.75	179.695
1175.64	91.7266
1178.54	182.789
1181.43	9.96875
1184.32	83.4141
1187.21	24.7539
1190.11	171.144
1193	182.621
1195.89	159.703
1198.79	235.129
1201.68	103.773
1204.57	166.949
1207.46	127.66
1210.36	191.109
1213.25	184.375
1216.14	44.5352
1219.03	39.6367
1221.93	132.672
1224.82	167.535
1227.71	51.0273
1230.61	73.4414
1233.5	58.4648
1236.39	5.51562
1239.28	86.4609
1242.17	3.90625
1245.07	91.0469
1247.96	83.5391
1250.85	109.203
1253.75	65.168
1256.64	137.348
1259.53	51.207
1262.42	34.4453
1265.32	284.918
1268.21	142.688
1271.1	194.836
1273.99	128.094
1276.89	181.449
1279.78	159.039
1282.67	62.8438
1285.57	223.004
1288.46	169.914
1291.35	97.7266
1294.24	37.8242
1297.14	90.0039
1300.03	137.16
1302.92	103.637
1305.82	50.3086
1308.71	100.793
1311.6	61.3516
