Measurement: Raman, 532 nm, unoriented, Raman Data Processed
Mineral: Karchevskyite
Rruff sample: R070103
Ideal chemistry: [Mg_18_Al_9_(OH)_54_][Sr_2_(CO_3_,PO_4_)_9_(H_2_O,H_3_O)_11_]
Locality: Zheleznyi mine, Kovdor Massif, Kola Peninsula, Russia
Source: Michael Scott
Description: Colorless hexagonal plates, co-type material, associated with phlogopite, dolomite, pyrite, and magnetite
Raman shift (cm-1)	intensity
160.788	0
163.681	18.9714
166.574	34.5244
169.467	36.8003
172.359	70.4573
175.252	105.428
178.145	76.7786
181.037	105.996
183.93	110.856
186.823	111.713
189.715	56.8303
192.608	29.908
195.501	38.9966
198.394	4.51831
201.286	0.9375
204.179	6.08215
207.072	10.2467
209.964	29.4415
212.857	4.15991
215.75	10.1405
218.642	9.05017
221.535	33.9634
224.428	63.1544
227.321	64.9279
230.213	72.9875
233.106	90.9868
235.999	115.423
238.891	107.136
241.784	87.1345
244.677	67.5619
247.569	93.2275
250.462	23.2661
253.355	54.5477
256.248	60.3948
259.14	26.0015
262.033	42.5761
264.926	31.1425
267.818	6.5918
270.711	14.7688
273.604	0.849487
276.496	5.30261
279.389	4.7229
282.282	10.353
285.175	40.568
288.067	52.5939
290.96	88.8483
293.853	101.246
296.745	163.929
299.638	233.232
302.531	255.348
305.423	297.671
308.316	255.78
311.209	229.689
314.101	181.063
316.994	163.726
319.887	164.002
322.78	143.141
325.672	122.26
328.565	117.677
331.458	142.424
334.35	130.787
337.243	133.368
340.136	148.46
343.029	139.922
345.921	111.706
348.814	113.182
351.707	166.622
354.599	192.971
357.492	192.517
360.385	231.318
363.277	298.299
366.17	349.226
369.063	259.467
371.955	212.461
374.848	197.176
377.741	185.279
380.634	217.173
383.526	255.646
386.419	288.077
389.312	342.401
392.204	359.358
395.097	439.99
397.99	505.829
400.882	512.669
403.775	403.026
406.668	242.815
409.56	136.265
412.453	54.3567
415.346	32.1376
418.239	34.4664
421.131	5.47034
424.024	36.7164
426.917	1.33716
429.809	7.89172
432.702	11.8127
435.595	13.3256
438.488	5.46826
441.38	13.368
444.273	2.99951
447.166	45.6882
450.058	24.9026
452.951	30.7216
455.844	72.5247
458.736	109.163
461.629	140.316
464.522	134.16
467.414	144.742
470.307	191.132
473.2	219.984
476.093	206.805
478.985	200.856
481.878	120.635
484.771	98.3033
487.663	129.353
490.556	113.532
493.449	88.6022
496.341	51.1014
499.234	58.0355
502.127	35.0656
505.02	20.991
507.912	16.0105
510.805	10.5085
513.698	28.6523
516.59	49.5966
519.483	47.4898
522.376	86.5802
525.268	144.306
528.161	225.089
531.054	303.832
533.947	432.94
536.839	634.925
539.732	909.145
542.625	1273.2
545.517	1866.92
548.41	2692.8
551.303	3592.35
554.195	4504.35
557.088	5245.12
559.981	4946.57
562.874	3313.65
565.766	1926.07
568.659	1127.57
571.552	655.248
574.444	425.022
577.337	300.716
580.23	197.302
583.122	180.327
586.015	106.458
588.908	122.068
591.801	107.129
594.693	83.5171
597.586	103.212
600.479	98.7084
603.371	97.1489
606.264	38.1833
609.157	52.474
612.049	58.9822
614.942	39.4137
617.835	52.0389
620.727	22.8989
623.62	2.12134
626.513	17.7308
629.406	16.7752
632.298	16.5095
635.191	15.749
638.084	0.612793
640.976	1.24902
643.869	6.50525
646.762	36.4248
649.654	46.1968
652.547	35.4346
655.44	77.8059
658.333	96.1158
661.225	108.653
664.118	138.499
667.011	141.377
669.903	162.051
672.796	212.874
675.689	298.788
678.582	367.272
681.474	419.043
684.367	520.308
687.26	566.37
690.152	672.907
693.045	770.967
695.938	799.61
698.83	765.271
701.723	574.208
704.616	408.953
707.508	288.524
710.401	172.447
713.294	127.908
716.187	63.3718
719.079	105.482
721.972	50.1976
724.865	72.2319
727.757	64.0167
730.65	59.6252
733.543	68.8296
736.435	52.1588
739.328	63.7408
742.221	58.6941
745.114	64.6489
748.006	66.7351
750.899	54.291
753.792	34.8673
756.684	24.976
759.577	25.9739
762.47	1.46387
765.362	27.8852
768.255	18.8473
771.148	6.51941
774.04	11.5421
776.933	9.86499
779.826	7.21472
782.719	37.1538
785.611	6.66772
788.504	69.0477
791.397	72.8326
794.289	116.042
797.182	119.742
800.075	142.237
802.967	95.5574
805.86	167.852
808.753	188.739
811.646	188.094
814.538	180.553
817.431	154.183
820.324	156.112
823.216	166.247
826.109	143.759
829.002	133.737
831.894	90.9073
834.787	78.069
837.68	52.6206
840.573	35.2351
843.465	15.2632
846.358	52.2919
849.251	18.8923
852.143	32.6797
855.036	62.2277
857.929	32.9399
860.822	43.7759
863.714	23.5892
866.607	107.139
869.5	102.197
872.392	72.6755
875.285	86.4548
878.178	107.601
881.07	82.2383
883.963	92.7102
886.856	65.8213
889.748	26.4714
892.641	42.782
895.534	10.2624
898.427	25.6428
901.319	10.0632
904.212	24.521
907.105	6.3606
909.997	11.5998
912.89	15.7466
915.783	2.20093
918.675	26.095
921.568	13.9543
924.461	53.9758
927.354	70.9536
930.246	110.954
933.139	115.451
936.032	165.105
938.924	194.467
941.817	208.277
944.71	233.187
947.602	287.317
950.495	305.124
953.388	300.315
956.28	293.424
959.173	340.441
962.066	304.234
964.959	251.67
967.851	256.692
970.744	230.11
973.637	199.43
976.529	172.273
979.422	122.987
982.315	135.76
985.207	87.9058
988.1	68.8574
990.993	75.9648
993.886	73.4973
996.778	71.6943
999.671	81.8362
1002.56	49.8362
1005.46	89.1084
1008.35	159.557
1011.24	183.361
1014.13	271.166
1017.03	314.635
1019.92	353.568
1022.81	456.977
1025.7	489.313
1028.6	559.945
1031.49	688.492
1034.38	818.977
1037.28	870.747
1040.17	1004.09
1043.06	1054.56
1045.95	1214.22
1048.85	1428.48
1051.74	2035.87
1054.63	2934.39
1057.53	4090.04
1060.42	5247.53
1063.31	5498.62
1066.2	3986.4
1069.1	1996.87
1071.99	798.148
1074.88	336.051
1077.77	142.353
1080.67	57.4355
1083.56	34.2561
1086.45	16.0442
1089.35	2.18579
1092.24	5.00342
1095.13	30.7212
1098.02	8.5603
1100.91	20.6843
1103.81	6.37646
1106.7	19.9814
1109.59	4.67944
1112.49	0.191406
1115.38	14.7598
1118.27	13.7664
1121.16	3.54443
1124.06	15.5732
1126.95	23.7097
1129.84	8.28979
1132.73	39.5381
1135.63	48.6565
1138.52	57.5801
1141.41	104.636
1144.31	80.3132
1147.2	91.9253
1150.09	148.433
1152.98	124.186
1155.88	145.077
1158.77	175.947
1161.66	180.105
1164.56	224.226
1167.45	175.313
1170.34	174.641
1173.23	169.554
1176.13	153.09
1179.02	146.486
1181.91	87.4492
1184.8	39.9839
1187.7	97.1221
1190.59	69.282
1193.48	31.4729
1196.37	34.6794
1199.27	32.0398
1202.16	45.7102
1205.05	11.6877
1207.94	59.9983
1210.84	43.4177
1213.73	95.751
1216.62	96.0337
1219.52	106.708
1222.41	106.414
1225.3	161.023
1228.19	124.674
1231.09	117.248
1233.98	95.374
1236.87	163.455
1239.77	117.638
1242.66	128.248
1245.55	118.96
1248.44	72.5437
1251.34	96.355
1254.23	56.188
1257.12	54.6379
1260.01	12.282
1262.91	27.3442
1265.8	5.34717
1268.69	19.3713
1271.59	32.4646
1274.48	25.467
1277.37	9.63672
1280.26	23.2312
1283.15	56.9058
1286.05	90.2151
1288.94	68.5354
1291.83	53.4626
1294.73	43.5725
1297.62	57.3279
1300.51	43.1426
1303.4	74.0178
1306.3	47.5466
1309.19	61.1521
1312.08	58.1543
1314.97	34.5586
