Measurement: Raman, 785 nm, unoriented, Raman Data Processed
Mineral: Karchevskyite
Rruff sample: R070103
Ideal chemistry: [Mg_18_Al_9_(OH)_54_][Sr_2_(CO_3_,PO_4_)_9_(H_2_O,H_3_O)_11_]
Locality: Zheleznyi mine, Kovdor Massif, Kola Peninsula, Russia
Source: Michael Scott
Description: Colorless hexagonal plates, co-type material, associated with phlogopite, dolomite, pyrite, and magnetite
Raman shift (cm-1)	intensity
156.986	0
159.879	10.4736
162.772	54.656
165.665	133.191
168.557	170.504
171.45	230.186
174.343	202.76
177.235	161.582
180.128	144.329
183.021	112.731
185.913	118.317
188.806	52.6428
191.699	18.8662
194.591	5.32642
197.484	53.7693
200.377	43.1867
203.27	12.1268
206.162	31.3348
209.055	17.6736
211.948	10.2039
214.84	0.590332
217.733	53.5438
220.626	108.517
223.518	163.717
226.411	153.279
229.304	142.314
232.197	80.0933
235.089	96.8861
237.982	78.8289
240.875	81.7017
243.767	88.1179
246.66	81.2867
249.553	49.8914
252.446	27.7612
255.338	9.27612
258.231	25.9979
261.124	59.88
264.016	53.477
266.909	43.6783
269.802	31.8254
272.694	48.3955
275.587	82.5507
278.48	66.8433
281.373	101.373
284.265	94.8863
287.158	144.347
290.051	162.259
292.943	158.831
295.836	167.588
298.729	141.496
301.621	153.775
304.514	134.007
307.407	115.785
310.3	77.08
313.192	60.2262
316.085	7.75903
318.978	27.6206
321.87	10.5874
324.763	14.3873
327.656	6.72571
330.548	2.95618
333.441	31.9969
336.334	51.525
339.227	55.4791
342.119	80.1348
345.012	60.4613
347.905	82.4
350.797	112.739
353.69	109.526
356.583	126.038
359.476	140.98
362.368	155.248
365.261	168.648
368.154	116.784
371.046	88.6898
373.939	17.884
376.832	58.2758
379.724	29.95
382.617	28.0252
385.51	17.0424
388.402	14.8121
391.295	23.65
394.188	78.0381
397.081	73.7111
399.973	91.1588
402.866	93.9291
405.759	65.2271
408.651	24.3669
411.544	0.502197
414.437	3.45056
417.329	14.3185
420.222	51.9612
423.115	32.1409
426.008	46.0933
428.9	7.74207
431.793	26.2069
434.686	32.3639
437.578	49.7281
440.471	46.9612
443.364	33.9678
446.257	13.8987
449.149	35.0712
452.042	6.87659
454.935	9.95398
457.827	10.0793
460.72	11.0928
463.613	5.26392
466.505	8.6427
469.398	21.9561
472.291	81.2981
475.183	50.0147
478.076	72.0125
480.969	59.7045
483.862	75.0243
486.754	60.6735
489.647	120.824
492.54	146.114
495.432	103.407
498.325	136.658
501.218	122.221
504.111	102.005
507.003	114.626
509.896	101.171
512.789	98.3993
515.681	85.5225
518.574	56.1637
521.467	43.1515
524.359	86.8737
527.252	79.0101
530.145	115.115
533.038	189.549
535.93	268.337
538.823	407.667
541.716	619.437
544.608	898.85
547.501	1289.98
550.394	1681.85
553.286	2246.84
556.179	2650.53
559.072	2708.37
561.965	1991.34
564.857	1180.64
567.75	747.017
570.643	488.944
573.535	348.986
576.428	248.931
579.321	219.964
582.213	177.876
585.106	107.053
587.999	103.104
590.891	68.4247
593.784	76.7869
596.677	16.283
599.57	39.9896
602.462	32.5745
605.355	17.0885
608.248	21.6385
611.14	5.23218
614.033	10.3849
616.926	24.0039
619.818	1.84399
622.711	0.329102
625.604	24.8848
628.497	18.3768
631.389	44.8223
634.282	62.2227
637.175	50.4535
640.067	97.7434
642.96	76.8381
645.853	82.3644
648.745	77.4501
651.638	90.8475
654.531	96.7634
657.424	89.7948
660.316	49.2157
663.209	54.4346
666.102	32.256
668.994	44.401
671.887	47.5942
674.78	19.9089
677.673	69.8831
680.565	95.2224
683.458	113.923
686.351	146.076
689.243	209.92
692.136	216.111
695.029	275.781
697.921	299.558
700.814	227.547
703.707	203.102
706.6	127.833
709.492	119.382
712.385	106.016
715.278	76.9177
718.17	105.693
721.063	99.8517
723.956	108.606
726.848	57.9434
729.741	45.2168
732.634	75.2589
735.527	40.3517
738.419	36.1016
741.312	35.8698
744.205	29.3069
747.097	13.1572
749.99	6.18127
752.883	16.0327
755.775	12.4049
758.668	4.52844
761.561	4.94434
764.454	10.4813
767.346	38.1493
770.239	37.5166
773.132	21.0131
776.024	47.9707
778.917	64.8308
781.81	60.1007
784.702	79.0767
787.595	128.441
790.488	102.678
793.381	127.361
796.273	97.2733
799.166	119.254
802.059	71.7064
804.951	89.995
807.844	64.6788
810.737	56.2062
813.63	30.2634
816.522	58.5245
819.415	36.8971
822.308	51.4955
825.2	34.8036
828.093	41.6191
830.986	33.0978
833.878	23.0067
836.771	38.1679
839.664	56.6503
842.557	89.2256
845.449	92.1294
848.342	78.7763
851.235	98.42
854.127	134.18
857.02	102.562
859.913	96.1201
862.805	92.4869
865.698	134.757
868.591	100.395
871.484	116.866
874.376	68.4617
877.269	32.9199
880.162	60.0765
883.054	66.4039
885.947	30.8353
888.84	19.7843
891.732	13.3861
894.625	19.3502
897.518	1.63916
900.41	10.3722
903.303	18.0255
906.196	4.83374
909.089	35.3662
911.981	2.54907
914.874	22.1371
917.767	84.8905
920.659	65.3235
923.552	65.2299
926.445	71.1459
929.337	86.8424
932.23	91.5798
935.123	85.6042
938.016	102.714
940.908	126.257
943.801	103.746
946.694	80.1238
949.586	116.409
952.479	72.6909
955.372	53.1446
958.264	68.7172
961.157	51.8785
964.05	16.2821
966.943	1.64417
969.835	36.0279
972.728	24.5608
975.621	23.8153
978.513	3.64526
981.406	36.1985
984.299	34.4487
987.192	54.6315
990.084	34.1803
992.977	44.0852
995.87	27.1935
998.762	31.9347
1001.65	36.3029
1004.55	60.3643
1007.44	78.3852
1010.33	74.9386
1013.23	79.161
1016.12	84.7271
1019.01	112.847
1021.9	94.9762
1024.8	140.83
1027.69	153.463
1030.58	212.358
1033.47	231.131
1036.37	284.131
1039.26	325.395
1042.15	381.661
1045.05	442.694
1047.94	580.047
1050.83	815.648
1053.72	1159.21
1056.62	1645.57
1059.51	2180.74
1062.4	2404.78
1065.29	1941.81
1068.19	1032.21
1071.08	473.62
1073.97	202.855
1076.87	102.044
1079.76	66.3321
1082.65	30.0314
1085.54	41.1
1088.44	5.07727
1091.33	14.7048
1094.22	2.94678
1097.11	0.874146
1100.01	8.49731
1102.9	2.59265
1105.79	4.72034
1108.68	8.88513
1111.58	8.74365
1114.47	2.46191
1117.36	24.0499
1120.26	58.6043
1123.15	37.365
1126.04	50.7306
1128.93	75.448
1131.83	92.876
1134.72	97.7177
1137.61	125.115
1140.51	109.038
1143.4	163.295
1146.29	167.088
1149.18	152.383
1152.08	128.516
1154.97	102.546
1157.86	116.293
1160.75	90.2788
1163.65	102.865
1166.54	55.0984
1169.43	5.48242
1172.32	34.9663
1175.22	22.3406
1178.11	2.3971
1181	9.51428
1183.89	4.02893
1186.79	3.40747
1189.68	0.742676
1192.57	36.2887
1195.47	17.4789
1198.36	59.2518
1201.25	23.4364
1204.14	9.61438
1207.04	2.229
1209.93	17.368
1212.82	20.8396
1215.71	2.0846
