Measurement: Raman, 785 nm, unoriented, Raman Data Processed
Mineral: Karibibite
Rruff sample: R060307
Ideal chemistry: Fe^3+^_2_As^3+^_4_O_9_
Locality: Urucum, Municipio de Galilea, Minas Gerais, Brazil
Source: Michael Scott
Description: Yellowish-brown acicular crystals lining cavities
Raman shift (cm-1)	intensity
91.637	0
95.012	222.625
98.386	713.478
101.761	1191.39
105.136	1448.02
108.511	2681.95
111.886	1916.54
115.26	1048
118.635	56.738
122.01	880.592
125.385	793.188
128.76	3447.66
132.135	4750.49
135.509	4494.23
138.884	3834.47
142.259	5076.61
145.634	10226.8
149.009	14670
152.383	12390.6
155.758	10700.3
159.133	9619.55
162.508	10023.4
165.883	11060.7
169.258	12286.4
172.632	14945.8
176.007	18629.5
179.382	24107.3
182.757	28624.4
186.132	18380.5
189.506	11907.8
192.881	10722.4
196.256	12665.9
199.631	15648.5
203.006	14996.3
206.38	8113.51
209.755	5814.71
213.13	7030.44
216.505	11138.2
219.88	17134.3
223.255	19031.5
226.629	23012.8
230.004	15778.5
233.379	9023.6
236.754	4336.17
240.129	2700.54
243.503	3196.77
246.878	3945.03
250.253	5016.19
253.628	3704.09
257.003	1274.2
260.378	498.938
263.752	517.6
267.127	828.877
270.502	1143.69
273.877	1911.23
277.252	3297.78
280.626	4311.63
284.001	2959.28
287.376	997.336
290.751	296.566
294.126	98.535
297.5	558.09
300.875	431.889
304.25	154.418
307.625	76.41
311	6.844
314.375	427.27
317.749	124.449
321.124	413.891
324.499	943.367
327.874	1121.2
331.249	929.969
334.623	938.426
337.998	1050.05
341.373	1493.63
344.748	2916.16
348.123	5598.14
351.497	9134.14
354.872	10337.4
358.247	6703.26
361.622	2920.06
364.997	1433.93
368.372	1058.39
371.746	389.109
375.121	53.18
378.496	132.199
381.871	156.895
385.246	571.59
388.621	1586.93
391.995	3345.35
395.37	5205.41
398.745	6358.99
402.12	6146.62
405.495	4926.59
408.869	2922.02
412.244	1831.6
415.619	822.266
418.994	882.281
422.369	1010.57
425.743	1453.95
429.118	2005.37
432.493	2570.05
435.868	3012.58
439.243	3237.84
442.618	3287.98
445.992	3516.69
449.367	3363.2
452.742	3168.63
456.117	2668.99
459.492	2384.76
462.866	1707.56
466.241	1450.4
469.616	1331.27
472.991	1702.66
476.366	2507.52
479.741	4034.77
483.115	4689.74
486.49	3510.98
489.865	1982.24
493.24	726.219
496.615	287.484
499.989	50.801
503.364	137.297
506.739	106.344
510.114	143.43
513.489	517.289
516.864	943.809
520.238	1300.66
523.613	1422.77
526.988	1287.11
530.363	999.021
533.737	989.797
537.112	1092.46
540.487	1670.07
543.862	1589.62
547.237	1283.29
550.612	666.727
553.987	281.881
557.361	153.215
560.736	215.502
564.111	57.23
567.486	22.76
570.86	213.76
574.235	2.193
577.61	125.104
580.985	396.574
584.36	759.242
587.735	1101.9
591.109	1176.74
594.484	1075.65
597.859	686.66
601.234	513.947
604.609	459.229
607.984	371.57
611.358	479.883
614.733	721.166
618.108	935.135
621.483	1200.12
624.858	1148.23
628.232	884.607
631.607	630.979
634.982	418.084
638.357	267.693
641.732	325.846
645.107	166.119
648.481	159.648
651.856	7.199
655.231	234.641
658.606	207.086
661.981	96.76
665.355	40.072
668.73	21.635
672.105	99.6
675.48	50.939
678.855	51.598
682.229	131.779
685.604	144.594
688.979	99.775
692.354	12.279
695.729	131.209
699.104	332.064
702.478	265.189
705.853	231.988
709.228	188.055
712.603	356.002
715.978	555.35
719.352	767.32
722.727	622.062
726.102	625.547
729.477	717.705
732.852	780.57
736.227	998.951
739.601	1395.85
742.976	1857.07
746.351	2112.66
749.726	2168.48
753.101	2095.88
756.475	1374.7
759.85	839.668
763.225	647.648
766.6	216.848
769.975	182.043
773.349	196.363
776.724	74.924
780.099	162.555
783.474	96.277
786.849	67.541
790.224	96.553
793.598	133.281
796.973	101.074
800.348	46.494
803.723	118.689
807.098	80.906
810.472	162.959
813.847	341.508
817.222	532.348
820.597	494.594
823.972	332.236
827.347	275.836
830.721	125.965
834.096	37.49
837.471	143.414
840.846	72.934
844.221	46.078
847.595	43.818
850.97	127.764
854.345	115.111
857.72	52.303
861.095	43.109
864.469	112.98
867.844	9.705
871.219	63.688
874.594	55.592
877.969	221.24
881.344	219.428
884.718	284.559
888.093	117.359
891.468	31.883
894.843	67.453
898.218	57.482
901.593	29.422
904.967	167.975
908.342	135.389
911.717	278.719
915.092	210.086
918.467	153.166
921.841	164.814
925.216	117.268
928.591	130.094
931.966	209.223
935.341	258.193
938.716	195.346
942.09	144.082
945.465	29.922
948.84	208.461
952.215	145.229
955.589	321.914
958.964	142.107
962.339	256.639
965.714	135.043
969.089	76.092
972.464	131.094
975.838	115.414
979.213	235.441
982.588	165.814
985.963	200.193
989.338	168.986
992.713	61.965
996.087	84.748
999.462	122.709
1002.84	193.488
1006.21	246.188
1009.59	312.893
1012.96	75.402
1016.34	413.916
1019.71	281.891
1023.09	198.162
1026.46	30.564
1029.84	54.232
1033.21	109.686
1036.59	147.912
1039.96	104.494
1043.34	198.775
1046.71	111.193
1050.08	119.754
1053.46	100.445
1056.83	197.869
1060.21	158.902
1063.58	92.93
1066.96	24.559
1070.33	49.326
1073.71	123.746
1077.08	140.082
1080.46	36.84
1083.83	111.641
1087.21	204.578
1090.58	60.562
1093.96	133.268
1097.33	215.65
1100.71	67.789
1104.08	92.797
1107.46	131.432
1110.83	130.344
1114.21	61.396
1117.58	65.814
1120.95	61.76
1124.33	130.736
1127.7	90.238
1131.08	110.416
1134.45	5.361
1137.83	40.615
1141.2	6.557
1144.58	139.305
1147.95	116.246
1151.33	136.529
1154.7	59.781
1158.08	78.268
1161.45	21.889
1164.83	100.896
1168.2	138.352
1171.58	83.768
1174.95	141.066
1178.33	82.244
1181.7	3.254
1185.08	60.129
1188.45	155.363
1191.83	175.018
1195.2	260.473
1198.58	141.107
1201.95	45.834
1205.33	175.037
1208.7	48.553
1212.08	27.707
1215.45	130.6
1218.83	231.828
1222.2	288.842
1225.58	233.539
1228.95	164.703
1232.32	45.229
1235.7	103.367
1239.07	160.877
1242.45	206.307
1245.82	238.484
1249.2	124.773
1252.57	123.582
1255.95	3.072
1259.32	132.227
1262.7	194.902
1266.07	244.006
1269.45	162.455
1272.82	37.219
