Measurement: Raman, 785 nm, unoriented, Raman Data Processed
Mineral: Karibibite
Rruff sample: R060380
Ideal chemistry: Fe^3+^_2_As^3+^_4_O_9_
Locality: Tsumeb mine, Tsumeb, Otavi District, Oshikoto, Namibia
Source: Michael Scott
Description: Matted coating of orange-yellow thin hairs
Raman shift (cm-1)	intensity
90.672	0
93.565	13.555
96.457	71.012
99.35	138.619
102.243	127.535
105.135	192.8
108.028	319.439
110.921	235.714
113.813	163.109
116.706	64.978
119.599	59.978
122.492	114.974
125.384	101.37
128.277	439.794
131.17	609.132
134.062	728.952
136.955	681.339
139.848	586.422
142.74	926.534
145.633	1590.92
148.526	1772.15
151.419	1533.15
154.311	1304.39
157.204	1125.56
160.097	1136.96
162.989	1235.89
165.882	1471.33
168.775	1905.38
171.667	2483.82
174.56	3084.05
177.453	3521.88
180.346	3671.68
183.238	2790.17
186.131	1950.91
189.024	1738.67
191.916	1787.95
194.809	2100.88
197.702	2516.04
200.594	2410.34
203.487	1806.44
206.38	1378.22
209.273	1417.14
212.165	1866.89
215.058	2432.49
217.951	2861.65
220.843	2871.9
223.736	3404.32
226.629	3642.68
229.521	2465.64
232.414	1615.79
235.307	918.486
238.2	529.676
241.092	462.79
243.985	544.362
246.878	663.264
249.77	611.706
252.663	384.228
255.556	144.238
258.448	24.321
261.341	39.191
264.234	95.993
267.127	179.681
270.019	257.786
272.912	413.079
275.805	571.093
278.697	557.816
281.59	382.152
284.483	179.945
287.375	112.369
290.268	34.767
293.161	13.518
296.054	51.675
298.946	58.55
301.839	49.052
304.732	40.817
307.624	48.295
310.517	21.678
313.41	28.643
316.302	18.694
319.195	49.667
322.088	83.592
324.981	131.452
327.873	183.417
330.766	206.445
333.659	282.594
336.551	325.249
339.444	456.457
342.337	661.978
345.23	895.256
348.122	1172.55
351.015	1269.26
353.908	1193.47
356.8	858.783
359.693	481.979
362.586	295.5
365.478	138.752
368.371	29.553
371.264	0.583
374.157	0.734
377.049	16.045
379.942	36.74
382.835	143.045
385.727	264.988
388.62	397.864
391.513	609.111
394.405	720.417
397.298	865.849
400.191	932.242
403.084	728.048
405.976	442.724
408.869	283.713
411.762	142.15
414.654	78.468
417.547	90.93
420.44	132.361
423.332	198.773
426.225	265.452
429.118	325.409
432.011	356.867
434.903	362.11
437.796	379.102
440.689	387.029
443.581	428.121
446.474	409.28
449.367	405.179
452.259	403.953
455.152	354.983
458.045	366.664
460.938	348.735
463.83	299.707
466.723	307.617
469.616	327.373
472.508	402.203
475.401	486.325
478.294	554.438
481.186	547.978
484.079	444.899
486.972	312.271
489.865	179.818
492.757	59.771
495.65	50.14
498.543	28.374
501.435	0.6
504.328	8.372
507.221	14.226
510.113	126.135
513.006	73.396
515.899	193.056
518.792	157.229
521.684	206.634
524.577	187.605
527.47	127.052
530.362	136.224
533.255	170.275
536.148	147.208
539.041	179.112
541.933	173.332
544.826	138.554
547.719	85.269
550.611	21.851
553.504	18.483
556.397	17.522
559.289	6.436
562.182	2.287
565.075	7.766
567.968	18.73
570.86	17.673
573.753	40.045
576.646	52.245
579.538	89.308
582.431	184.47
585.324	207.944
588.216	226.99
591.109	208.294
594.002	200.076
596.894	167.956
599.787	147.479
602.68	117.61
605.573	161.608
608.465	157.692
611.358	175.439
614.251	187.693
617.143	211.825
620.036	211.116
622.929	190.204
625.821	148.658
628.714	125.386
631.607	149.351
634.5	96.215
637.392	98.481
640.285	89.882
643.178	55.438
646.07	40.017
648.963	37.369
651.856	16.284
654.748	38.776
657.641	2.745
660.534	18.028
663.427	8.979
666.319	1.918
669.212	2.238
672.105	22.458
674.997	23.755
677.89	80.659
680.783	31.924
683.675	62.759
686.568	33.825
689.461	34.562
692.354	28.339
695.246	59.024
698.139	84.378
701.032	80.381
703.924	48.532
706.817	95.135
709.71	43.464
712.602	74.018
715.495	81.019
718.388	96.828
721.281	95.067
724.173	93.922
727.066	121.997
729.959	97.653
732.851	97.375
735.744	149.386
738.637	228.701
741.529	249.301
744.422	247.488
747.315	235.655
750.208	199.35
753.1	140.706
755.993	105.434
758.886	58.166
761.778	2.9
764.671	26.479
767.564	24.375
770.456	6.494
773.349	33.756
776.242	4.25
779.135	12.331
782.027	44.135
784.92	5.886
787.813	42.628
790.705	19.519
793.598	14.844
796.491	18.096
799.383	6.689
802.276	17.177
805.169	11.338
808.062	8.14
810.954	30.069
813.847	54.559
816.74	42.266
819.632	33.585
822.525	27.018
825.418	37.821
828.31	20.127
831.203	34.277
834.096	32.228
836.989	62.126
839.881	29.525
842.774	35.964
845.667	42.886
848.559	64.534
851.452	86.977
854.345	85.6
857.237	95.441
860.13	108.516
863.023	107.68
865.916	29.62
868.808	81.739
871.701	80.379
874.594	85.854
877.487	66.785
880.379	87.31
883.272	82.112
886.165	118.059
889.057	61.357
891.95	74.202
894.843	64.419
897.735	89.857
900.628	49.324
903.521	75.874
906.414	68.591
909.306	37.319
912.199	70.928
915.092	44.93
917.984	10.662
920.877	57.237
923.77	24.102
926.662	33.534
929.555	22.891
932.448	64.524
935.341	63.46
938.233	9.355
941.126	21.125
944.019	23.691
946.911	21.26
949.804	10.704
952.697	27.003
955.589	41.873
958.482	41.141
961.375	48.43
964.268	18.012
967.16	10.476
970.053	10.331
972.946	22.481
975.838	53.478
978.731	65.565
981.624	10.622
984.516	28.92
987.409	7.314
990.302	34.947
993.195	60.637
996.087	17.2
998.98	31.609
1001.87	40.291
1004.76	54.236
1007.66	59.797
1010.55	94.024
1013.44	40.623
1016.34	31.69
1019.23	47.023
1022.12	66.063
1025.01	54.59
1027.91	4.233
1030.8	41.614
1033.69	54.748
1036.59	41.234
1039.48	50.077
1042.37	33.514
1045.26	48.594
1048.16	2.183
1051.05	20.359
1053.94	53.803
1056.83	14.87
1059.73	13.894
1062.62	56.291
1065.51	14.503
1068.4	41.616
1071.3	7.207
1074.19	35.439
1077.08	5.853
1079.98	23.247
1082.87	14.058
1085.76	9.89
1088.65	14.496
1091.55	9.58
1094.44	16.806
1097.33	44.811
1100.22	57.28
1103.12	22.578
1106.01	40.484
1108.9	14.767
1111.8	36.015
1114.69	45.696
1117.58	53.357
1120.47	19.661
1123.37	44.588
1126.26	54.513
1129.15	44.361
1132.04	75.611
1134.94	1.99
1137.83	29.023
1140.72	32.336
1143.62	65.422
1146.51	0.942
1149.4	19.884
1152.29	0.042
