Measurement: Raman, 780 nm, unoriented, Raman Data Processed
Mineral: Kasolite
Rruff sample: R060479
Ideal chemistry: Pb(UO_2_)SiO_4_H_2_O
Locality: Musonoi Extension, Shaba Province, Zaire
Source: Michael Scott
Description: Yellowish-orange prismatic single crystals
Raman shift (cm-1)	intensity
132.583	0
135.476	0.333511
138.369	1.2968
141.262	10.4695
144.154	23.3787
147.047	40.843
149.94	53.7176
152.832	67.335
155.725	80.8231
158.618	97.8016
161.51	110.323
164.403	119.958
167.296	107.79
170.189	84.8538
173.081	64.2102
175.974	50.8489
178.867	41.6782
181.759	38.705
184.652	35.9982
187.545	36.3735
190.437	33.5092
193.33	35.5413
196.223	37.4109
199.115	37.3856
202.008	39.8142
204.901	45.4045
207.794	50.7356
210.686	57.2559
213.579	62.0046
216.472	67.7015
219.364	78.7653
222.257	89.8101
225.15	100.231
228.042	107.825
230.935	108.181
233.828	101.215
236.721	80.2759
239.613	55.475
242.506	37.0818
245.399	23.311
248.291	13.2401
251.184	6.03281
254.077	0.349823
256.969	2.31876
259.862	4.32146
262.755	3.68039
265.648	0.395874
268.54	4.99383
271.433	10.1296
274.326	19.3249
277.218	29.1683
280.111	37.9899
283.004	47.2418
285.897	45.7525
288.789	39.1786
291.682	29.2059
294.575	19.6333
297.467	13.7069
300.36	9.09702
303.253	6.68831
306.145	6.55307
309.038	9.05647
311.931	8.81265
314.824	12.1455
317.716	14.6255
320.609	13.4441
323.502	8.14255
326.394	4.70049
329.287	2.5653
332.18	0.17144
335.072	1.59542
337.965	2.94788
340.858	3.53835
343.75	5.14257
346.643	5.90304
349.536	5.44567
352.429	6.03513
355.321	3.27743
358.214	3.77084
361.107	3.56917
364	0.853271
366.892	0.36795
369.785	0.263634
372.678	0.628181
375.57	0.476974
378.463	2.13296
381.356	3.05611
384.248	5.63126
387.141	8.14787
390.034	11.7063
392.926	15.6368
395.819	20.6634
398.712	26.9373
401.605	32.218
404.497	39.7424
407.39	46.905
410.283	53.9988
413.175	57.8662
416.068	58.8449
418.961	53.1466
421.853	44.8616
424.746	32.8061
427.639	23.0585
430.532	16.4258
433.424	11.0848
436.317	9.5686
439.21	3.68612
442.102	1.81656
444.995	0.594849
447.888	0.311386
450.781	0.094444
453.673	0.538063
456.566	1.05872
459.459	0.467384
462.351	1.33166
465.244	0.004868
468.137	0.729263
471.029	0.068588
473.922	0.497269
476.815	0.592377
479.707	2.7905
482.6	5.60278
485.493	8.6161
488.386	13.1149
491.278	15.865
494.171	18.5158
497.064	22.3145
499.956	21.7051
502.849	22.2472
505.742	18.592
508.635	17.4916
511.527	15.378
514.42	14.3927
517.313	13.9877
520.205	12.7079
523.098	14.2119
525.991	14.345
528.883	15.4403
531.776	15.3084
534.669	17.4967
537.562	20.8154
540.454	22.3375
543.347	24.6687
546.24	27.9128
549.132	31.2365
552.025	31.8435
554.918	28.6176
557.81	25.1595
560.703	20.706
563.596	17.1295
566.489	16.5038
569.381	16.7516
572.274	17.1213
575.167	15.0625
578.059	14.1923
580.952	13.1075
583.845	10.2164
586.737	7.68194
589.63	6.23023
592.523	5.30486
595.415	5.2304
598.308	4.68419
601.201	4.98406
604.094	5.19963
606.986	5.77843
609.879	4.57596
612.772	5.97374
615.664	6.51694
618.557	6.59536
621.45	6.96238
624.342	6.32356
627.235	5.12242
630.128	5.94827
633.021	3.65146
635.913	3.28746
638.806	3.88118
641.699	2.44323
644.591	2.19059
647.484	1.02082
650.377	0.561508
653.269	0.605644
656.162	0.059494
659.055	1.50754
661.948	1.18725
664.84	2.32504
667.733	1.98278
670.626	2.68068
673.518	2.83045
676.411	2.09311
679.304	1.29996
682.197	0.974854
685.089	0.454826
687.982	0.227192
690.875	1.31523
693.767	3.09531
696.66	4.65981
699.553	7.76033
702.445	10.4809
705.338	13.8189
708.231	18.5719
711.124	23.4328
714.016	30.5201
716.909	38.1838
719.802	46.9625
722.694	60.2633
725.587	75.5093
728.48	95.3037
731.372	121.9
734.265	157.431
737.158	201.375
740.051	262.147
742.943	348.973
745.836	465.505
748.729	612.137
751.621	788.512
754.514	991.622
757.407	1186.44
760.299	1268.1
763.192	1163.12
766.085	941.396
768.977	717.578
771.87	537.516
774.763	397.764
777.656	301.176
780.548	233.794
783.441	185.323
786.334	158.03
789.226	143.223
792.119	137.272
795.012	127.398
797.904	108.081
800.797	87.9524
803.69	68.7021
806.583	55.2039
809.475	44.8394
812.368	35.6679
815.261	29.126
818.153	23.2439
821.046	18.0408
823.939	15.9399
826.832	11.0749
829.724	7.38822
832.617	5.25757
835.51	0.585487
838.402	3.12419
841.295	4.37354
844.188	4.88194
847.08	4.42431
849.973	3.64233
852.866	2.3154
855.759	0.544022
858.651	4.67358
861.544	7.61966
864.437	14.7007
867.329	21.8849
870.222	29.6011
873.115	38.8659
876.007	46.6959
878.9	53.3079
881.793	62.3321
884.686	79.9191
887.578	105.365
890.471	138.022
893.364	180.754
896.256	226.859
899.149	275.892
902.042	303.895
904.934	299.061
907.827	257.112
910.72	202.684
913.612	154.705
916.505	120.621
919.398	99.0525
922.291	85.0446
925.183	78.7614
928.076	74.9576
930.969	74.0066
933.861	76.2861
936.754	75.9757
939.647	70.2428
942.539	62.3338
945.432	48.578
948.325	35.5395
951.218	26.8198
954.11	18.6816
957.003	13.8944
959.896	10.037
962.788	7.37532
965.681	4.71932
968.574	3.13215
971.466	2.40014
974.359	0.889202
977.252	0.26265
980.145	0.027672
983.037	0.281298
985.93	0.04509
988.823	0.767944
991.715	0.058565
994.608	0.809807
997.501	0.01767
1000.39	0.472559
1003.29	1.0002
1006.18	0.411373
1009.07	0.261824
1011.96	0.127062
1014.86	0.818123
1017.75	0.395119
1020.64	1.37396
1023.53	0.864742
1026.43	1.52605
1029.32	1.66805
1032.21	1.61838
1035.11	2.377
1038	1.09238
1040.89	1.87079
1043.78	2.32842
1046.68	2.27977
1049.57	0.66095
1052.46	1.62851
1055.36	2.16533
1058.25	1.61459
1061.14	1.58916
1064.03	1.73796
1066.93	1.79068
1069.82	0.62921
1072.71	1.61836
1075.6	1.19761
1078.5	1.27595
1081.39	0.876107
1084.28	1.73893
1087.17	1.4474
1090.07	1.1467
1092.96	0.716818
1095.85	1.20266
1098.74	1.56966
1101.64	1.24015
1104.53	1.06535
1107.42	0.149275
1110.32	0.785428
1113.21	0.934278
1116.1	0.200435
1118.99	1.01129
1121.89	0.603115
1124.78	0.126992
1127.67	0.713624
1130.57	0.357572
1133.46	0.817728
1136.35	0.121464
1139.24	0.052178
1142.14	0.804561
1145.03	0.392857
1147.92	0.689666
1150.81	0.615151
1153.71	0.39537
1156.6	0.700458
1159.49	0.600471
1162.38	0.468134
1165.28	0.345119
1168.17	1.22536
1171.06	0.110657
1173.96	1.05679
1176.85	0.816603
1179.74	0.905931
1182.63	1.2064
1185.53	1.0937
1188.42	0.898907
1191.31	0.549111
1194.2	0.453619
1197.1	0.588449
1199.99	1.22436
1202.88	1.11423
1205.78	0.653913
1208.67	1.45859
1211.56	0.633304
1214.45	1.46123
1217.35	0.988796
1220.24	0.182139
1223.13	0.889103
1226.02	1.17097
1228.92	1.37167
1231.81	1.27738
1234.7	1.03856
1237.6	0.823187
1240.49	0.630298
1243.38	1.33941
1246.27	0.229577
1249.17	1.25411
1252.06	1.02983
1254.95	0.225882
1257.84	1.66911
1260.74	0.963739
1263.63	0.94905
1266.52	0.163998
1269.41	1.13254
1272.31	1.37148
1275.2	1.36182
1278.09	0.024916
1280.98	0.747724
1283.88	0.374374
