Measurement: Raman, 532 nm, unoriented, Raman Data Processed
Mineral: Kasolite
Rruff sample: R070155
Ideal chemistry: Pb(UO_2_)SiO_4_H_2_O
Locality: Katherine District, Northern Territory, Australia
Source: James Shigley
Description: Radiating thin yellow laths
Raman shift (cm-1)	intensity
163.681	0
166.574	62.8076
169.466	10.207
172.359	176.343
175.252	283.327
178.144	590.598
181.037	715.092
183.93	854.709
186.823	873.769
189.715	808.127
192.608	703.634
195.501	628.273
198.393	604.487
201.286	648.855
204.179	581.648
207.071	629.717
209.964	672.451
212.857	932.013
215.75	1244.26
218.642	1669.63
221.535	2013.37
224.428	2431.26
227.32	2577.5
230.213	2540.74
233.106	2261.44
235.999	1733.72
238.891	1311.43
241.784	926.307
244.677	640.273
247.569	356.054
250.462	158.898
253.355	28.0342
256.247	30.3145
259.14	6.95996
262.033	51.1777
264.925	77.9434
267.818	46.7178
270.711	81.5703
273.604	239.973
276.496	366.294
279.389	447.566
282.282	556.835
285.174	620.247
288.067	655.901
290.96	708.597
293.853	702.398
296.745	690.418
299.638	681.532
302.531	638.858
305.423	620.906
308.316	566.949
311.209	422.351
314.101	343.657
316.994	249.259
319.887	176.969
322.779	68.1309
325.672	62.6128
328.565	21.4131
331.458	52.0855
334.35	40.2617
337.243	21.374
340.136	46.7324
343.028	122.685
345.921	198.464
348.814	211.539
351.707	262.599
354.599	292.769
357.492	349.816
360.385	296.266
363.277	217.293
366.17	120.304
369.063	115.168
371.955	78.2134
374.848	84.8701
377.741	91.1773
380.634	163.278
383.526	229.501
386.419	269.804
389.312	295.761
392.204	395.631
395.097	445.379
397.99	482.552
400.882	557.282
403.775	637.213
406.668	727.719
409.561	784.308
412.453	699.169
415.346	710.209
418.239	649.12
421.131	535.907
424.024	407.922
426.917	287.425
429.81	144.153
432.702	134.081
435.595	95.1611
438.488	19.8564
441.38	31.0479
444.273	23.7886
447.166	21.1763
450.058	33.0234
452.951	15.2158
455.844	30.1753
458.736	24.7861
461.629	89.4448
464.522	43.6938
467.415	106.399
470.307	107.881
473.2	177.66
476.093	164.404
478.985	233.957
481.878	333.631
484.771	306.485
487.663	360.698
490.556	353.812
493.449	318.598
496.342	336.881
499.234	248.321
502.127	258.289
505.02	292.503
507.912	228.714
510.805	224.552
513.698	315.048
516.591	256.521
519.483	235.838
522.376	238.792
525.269	244.572
528.161	268.752
531.054	203.697
533.947	249.385
536.84	258.602
539.732	257.667
542.625	300.938
545.518	294.477
548.41	360.425
551.303	290.337
554.196	314.836
557.088	204.994
559.981	222.981
562.874	204.869
565.766	276.773
568.659	284.668
571.552	282.858
574.445	269.316
577.337	194.998
580.23	245.097
583.123	226.639
586.015	143.536
588.908	61.0215
591.801	93.7773
594.693	88.0606
597.586	40.209
600.479	2.66992
603.372	48.3906
606.264	62.1348
609.157	33.4932
612.05	2.33398
614.942	54.5586
617.835	60.918
620.728	70.8438
623.62	66.8975
626.513	140.725
629.406	152.109
632.299	114.713
635.191	191.746
638.084	105.239
640.977	75.5635
643.869	53.4023
646.762	35.3887
649.655	80.1611
652.548	22.2695
655.44	41.8545
658.333	13.1924
661.226	23.2529
664.118	21.1064
667.011	1.09375
669.904	21.9209
672.796	37.6963
675.689	0.741211
678.582	85.0566
681.475	98.084
684.367	103.734
687.26	98.5869
690.153	50.2861
693.045	13.2685
695.938	94.7471
698.831	199.126
701.723	242.225
704.616	398.514
707.509	530.455
710.402	761.936
713.294	1005.76
716.187	1373.96
719.08	1706.15
721.972	2222.31
724.865	2832.61
727.758	3576.87
730.65	4496.59
733.543	5715.48
736.436	7283.02
739.329	9335.3
742.221	11787.5
745.114	15037.6
748.007	18776.7
750.899	23217.5
753.792	27193.5
756.685	30590.2
759.577	32288.5
762.47	32064.4
765.363	29618.9
768.256	26134.9
771.148	21842.2
774.041	17702.6
776.934	14107.5
779.826	11115.3
782.719	8991.54
785.612	7249.4
788.505	6024.26
791.397	5088.94
794.29	4207.15
797.183	3509.8
800.075	2825.67
802.968	2160.25
805.861	1716.76
808.753	1389.69
811.646	1174.12
814.539	999.161
817.432	736.889
820.324	591.699
823.217	493.235
826.11	370.182
829.002	195.166
831.895	11.7744
834.788	29.0723
837.68	43.1738
840.573	185.788
843.466	117.243
846.359	77.3281
849.251	150.203
852.144	3.7207
855.037	38.9424
857.929	51.2031
860.822	233.043
863.715	385.309
866.607	444.573
869.5	559.085
872.393	660.849
875.285	833.715
878.178	930.358
881.071	1154.25
883.964	1634.16
886.856	1926.74
889.749	2302.84
892.642	2783.11
895.534	3153.54
898.427	3340.96
901.32	3376.51
904.212	3208.56
907.105	2939.81
909.998	2715.65
912.891	2455.19
915.783	2197.77
918.676	2105.05
921.569	1989.25
924.462	2147.33
927.354	2218.34
930.247	2217.28
933.14	2296.6
936.032	2212.74
938.925	2041.14
941.818	1757.21
944.71	1483.23
947.603	1147.89
950.496	925.674
953.389	711.128
956.281	564.568
959.174	407.743
962.067	256.575
964.959	307.465
967.852	229.096
970.745	140.426
973.637	67.7773
976.53	52.9072
979.423	43.6182
982.316	2.24512
985.208	55.2383
988.101	40.957
990.994	17.127
993.886	33.1826
996.779	26.7334
999.672	26.0928
1002.56	43.0361
1005.46	28.6064
1008.35	9.82031
1011.24	25.5977
1014.13	8.86719
1017.03	47.7148
1019.92	18.6338
1022.81	39.3418
1025.71	82.5928
1028.6	30.5938
1031.49	15.5234
1034.38	48.5625
1037.28	98.6953
1040.17	118.656
1043.06	83.4551
1045.95	130.794
1048.85	143.977
1051.74	139.174
1054.63	79.917
1057.53	128.106
1060.42	43.6572
1063.31	111.212
1066.2	128.822
1069.1	92.7598
1071.99	73.0478
1074.88	203.575
1077.78	82.4228
1080.67	58.5215
1083.56	105.394
1086.45	62.4629
1089.35	82.4394
1092.24	146.713
1095.13	99.2373
1098.02	93.749
1100.92	108.481
1103.81	12.502
1106.7	87.8213
1109.59	125.429
1112.49	7.45215
1115.38	54.4053
1118.27	51.6768
1121.16	21.1816
1124.06	42.833
1126.95	60.3955
1129.84	96.3223
1132.74	78.0566
1135.63	0.010742
1138.52	110.602
1141.41	82.9062
1144.31	89.3467
1147.2	61.835
1150.09	79.3916
1152.98	106.543
1155.88	46.2744
1158.77	86.9316
1161.66	127.995
1164.56	154.789
1167.45	110.243
1170.34	78.8662
1173.23	108.997
1176.13	94.0537
1179.02	68.4394
1181.91	112.398
1184.81	38.2119
1187.7	167.772
1190.59	44.1113
1193.48	185.837
1196.38	76.8184
1199.27	72.7656
1202.16	57.581
1205.05	121.893
1207.95	54.2236
1210.84	84.9824
1213.73	29.708
1216.62	29.5264
1219.52	36.3965
1222.41	75.6894
1225.3	67.3623
1228.19	163.526
1231.09	15.8125
1233.98	65.1416
1236.87	100.96
1239.77	120.385
1242.66	70.3291
1245.55	97.6074
1248.44	25.5039
1251.34	104.487
1254.23	133.554
1257.12	46.5566
1260.02	16.4297
1262.91	89.6768
1265.8	156.392
1268.69	17.5098
1271.59	26.4834
1274.48	169.73
1277.37	83.6201
1280.26	68.0557
1283.16	98.5
1286.05	44.2295
1288.94	96.5986
1291.84	2.78418
1294.73	65.792
1297.62	65.6602
