Measurement: Raman, 532 nm, unoriented, Raman Data Processed
Mineral: Kasolite
Rruff sample: R060479
Ideal chemistry: Pb(UO_2_)SiO_4_H_2_O
Locality: Musonoi Extension, Shaba Province, Zaire
Source: Michael Scott
Description: Yellowish-orange prismatic single crystals
Raman shift (cm-1)	intensity
199.451	0
202.343	0.136871
205.236	6.8317
208.129	16.9742
211.021	31.7021
213.914	42.5253
216.807	55.1032
219.699	69.3903
222.592	85.6659
225.485	95.8261
228.377	100.356
231.27	100.418
234.163	92.0105
237.056	77.7289
239.948	59.583
242.841	44.1682
245.734	36.4537
248.626	28.4019
251.519	24.0128
254.412	17.7488
257.305	13.499
260.197	10.8822
263.09	9.73996
265.983	10.4793
268.875	16.9671
271.768	22.7551
274.661	32.2291
277.553	40.1893
280.446	46.1062
283.339	47.9425
286.232	42.4211
289.124	32.6965
292.017	19.1451
294.91	9.27712
297.802	3.73805
300.695	0.628616
303.588	1.15657
306.481	1.13264
309.373	2.26498
312.266	0.620392
315.159	1.73761
318.051	3.74457
320.944	6.04378
323.837	6.65111
326.729	8.05969
329.622	8.51794
332.515	10.6816
335.408	13.2458
338.3	15.7623
341.193	16.3278
344.086	18.3742
346.978	17.6283
349.871	15.631
352.764	15.037
355.656	14.2329
358.549	10.6331
361.442	7.11887
364.334	4.59689
367.227	0.185425
370.12	1.72343
373.012	0.192841
375.905	3.02258
378.798	0.689117
381.691	0.184509
384.583	1.35104
387.476	4.50468
390.369	9.09407
393.261	10.5054
396.154	15.2662
399.047	20.6738
401.94	27.051
404.832	36.0988
407.725	43.4741
410.618	51.3017
413.51	57.7786
416.403	57.8792
419.296	52.802
422.188	45.6905
425.081	35.9307
427.974	27.4652
430.866	21.9686
433.759	15.6154
436.652	11.7315
439.545	7.41057
442.437	6.11183
445.33	4.08191
448.223	2.8878
451.115	1.36194
454.008	1.7675
456.901	0.234787
459.793	1.03375
462.686	0.062469
465.579	1.96832
468.472	1.08328
471.364	0.257172
474.257	1.20326
477.15	0.670975
480.042	2.38509
482.935	6.16273
485.828	7.77231
488.721	9.5616
491.613	13.1011
494.506	13.2576
497.399	15.1635
500.291	15.4446
503.184	12.8386
506.077	12.2195
508.969	8.71175
511.862	8.88104
514.755	9.7276
517.648	9.51305
520.54	11.1047
523.433	11.0073
526.326	10.7592
529.218	12.0368
532.111	10.2742
535.004	13.8265
537.896	14.0519
540.789	15.8395
543.682	17.5012
546.575	20.3357
549.467	23.4416
552.36	23.8812
555.253	24.6541
558.145	22.9942
561.038	21.9369
563.931	20.962
566.823	20.8346
569.716	21.836
572.609	22.0607
575.502	21.0539
578.394	19.5654
581.287	18.2045
584.18	15.5859
587.072	12.7087
589.965	10.1194
592.858	8.96446
595.75	9.69444
598.643	10.5895
601.536	10.2166
604.428	8.84457
607.321	9.46049
610.214	9.93477
613.107	10.9385
615.999	9.4083
618.892	9.01855
621.785	7.93309
624.677	6.55157
627.57	6.01599
630.463	5.32811
633.356	5.11206
636.248	4.01326
639.141	3.5696
642.034	1.68282
644.926	2.1606
647.819	0.214005
650.712	0.203049
653.604	0.728867
656.497	1.39659
659.39	1.46623
662.283	1.94646
665.175	2.27827
668.068	2.50447
670.961	3.1561
673.853	1.37105
676.746	1.50827
679.639	1.77151
682.531	0.294952
685.424	2.21715
688.317	2.71896
691.21	3.96127
694.102	7.1348
696.995	8.94473
699.888	17.3258
702.78	16.9368
705.673	22.8758
708.566	29.9113
711.458	37.705
714.351	47.7802
717.244	58.4652
720.136	71.9145
723.029	90.0421
725.922	112.297
728.815	141.498
731.707	176.57
734.6	223.64
737.493	286.188
740.385	372.026
743.278	494.762
746.171	653.718
749.063	854.174
751.956	1090.97
754.849	1334.8
757.742	1519.72
760.634	1544.5
763.527	1364.65
766.42	1079.51
769.312	815.467
772.205	603.227
775.098	449.278
777.99	340.719
780.883	266.034
783.776	216.691
786.669	186.772
789.561	170.769
792.454	157.419
795.347	139.494
798.239	115.011
801.132	87.809
804.025	66.0152
806.918	50.7694
809.81	40.0157
812.703	31.9633
815.596	26.1113
818.488	21.452
821.381	17.2666
824.274	12.6146
827.166	10.9135
830.059	5.38419
832.952	3.01489
835.845	0.210114
838.737	3.68341
841.63	5.60297
844.523	5.45373
847.415	5.03217
850.308	4.07773
853.201	1.20291
856.093	3.3457
858.986	6.33585
861.879	15.1786
864.771	21.7331
867.664	28.9497
870.557	40.2718
873.45	51.3116
876.342	59.9273
879.235	64.3572
882.128	77.1988
885.02	98.1447
887.913	126.176
890.806	165.976
893.698	205.742
896.591	249.394
899.484	289.423
902.377	303.325
905.269	281.233
908.162	229.871
911.055	178.805
913.947	139.983
916.84	112.403
919.733	93.3365
922.625	82.1523
925.518	76.2765
928.411	74.6022
931.304	75.4193
934.196	72.0922
937.089	69.1175
939.982	63.1011
942.875	51.4659
945.767	42.1808
948.66	30.285
951.553	21.8961
954.445	15.3658
957.338	11.9283
960.231	7.94438
963.123	6.62013
966.016	4.71333
968.909	4.01268
971.802	1.55768
974.694	0.277832
977.587	0.519791
980.48	0.503326
983.372	0.458344
986.265	0.716644
989.158	0.337585
992.05	0.005203
994.943	0.142853
997.836	0.41095
1000.73	0.729706
1003.62	0.413528
1006.51	0.043045
1009.41	0.278748
1012.3	0.380249
1015.19	0.904907
1018.09	0.389389
1020.98	0.919937
1023.87	2.41455
1026.76	0.496826
1029.66	1.54945
1032.55	1.10176
1035.44	3.03287
1038.33	3.62802
1041.23	0.474899
1044.12	1.92783
1047.01	2.83226
1049.9	1.93401
1052.8	3.07684
1055.69	2.23505
1058.58	1.79921
1061.47	0.957535
1064.37	1.82568
1067.26	1.82256
1070.15	1.48056
1073.05	2.04329
1075.94	0.38884
1078.83	1.04866
1081.72	1.38594
1084.62	1.45067
1087.51	1.04984
1090.4	0.361893
1093.3	0.393906
1096.19	0.941116
1099.08	1.0125
1101.97	2.0191
1104.87	1.23441
1107.76	0.621338
1110.65	2.39613
1113.54	2.34553
1116.44	1.64476
1119.33	0.587799
1122.22	2.29359
1125.12	2.69719
1128.01	1.63493
1130.9	0.352295
1133.79	0.344742
1136.68	2.22614
1139.58	1.48907
1142.47	1.80011
1145.36	0.776108
1148.26	0.719666
1151.15	0.377182
1154.04	1.65033
1156.93	1.40939
1159.83	0.271179
1162.72	0.170029
1165.61	0.024063
1168.51	0.926346
1171.4	1.563
1174.29	0.497665
1177.18	1.56805
1180.08	1.96603
1182.97	1.7507
1185.86	1.48517
1188.75	2.36764
1191.65	1.52962
1194.54	1.17813
1197.43	1.41718
1200.33	2.65416
1203.22	0.893173
1206.11	2.51208
1209	2.78253
1211.9	2.33617
1214.79	2.81735
1217.68	2.08846
1220.57	2.24063
1223.47	1.1126
1226.36	1.72378
1229.25	2.76874
1232.14	0.862289
1235.04	0.698715
1237.93	0.004776
1240.82	0.392914
1243.71	2.70451
1246.61	1.42085
1249.5	1.24083
1252.39	2.03108
1255.29	2.13927
1258.18	1.21585
1261.07	1.29976
1263.96	2.1033
1266.86	1.85516
1269.75	1.37456
1272.64	1.33925
1275.54	1.3849
1278.43	0.392715
1281.32	1.04234
1284.21	0.321671
1287.11	2.40178
1290	0.332916
1292.89	2.07996
1295.78	5.575
1298.68	6.65639
1301.57	0.063492
