Measurement: Raman, 785 nm, unoriented, Raman Data Processed
Mineral: Kasolite
Rruff sample: R070155
Ideal chemistry: Pb(UO_2_)SiO_4_H_2_O
Locality: Katherine District, Northern Territory, Australia
Source: James Shigley
Description: Radiating thin yellow laths
Raman shift (cm-1)	intensity
171.45	0
174.343	39.5654
177.235	142.362
180.128	259.063
183.021	547.78
185.913	756.562
188.806	1001.17
191.699	1106.16
194.591	1303.48
197.484	1329.45
200.377	1484.04
203.27	1618
206.162	1696.86
209.055	1629.87
211.948	1625.85
214.84	1786.85
217.733	1989.93
220.626	2219.32
223.518	2471.14
226.411	2680.11
229.304	2643.01
232.196	2470.48
235.089	2033.9
237.982	1550.04
240.875	1121.01
243.767	764.273
246.66	552.495
249.553	334.628
252.445	224.23
255.338	108.575
258.231	10.1406
261.123	12.1426
264.016	11.7617
266.909	71.4297
269.802	50.1895
272.694	122.323
275.587	173.448
278.48	286.158
281.372	422.026
284.265	406.22
287.158	505.562
290.05	308.677
292.943	322.865
295.836	226.019
298.729	209.792
301.621	201.731
304.514	267.525
307.407	291.108
310.299	213.045
313.192	372.243
316.085	263.451
318.978	307.278
321.87	245.052
324.763	170.008
327.656	107.281
330.548	30.1738
333.441	70.207
336.334	47.6797
339.226	65.2773
342.119	62.5986
345.012	50.7022
347.904	61.8359
350.797	86.0137
353.69	53.4385
356.583	25.7227
359.475	47.1514
362.368	10.29
365.261	23.5625
368.153	0.704102
371.046	6.91016
373.939	32.502
376.832	2.21289
379.724	88.1543
382.617	120.043
385.51	164.572
388.402	169.111
391.295	203.422
394.188	246.13
397.08	315.302
399.973	399.707
402.866	405.973
405.759	495.789
408.651	513.379
411.544	545.913
414.437	603.406
417.329	583.519
420.222	518.938
423.115	442.888
426.007	272.127
428.9	156.293
431.793	128.131
434.685	95.4727
437.578	35.6758
440.471	88.1572
443.364	18.8008
446.256	16.3867
449.149	18.6143
452.042	9.72852
454.934	8.59961
457.827	12.0029
460.72	26.8779
463.613	52.1953
466.505	9.07422
469.398	7.05859
472.291	9.7959
475.183	57.9404
478.076	31.6582
480.969	100.965
483.861	120.832
486.754	83.3115
489.647	217.883
492.539	108.382
495.432	79.1562
498.325	107.416
501.218	99.4639
504.11	117.605
507.003	111.349
509.896	97.8281
512.788	71.2568
515.681	105.483
518.574	132.302
521.466	108.345
524.359	89.0537
527.252	128.823
530.145	120.558
533.037	133.233
535.93	163.478
538.823	141.034
541.715	279.906
544.608	153.18
547.501	227.349
550.394	278.8
553.286	270.17
556.179	228.426
559.072	207.165
561.964	224.092
564.857	193.564
567.75	221.556
570.642	158.24
573.535	126.992
576.428	159.279
579.321	153.476
582.213	140.973
585.106	105.207
587.999	64.6397
590.891	41.0772
593.784	34.8828
596.677	29.3848
599.569	71.6719
602.462	133.182
605.355	47.1309
608.247	75.7295
611.14	54.3623
614.033	32.9326
616.926	57.7978
619.818	91.8398
622.711	48.4287
625.604	40.1201
628.496	103.855
631.389	111.536
634.282	23.4053
637.174	66.9951
640.067	98.332
642.96	48.54
645.853	25.3936
648.745	56.9204
651.638	32.7402
654.531	71.7588
657.423	8.29541
660.316	51.9004
663.209	38.9585
666.101	17.9785
668.994	13.7827
671.887	16.1284
674.779	9.01904
677.672	1.01025
680.565	10.3086
683.458	75.9844
686.35	25.957
689.243	27.0708
692.136	26.1831
695.028	60.8926
697.921	19.1753
700.814	112.393
703.707	142.901
706.599	129.219
709.492	258.952
712.385	260.773
715.277	427.184
718.17	507.547
721.063	719.849
723.955	933.153
726.848	1122.24
729.741	1450.47
732.634	1821.61
735.526	2430.03
738.419	3141.33
741.312	3986.68
744.204	5171.42
747.097	6581.72
749.99	8371.83
752.882	10401.7
755.775	12396.6
758.668	13961.6
761.561	14851.6
764.453	14609.6
767.346	13391.6
770.239	11625
773.131	9475.32
776.024	7460.75
778.917	5697.97
781.809	4375.73
784.702	3431.89
787.595	2721.28
790.487	2266.82
793.38	1779.95
796.273	1551.66
799.166	1182.67
802.058	970.1
804.951	734.53
807.844	564.313
810.736	454.1
813.629	349.013
816.522	320.373
819.415	244.941
822.307	207.547
825.2	147.007
828.093	91.561
830.985	26.0078
833.878	12.2803
836.771	16.3154
839.663	0.329102
842.556	9.78809
845.449	66.2778
848.342	41.7495
851.234	4.84766
854.127	47.3027
857.02	43.6621
859.912	80.5483
862.805	106.805
865.698	109.551
868.591	112.834
871.483	229.849
874.376	297.851
877.269	256.263
880.161	339.795
883.054	432.921
885.947	503.239
888.839	744.547
891.732	945.196
894.625	1201.19
897.518	1300.11
900.41	1551.92
903.303	1525.28
906.196	1394.51
909.088	1258.78
911.981	1023.57
914.874	879.452
917.766	760.874
920.659	658.42
923.552	696.854
926.444	656.704
929.337	731.131
932.23	724.043
935.122	757.986
938.015	685.418
940.908	645.13
943.801	586.578
946.693	469.068
949.586	323.103
952.479	292.863
955.371	204.176
958.264	186.242
961.157	190.12
964.049	54.5903
966.942	81.9551
969.835	78.5571
972.728	82.2402
975.62	84.354
978.513	5.11572
981.406	10.5957
984.298	10.9463
987.191	51.4277
990.084	11.9438
992.976	13.6924
995.869	14.2827
998.762	41.7168
1001.65	7.53076
1004.55	40.4131
1007.44	36.1743
1010.33	31.4736
1013.23	26.3037
1016.12	16.6411
1019.01	4.04199
1021.9	15.8501
1024.8	17.4507
1027.69	47.0498
1030.58	25.8716
1033.47	1.90283
1036.37	5.3584
1039.26	47.1587
1042.15	18.29
1045.05	59.5171
1047.94	21.5781
1050.83	58.2524
1053.72	58.0923
1056.62	57.5269
1059.51	65.6968
1062.4	52.5649
1065.29	61.9214
1068.19	70.5786
1071.08	36.4961
1073.97	0.803223
1076.87	60.9951
1079.76	79.3144
1082.65	32.5454
1085.54	28.0747
1088.44	3.25
1091.33	53.8687
1094.22	59.4004
1097.11	37.581
1100.01	43.0649
1102.9	75.7607
1105.79	27.1846
1108.68	51.9463
1111.58	16.8145
1114.47	30.5815
1117.36	41.0776
1120.26	79.8999
1123.15	12.2056
1126.04	63.458
1128.93	86.5303
1131.83	77.9492
1134.72	43.106
1137.61	88.8735
1140.5	103.561
1143.4	44.2012
1146.29	17.1597
1149.18	67.3857
1152.08	15.9761
1154.97	56.7695
1157.86	38.9126
1160.75	13.2817
1163.65	38.9321
1166.54	37.564
1169.43	71.0054
1172.32	10.0923
1175.22	37.4111
1178.11	28.0029
1181	35.7456
1183.89	88.4648
1186.79	54.4253
1189.68	81.9692
1192.57	93.0044
1195.46	70.9136
1198.36	40.4062
1201.25	1.15186
1204.14	48.8877
1207.04	50.3804
1209.93	4.93945
1212.82	24.8501
1215.71	21.395
1218.61	45.5859
1221.5	10.0972
1224.39	12.6533
