Measurement: Raman, 780 nm, unoriented, Raman Data Processed
Mineral: Kassite
Rruff sample: R070670
Ideal chemistry: CaTi_2_O_4_(OH)_2_
Locality: Diamond Jo Quarry, Magnet Cove, Hot Spring County, Arkansas, USA
Source: Michael Scott
Description: Pale yellow-brown spherical aggregate of acicular crystals associated with  titanite, barite, pectolite, aegirine, albite, and lemmleinite-Ba. Crystals are too small to identify at this time.
Raman shift (cm-1)	intensity
132.059	0
134.951	39.1543
137.844	25.1309
140.737	119.871
143.629	299.18
146.522	346.647
149.415	555.129
152.307	477.379
155.2	844.574
158.093	1043.13
160.986	1272.42
163.878	1496.7
166.771	1785.97
169.664	1650.71
172.556	1710.32
175.449	1366.96
178.342	1148.69
181.234	1107.58
184.127	847.232
187.02	912.223
189.912	839.488
192.805	896.457
195.698	1122.39
198.591	1201.57
201.483	983.648
204.376	495.812
207.269	146.119
210.161	355.033
213.054	233.123
215.947	84.7441
218.839	363.102
221.732	1110.81
224.625	1714.68
227.518	2510.61
230.41	2879.12
233.303	3509.73
236.196	4099.4
239.088	4743.29
241.981	5399
244.874	6114.84
247.767	6740.6
250.659	7466.37
253.552	7294.83
256.445	6923.89
259.337	6244.49
262.23	5728.4
265.123	5242.62
268.015	5216.65
270.908	5083.93
273.801	5322.39
276.693	5349.16
279.586	5149.34
282.479	4968.85
285.372	4383.43
288.264	3864.79
291.157	3307.88
294.05	3139.29
296.942	3098.9
299.835	2813.82
302.728	2604.93
305.62	2456.01
308.513	2074.93
311.406	1841.3
314.299	1510.59
317.191	1209.33
320.084	905.104
322.977	509.943
325.869	324.648
328.762	120.666
331.655	33.9453
334.548	25.3711
337.44	109.977
340.333	109.463
343.226	72.6133
346.118	280.857
349.011	507.174
351.904	582.365
354.796	610.033
357.689	718.416
360.582	523.826
363.474	478.244
366.367	371.957
369.26	90.2637
372.153	34.9766
375.045	64.0742
377.938	87.4043
380.831	68.6231
383.723	145.635
386.616	8.96289
389.509	56.3711
392.401	297.031
395.294	551.268
398.187	794.209
401.08	1380.14
403.972	1956.42
406.865	2672.26
409.758	3779.98
412.65	4809.88
415.543	6085.45
418.436	7465.06
421.329	8882.94
424.221	10188.7
427.114	11518.5
430.007	12464.6
432.899	12781.8
435.792	12760.6
438.685	12322.4
441.577	11619.3
444.47	10930.5
447.363	10265.6
450.255	9607.64
453.148	8784.46
456.041	8111.07
458.934	7538.61
461.826	6832.75
464.719	5999.37
467.612	5371.72
470.504	4555.93
473.397	3662.39
476.29	2802.14
479.182	2094.48
482.075	1510.1
484.968	1072.41
487.861	718.623
490.753	199.672
493.646	161.727
496.539	29.2578
499.431	95.0078
502.324	58.6914
505.217	76.7207
508.109	21.8789
511.002	181.809
513.895	209.5
516.788	542.748
519.68	634.631
522.573	968.885
525.466	1110.51
528.358	1439.27
531.251	1661.71
534.144	1685.13
537.036	1716.73
539.929	1922.44
542.822	1737.31
545.715	1782.28
548.607	1572.54
551.5	1358.23
554.393	1212.08
557.285	1128.62
560.178	942.848
563.071	634.527
565.963	448.453
568.856	274.272
571.749	171.816
574.641	55.4941
577.534	86.2695
580.427	98.1387
583.32	106.647
586.212	0.105469
589.105	69.7461
591.998	143.057
594.89	319.467
597.783	600.568
600.676	603.682
603.568	676.365
606.461	862.943
609.354	936.779
612.247	1193.78
615.139	1388.02
618.032	1584.53
620.925	1643.1
623.817	1757.36
626.71	1767.86
629.603	1793.14
632.495	1870.7
635.388	1872.91
638.281	1752.49
641.174	1625.63
644.066	1581.68
646.959	1502.88
649.852	1391.12
652.744	1332.5
655.637	1204.11
658.53	1185.29
661.423	1088
664.315	977.41
667.208	957.123
670.101	967.061
672.993	831.531
675.886	866.807
678.779	777.106
681.671	677.322
684.564	481.785
687.457	575.125
690.35	395.537
693.242	388.414
696.135	471.949
699.028	351.16
701.92	192.309
704.813	207.469
707.706	220.836
710.598	50.166
713.491	211.537
716.384	117.664
719.277	120.43
722.169	93.1856
725.062	107.188
727.955	67.4277
730.847	28.4102
733.74	45.3594
736.633	50.0898
739.525	83.9551
742.418	92.4922
745.311	20.0957
748.204	79.4883
751.096	82.9336
753.989	13.1074
756.882	19.6211
759.774	67.8887
762.667	69.6289
765.56	153.725
768.452	280.461
771.345	242.932
774.238	347.74
777.131	373.459
780.023	448.219
782.916	428.531
785.809	630.377
788.701	581.275
791.594	590.285
794.487	731.221
797.38	769.238
800.272	890.092
803.165	876.43
806.058	923.096
808.95	1002.57
811.843	1192.89
814.736	1250.85
817.628	1424.59
820.521	1430.22
823.414	1641.56
826.307	1831.01
829.199	1987.28
832.092	2160.57
834.985	2181.06
837.877	2105.86
840.77	2172.08
843.663	2120.15
846.555	2100.32
849.448	2047.84
852.341	2045.86
855.233	1860.54
858.126	1704.72
861.019	1417.2
863.912	1209.55
866.804	937.994
869.697	771.469
872.59	547.723
875.482	694.037
878.375	435.08
881.268	412.881
884.16	305.429
887.053	356.38
889.946	325.757
892.838	398.782
895.731	420.769
898.624	311.572
901.517	208.801
904.409	170.434
907.302	110.076
910.195	10.7168
913.087	111.133
915.98	57.8662
918.873	51.0332
921.765	1.98731
924.658	14.9609
927.551	7.80176
930.444	139.749
933.336	251.741
936.229	218.7
939.122	250.1
942.014	155.5
944.907	253.698
947.8	351.701
950.692	302.333
953.585	385.263
956.478	387.888
959.371	334.069
962.263	380.901
965.156	343.825
968.049	273.984
970.941	221.524
973.834	212.019
976.727	219.496
979.62	155.686
982.512	108.656
985.405	65.4404
988.298	71.5742
991.19	110.489
994.083	82.7598
996.976	38.2744
999.868	18.7344
1002.76	46.4219
1005.65	35.0664
1008.55	27.4121
1011.44	39.919
1014.33	98.4385
1017.23	50.5732
1020.12	88.5361
1023.01	74.9385
1025.9	126.15
1028.8	119.088
1031.69	57.6699
1034.58	23.2188
1037.47	87.1269
1040.37	44.5586
1043.26	105.639
1046.15	108.957
1049.04	49.4961
1051.94	120.118
1054.83	59.9453
1057.72	102.616
1060.62	160.375
1063.51	74.7422
1066.4	72.9639
1069.29	71.3769
1072.19	98.2686
1075.08	112.61
1077.97	196.695
1080.86	113.636
1083.76	64.6367
1086.65	62.5098
1089.54	140.033
1092.43	42.3272
1095.33	96.6338
1098.22	129.173
1101.11	62.6377
1104.01	0.555664
1106.9	14.3223
1109.79	58.9531
1112.68	133.117
1115.58	69.3369
1118.47	94.1592
1121.36	119.128
1124.26	105.524
1127.15	63.3935
1130.04	129.855
1132.93	142.077
1135.83	98.292
1138.72	132.324
1141.61	84.7022
1144.5	79.2539
1147.4	74
1150.29	98.3281
1153.18	54.4853
1156.07	41.1006
1158.97	10.4014
1161.86	27.4678
1164.75	25.2646
1167.64	18.8721
1170.54	36.7725
1173.43	20.458
1176.32	60.2793
1179.22	71.1904
1182.11	75.8984
1185	65.4062
1187.89	76.7197
1190.79	122.82
1193.68	152.303
1196.57	181.413
1199.46	163.13
1202.36	67.9062
1205.25	146.141
1208.14	156.014
1211.04	87.0205
1213.93	106.265
1216.82	93.918
1219.71	116.051
1222.61	165.217
1225.5	26.3027
1228.39	129.975
1231.28	0
