Measurement: Raman, 532 nm, unoriented, Raman Data Processed
Mineral: Kassite
Rruff sample: R070670
Ideal chemistry: CaTi_2_O_4_(OH)_2_
Locality: Diamond Jo Quarry, Magnet Cove, Hot Spring County, Arkansas, USA
Source: Michael Scott
Description: Pale yellow-brown spherical aggregate of acicular crystals associated with  titanite, barite, pectolite, aegirine, albite, and lemmleinite-Ba. Crystals are too small to identify at this time.
Raman shift (cm-1)	intensity
161.589	0
164.482	266.523
167.375	451.885
170.267	376.625
173.16	77.3984
176.053	4.50195
178.946	244.783
181.838	301.062
184.731	150.652
187.624	56.207
190.516	198.344
193.409	570.92
196.302	867.713
199.194	773.549
202.087	562.031
204.98	164.486
207.873	59.8594
210.765	76.8711
213.658	340.361
216.551	1162.69
219.443	2236
222.336	3739.48
225.229	5020.9
228.121	5898.07
231.014	6632.85
233.907	7594.47
236.799	8563.41
239.692	9472.89
242.585	10403.7
245.478	11155.6
248.37	12406.3
251.263	12658
254.156	12513.9
257.048	11829.1
259.941	11177.5
262.834	10598.6
265.726	10490.8
268.619	10796.1
271.512	11151.4
274.405	11499.2
277.297	11677.4
280.19	11111.2
283.083	10330.6
285.975	9121.12
288.868	8298.09
291.761	7474.66
294.654	6898.32
297.546	6406.66
300.439	5784.78
303.332	5373.24
306.224	4863.72
309.117	4160.52
312.01	3253.38
314.902	2587.93
317.795	1870.04
320.688	1367.84
323.58	670.297
326.473	357.072
329.366	124.814
332.259	36.5879
335.151	114.662
338.044	262.682
340.937	340.182
343.829	53.8125
346.722	172.111
349.615	684.436
352.507	919.201
355.4	976.215
358.293	1005.43
361.186	913.57
364.078	573.898
366.971	373.166
369.864	221.223
372.756	63.5488
375.649	3.88867
378.542	153.18
381.434	52.8301
384.327	28.0723
387.22	8.89062
390.113	81.582
393.005	42.5723
395.898	26.8184
398.791	22.4277
401.683	270.004
404.576	644.141
407.469	1084.84
410.361	1786.63
413.254	2617.16
416.147	3766.09
419.04	5027.1
421.932	6063.69
424.825	7213.9
427.718	8160.55
430.61	8673.47
433.503	8906.48
436.396	8422.89
439.288	7762.45
442.181	7091.75
445.074	6415.03
447.967	5802.85
450.859	5340.43
453.752	4653.55
456.645	4370.84
459.537	4121.2
462.43	3537.72
465.323	3316.67
468.215	2562.03
471.108	2242.56
474.001	1765.2
476.894	1415.74
479.786	794.318
482.679	883.996
485.572	757.471
488.464	828.748
491.357	888.072
494.25	908.594
497.142	909.594
500.035	980.168
502.928	953.58
505.82	944.006
508.713	845.021
511.606	847.518
514.499	695.338
517.391	549.393
520.284	459.242
523.177	302.123
526.069	177.426
528.962	173.672
531.855	165.166
534.747	179.24
537.64	242.846
540.533	120.494
543.426	96.8926
546.318	162.506
549.211	180.586
552.104	97.8457
554.996	62.8457
557.889	24.7891
560.782	6.81445
563.674	113.873
566.567	64.8555
569.46	130.598
572.353	114.707
575.245	378.148
578.138	525.391
581.031	699.795
583.923	855.394
586.816	1136.3
589.709	1608.69
592.601	1774.87
595.494	2170.76
598.387	2296.88
601.28	2569.95
604.172	2660.19
607.065	2734.06
609.958	3042.69
612.85	3197.15
615.743	3521.79
618.636	3738.62
621.529	3739.57
624.421	3831.22
627.314	3760.13
630.207	3631.58
633.099	3372.76
635.992	3127.85
638.885	2831.87
641.777	2516.08
644.67	2111.19
647.563	2066.32
650.456	1707.46
653.348	1362
656.241	1192.03
659.134	1034.41
662.026	761.387
664.919	716.902
667.812	495.328
670.704	475.863
673.597	289.906
676.49	146.715
679.382	243.875
682.275	284.719
685.168	162.555
688.061	38.1406
690.953	67.8242
693.846	17.582
696.739	102.887
699.631	271.988
702.524	168.984
705.417	357.742
708.309	439.391
711.202	537.777
714.095	561.316
716.987	935.047
719.88	830.812
722.773	688.723
725.666	910.223
728.558	771.441
731.451	311.738
734.344	171.816
737.236	24.8086
740.129	83.9219
743.022	26.6602
745.915	27.168
748.807	122.336
751.7	102.356
754.593	120.328
757.485	20.7617
760.378	145.973
763.271	88.7461
766.163	405.953
769.056	382.32
771.949	562.441
774.842	487.113
777.734	535.508
780.627	510.574
783.52	679.117
786.412	826.691
789.305	900.519
792.198	777.191
795.091	932.184
797.983	1176.61
800.876	1139.97
803.769	1170.59
806.661	1035.97
809.554	1262.42
812.447	1318.31
815.339	1395.52
818.232	1661.95
821.125	2107.53
824.017	2598.04
826.91	2923.52
829.803	3284.26
832.696	3413.34
835.588	3760.06
838.481	3749.11
841.374	3888.39
844.266	4130.66
847.159	4090.81
850.052	3966.77
852.944	3911.12
855.837	3606.72
858.73	3249.16
861.622	2555.86
864.515	2070.4
867.408	1542.56
870.301	1151.48
873.193	781.977
876.086	765.203
878.979	909.398
881.871	921.731
884.764	1160.39
887.657	1095.82
890.549	1152.71
893.442	1210.48
896.335	1002.67
899.228	1028.48
902.12	747.273
905.013	417.566
907.906	115.273
910.798	125.035
913.691	63.6914
916.584	92.3867
919.476	5.32031
922.369	107.348
925.262	76.6328
928.155	35.9375
931.047	100.09
933.94	43.2617
936.833	79.4531
939.725	165.188
942.618	283.695
945.511	304.898
948.404	266.461
951.296	349.672
954.189	287.668
957.082	443.957
959.974	307.176
962.867	465.629
965.76	594.734
968.652	430.938
971.545	525.203
974.438	499.609
977.331	428.898
980.223	377.461
983.116	487.559
986.009	335.371
988.901	398.629
991.794	316.016
994.687	246.387
997.579	487.023
1000.47	519.754
1003.37	502.606
1006.26	574.394
1009.15	360.508
1012.04	456.926
1014.94	413.074
1017.83	379.906
1020.72	255.262
1023.61	366.562
1026.51	213.594
1029.4	325.551
1032.29	369.488
1035.18	232.547
1038.08	129.777
1040.97	159.445
1043.86	220.176
1046.76	71.3867
1049.65	65.918
1052.54	35.3516
1055.43	57.207
1058.33	47.125
1061.22	178.141
1064.11	115.981
1067	61.3477
1069.9	7.79297
1072.79	131.394
1075.68	178.082
1078.58	319.32
1081.47	182.789
1084.36	101.883
1087.25	44.5469
1090.15	79.5547
1093.04	108.57
1095.93	48.8711
1098.82	145.215
1101.72	181.742
1104.61	321.844
1107.5	210.492
1110.39	441.008
1113.29	611.93
1116.18	297.598
1119.07	387.086
1121.96	162.461
1124.86	363.285
1127.75	337.688
1130.64	287.656
1133.54	398.102
1136.43	315.883
1139.32	48.9609
1142.21	118.231
1145.11	58.9531
1148	265.699
1150.89	329.719
1153.79	245.766
1156.68	108.258
1159.57	183.961
1162.46	133.574
1165.36	36.0859
1168.25	59.8125
1171.14	32.8789
1174.03	154.207
1176.93	1.57422
1179.82	468.394
1182.71	22.6641
1185.61	151.996
1188.5	304.484
1191.39	266.672
1194.28	138.394
1197.18	154.711
1200.07	51.8164
1202.96	163.328
1205.85	151.062
1208.75	372.781
1211.64	78.3789
1214.53	134.102
1217.42	3.64844
1220.32	58.7188
1223.21	221.316
1226.1	91.3164
1228.99	111.644
1231.89	125.523
1234.78	58.8828
1237.67	79.1445
1240.57	336.137
1243.46	258.328
1246.35	330.695
1249.24	293.711
1252.14	265.773
1255.03	403.246
1257.92	363.25
1260.82	286.312
1263.71	264.828
1266.6	190.527
1269.49	75.707
1272.39	95.4492
1275.28	363.891
1278.17	88.5664
1281.06	160.969
1283.96	72.6641
1286.85	125.078
1289.74	159.254
1292.63	0
