Measurement: Raman, 785 nm, unoriented, Raman Data Processed
Mineral: Katayamalite
Rruff sample: R070147
Ideal chemistry: KLi_3_Ca_7_Ti_2_(SiO_3_)_12_(OH)_2_
Locality: Dara-i-Pioz, Hait, Alayskiy (Alay; Alai) Range, South Tien-Shan Mts., Tajikistan
Source: Michael Scott
Description: Light tan colored platy massive
Measured chemistry: (K_0.90_Na_0.07_)Li_3.08_(Ca_6.89_Mn_0.02_Ba_0.02_)(Ti_1.67_Zr_0.17_Sn_0.13_Fe_0.06_Al_0.01_)(SiO_3_)_12_(OH_1.05_F_0.95_)
Raman shift (cm-1)	intensity
194.591	0
197.484	4.77344
200.377	210.851
203.27	498.582
206.162	668.537
209.055	875.893
211.948	1212.81
214.84	1505.13
217.733	1715.86
220.626	1403.07
223.518	867.383
226.411	442.039
229.304	167.48
232.196	70.3809
235.089	52.1055
237.982	11.6587
240.875	142.833
243.767	271.734
246.66	543.384
249.553	664.806
252.445	813.005
255.338	1085.65
258.231	1205.09
261.123	1185.55
264.016	974.81
266.909	660.743
269.802	418.863
272.694	229.294
275.587	243.644
278.48	263.562
281.372	335
284.265	421.192
287.158	450.442
290.05	615.479
292.943	806.394
295.836	928.422
298.729	890.75
301.621	756.84
304.514	563.633
307.407	393.236
310.299	239.202
313.192	168.284
316.085	85.3398
318.978	84.1245
321.87	49.0601
324.763	6.56934
327.656	72.2578
330.548	67.1689
333.441	42.9131
336.334	19.9531
339.226	49.7178
342.119	7.02686
345.012	49.3315
347.904	127.692
350.797	313.473
353.69	556.424
356.583	881.932
359.475	1196.66
362.368	1664.08
365.261	2259.55
368.153	2831.63
371.046	3101.83
373.939	3319.15
376.832	3591.85
379.724	3763.42
382.617	3414.75
385.51	2553.34
388.402	1894.37
391.295	1445.4
394.188	1292.89
397.08	1177.04
399.973	1013.53
402.866	777.467
405.759	528.722
408.651	368.706
411.544	260.34
414.437	207.858
417.329	212.146
420.222	137.162
423.115	23.1802
426.007	40.8447
428.9	14.3921
431.793	17.2285
434.685	118.582
437.578	234.476
440.471	527.762
443.364	698.505
446.256	977.751
449.149	1266.91
452.042	1455.69
454.934	1552.17
457.827	1418.49
460.72	1261.92
463.613	1062.39
466.505	833.606
469.398	668.575
472.291	561.287
475.183	571.008
478.076	609.411
480.969	822.965
483.861	1255.47
486.754	1631.54
489.647	1757.78
492.539	1533.15
495.432	1389.41
498.325	1138.07
501.218	826.422
504.11	454.812
507.003	210.841
509.896	195.678
512.788	31.2798
515.681	14.544
518.574	13.9898
521.466	63.7935
524.359	18.7134
527.252	26.1943
530.145	53.645
533.037	107.655
535.93	126.632
538.823	216.088
541.715	259.943
544.608	370.178
547.501	630.03
550.394	811.579
553.286	1305.32
556.179	2045.68
559.072	3133.49
561.964	4490.6
564.857	6077.34
567.75	7219.31
570.642	6673.02
573.535	4696.84
576.428	2976.15
579.321	1959.96
582.213	1339.16
585.106	917.836
587.999	607.973
590.891	375.029
593.784	182.363
596.677	210.903
599.569	80.8882
602.462	2.74023
605.355	47.7207
608.247	13.3203
611.14	18.8589
614.033	37.6113
616.926	5.88281
619.818	26.1309
622.711	19.3916
625.604	8.27295
628.496	20.7925
631.389	29.1895
634.282	65.0205
637.174	51.5259
640.067	21.4463
642.96	58.398
645.853	69.8525
648.745	37.5664
651.638	153.334
654.531	211.054
657.423	208.788
660.316	350.106
663.209	479.121
666.101	512.032
668.994	597.082
671.887	506.276
674.779	357.129
677.672	245.162
680.565	135.994
683.458	154.265
686.35	142.94
689.243	236.695
692.136	199.758
695.028	280.749
697.921	312.163
700.814	229
703.707	173.261
706.599	125.749
709.492	154.547
712.385	87.4634
715.277	82.1313
718.17	116.438
721.063	66.522
723.955	55.4194
726.848	131.869
729.741	26.0542
732.634	2.82764
735.526	42.6274
738.419	5.47656
741.312	9.54297
744.204	103.861
747.097	26.2622
749.99	3.53516
752.882	3.60693
755.775	75.9614
758.668	9.72998
761.561	44.9834
764.453	40.7012
767.346	25.6626
770.239	39.1089
773.131	82.5679
776.024	80.5215
778.917	2.78369
781.809	57.9087
784.702	91.5781
787.595	76.9985
790.487	99.0606
793.38	103.198
796.273	83.4336
799.166	120.665
802.058	184.76
804.951	92.9219
807.844	111.34
810.736	140.34
813.629	78.5962
816.522	81.3633
819.415	73.7661
822.307	110.171
825.2	107.978
828.093	59.2417
830.985	27.7065
833.878	47.6338
836.771	48.0884
839.663	42.9463
842.556	29.937
845.449	28.6523
848.342	19.0557
851.234	45.6074
854.127	13.6484
857.02	15.1328
859.912	11.3174
862.805	10.5942
865.698	30.0825
868.591	16.9145
871.483	45.3603
874.376	23.5679
877.269	44.602
880.161	37.1807
883.054	67.8032
885.947	59.877
888.839	102.85
891.732	250.102
894.625	266.737
897.518	378.801
900.41	520.476
903.303	712.961
906.196	701.751
909.088	679.702
911.981	718.944
914.874	670.273
917.766	471.823
920.659	236.473
923.552	90.2519
926.444	10.1558
929.337	125.053
932.23	266.893
935.122	409.831
938.015	563.612
940.908	748.763
943.801	1084.17
946.693	1386.55
949.586	1703.76
952.479	1982.68
955.371	2250.74
958.264	2332.33
961.157	2320.96
964.049	2203.74
966.942	2116.47
969.835	2034.52
972.728	2075.12
975.62	2100.07
978.513	2044.81
981.406	1813.31
984.298	1584.84
987.191	1318.91
990.084	1056.9
992.976	720.322
995.869	541.014
998.762	275.076
1001.65	195.377
1004.55	140.809
1007.44	226.69
1010.33	263.911
1013.23	400.84
1016.12	505.085
1019.01	607.878
1021.9	355.955
1024.8	211.428
1027.69	129.064
1030.58	82.9414
1033.47	65.3662
1036.37	17.7524
1039.26	28.7417
1042.15	47.9888
1045.05	31.7739
1047.94	1.29736
1050.83	72.3242
1053.72	41.4194
1056.62	13.8359
1059.51	9.43066
1062.4	52.5352
1065.29	39.25
1068.19	31.3804
1071.08	3.8584
1073.97	64.7485
1076.87	75.1782
1079.76	143.591
1082.65	129.835
1085.54	199.34
1088.44	182.427
1091.33	213.739
1094.22	269.631
1097.11	352.132
1100.01	462.525
1102.9	449.88
1105.79	567.006
1108.68	658.553
1111.58	658.02
1114.47	768.867
1117.36	789.77
1120.26	752.15
1123.15	805.863
1126.04	804.377
1128.93	720.172
1131.83	875.62
1134.72	940.474
1137.61	1008.65
1140.5	1110.75
1143.4	920.916
1146.29	754.965
1149.18	558.802
1152.08	430.158
1154.97	278.777
1157.86	275.178
1160.75	210.542
1163.65	138.47
1166.54	113.234
1169.43	122.738
1172.32	46.9858
1175.22	64.6079
1178.11	38.3633
1181	9.76025
1183.89	71.3857
1186.79	29.2861
1189.68	40.2788
1192.57	28.4199
1195.46	33.354
1198.36	104.203
1201.25	98.4873
1204.14	26.8652
1207.04	17.9741
1209.93	41.668
1212.82	110.129
1215.71	32.895
1218.61	37.6157
1221.5	72.5034
1224.39	107.985
1227.29	91.1045
1230.18	52.124
1233.07	35.0684
1235.96	86.6138
1238.86	40.5166
1241.75	16.6274
