Measurement: Raman, 532 nm, unoriented, Raman Data Processed
Mineral: Katayamalite
Rruff sample: R120164
Ideal chemistry: KLi_3_Ca_7_Ti_2_(SiO_3_)_12_(OH)_2_
Locality: Iwagi Island, Inland Sea, Ehime Prefecture, Japan
Source: Donald Doell
Description: Colorless platy crystals with a brilliant bluish white fluorescence (short wave), associated with albite, wollastonite, pectolite, and aegirine. Crystal used in Andrade et al (2013) study
Measured chemistry: (K_0.89_Na_0.12_)Li_3.21_(Ca_6.87_Mn_0.04_Ba_0.02_)(Ti_1.79_Zr_0.14_Fe_0.04_Sn_0.02_)(SiO_3_)_12_(OH_1.55_F_0.45_)
Raman shift (cm-1)	intensity
190.124	0
193.017	58.7645
195.909	60.3781
198.802	18.1663
201.695	13.886
204.588	36.0211
207.48	59.8523
210.373	93.2769
213.266	186.576
216.158	286.356
219.051	289.601
221.944	162.45
224.836	80.7494
227.729	77.2141
230.622	84.429
233.514	45.9971
236.407	2.77271
239.3	11.4121
242.193	38.3087
245.085	61.5203
247.978	83.6001
250.871	125.891
253.763	192.313
256.656	239.624
259.549	200.295
262.442	115.596
265.334	78.9749
268.227	69.0187
271.12	55.5122
274.012	61.431
276.905	83.7572
279.798	80.8642
282.69	66.0776
285.583	77.8242
288.476	94.0958
291.368	103.784
294.261	108.664
297.154	109.907
300.047	107.606
302.939	96.6793
305.832	54.3356
308.725	22.7906
311.617	6.68127
314.51	0.560425
317.403	0.640442
320.296	0.74939
323.188	1.18445
326.081	6.85651
328.974	6.04871
331.866	8.52478
334.759	3.89813
337.652	3.23321
340.544	17.9852
343.437	19.5242
346.33	42.2957
349.223	86.9995
352.115	154.227
355.008	227.813
357.901	326.003
360.793	437.603
363.686	586.576
366.579	807.091
369.471	1053.3
372.364	1247.14
375.257	1356.76
378.149	1357.6
381.042	1217.52
383.935	960.641
386.828	764.155
389.72	635.36
392.613	472.326
395.506	351.399
398.398	315.033
401.291	317.999
404.184	346.341
407.077	409.811
409.969	508.515
412.862	566.801
415.755	484.575
418.647	304.896
421.54	160.083
424.433	72.1306
427.325	24.2274
430.218	0.569031
433.111	4.98108
436.003	3.51562
438.896	24.4564
441.789	57.3116
444.682	93.2809
447.574	142.736
450.467	208.415
453.36	251.646
456.252	232.339
459.145	169.756
462.038	98.5564
464.93	52.7995
467.823	13.2049
470.716	7.75482
473.609	13.2529
476.501	5.01392
479.394	31.0267
482.287	95.8046
485.179	178.907
488.072	217.374
490.965	192.066
493.858	179.558
496.75	175.82
499.643	144.146
502.536	101.788
505.428	73.3854
508.321	63.2858
511.214	70.9381
514.106	77.0688
516.999	74.6017
519.892	57.6061
522.784	37.9127
525.677	25.6008
528.57	17.2823
531.463	8.52179
534.355	12.1766
537.248	15.7676
540.141	22.3018
543.033	38.678
545.926	52.2884
548.819	64.7579
551.712	97.2365
554.604	171.634
557.497	307.217
560.39	520.879
563.282	825.899
566.175	1207.21
569.068	1479.34
571.96	1277.57
574.853	805.248
577.746	476.848
580.639	297.255
583.531	193.488
586.424	132.944
589.317	86.3034
592.209	58.8281
595.102	37.5887
597.995	21.1452
600.888	13.1348
603.78	6.9718
606.673	0.807068
609.566	0.379272
612.458	1.05859
615.351	3.13599
618.244	2.31824
621.136	3.3443
624.029	1.54627
626.922	2.98779
629.814	3.96551
632.707	0.308472
635.6	2.25708
638.493	1.79187
641.385	1.92285
644.278	4.72321
647.171	13.1544
650.063	12.6014
652.956	16.3112
655.849	19.4689
658.741	29.0491
661.634	39.8994
664.527	52.8839
667.42	65.6596
670.312	66.313
673.205	44.7013
676.098	26.1808
678.99	17.7229
681.883	13.902
684.776	8.61285
687.668	14.7086
690.561	18.1993
693.454	20.5996
696.347	21.9346
699.239	24.9882
702.132	24.251
705.025	21.7598
707.917	16.8866
710.81	10.8221
713.703	5.55481
716.596	3.95972
719.488	4.86481
722.381	12.2549
725.274	13.1013
728.166	12.7059
731.059	12.3939
733.952	16.8614
736.844	15.6628
739.737	15.5848
742.63	14.7516
745.523	15.6976
748.415	14.3997
751.308	10.1218
754.201	12.6206
757.093	8.33874
759.986	9.55878
762.879	10.9822
765.771	10.0436
768.664	10.2867
771.557	7.39783
774.449	8.55469
777.342	6.89264
780.235	3.84998
783.128	1.22803
786.02	8.70685
788.913	0.209106
791.806	0.402527
794.698	4.04053
797.591	6.25238
800.484	4.38196
803.376	5.18713
806.269	7.46674
809.162	10.1275
812.055	9.00128
814.947	11.0662
817.84	13.3546
820.733	19.6274
823.625	19.4142
826.518	18.5026
829.411	14.303
832.303	10.253
835.196	12.81
838.089	12.5238
840.982	12.6555
843.874	9.97333
846.767	13.1961
849.66	3.08899
852.552	0.909363
855.445	1.06329
858.338	0.714539
861.231	1.59546
864.123	0.849792
867.016	2.1026
869.909	0.637634
872.801	2.98877
875.694	4.96234
878.587	4.65192
881.479	3.5824
884.372	1.95032
887.265	1.14801
890.158	5.80121
893.05	12.4172
895.943	27.6099
898.836	50.8618
901.728	76.7825
904.621	81.433
907.514	64.2265
910.406	61.2168
913.299	72.7391
916.192	80.0572
919.085	50.3168
921.977	32.1301
924.87	26.0664
927.763	38.3442
930.655	72.2156
933.548	122.877
936.441	167.672
939.333	201.209
942.226	255.309
945.119	354.668
948.011	490.191
950.904	660.834
953.797	883.668
956.69	1127.52
959.582	1286.51
962.475	1222.57
965.368	996.735
968.26	825.734
971.153	775.19
974.046	840.861
976.938	993.372
979.831	1136.61
982.724	1158.91
985.617	1091.39
988.509	990.718
991.402	803.09
994.295	545.99
997.187	354.212
1000.08	248.222
1002.97	175.252
1005.87	101.413
1008.76	69.7292
1011.65	64.8688
1014.54	74.5928
1017.44	85.7358
1020.33	83.1638
1023.22	53.0216
1026.11	30.2176
1029.01	17.0041
1031.9	8.01569
1034.79	4.74408
1037.68	3.52155
1040.58	5.13098
1043.47	5.15106
1046.36	6.7738
1049.26	6.30389
1052.15	4.9538
1055.04	4.63208
1057.93	3.99048
1060.83	12.416
1063.72	25.5406
1066.61	27.124
1069.51	27.2531
1072.4	26.7295
1075.29	30.0688
1078.18	30.7288
1081.08	28.0897
1083.97	29.4746
1086.86	24.079
1089.75	21.6434
1092.65	23.2379
1095.54	22.5186
1098.43	24.2161
1101.33	32.9032
1104.22	46.7159
1107.11	59.3908
1110	80.3041
1112.89	95.5988
1115.79	99.7459
1118.68	88.805
1121.57	79.7985
1124.47	72.7042
1127.36	82.8742
1130.25	103.739
1133.14	145.272
1136.04	208.958
1138.93	263.292
1141.82	270.947
1144.71	206.877
1147.61	134.185
1150.5	81.4359
1153.39	52.3692
1156.29	37.3497
1159.18	23.5234
1162.07	20.8638
1164.96	7.60205
1167.86	3.80316
1170.75	2.7948
1173.64	2.44641
1176.54	1.75848
1179.43	1.39288
1182.32	1.79828
1185.21	1.0799
1188.11	1.29132
1191	0.382141
1193.89	3.95831
1196.78	10.7198
1199.68	13.2525
1202.57	15.8409
1205.46	14.2255
1208.35	13.5349
1211.25	12.353
1214.14	14.0617
1217.03	8.67316
1219.92	8.32428
1222.82	8.99499
1225.71	12.508
1228.6	9.47437
1231.5	11.5708
1234.39	12.6446
1237.28	9.03894
1240.17	5.05853
1243.07	3.54272
1245.96	0.103455
1248.85	1.01691
1251.74	1.9071
1254.64	0.827271
1257.53	3.74921
1260.42	3.97345
1263.32	7.35577
1266.21	6.46729
1269.1	9.5943
1271.99	5.39874
1274.89	9.55261
1277.78	3.78125
1280.67	1.49872
1283.57	3.57062
1286.46	0.809143
1289.35	0.638489
1292.24	3.08697
1295.13	9.49146
1298.03	10.9972
1300.92	2.69812
