Measurement: Raman, 780 nm, unoriented, Raman Data Processed
Mineral: Katayamalite
Rruff sample: R120164
Ideal chemistry: KLi_3_Ca_7_Ti_2_(SiO_3_)_12_(OH)_2_
Locality: Iwagi Island, Inland Sea, Ehime Prefecture, Japan
Source: Donald Doell
Description: Colorless platy crystals with a brilliant bluish white fluorescence (short wave), associated with albite, wollastonite, pectolite, and aegirine. Crystal used in Andrade et al (2013) study
Measured chemistry: (K_0.89_Na_0.12_)Li_3.21_(Ca_6.87_Mn_0.04_Ba_0.02_)(Ti_1.79_Zr_0.14_Fe_0.04_Sn_0.02_)(SiO_3_)_12_(OH_1.55_F_0.45_)
Raman shift (cm-1)	intensity
117.234	0
120.609	3.62418
123.984	7.83261
127.358	11.3574
130.733	22.0452
134.108	33.7521
137.483	38.6412
140.858	23.6214
144.232	9.51778
147.607	1.04448
150.982	0.427139
154.357	0.286942
157.732	12.3957
161.107	6.35147
164.481	0.098724
167.856	0.30455
171.231	0.320175
174.606	0.129059
177.981	2.0269
181.355	2.27858
184.73	16.6654
188.105	29.1635
191.48	41.4325
194.855	44.2756
198.229	33.8736
201.604	43.3802
204.979	53.1566
208.354	50.8802
211.729	72.8436
215.103	113.011
218.478	118.759
221.853	70.0353
225.228	35.0166
228.603	25.6364
231.978	17.6595
235.352	14.0877
238.727	21.2767
242.102	25.1246
245.477	27.3974
248.852	37.9884
252.226	52.026
255.601	57.3459
258.976	56.7073
262.351	48.7135
265.726	44.975
269.101	36.361
272.475	33.3827
275.85	40.7619
279.225	39.5943
282.6	34.1186
285.975	38.2596
289.349	49.3398
292.724	62.2488
296.099	65.5932
299.474	60.6258
302.849	51.0347
306.224	31.6405
309.598	15.4587
312.973	9.98416
316.348	5.50003
319.723	4.73563
323.098	2.40532
326.472	0.129715
329.847	1.42267
333.222	2.82138
336.597	0.836945
339.972	1.26051
343.346	0.072235
346.721	2.24474
350.096	10.1702
353.471	21.7927
356.846	39.472
360.221	62.5278
363.595	101.768
366.97	154.625
370.345	208.903
373.72	250.568
377.095	285.529
380.469	266.668
383.844	186.677
387.219	132.759
390.594	105.18
393.969	90.8317
397.344	87.541
400.718	74.8009
404.093	61.1557
407.468	61.8397
410.843	78.0898
414.217	76.5935
417.592	47.5821
420.967	21.4291
424.342	6.51797
427.717	0.625504
431.092	1.28314
434.466	0.646164
437.841	5.82205
441.216	10.1395
444.591	18.9239
447.966	34.0154
451.341	49.7334
454.715	53.6686
458.09	41.595
461.465	31.2488
464.84	20.2493
468.215	7.6297
471.589	0.06189
474.964	1.50707
478.339	7.78438
481.714	30.0603
485.089	65.8029
488.463	66.0855
491.838	47.6275
495.213	35.7591
498.588	27.4368
501.963	19.2889
505.337	9.94194
508.712	7.63208
512.087	9.93492
515.462	10.4899
518.837	7.32774
522.212	3.99179
525.586	1.84383
528.961	0.325974
532.336	1.4915
535.711	0.163818
539.086	5.33626
542.46	12.6986
545.835	17.9416
549.21	22.5864
552.585	33.4862
555.96	56.2018
559.335	101.5
562.709	192.68
566.084	333.92
569.459	397.104
572.834	269.706
576.209	146.332
579.583	84.2875
582.958	52.9864
586.333	34.0476
589.708	22.0905
593.083	13.4894
596.457	7.86871
599.832	4.72569
603.207	3.41659
606.582	1.65812
609.957	0.25647
613.332	0.54567
616.706	0.382553
620.081	0.147133
623.456	0.020927
626.831	0.101158
630.206	0.346008
633.58	1.64943
636.955	1.12462
640.33	1.22369
643.705	1.17688
647.08	2.42521
650.455	2.79163
653.829	5.32036
657.204	7.06857
660.579	12.6173
663.954	19.748
667.329	28.2948
670.703	25.0744
674.078	12.9454
677.453	5.99807
680.828	4.05135
684.203	3.49885
687.577	3.74305
690.952	5.68748
694.327	9.73803
697.702	6.06136
701.077	4.79465
704.452	3.15581
707.826	2.07114
711.201	0.171928
714.576	0.014175
717.951	0.033508
721.326	0.66909
724.7	2.08002
728.075	2.08729
731.45	1.91283
734.825	2.24663
738.2	2.66831
741.574	3.38688
744.949	3.32613
748.324	3.46344
751.699	3.62214
755.074	3.3422
758.449	2.85679
761.823	2.52473
765.198	4.02175
768.573	3.26969
771.948	1.83857
775.323	0.918922
778.697	0.761673
782.072	1.34344
785.447	0.722137
788.822	1.72872
792.197	1.3456
795.572	1.76742
798.946	1.69633
802.321	1.72452
805.696	2.20748
809.071	2.0751
812.446	3.22239
815.82	3.14676
819.195	3.24826
822.57	2.50559
825.945	2.74191
829.32	3.18644
832.694	1.59616
836.069	2.57851
839.444	2.09715
842.819	0.276787
846.194	0.89595
849.569	0.508194
852.943	0.779831
856.318	1.06004
859.693	0.685158
863.068	0.230148
866.443	0.198784
869.817	0.374626
873.192	1.49686
876.567	0.395164
879.942	0.389214
883.317	0.110832
886.692	1.84712
890.066	2.03566
893.441	4.33955
896.816	8.73484
900.191	16.2929
903.566	19.2766
906.94	13.2356
910.315	12.212
913.69	17.427
917.065	12.5999
920.44	3.46572
923.814	0.016335
927.189	2.53272
930.564	8.94406
933.939	19.088
937.314	24.006
940.689	31.9838
944.063	45.0668
947.438	66.3389
950.813	92.2816
954.188	127.66
957.563	162.934
960.937	169.485
964.312	136.777
967.687	113.179
971.062	109.778
974.437	129.882
977.812	163.854
981.186	169.322
984.561	143.927
987.936	121.705
991.311	87.5423
994.686	52.8632
998.06	31.8391
1001.43	22.2211
1004.81	13.3677
1008.18	11.163
1011.56	14.2953
1014.93	23.6297
1018.31	31.648
1021.68	21.5464
1025.06	9.62218
1028.43	6.18312
1031.81	1.73785
1035.18	0.990387
1038.56	0.043022
1041.93	0.302574
1045.31	0.917809
1048.68	0.46627
1052.06	1.46609
1055.43	0.187302
1058.81	0.193169
1062.18	1.03495
1065.56	1.00056
1068.93	1.46679
1072.31	1.65358
1075.68	0.634468
1079.06	0.705292
1082.43	1.3447
1085.81	0.474632
1089.18	0.7407
1092.56	1.7895
1095.93	2.26807
1099.31	1.69905
1102.68	3.17835
1106.05	6.53144
1109.43	9.68195
1112.8	11.6011
1116.18	12.1563
1119.55	11.4306
1122.93	8.77585
1126.3	10.7494
1129.68	11.1325
1133.05	19.4054
1136.43	33.4787
1139.8	42.2758
1143.18	33.671
1146.55	18.78
1149.93	9.00334
1153.3	3.68471
1156.68	1.77663
1160.05	0.528458
1163.43	0.438057
1166.8	0.324654
1170.18	1.09106
1173.55	1.11794
1176.93	2.08255
1180.3	2.95563
1183.67	4.58382
1187.05	5.5564
1190.42	7.20078
1193.8	7.89271
1197.17	10.1899
1200.55	12.823
1203.92	12.3771
1207.3	12.6826
1210.67	14.1983
1214.05	14.2717
1217.42	14.1345
1220.8	14.325
1224.17	12.0165
1227.55	10.5971
1230.92	8.28053
1234.3	8.34584
1237.67	6.16655
1241.05	3.78473
1244.42	3.55333
1247.8	2.11676
1251.17	2.48178
1254.55	0.094635
1257.92	1.53882
1261.3	0.115402
1264.67	1.83865
1268.05	3.09677
1271.42	1.96744
1274.8	2.4254
1278.17	1.649
1281.55	0.630356
