Measurement: Raman, 532 nm, unoriented, Raman Data Processed
Mineral: Katayamalite
Rruff sample: R070147
Ideal chemistry: KLi_3_Ca_7_Ti_2_(SiO_3_)_12_(OH)_2_
Locality: Dara-i-Pioz, Hait, Alayskiy (Alay; Alai) Range, South Tien-Shan Mts., Tajikistan
Source: Michael Scott
Description: Light tan colored platy massive
Measured chemistry: (K_0.90_Na_0.07_)Li_3.08_(Ca_6.89_Mn_0.02_Ba_0.02_)(Ti_1.67_Zr_0.17_Sn_0.13_Fe_0.06_Al_0.01_)(SiO_3_)_12_(OH_1.05_F_0.95_)
Raman shift (cm-1)	intensity
193.572	0
196.465	9.60254
199.358	56.7627
202.25	149.413
205.143	456.073
208.036	767.497
210.928	1076.98
213.821	1529.04
216.714	1835.77
219.607	1715.02
222.499	1111.29
225.392	795.207
228.285	620.795
231.177	474.034
234.07	138.137
236.963	98.6553
239.855	55.1631
242.748	180.667
245.641	492.256
248.534	742.699
251.426	1147.81
254.319	1562.06
257.212	1882.62
260.104	2002.04
262.997	1799.22
265.89	1247.36
268.782	934.542
271.675	738.061
274.568	568.997
277.461	539.109
280.353	585.578
283.246	629.152
286.139	753.463
289.031	1012.98
291.924	1276.86
294.817	1474.79
297.709	1459.52
300.602	1342.03
303.495	997.131
306.387	709.269
309.28	514.751
312.173	348.033
315.066	318.604
317.958	301.402
320.851	203.018
323.744	145.832
326.637	112.685
329.529	81.832
332.422	57.2402
335.315	7.96777
338.207	116.102
341.1	48.6475
343.993	7.89746
346.885	160.977
349.778	355.831
352.671	610.074
355.563	1039.36
358.456	1533.48
361.349	2349.03
364.242	3290.72
367.134	4303.21
370.027	5022.21
372.92	5570.48
375.812	6204.35
378.705	6574.91
381.598	6113.43
384.49	4751.28
387.383	3564.49
390.276	2686.13
393.169	2219.99
396.061	1884.77
398.954	1695.7
401.847	1271.31
404.739	1078.55
407.632	807.535
410.525	754.602
413.418	686.736
416.31	552.889
419.203	388.41
422.096	42.1221
424.988	127.21
427.881	48.0703
430.774	38.2412
433.666	86.4228
436.559	384.965
439.452	743.05
442.344	1193.29
445.237	1795.33
448.13	2435.62
451.023	2999.1
453.915	3305.01
456.808	3207.76
459.701	2876.73
462.593	2423.11
465.486	2003.82
468.379	1400.72
471.272	1079.72
474.164	842.122
477.057	1092.12
479.95	1469.38
482.842	2149.17
485.735	2847.41
488.628	3057.39
491.52	2638.93
494.413	2150.28
497.306	1730.59
500.199	1120.96
503.091	599.598
505.984	232.991
508.877	62.8291
511.769	53.6299
514.662	31.3135
517.555	13.165
520.447	15.6904
523.34	49.0869
526.233	72.5254
529.125	146.252
532.018	165.418
534.911	5.93945
537.804	173.824
540.696	124.551
543.589	426.461
546.482	564.15
549.375	936.256
552.267	1624.81
555.16	2861.95
558.053	4713.47
560.945	7210.49
563.838	9692.68
566.731	11750.8
569.623	11322.9
572.516	8345.05
575.409	5215.83
578.302	3397.16
581.194	2302.88
584.087	1488.73
586.98	1035.88
589.872	729.412
592.765	483.129
595.658	379.6
598.55	279.881
601.443	229.734
604.336	163.111
607.229	93.1914
610.121	44.3184
613.014	46.5488
615.907	39.0801
618.799	23.2422
621.692	34.8691
624.585	33.707
627.477	38.8379
630.37	1.98438
633.263	16.416
636.155	29.9453
639.048	102.4
641.941	71.7754
644.834	70.5098
647.726	192.857
650.619	248.924
653.512	280.83
656.404	347.701
659.297	458.17
662.19	647.291
665.083	716.356
667.975	743.191
670.868	569.201
673.761	503.682
676.653	233.381
679.546	217.272
682.439	279.553
685.332	265.051
688.224	393.223
691.117	416.609
694.01	490.031
696.902	414.078
699.795	347.529
702.688	211.162
705.58	156.66
708.473	206.615
711.366	185.629
714.259	26.0449
717.151	120.9
720.044	14.7461
722.937	37.916
725.829	95.3477
728.722	30.3145
731.615	3.18359
734.507	13.2598
737.4	97.4707
740.293	111.654
743.186	138.549
746.078	22.0039
748.971	30.6777
751.864	20.5664
754.756	157.949
757.649	135.043
760.542	90.8945
763.434	113.606
766.327	117.398
769.22	8.13086
772.112	42.3887
775.005	167.832
777.898	126.068
780.791	49.4297
783.683	63.7539
786.576	105.387
789.469	185.607
792.361	196.828
795.254	197.1
798.147	108.897
801.04	173.707
803.932	169.58
806.825	175.086
809.718	257.609
812.61	255.768
815.503	184.406
818.396	144.022
821.288	161.269
824.181	188.156
827.074	222.055
829.967	171.623
832.859	104.064
835.752	123.402
838.645	126.853
841.537	115.738
844.43	12.1367
847.323	41.4453
850.216	6.37695
853.108	111.383
856.001	3.57812
858.894	69.9805
861.786	40.4355
864.679	94.8926
867.572	3.4668
870.464	22.293
873.357	70.7305
876.25	28.2949
879.143	8.96094
882.035	60.2598
884.928	240.269
887.821	301.18
890.713	537.592
893.606	656.051
896.499	1086.99
899.391	1435.32
902.284	1951.79
905.177	2187.52
908.069	2443.07
910.962	2596.57
913.855	2609.31
916.748	2210.16
919.64	1397.11
922.533	680.051
925.426	401.262
928.318	503.678
931.211	758.625
934.104	1227.48
936.996	1878.2
939.889	2543.42
942.782	3503.58
945.675	4565.09
948.567	5698.1
951.46	6395.72
954.353	7036.65
957.245	7360.92
960.138	7645.45
963.031	7623.69
965.923	7588.41
968.816	7835.74
971.709	8175.26
974.602	8518.43
977.494	8231.09
980.387	7465.85
983.28	6387.11
986.172	5249.33
989.065	4289.33
991.958	3130.7
994.851	2157.22
997.743	1488.84
1000.64	982.344
1003.53	747.785
1006.42	580.66
1009.31	576.318
1012.21	778.443
1015.1	906.113
1017.99	939.646
1020.88	602.752
1023.78	400.457
1026.67	156.848
1029.56	59.9902
1032.46	47.7695
1035.35	70.1523
1038.24	103.465
1041.13	3.93555
1044.03	140.457
1046.92	34.416
1049.81	62.7051
1052.7	2.04102
1055.6	11.2285
1058.49	60.4961
1061.38	121.336
1064.28	137.435
1067.17	148.213
1070.06	156.621
1072.95	123.508
1075.85	158.766
1078.74	387.482
1081.63	377.533
1084.52	507.557
1087.42	486.709
1090.31	547.506
1093.2	688.941
1096.1	642.777
1098.99	765.981
1101.88	1032.25
1104.77	1390.87
1107.67	1630.33
1110.56	1840.08
1113.45	1982.52
1116.34	1935.17
1119.24	1846.32
1122.13	1729.39
1125.02	1515.91
1127.91	1619.28
1130.81	1871.21
1133.7	2217.98
1136.59	2421.07
1139.49	2591.77
1142.38	2315.39
1145.27	1718.03
1148.16	1218.93
1151.06	954.086
1153.95	675.356
1156.84	476.951
1159.73	354.117
1162.63	364.164
1165.52	191.734
1168.41	55.9766
1171.31	179.051
1174.2	185.795
1177.09	110.184
1179.98	47.1152
1182.88	119.67
1185.77	71.543
1188.66	121.705
1191.55	107.727
1194.45	6.63477
1197.34	21.9922
1200.23	53.9551
1203.12	27.8594
1206.02	0.880859
1208.91	53.4414
1211.8	40.9746
1214.7	83.0137
1217.59	7.74023
1220.48	93.3496
1223.37	12.0371
1226.27	63.0254
1229.16	51.2461
1232.05	180.885
1234.94	2.85547
1237.84	1.21094
1240.73	90.334
1243.62	80.6074
1246.52	168.498
1249.41	174.842
1252.3	151.557
1255.19	190.471
1258.09	164.344
1260.98	144.273
1263.87	107.01
1266.77	159.639
1269.66	56.582
1272.55	132.588
1275.44	147.221
1278.34	170.99
1281.23	209.514
1284.12	157.252
1287.01	119.223
1289.91	151.107
1292.8	66.9316
1295.69	154.791
1298.58	75.0137
1301.48	22.5664
1304.37	100.705
1307.26	35.0195
1310.15	133.301
1313.05	37.6719
1315.94	52.5508
