Measurement: Raman, 780 nm, unoriented, Raman Data Processed
Mineral: Kegelite
Rruff sample: R080021
Ideal chemistry: Pb_4_Al_2_Si_4_O_10_(SO_4_)(CO_3_)_2_(OH)_4_
Locality: Tsumeb, Namibia
Source: William W. Pinch
Description: Colorless sectile crystal plates with perfect (100) cleavage, associated with mimetite
Raman shift (cm-1)	intensity
155.199	0
158.091	0.390533
160.984	0.169472
163.877	1.49799
166.77	1.89415
169.662	3.12419
172.555	4.36428
175.448	5.19385
178.34	6.15292
181.233	6.67135
184.126	6.71873
187.018	7.4447
189.911	6.31073
192.804	5.8733
195.697	5.38337
198.589	4.93687
201.482	4.54456
204.375	3.6144
207.267	3.99121
210.16	5.07037
213.053	4.55265
215.946	4.15678
218.838	3.7494
221.731	3.53443
224.624	4.30024
227.516	4.0512
230.409	4.49361
233.302	6.22364
236.194	8.07033
239.087	9.38239
241.98	10.3348
244.873	11.3856
247.765	13.4547
250.658	15.4743
253.551	17.3697
256.443	18.568
259.336	18.7837
262.229	18.821
265.121	16.1857
268.014	10.4965
270.907	6.08107
273.8	2.80085
276.692	1.20615
279.585	0.80418
282.478	0.022797
285.37	0.728821
288.263	0.417271
291.156	0.761627
294.048	0.392124
296.941	0.156849
299.834	0.216442
302.726	0.300457
305.619	0.095379
308.512	0.395973
311.405	0.399975
314.297	1.01233
317.19	1.51581
320.083	1.14011
322.975	1.59849
325.868	1.8201
328.761	2.18084
331.654	2.68753
334.546	2.66527
337.439	3.41377
340.332	3.48825
343.224	3.28593
346.117	2.88324
349.01	3.13692
351.902	3.68936
354.795	3.90454
357.688	4.38699
360.58	4.74915
363.473	6.50095
366.366	6.4163
369.259	7.28231
372.151	7.81212
375.044	8.52179
377.937	8.89397
380.829	8.78856
383.722	8.93228
386.615	8.57733
389.507	7.89829
392.4	8.17017
395.293	7.49316
398.185	6.89439
401.078	6.07054
403.971	6.19635
406.864	6.42586
409.756	5.19879
412.649	4.06715
415.542	4.08321
418.434	4.09967
421.327	3.45491
424.22	3.88152
427.113	4.70106
430.005	6.51133
432.898	8.13376
435.791	8.6332
438.683	5.65897
441.576	3.87806
444.469	2.99945
447.361	1.98827
450.254	1.47291
453.147	2.11183
456.039	2.63981
458.932	2.88129
461.825	3.16641
464.718	2.73555
467.61	2.59446
470.503	1.5738
473.396	1.01941
476.288	0.58559
479.181	0.177292
482.074	0.12989
484.966	0.800545
487.859	0.078831
490.752	0.222286
493.645	0.076931
496.537	0.021828
499.43	0.060381
502.323	0.257919
505.215	0.272438
508.108	0.203186
511.001	0.135654
513.894	0.40992
516.786	0.153891
519.679	0.542641
522.572	0.609077
525.464	0.821888
528.357	0.327982
531.25	0.751513
534.142	1.09108
537.035	1.01789
539.928	1.15846
542.821	0.994699
545.713	0.841413
548.606	0.781334
551.499	1.03486
554.391	0.818523
557.284	0.843456
560.177	0.600204
563.069	0.258352
565.962	0.93161
568.855	0.536478
571.747	0.121618
574.64	0.578207
577.533	0.894054
580.426	0.792543
583.318	0.953907
586.211	1.01719
589.104	1.10367
591.996	1.83223
594.889	1.7423
597.782	2.51877
600.674	2.62809
603.567	2.51966
606.46	2.20147
609.352	2.39209
612.245	1.83531
615.138	2.01397
618.031	1.65673
620.923	1.83035
623.816	1.88752
626.709	1.32797
629.601	1.13381
632.494	0.754152
635.387	0.221434
638.279	0.164461
641.172	0.208185
644.065	0.020348
646.958	0.091051
649.85	0.177876
652.743	0.219313
655.636	0.002762
658.528	0.309654
661.421	0.025158
664.314	0.060362
667.207	0.275421
670.099	1.29363
672.992	2.24835
675.885	2.5095
678.777	3.74668
681.67	4.82037
684.563	5.74395
687.455	5.29709
690.348	5.34131
693.241	5.68108
696.134	6.7553
699.026	8.63371
701.919	9.39718
704.812	9.4222
707.704	8.16473
710.597	5.84909
713.49	4.05657
716.382	1.85554
719.275	1.78616
722.168	0.94486
725.061	0.722359
727.953	0.521374
730.846	0.186995
733.739	0.369081
736.631	0.02754
739.524	0.386555
742.417	0.141541
745.309	0.128405
748.202	0.036381
751.095	0.216377
753.987	0.020565
756.88	0.338358
759.773	0.088118
762.666	0.373823
765.558	0.501841
768.451	0.536507
771.344	0.877552
774.236	0.736526
777.129	1.49244
780.022	1.05174
782.914	1.90569
785.807	1.93995
788.7	2.38708
791.593	2.22271
794.485	3.11215
797.378	3.29067
800.271	4.30382
803.163	5.38649
806.056	6.90791
808.949	7.38223
811.841	6.56038
814.734	5.42328
817.627	4.01631
820.52	3.099
823.412	2.25415
826.305	2.14568
829.198	1.75305
832.09	1.27358
834.983	1.2786
837.876	1.69467
840.769	1.54584
843.661	1.28473
846.554	1.552
849.447	1.1031
852.339	1.24167
855.232	1.23238
858.125	1.28594
861.017	1.42181
863.91	1.05981
866.803	1.27273
869.696	1.07322
872.588	0.814159
875.481	0.966177
878.374	0.837528
881.266	0.923004
884.159	0.494913
887.052	0.630867
889.944	0.2495
892.837	0.059874
895.73	0.294603
898.622	0.14542
901.515	0.910177
904.408	0.222429
907.301	0.417246
910.193	0.470066
913.086	0.019867
915.979	0.11834
918.871	0.155354
921.764	0.117199
924.657	0.000511
927.549	0.096262
930.442	0.174725
933.335	0.33683
936.227	0.008448
939.12	0.096279
942.013	0.255552
944.906	0.842045
947.798	1.66538
950.691	3.31012
953.584	5.52155
956.476	8.48456
959.369	12.634
962.262	18.5673
965.154	24.0982
968.047	26.4094
970.94	26.8247
973.833	26.1441
976.725	21.8035
979.618	14.7242
982.511	9.30528
985.403	6.01055
988.296	3.58579
991.189	1.90401
994.082	0.350346
996.974	0.445158
999.867	0.694078
1002.76	0.045277
1005.65	0.482109
1008.54	0.212143
1011.44	0.208801
1014.33	0.281721
1017.22	0.080948
1020.12	0.192633
1023.01	0.17997
1025.9	0.067135
1028.79	0.06423
1031.69	0.071424
1034.58	0.613976
1037.47	0.596703
1040.37	0.69199
1043.26	2.08554
1046.15	3.43801
1049.04	8.05545
1051.94	16.3296
1054.83	22.9595
1057.72	30.9208
1060.61	48.2204
1063.51	58.0703
1066.4	18.8792
1069.29	4.63385
1072.18	1.8553
1075.08	1.88859
1077.97	1.64932
1080.86	1.7938
1083.76	1.08359
1086.65	1.50734
1089.54	1.95052
1092.43	1.21486
1095.33	1.26319
1098.22	1.12265
1101.11	1.27976
1104	0.787321
1106.9	0.954975
1109.79	0.928951
1112.68	1.32824
1115.58	0.991018
1118.47	0.540533
1121.36	0.689371
1124.25	0.57839
1127.15	0.526712
1130.04	0.815372
1132.93	0.677605
1135.82	0.336561
1138.72	0.790874
1141.61	0.862156
1144.5	0.604752
1147.39	0.020424
1150.29	0.033571
1153.18	0.202019
1156.07	0.034796
1158.96	0.211206
1161.86	0.138622
1164.75	0.069529
1167.64	0.061031
1170.54	0.17618
1173.43	0.000565
1176.32	0.494335
1179.21	0.084028
1182.11	0.075901
1185	0.389128
1187.89	0.15213
1190.79	0.103699
1193.68	0.175438
1196.57	0.610668
1199.46	0.303141
1202.36	0.268591
1205.25	0.232946
1208.14	0.081528
1211.03	0.414593
1213.93	0.57946
1216.82	0.519873
1219.71	0.344812
1222.61	0.28545
1225.5	0.426088
1228.39	0.179522
1231.28	0.320673
1234.18	0.872671
1237.07	0.279819
1239.96	0.102375
1242.85	0.201416
1245.75	0.086369
1248.64	0.714111
1251.53	0.585526
1254.42	0.856821
1257.32	0.460775
1260.21	0.138256
1263.1	0.534678
1265.99	0.150059
1268.89	0.642733
1271.78	0.346514
1274.67	0.417198
1277.57	0.141916
1280.46	0.683599
1283.35	0.603809
1286.24	0.172371
