Measurement: Raman, 532 nm, unoriented, Raman Data Processed
Mineral: Kegelite
Rruff sample: R080021
Ideal chemistry: Pb_4_Al_2_Si_4_O_10_(SO_4_)(CO_3_)_2_(OH)_4_
Locality: Tsumeb, Namibia
Source: William W. Pinch
Description: Colorless sectile crystal plates with perfect (100) cleavage, associated with mimetite
Raman shift (cm-1)	intensity
156.39	0
159.283	0.42691
162.175	0.143539
165.068	0.803864
167.961	0.979889
170.853	3.15434
173.746	1.95636
176.639	3.17827
179.532	4.56158
182.424	4.91632
185.317	5.13017
188.21	6.02954
191.102	4.33957
193.995	3.61835
196.888	2.66904
199.78	3.11333
202.673	2.84258
205.566	4.51945
208.459	4.28342
211.351	5.82954
214.244	7.02687
217.137	8.35681
220.029	8.7744
222.922	9.72704
225.815	10.0789
228.708	12.0123
231.6	14.1967
234.493	15.6478
237.386	16.2966
240.278	19.0259
243.171	21.396
246.064	24.4872
248.956	27.0861
251.849	30.2339
254.742	32.501
257.635	34.7107
260.527	34.7469
263.42	32.7973
266.313	24.0672
269.205	14.9098
272.098	9.43955
274.991	5.89619
277.883	4.21446
280.776	1.14383
283.669	1.1985
286.562	0.409683
289.454	1.27006
292.347	0.415115
295.24	0.929596
298.132	1.42558
301.025	1.38756
303.918	0.809784
306.81	0.251785
309.703	0.278198
312.596	0.888885
315.488	0.459885
318.381	1.54408
321.274	1.15759
324.167	1.85049
327.059	2.57567
329.952	4.68779
332.845	5.09607
335.737	7.52267
338.63	7.96695
341.523	8.81424
344.415	10.255
347.308	11.613
350.201	12.5985
353.094	13.9537
355.986	16.2898
358.879	16.5198
361.772	19.2281
364.664	20.0295
367.557	22.8091
370.45	25.8909
373.342	29.2762
376.235	30.0575
379.128	30.5293
382.021	30.7134
384.913	31.2195
387.806	29.5996
390.699	29.1794
393.591	27.8581
396.484	26.1565
399.377	25.187
402.269	22.9883
405.162	22.6237
408.055	20.6508
410.947	18.1061
413.84	13.5085
416.733	11.548
419.626	9.69307
422.518	10.2648
425.411	10.3412
428.304	13.4485
431.196	16.5716
434.089	17.1974
436.982	15.4804
439.875	9.64999
442.767	6.78821
445.66	5.06813
448.553	4.51964
451.445	5.43907
454.338	3.77443
457.231	5.25029
460.123	4.1362
463.016	5.46852
465.909	4.37802
468.801	2.87047
471.694	2.57938
474.587	1.86247
477.48	0.038605
480.372	0.59729
483.265	0.330414
486.158	0.297211
489.05	0.109924
491.943	0.117447
494.836	0.08046
497.728	0.165894
500.621	0.994995
503.514	0.430084
506.407	0.614639
509.299	0.767639
512.192	0.257477
515.085	0.747665
517.977	0.260239
520.87	0.006149
523.763	0.158768
526.655	1.16063
529.548	1.40074
532.441	1.70107
535.334	2.11704
538.226	1.17946
541.119	1.94791
544.012	1.82004
546.904	1.64973
549.797	1.37254
552.69	1.89134
555.582	1.36316
558.475	1.226
561.368	0.862442
564.261	0.943817
567.153	0.587708
570.046	0.542038
572.939	1.02896
575.831	0.886429
578.724	0.897888
581.617	1.5894
584.51	1.50348
587.402	1.04134
590.295	1.85161
593.188	2.05818
596.08	3.98996
598.973	4.29776
601.866	4.41513
604.758	3.62903
607.651	3.78565
610.544	3.13568
613.437	2.28044
616.329	2.75856
619.222	2.23485
622.115	2.88751
625.007	1.76946
627.9	2.88936
630.793	3.57368
633.685	4.98671
636.578	4.79198
639.471	5.68779
642.364	4.62184
645.256	1.66481
648.149	1.11609
651.042	0.331787
653.934	0.285645
656.827	0.461441
659.72	0.228943
662.612	0.023544
665.505	0.58963
668.398	0.082001
671.29	0.288193
674.183	1.42188
677.076	2.90707
679.969	4.14224
682.861	5.86179
685.754	5.41051
688.647	4.69989
691.539	6.93901
694.432	8.51436
697.325	11.7584
700.217	13.6958
703.11	15.3863
706.003	15.3572
708.896	12.3199
711.788	7.87018
714.681	5.35117
717.574	1.64072
720.466	1.57695
723.359	1.70216
726.252	0.5392
729.144	0.340973
732.037	0.411423
734.93	0.30368
737.823	0.538025
740.715	0.339615
743.608	0.581421
746.501	0.400192
749.393	0.509415
752.286	0.152039
755.179	1.34633
758.072	0.586563
760.964	1.6041
763.857	1.84618
766.75	3.0573
769.642	2.4276
772.535	2.01973
775.428	4.51877
778.32	4.35516
781.213	6.58833
784.106	11.2248
786.998	15.4926
789.891	15.2243
792.784	10.8733
795.677	11.5995
798.569	11.5691
801.462	9.94299
804.355	10.4179
807.247	10.9662
810.14	10.663
813.033	9.40903
815.925	10.5134
818.818	9.4781
821.711	9.19389
824.604	9.40378
827.496	8.85487
830.389	8.75278
833.282	8.63524
836.174	8.65428
839.067	8.65759
841.96	7.44876
844.852	7.5464
847.745	6.59264
850.638	4.72542
853.53	4.38284
856.423	4.18774
859.316	4.84152
862.209	3.0211
865.101	3.16821
867.994	2.73206
870.887	0.960602
873.779	1.03502
876.672	1.54893
879.565	0.093063
882.457	0.693344
885.35	0.455917
888.243	0.018661
891.136	0.362747
894.028	0.539932
896.921	0.730759
899.814	0.199371
902.706	0.735565
905.599	0.939819
908.492	2.26219
911.385	1.68677
914.277	3.77922
917.17	2.5663
920.063	2.40622
922.955	1.34666
925.848	1.20104
928.741	0.542542
931.633	0.413925
934.526	0.094971
937.419	0.994675
940.312	1.51981
943.204	2.75665
946.097	2.90916
948.99	6.1474
951.882	9.22185
954.775	16.5263
957.668	26.3438
960.56	41.4887
963.453	59.9793
966.346	76.6932
969.239	80.8318
972.131	81.0072
975.024	76.8159
977.917	59.598
980.809	39.2917
983.702	26.8791
986.595	16.937
989.487	9.27834
992.38	5.39053
995.273	3.82654
998.165	1.13556
1001.06	0.836594
1003.95	0.984406
1006.84	0.171158
1009.74	0.538681
1012.63	0.278305
1015.52	0.511932
1018.41	0.27272
1021.31	0.659393
1024.2	0.077591
1027.09	0.403015
1029.98	0.012344
1032.88	0.54863
1035.77	0.599976
1038.66	1.7751
1041.56	2.06126
1044.45	5.12546
1047.34	11.3314
1050.23	25.4779
1053.13	58.345
1056.02	87.2518
1058.91	124.507
1061.81	203.658
1064.7	167.708
1067.59	39.2073
1070.48	11.7617
1073.38	7.06113
1076.27	5.28078
1079.16	4.49982
1082.05	4.62744
1084.95	6.20021
1087.84	4.50456
1090.73	4.54807
1093.62	3.74174
1096.52	3.43895
1099.41	4.5648
1102.3	5.64668
1105.19	6.3651
1108.09	8.44064
1110.98	10.009
1113.87	10.681
1116.77	9.02159
1119.66	7.04684
1122.55	5.76517
1125.44	3.67935
1128.34	4.51366
1131.23	2.59285
1134.12	2.11493
1137.02	1.76828
1139.91	2.64354
1142.8	2.00915
1145.69	2.2289
1148.59	2.46262
1151.48	2.55632
1154.37	1.73059
1157.26	2.02685
1160.16	1.59695
1163.05	0.773636
1165.94	0.020218
1168.84	0.259384
1171.73	0.630676
1174.62	0.052673
1177.51	0.358459
1180.41	0.631454
1183.3	4.13818
1186.19	5.60803
1189.08	3.79939
1191.98	2.17534
1194.87	0.321884
1197.76	0.166183
1200.65	0.30101
1203.55	0.223053
1206.44	0.179474
1209.33	0.769104
1212.22	1.41414
1215.12	2.16435
1218.01	3.65376
1220.9	4.37572
1223.8	5.87932
1226.69	5.84175
1229.58	6.08293
1232.47	5.02994
1235.37	4.65224
1238.26	4.05025
1241.15	3.64864
1244.05	4.49702
1246.94	5.52167
1249.83	5.64729
1252.72	5.25322
1255.62	5.68072
1258.51	4.06491
1261.4	3.54642
1264.29	2.69545
1267.19	1.14948
1270.08	0.763565
1272.97	1.23465
1275.87	0.557098
1278.76	0.189102
1281.65	0.4646
1284.54	0.498428
1287.43	2.11693
1290.33	1.54471
1293.22	1.76018
1296.11	0.574356
1299.01	2.15468
1301.9	1.21832
1304.79	0.008133
