Measurement: Raman, 532 nm, unoriented, Raman Data Processed
Mineral: Keiviite-(Yb)
Rruff sample: R060522
Ideal chemistry: Yb_2_Si_2_O_7_
Locality: Mount Ploskaja, west Keivy, Kola, Russia
Source: Michael Scott
Description: White massive blebs in fluorite
Raman shift (cm-1)	intensity
112.844	0
116.219	1859.23
119.594	4568.28
122.968	3931.98
126.343	2970.89
129.718	4306.79
133.093	7573.56
136.468	9778.08
139.842	10136.7
143.217	8525.65
146.592	6282.79
149.967	4075.27
153.342	2316.86
156.717	844.059
160.091	64.516
163.466	74.493
166.841	100.062
170.216	326.476
173.591	66.592
176.965	44.513
180.34	23.609
183.715	39.771
187.09	142.053
190.465	149.436
193.84	83.766
197.214	20.51
200.589	71.653
203.964	70.661
207.339	100.683
210.714	4.301
214.089	77.051
217.463	120.754
220.838	7.878
224.213	8.375
227.588	68.633
230.963	228.206
234.337	372.362
237.712	546.827
241.087	486.799
244.462	560.3
247.837	726.423
251.212	575.757
254.586	276.593
257.961	162.198
261.336	206.918
264.711	260.579
268.086	366.453
271.46	354.117
274.835	332.149
278.21	291.994
281.585	325.848
284.96	274.708
288.335	64.536
291.709	185.83
295.084	247.697
298.459	257.506
301.834	429.901
305.209	1010.18
308.583	1605.19
311.958	2407.28
315.333	3209.92
318.708	3944.64
322.083	4811.77
325.457	5511.32
328.832	6231.02
332.207	6321.4
335.582	5984.06
338.957	5153.41
342.332	4668.77
345.706	3869.34
349.081	3256.06
352.456	2889.34
355.831	2353.44
359.206	1587.53
362.581	812.369
365.955	54.988
369.33	355.565
372.705	162.866
376.08	492.933
379.455	448.407
382.829	292.765
386.204	374.046
389.579	31.649
392.954	1136.94
396.329	4810.87
399.703	10482.9
403.078	15879.2
406.453	21024.7
409.828	23748.5
413.203	23522
416.578	20265.7
419.952	15567.6
423.327	11374.3
426.702	11101
430.077	16042.6
433.452	26937.8
436.827	41602.3
440.201	60025.8
443.576	79487
446.951	95474.6
450.326	105177
453.701	110802
457.075	112876
460.45	112356
463.825	107888
467.2	95860.1
470.575	76560
473.949	52803.8
477.324	28206.2
480.699	8142.76
484.074	1058.58
487.449	1601.24
490.824	1213.27
494.198	6797.5
497.573	23898.2
500.948	42223.1
504.323	48150.4
507.698	35004.6
511.073	18458
514.447	11867.4
517.822	13317.3
521.197	15899.2
524.572	19203.1
527.947	24723.5
531.321	34923.2
534.696	50983.2
538.071	70037.6
541.446	80897.9
544.821	78787.4
548.195	76419
551.57	79326.6
554.945	80688.1
558.32	70293.1
561.695	45728.8
565.07	21810.5
568.444	6031.89
571.819	545.974
575.194	1071.18
578.569	208.982
581.944	1059.53
585.318	10.456
588.693	4642.09
592.068	16236.1
595.443	33326.8
598.818	57385.6
602.193	86404.9
605.567	118417
608.942	139304
612.317	133110
615.692	100369
619.067	67058.6
622.442	46330.5
625.816	36839.5
629.191	34784.5
632.566	36359.1
635.941	39822
639.316	43676.6
642.69	43903.2
646.065	38920.5
649.44	29223.3
652.815	19894.2
656.19	12654.1
659.565	7779.12
662.939	4600.75
666.314	2316.15
669.689	949.174
673.064	289.004
676.439	298.715
679.813	2.37
683.188	63.328
686.563	179.007
689.938	23.215
693.313	221.573
696.688	153.03
700.062	756.814
703.437	1275.74
706.812	2316.6
710.187	3434.57
713.562	4947.88
716.936	6642.17
720.311	7854.53
723.686	8290.71
727.061	7601.1
730.436	7293.25
733.81	6632.31
737.185	5537.68
740.56	4164.8
743.935	2993.81
747.31	2580.49
750.685	1919.02
754.059	1424.9
757.434	1346.83
760.809	999.928
764.184	599.555
767.559	152.005
770.933	13.27
774.308	84.645
777.683	595.261
781.058	713.375
784.433	448.836
787.808	179.985
791.182	241.889
794.557	267.308
797.932	216.866
801.307	344.504
804.682	1741.21
808.057	4071.69
811.431	7042.06
814.806	11460.9
818.181	17030.3
821.556	23747.9
824.93	30827.5
828.305	36950.4
831.68	39219.3
835.055	37466
838.43	32727.8
841.805	25307.7
845.18	17403.3
848.554	11964.7
851.929	9044.59
855.304	8169.82
858.679	9295.81
862.054	10112.6
865.428	8727.77
868.803	5117.4
872.178	891.39
875.553	691.433
878.928	27.506
882.302	334.711
885.677	661.435
889.052	547.779
892.427	2124.32
895.802	4283.14
899.177	6040.97
902.551	8079.21
905.926	12630.6
909.301	20226
912.676	31763.6
916.051	45859.1
919.425	60390.1
922.8	70974.5
926.175	75068.1
929.55	71874.3
932.925	63812.9
936.3	59414
939.674	65042.3
943.049	81207.6
946.424	104624
949.799	127923
953.174	140764
956.549	136223
959.923	116452
963.298	91735.9
966.673	67702.8
970.048	47982.2
973.422	33101.2
976.797	22091.1
980.172	14052.1
983.547	7873.52
986.922	3586.45
990.297	363.168
993.672	364.423
997.046	137.203
1000.42	396.392
1003.8	104.056
1007.17	66.953
1010.55	136.747
1013.92	159.246
1017.29	66.258
1020.67	189.928
1024.05	468.319
1027.42	1229.28
1030.79	2139.51
1034.17	2817.8
1037.54	3509.05
1040.92	4107.34
1044.29	4708.33
1047.67	5184.1
1051.04	5549.15
1054.42	5778.91
1057.79	6057.28
1061.17	5904.54
1064.54	5541.6
1067.92	5293.86
1071.29	4881.09
1074.67	4181.22
1078.04	3783.09
1081.42	3263.47
1084.79	3189.47
1088.17	2908.71
1091.54	2691.85
1094.92	2476.24
1098.29	2395.13
1101.67	2109.96
1105.04	2026.9
1108.41	1861.62
1111.79	1544.74
1115.16	1349.87
1118.54	1053.67
1121.91	853.385
1125.29	661.132
1128.66	386.014
1132.04	321.885
1135.41	296.775
1138.79	54.675
1142.16	16.598
1145.54	63.741
1148.91	124.008
1152.29	57.014
1155.66	164.632
1159.04	70.338
1162.41	9.619
1165.79	48.535
1169.16	104.638
1172.54	29.776
1175.91	27.114
1179.29	57.613
1182.66	105.555
1186.04	150.061
1189.41	35.421
1192.79	102.22
1196.16	52.014
1199.54	59.184
1202.91	53.161
1206.29	101.847
1209.66	64.15
1213.04	109.519
1216.41	113.353
1219.78	191.751
1223.16	178.083
1226.53	296.29
1229.91	222.895
1233.28	230.998
1236.66	186.771
1240.03	224.792
1243.41	171.576
1246.78	245.756
1250.16	139.548
1253.53	396.601
1256.91	172.629
1260.28	291.102
1263.66	224.186
1267.03	63.467
1270.41	10.526
1273.78	269.283
1277.16	247.778
1280.53	154.447
1283.91	129.991
1287.28	43.37
1290.66	39.869
1294.03	0
