Measurement: Raman, 532 nm, unoriented, Raman Data Processed
Mineral: Kellyite
Rruff sample: R060903
Ideal chemistry: (Mn^2+^,Mg,Al)_3_(Si,Al)_2_O_5_(OH)_4_
Locality: Near Bald Knob, Alleghany County, North Carolina, USA
Source: Michael Scott
Description: Light-yellow irregular to platy tablets
Measured chemistry: (Mn^2+^_1.77_Al_0.96_Mg_0.19_Fe^2+^_0.08_)_Σ=3_(Si_1.04_Al_0.96_)_Σ=2_O_5_(OH)_4_ ; trace amounts of F; the lighter fragment  up-right is kutnohorite: (Ca_0.81_Mn_0.19_)_Σ=1_(Mn_0.99_Mg_0.01_)_Σ=1_(CO_3_)_2_; C not measured but estimated by difference
Raman shift (cm-1)	intensity
146.111	0
149.004	6.45581
151.896	77.3689
154.789	137.91
157.682	355.091
160.574	645.981
163.467	899.421
166.36	942.516
169.252	968.007
172.145	869.825
175.038	602.63
177.931	424.5
180.823	267.455
183.716	222.99
186.609	208.134
189.501	181.498
192.394	149.202
195.287	69.2812
198.179	29.3887
201.072	10.0337
203.965	58.0181
206.858	28.8369
209.75	5.53662
212.643	30.2036
215.536	33.9663
218.428	115.066
221.321	100.758
224.214	74.2925
227.107	18.4253
229.999	43.9697
232.892	138.999
235.785	275.959
238.677	331.758
241.57	387.504
244.463	567.841
247.355	685.946
250.248	874.511
253.141	1145.25
256.033	1471.59
258.926	1722.45
261.819	1748.52
264.712	1661.81
267.604	1485.5
270.497	1335.91
273.39	1104.44
276.282	1036.16
279.175	937.859
282.068	849.214
284.96	841.736
287.853	854.691
290.746	897.444
293.639	824.835
296.531	807.52
299.424	680.226
302.317	746.598
305.209	791.636
308.102	799.444
310.995	645.045
313.887	513.253
316.78	278.995
319.673	77.0478
322.565	15.166
325.458	58.0654
328.351	15.6963
331.244	48.7041
334.136	81.6274
337.029	12.8252
339.922	14.9878
342.814	20.6611
345.707	11.7036
348.6	113.558
351.493	240.25
354.385	298.91
357.278	304.087
360.171	306.49
363.063	301.006
365.956	327.92
368.849	342.272
371.741	396.446
374.634	592.065
377.527	839.438
380.419	1233.52
383.312	1500.27
386.205	1478.7
389.098	1428.21
391.99	1473.11
394.883	1371.55
397.776	1019.84
400.668	649.471
403.561	409.568
406.454	293.339
409.346	164.013
412.239	110.003
415.132	127.186
418.024	172.082
420.917	209.836
423.81	315.501
426.703	452.42
429.595	617.069
432.488	903.877
435.381	1155.57
438.273	1372.52
441.166	1277.11
444.059	1004.14
446.952	769.343
449.844	536.074
452.737	350.728
455.63	164.672
458.522	98.6304
461.415	77.9819
464.308	134.215
467.2	147.532
470.093	131.155
472.986	101.316
475.878	23.1455
478.771	20.5762
481.664	39.6592
484.557	30.8945
487.449	42.3745
490.342	68.1191
493.235	157.844
496.127	215.704
499.02	326.983
501.913	441.441
504.805	619.766
507.698	783.482
510.591	892.034
513.484	950.875
516.376	999.646
519.269	933.624
522.162	928.276
525.054	889.765
527.947	808.702
530.84	773.099
533.732	589.306
536.625	524.97
539.518	395.156
542.41	351.673
545.303	287.489
548.196	263.059
551.089	125.62
553.981	80.4033
556.874	57.7471
559.767	7.29297
562.659	60.5591
565.552	4.68311
568.445	4.45557
571.337	21.0415
574.23	11.3306
577.123	12.0146
580.016	21.7334
582.908	38.5425
585.801	4.67627
588.694	35.666
591.586	72.1055
594.479	81.5244
597.372	21.1865
600.264	121.044
603.157	225.139
606.05	320.096
608.942	394.812
611.835	570.286
614.728	707.224
617.621	757.667
620.513	879.37
623.406	1002.83
626.299	936.182
629.191	909.189
632.084	923.276
634.977	986.858
637.87	1134.68
640.762	1315.67
643.655	1544.09
646.548	1638.83
649.44	1470.33
652.333	1265.53
655.226	1003.12
658.118	1030.67
661.011	1030.17
663.904	1103.62
666.797	1267.41
669.689	1463.33
672.582	1524.9
675.475	1389.52
678.367	1087.07
681.26	829.119
684.153	626.027
687.045	411.259
689.938	304.074
692.831	209.136
695.723	137.931
698.616	92.9565
701.509	46.9966
704.402	23.7329
707.294	37.7476
710.187	10.7505
713.08	57.2803
715.972	36.1846
718.865	11.2085
721.758	31.9795
724.65	70.4194
727.543	15.0181
730.436	14.1807
733.328	13.8506
736.221	31.6865
739.114	76.8144
742.007	70.1372
744.899	164.786
747.792	177.661
750.685	227.855
753.577	199.881
756.47	276.4
759.363	298.116
762.255	308.721
765.148	335.753
768.041	409.401
770.934	419.486
773.826	450.536
776.719	481.026
779.612	502.097
782.504	629.765
785.397	679.904
788.29	787.852
791.183	791.077
794.075	818.619
796.968	686.613
799.861	551.32
802.753	471.229
805.646	370.514
808.539	338.187
811.431	274.541
814.324	226.019
817.217	172.852
820.109	129.088
823.002	98.9829
825.895	62.5742
828.788	69.6479
831.68	60.7671
834.573	19.1899
837.466	44.5967
840.358	36.7744
843.251	21.6807
846.144	5.03369
849.036	5.24902
851.929	4.64209
854.822	1.47607
857.715	48.8892
860.607	47.229
863.5	54.6338
866.393	38.0371
869.285	49.6099
872.178	36.7002
875.071	23.8325
877.963	59.4273
880.856	26.6977
883.749	12.0938
886.641	22.1186
889.534	8.38818
892.427	17.021
895.32	14.1035
898.212	20.2739
901.105	31.311
903.998	37.3071
906.89	69.1143
909.783	61.0649
912.676	125.646
915.568	127.533
918.461	235.898
921.354	236.402
924.246	308.115
927.139	357.428
930.032	284.566
932.925	218.785
935.817	171.823
938.71	141.664
941.603	156.542
944.495	181.686
947.388	218.603
950.281	183.459
953.173	256.188
956.066	190.979
958.959	182.109
961.852	145.263
964.744	210.722
967.637	214.179
970.53	221.719
973.422	137.855
976.315	68.4434
979.208	80.9702
982.101	56.8701
984.993	58.1245
987.886	121.264
990.779	168.366
993.671	226.834
996.564	354.861
999.457	425.202
1002.35	390.658
1005.24	316.427
1008.13	168.168
1011.03	86.5073
1013.92	55.9502
1016.81	4.95166
1019.71	3.62109
1022.6	5.04053
1025.49	35.7007
1028.38	30.4727
1031.28	43.1714
1034.17	47.5835
1037.06	50.8745
1039.95	138.964
1042.85	42.0195
1045.74	44.2895
1048.63	87.7949
1051.53	100.543
1054.42	72.2783
1057.31	69.1611
1060.2	24.9775
1063.1	17.2144
1065.99	27.9824
1068.88	19.2793
1071.77	27.2485
1074.67	57.9502
1077.56	9.63086
1080.45	25.5444
1083.35	11.7588
1086.24	31.811
1089.13	48.0381
1092.02	26.6494
1094.92	35.0727
1097.81	112.11
1100.7	88.709
1103.59	86.8149
1106.49	109.334
1109.38	109.456
1112.27	34.3574
1115.16	39.9014
1118.06	61.8926
1120.95	116.384
1123.84	51.8877
1126.73	46.6943
1129.63	81.5303
1132.52	93.7769
1135.41	95.7119
1138.31	83.6309
1141.2	23.3398
1144.09	28.6738
1146.98	10.606
1149.88	27.0239
1152.77	59.23
1155.66	95.7749
1158.56	72.8442
1161.45	88.7124
1164.34	73.9121
1167.23	8.22363
1170.13	11.4697
1173.02	70.9746
1175.91	109.406
1178.8	113.161
1181.7	88.7866
1184.59	78.0464
1187.48	61.4522
1190.38	38.2427
1193.27	44.3882
1196.16	17.2065
1199.05	32.0986
1201.94	1.80908
1204.84	20.6811
1207.73	14.1079
1210.62	53.3711
1213.52	5.21484
1216.41	51.0391
1219.3	68.2622
1222.19	11.1572
1225.09	57.7793
1227.98	39.6206
1230.87	42.6533
1233.77	33.252
1236.66	35.9673
1239.55	63.3682
1242.44	76.9228
1245.34	71.5322
1248.23	40.1582
1251.12	15.8823
1254.01	2.86377
1256.91	50.2168
1259.8	90.3433
1262.69	8.45215
1265.59	19.7105
1268.48	1.74023
1271.37	64.1514
1274.26	47.6318
1277.16	13.8965
