Measurement: Raman, 785 nm, unoriented, Raman Data Processed
Mineral: Kellyite
Rruff sample: R060903
Ideal chemistry: (Mn^2+^,Mg,Al)_3_(Si,Al)_2_O_5_(OH)_4_
Locality: Near Bald Knob, Alleghany County, North Carolina, USA
Source: Michael Scott
Description: Light-yellow irregular to platy tablets
Measured chemistry: (Mn^2+^_1.77_Al_0.96_Mg_0.19_Fe^2+^_0.08_)_Σ=3_(Si_1.04_Al_0.96_)_Σ=2_O_5_(OH)_4_ ; trace amounts of F; the lighter fragment  up-right is kutnohorite: (Ca_0.81_Mn_0.19_)_Σ=1_(Mn_0.99_Mg_0.01_)_Σ=1_(CO_3_)_2_; C not measured but estimated by difference
Raman shift (cm-1)	intensity
142.258	0
145.151	15.8109
148.044	123.924
150.936	123.591
153.829	96.4121
156.722	82.9143
159.615	124.409
162.507	252.318
165.4	438.911
168.293	589.981
171.185	626.102
174.078	503.179
176.971	357.957
179.863	219.464
182.756	96.6803
185.649	40.683
188.542	46.162
191.434	36.2695
194.327	40.6583
197.22	10.1331
200.112	17.0275
203.005	0.534058
205.898	10.1006
208.791	10.8314
211.683	5.24475
214.576	52.1111
217.469	81.9922
220.361	162.5
223.254	139.487
226.147	104.408
229.04	38.5087
231.932	38.7614
234.825	19.3501
237.718	72.4191
240.61	114.416
243.503	120.499
246.396	156.056
249.288	151.659
252.181	248.161
255.074	401.99
257.966	622.905
260.859	718.31
263.752	753.637
266.645	812.513
269.537	736.831
272.43	670.561
275.323	540.821
278.215	522.918
281.108	499.759
284.001	447.364
286.894	508.506
289.786	545.856
292.679	601.98
295.572	579.734
298.464	543.48
301.357	457.052
304.25	472.807
307.142	473.928
310.035	464.352
312.928	386.032
315.82	282.847
318.713	189.919
321.606	37.5732
324.499	31.8275
327.391	46.3608
330.284	33.9288
333.177	55.571
336.069	103.312
338.962	103.99
341.855	17.4054
344.748	16.2206
347.64	22.603
350.533	105.334
353.426	230.788
356.318	256.42
359.211	276.967
362.104	287.083
364.996	241.445
367.889	273.482
370.782	296.831
373.675	351.034
376.567	411.461
379.46	612.109
382.353	1040.39
385.245	1258.52
388.138	1069.01
391.031	1130.97
393.923	1412.13
396.816	1348.64
399.709	975.579
402.601	519.234
405.494	284.709
408.387	165.747
411.28	101.722
414.172	33.2958
417.065	36.3297
419.958	56.6661
422.85	94.7116
425.743	124.865
428.636	137.059
431.529	228.75
434.421	465.167
437.314	832.559
440.207	1176.52
443.099	1136.65
445.992	877.771
448.885	648.5
451.777	488.092
454.67	309.321
457.563	176.052
460.455	102.783
463.348	90.4225
466.241	146.946
469.134	223.4
472.026	235.113
474.919	187.48
477.812	112.348
480.704	56.8927
483.597	8.38037
486.49	29.733
489.382	32.9438
492.275	4.89771
495.168	11.6854
498.061	56.3285
500.953	104.972
503.846	178.151
506.739	292.369
509.631	431.136
512.524	555.019
515.417	689.424
518.309	708.54
521.202	679.401
524.095	614.949
526.988	530.523
529.88	455.252
532.773	370.849
535.666	337.217
538.558	325.527
541.451	284.146
544.344	246.814
547.236	213.69
550.129	180.102
553.022	139.448
555.915	102.464
558.807	45.3122
561.7	35.6522
564.593	23.3488
567.485	8.03552
570.378	7.29004
573.271	11.3495
576.163	7.05804
579.056	3.50684
581.949	10.1277
584.842	7.90161
587.734	4.90881
590.627	4.55994
593.52	21.5401
596.413	35.694
599.305	54.2562
602.198	56.0226
605.091	108.457
607.983	117.833
610.876	170.234
613.769	238.532
616.661	321.87
619.554	426.28
622.447	514.885
625.34	612.679
628.232	641.002
631.125	567.182
634.018	487.181
636.91	487.873
639.803	574.34
642.696	771.73
645.588	979.195
648.481	1115.62
651.374	988.369
654.266	704.484
657.159	547.734
660.052	484.962
662.945	436.814
665.837	462.639
668.73	603.815
671.623	837.374
674.515	1032.77
677.408	969.656
680.301	771.997
683.193	540.168
686.086	367.072
688.979	238.789
691.872	175.201
694.764	126.823
697.657	85.0972
700.55	40.4254
703.442	30.0677
706.335	5.91266
709.228	12.302
712.12	18.1567
715.013	0.724182
717.906	7.16443
720.799	8.94598
723.691	3.8902
726.584	13.9266
729.477	0.552429
732.369	5.08783
735.262	15.6324
738.155	19.8239
741.048	25.9229
743.94	27.7173
746.833	24.3454
749.726	42.907
752.618	53.0149
755.511	70.6848
758.404	84.6873
761.296	93.4227
764.189	111.531
767.082	116.386
769.975	131.546
772.867	161.636
775.76	187.211
778.653	205.703
781.545	239.68
784.438	344.968
787.331	436.605
790.223	529.95
793.116	551.761
796.009	509.969
798.902	380.52
801.794	287.681
804.687	222.211
807.58	168.437
810.472	127.424
813.365	99.0317
816.258	91.0804
819.15	93.1624
822.043	87.6759
824.936	64.4261
827.828	31.6165
830.721	30.6785
833.614	6.80304
836.507	18.5215
839.399	5.59888
842.292	8.22589
845.185	11.0121
848.077	1.12891
850.97	33.802
853.863	14.0544
856.755	51.5979
859.648	67.4651
862.541	58.2283
865.434	71.283
868.326	63.2315
871.219	76.2115
874.112	89.3684
877.004	102.127
879.897	102.412
882.79	91.2216
885.683	70.0491
888.575	42.8611
891.468	38.7121
894.361	18.2017
897.253	10.2029
900.146	8.11853
903.039	23.7604
905.931	8.99237
908.824	7.01794
911.717	14.3344
914.61	17.9871
917.502	55.795
920.395	43.2069
923.288	55.7117
926.18	113.655
929.073	121.33
931.966	122.552
934.859	108.691
937.751	115.632
940.644	108.317
943.537	128.327
946.429	181.18
949.322	204.181
952.215	220.44
955.107	164.467
958	152.999
960.893	172.7
963.785	147.979
966.678	185.557
969.571	205.565
972.464	204.981
975.356	192.706
978.249	140.643
981.142	66.4772
984.034	65.5814
986.927	48.6201
989.82	56.1592
992.712	42.0613
995.605	101.898
998.498	137.953
1001.39	234.223
1004.28	280.937
1007.18	274.744
1010.07	214.972
1012.96	146.576
1015.85	84.2789
1018.75	60.1572
1021.64	37.3622
1024.53	7.66138
1027.42	7.06299
1030.32	24.6159
1033.21	7.37262
1036.1	11.2107
1039	7.60132
1041.89	13.3902
1044.78	22.3683
1047.67	37.8278
1050.57	28.3818
1053.46	20.9091
1056.35	10.9763
1059.24	11.6964
1062.14	20.4975
1065.03	11.6823
1067.92	4.45007
1070.82	4.58899
1073.71	0.27417
1076.6	8.7923
1079.49	4.74933
1082.39	6.93896
1085.28	6.26526
1088.17	10.8669
1091.06	3.28546
1093.96	18.2419
1096.85	12.8142
1099.74	4.8056
1102.63	36.4754
1105.53	0.251221
1108.42	19.9415
1111.31	26.5729
1114.21	34.6467
1117.1	47.5543
1119.99	22.5191
1122.88	28.2606
1125.78	16.1795
1128.67	27.0799
1131.56	26.8254
1134.45	23.3748
1137.35	14.9503
1140.24	10.8137
1143.13	19.1816
1146.03	4.55121
1148.92	6.95306
1151.81	35.3149
1154.7	21.3663
1157.6	31.5826
1160.49	44.4746
1163.38	13.5339
1166.28	25.5009
1169.17	29.9494
1172.06	45.8867
1174.95	23.6075
1177.85	31.3835
1180.74	6.7774
1183.63	25.9121
1186.52	25.2018
1189.42	36.9255
1192.31	27.2184
1195.2	26.9388
1198.09	35.1863
1200.99	36.6196
1203.88	10.5892
1206.77	7.6391
1209.66	30.2607
1212.56	23.3116
1215.45	48.1718
1218.34	37.8122
1221.24	37.5473
1224.13	29.4576
1227.02	46.5479
1229.91	20.903
1232.81	55.2014
1235.7	6.53998
1238.59	6.77075
1241.48	7.90997
1244.38	26.5284
1247.27	29.9915
1250.16	20.4748
1253.06	30.003
1255.95	5.25427
