Measurement: Raman, 532 nm, unoriented, Raman Data Processed
Mineral: Kentrolite
Rruff sample: R060245
Ideal chemistry: Pb_2_Mn^3+^_2_O_2_(Si_2_O_7_)
Locality: Percha Creek area, Hillsboro District, Sierra County, New Mexico, USA
Source: William W. Pinch
Description: Dark-purple colored single crystals associated with orange colored prismatic vanadinite and calcite
Measured chemistry: Pb_2.00_(Mn^3+^_1.54_Fe^3+^_0.36_Al_0.10_)_Î£=2_O_2_Si_2.00_O_7_
Raman shift (cm-1)	intensity
147.94	0
150.832	7.07437
153.725	35.3629
156.618	56.1511
159.51	74.9101
162.403	75.5409
165.296	84.6103
168.189	82.8043
171.081	75.8209
173.974	62.106
176.867	54.3863
179.759	56.7762
182.652	50.2695
185.545	54.1887
188.437	54.3591
191.33	57.8396
194.223	47.2002
197.115	35.1681
200.008	31.3018
202.901	27.9643
205.794	17.8791
208.686	13.313
211.579	9.65405
214.472	6.49803
217.364	3.58957
220.257	5.65634
223.15	6.16054
226.042	3.81664
228.935	4.22469
231.828	7.05391
234.721	7.71927
237.613	7.18166
240.506	7.27251
243.399	4.15727
246.291	1.99161
249.184	10.0376
252.077	22.8841
254.97	30.1458
257.862	45.6878
260.755	58.9776
263.648	75.7406
266.54	94.1458
269.433	107.931
272.326	126.728
275.218	132.315
278.111	131.926
281.004	130.605
283.897	125.854
286.789	131.984
289.682	142.916
292.575	161.57
295.467	196.173
298.36	236.173
301.253	278.489
304.145	312.394
307.038	325.94
309.931	303.951
312.824	261.531
315.716	218.115
318.609	185.998
321.502	169.202
324.394	164.647
327.287	170.405
330.18	192.681
333.072	210.564
335.965	240.541
338.858	269.83
341.75	293.799
344.643	293.617
347.536	272.881
350.429	244.498
353.321	205.679
356.214	169.925
359.107	140.56
361.999	112.521
364.892	90.6939
367.785	71.2946
370.678	55.3938
373.57	43.2494
376.463	35.5202
379.356	32.8477
382.248	26.4996
385.141	25.6629
388.034	26.5658
390.926	22.5716
393.819	13.583
396.712	6.82111
399.604	2.95099
402.497	4.32436
405.39	4.54968
408.283	6.31989
411.175	6.65413
414.068	6.93271
416.961	0.577927
419.853	6.99548
422.746	12.4144
425.639	20.5187
428.531	37.5391
431.424	41.7231
434.317	37.8866
437.21	28.5758
440.102	21.5597
442.995	22.7395
445.888	28.1545
448.78	42.714
451.673	60.626
454.566	85.0072
457.459	113.229
460.351	144.36
463.244	171.198
466.137	196.546
469.029	205.564
471.922	188.049
474.815	153.927
477.707	110.683
480.6	75.7159
483.493	51.2512
486.385	36.3363
489.278	24.5976
492.171	15.1252
495.064	7.36006
497.956	1.7102
500.849	2.44188
503.742	6.18639
506.634	2.15318
509.527	0.440765
512.42	9.24223
515.313	16.7086
518.205	29.6382
521.098	46.4783
523.991	69.0654
526.883	93.6771
529.776	121.431
532.669	143.578
535.562	162.358
538.454	165.68
541.347	151.073
544.24	134.597
547.132	117.663
550.025	111.512
552.918	106.986
555.81	103.427
558.703	95.1726
561.596	82.6765
564.489	80.9796
567.381	75.8548
570.274	78.7431
573.167	87.8767
576.059	102.803
578.952	136.013
581.845	176.885
584.737	237.289
587.63	300.817
590.523	369.527
593.415	413.522
596.308	412.71
599.201	368.424
602.093	296.088
604.986	230.046
607.879	181.607
610.772	146.681
613.664	111.238
616.557	90.0092
619.45	66.7999
622.342	51.3204
625.235	34.893
628.128	22.3718
631.02	12.1073
633.913	4.58839
636.806	1.4072
639.699	1.18603
642.591	1.72575
645.484	0.379303
648.377	1.92384
651.269	2.43533
654.162	0.46817
657.055	1.81886
659.947	0.087677
662.84	1.20657
665.733	0.260986
668.626	1.14398
671.518	1.1852
674.411	4.21811
677.304	1.28726
680.196	4.06569
683.089	6.45973
685.982	10.9898
688.875	10.8551
691.767	13.0285
694.66	10.8347
697.553	14.0847
700.445	9.76511
703.338	5.73583
706.231	7.3644
709.123	4.83426
712.016	3.36188
714.909	5.57861
717.802	3.77649
720.694	6.29523
723.587	2.9584
726.48	4.54755
729.372	3.67871
732.265	3.07439
735.158	2.78982
738.05	4.72591
740.943	4.45999
743.836	5.86812
746.729	5.80496
749.621	7.2166
752.514	4.5874
755.407	4.90543
758.299	5.89577
761.192	5.59917
764.085	5.56108
766.977	3.88438
769.87	3.48898
772.763	6.51945
775.655	7.31799
778.548	3.76887
781.441	4.5553
784.334	2.08577
787.226	5.32803
790.119	1.8074
793.012	3.54312
795.904	0.504471
798.797	2.40836
801.69	0.118866
804.582	1.23074
807.475	0.425354
810.368	0.0914
813.261	1.73247
816.153	1.39298
819.046	3.02998
821.939	2.38278
824.831	6.11775
827.724	4.54225
830.617	10.1712
833.51	9.82091
836.402	6.60027
839.295	1.86234
842.188	3.87619
845.08	2.55164
847.973	1.75297
850.866	2.33418
853.758	0.416443
856.651	1.06309
859.544	4.49252
862.437	10.3479
865.329	17.1914
868.222	28.8039
871.115	43.2643
874.007	61.5888
876.9	75.8662
879.793	90.7173
882.685	94.2831
885.578	95.9898
888.471	97.4099
891.364	97.7848
894.256	93.9992
897.149	86.6747
900.042	75.3183
902.934	62.706
905.827	50.1641
908.72	40.2404
911.612	30.637
914.505	19.6897
917.398	16.7783
920.29	11.285
923.183	6.37303
926.076	4.14113
928.969	3.3589
931.861	2.30789
934.754	1.3302
937.647	0.552994
940.539	1.96851
943.432	1.74779
946.325	3.40765
949.217	3.95931
952.11	2.72664
955.003	2.38817
957.896	1.12198
960.788	1.33969
963.681	1.87968
966.574	5.60994
969.466	4.83408
972.359	5.96527
975.252	7.36305
978.144	8.5236
981.037	7.01114
983.93	6.60239
986.823	5.03865
989.715	5.44428
992.608	4.57913
995.501	8.57895
998.393	5.61743
1001.29	8.14223
1004.18	5.21301
1007.07	4.35696
1009.96	5.33273
1012.86	1.7137
1015.75	1.78418
1018.64	0.104767
1021.53	1.65788
1024.43	0.279282
1027.32	0.813217
1030.21	0.707336
1033.11	1.35998
1036	1.02939
1038.89	0.680817
1041.78	1.56697
1044.68	0.142624
1047.57	1.16304
1050.46	2.2038
1053.36	4.3049
1056.25	1.65456
1059.14	0.614395
1062.03	3.10951
1064.93	1.2883
1067.82	1.97752
1070.71	2.21904
1073.6	2.16255
1076.5	2.13856
1079.39	4.80617
1082.28	5.59956
1085.17	3.90358
1088.07	3.08076
1090.96	2.4646
1093.85	3.51958
1096.74	2.19862
1099.64	0.738495
1102.53	1.61706
1105.42	0.823669
1108.32	0.726288
1111.21	5.29549
1114.1	4.84731
1116.99	1.27065
1119.89	2.22086
1122.78	0.852081
1125.67	0.581009
1128.57	3.60168
1131.46	2.09132
1134.35	2.82596
1137.24	3.18861
1140.14	3.46213
1143.03	3.11214
1145.92	6.23108
1148.81	4.13727
1151.71	5.28305
1154.6	4.06995
1157.49	5.36794
1160.38	5.91104
1163.28	7.0744
1166.17	8.73114
1169.06	11.3079
1171.95	10.9964
1174.85	11.7835
1177.74	13.8789
1180.63	14.8648
1183.53	15.2959
1186.42	15.1512
1189.31	14.9963
1192.2	14.2833
1195.1	14.3622
1197.99	16.66
1200.88	13.8264
1203.78	10.5876
1206.67	10.6647
1209.56	10.3822
1212.45	10.132
1215.35	6.54559
1218.24	7.78929
1221.13	7.06248
1224.02	2.93248
1226.92	4.34959
1229.81	2.96419
1232.7	6.31513
1235.6	2.34441
1238.49	2.7626
1241.38	1.18208
1244.27	2.5388
1247.17	0.040649
1250.06	1.73706
1252.95	1.97171
1255.84	0.620804
1258.74	0.481461
1261.63	0.730789
1264.52	1.7422
1267.41	1.96817
1270.31	0.250046
1273.2	2.67806
1276.09	2.90083
1278.98	1.57219
1281.88	1.15382
1284.77	3.61589
1287.66	3.09528
1290.56	1.01617
1293.45	0.274567
1296.34	1.10918
1299.23	0.056259
1302.13	0
