Measurement: Raman, 785 nm, unoriented, Raman Data Processed
Mineral: Kermesite
Rruff sample: R060742
Ideal chemistry: Sb_2_OS_2_
Locality: Pezinok, Czechoslovakia
Source: Michael Scott
Description: Dark red elongated bladed crystals associated with quartz and blue tanished gudmundite, R060741
Measured chemistry: Sb_2_O_1.11_S_1.9_
Raman shift (cm-1)	intensity
118.153	0
121.046	12.3777
123.939	1956.85
126.831	8846.6
129.724	23619.4
132.617	21772.7
135.509	8391.06
138.402	6957.88
141.295	10025.3
144.188	19908.6
147.08	34484.2
149.973	31572.5
152.866	15407.5
155.758	10033.8
158.651	10788.4
161.544	14973.7
164.436	13882.7
167.329	6208.63
170.222	3824.78
173.115	3528.16
176.007	2640.98
178.9	453.704
181.793	410.196
184.685	572.561
187.578	502.31
190.471	451.08
193.363	561.36
196.256	180.213
199.149	299.446
202.042	1204.56
204.934	2592.55
207.827	3320.14
210.72	4342.44
213.612	6810.67
216.505	10563.6
219.398	17004.5
222.29	27197.2
225.183	40898.3
228.076	55805.5
230.969	64014.6
233.861	59213.6
236.754	51809.2
239.647	48773
242.539	52499.7
245.432	49835.8
248.325	31308.8
251.217	15259.2
254.11	7265.66
257.003	3730.46
259.896	2238.72
262.788	1947.99
265.681	2738.95
268.574	4505.6
271.466	7226.81
274.359	9529.1
277.252	9986.96
280.144	9369.32
283.037	11890.5
285.93	16731.3
288.823	19826.5
291.715	13853.8
294.608	7467.6
297.501	6458.44
300.393	8721.03
303.286	12965.5
306.179	19269
309.071	43836.7
311.964	91353.9
314.857	149611
317.75	188281
320.642	89140.5
323.535	37981.3
326.428	29089.2
329.32	38261.8
332.213	51906.1
335.106	59859.7
337.998	26722.3
340.891	7356.33
343.784	2623
346.677	848.448
349.569	124.349
352.462	174.943
355.355	273.456
358.247	320.98
361.14	365.337
364.033	329.664
366.925	261.58
369.818	129.124
372.711	7.05762
375.603	130.2
378.496	133.461
381.389	128.917
384.282	250.429
387.174	238.889
390.067	358.456
392.96	459.788
395.852	522.797
398.745	609.503
401.638	670.174
404.53	686.052
407.423	837.166
410.316	866.368
413.209	900.521
416.101	891.776
418.994	852.973
421.887	740.331
424.779	682.036
427.672	663.165
430.565	615.784
433.457	608.342
436.35	634.578
439.243	649.717
442.136	659.927
445.028	708.13
447.921	713.95
450.814	672.269
453.706	632.931
456.599	547.001
459.492	495.875
462.384	458.269
465.277	443.923
468.17	440.653
471.063	381.684
473.955	408.344
476.848	351.298
479.741	363.615
482.633	302.897
485.526	274.5
488.419	276.03
491.311	228.057
494.204	145.994
497.097	155.472
499.99	111.836
502.882	85.8601
505.775	45.9794
508.668	77.2587
511.56	40.6849
514.453	4.15729
517.346	13.485
520.239	23.0372
523.131	8.06555
526.024	87.3468
528.917	9.48645
531.809	3.19348
534.702	9.2677
537.595	47.8041
540.487	25.0458
543.38	33.3859
546.273	13.0286
549.166	71.9304
552.058	116.914
554.951	199.096
557.844	303.785
560.736	421.163
563.629	552.002
566.522	853.572
569.414	1258.15
572.307	2050.61
575.2	3137.18
578.093	4254.28
580.985	4821.48
583.878	3894.13
586.771	2289.65
589.663	1154.45
592.556	689.571
595.449	375.788
598.341	322.767
601.234	315.833
604.127	264.56
607.019	277.591
609.912	227.779
612.805	182.235
615.698	180.944
618.59	192.225
621.483	270.001
624.376	361.058
627.268	393.567
630.161	370.465
633.054	325.575
635.946	270.296
638.839	190.007
641.732	188.399
644.625	154.67
647.517	111.89
650.41	82.5297
653.303	62.0917
656.195	49.385
659.088	18.3383
661.981	73.4871
664.873	21.6706
667.766	10.8022
670.659	23.5
673.552	8.45288
676.444	6.4378
679.337	9.89148
682.23	26.2285
685.122	5.08484
688.015	20.4362
690.908	2.80664
693.8	26.9805
696.693	23.9636
699.586	29.5155
702.479	52.5291
705.371	12.8389
708.264	21.8534
711.157	67.7913
714.049	41.2509
716.942	63.3344
719.835	58.9075
722.727	56.0411
725.62	109.405
728.513	60.1047
731.406	53.0771
734.298	62.5133
737.191	49.8869
740.084	58.408
742.976	83.2661
745.869	1.2135
748.762	54.4708
751.654	50.977
754.547	44.2387
757.44	39.6798
760.333	59.0497
763.225	46.3984
766.118	28.851
769.011	69.2268
771.903	65.6571
774.796	105.223
777.689	58.4785
780.581	66.7056
783.474	48.3909
786.367	55.2729
789.26	64.5189
792.152	55.2778
795.045	27.6812
797.938	44.9238
800.83	22.8338
803.723	22.6961
806.616	35.2753
809.508	79.4124
812.401	36.1473
815.294	62.7062
818.187	60.2516
821.079	79.143
823.972	31.3708
826.865	45.6895
829.757	43.0353
832.65	26.7093
835.543	35.9874
838.435	36.6718
841.328	35.3942
844.221	65.2209
847.114	21.5912
850.006	33.7612
852.899	31.0144
855.792	85.7798
858.684	72.0281
861.577	32.5824
864.47	53.1833
867.362	39.639
870.255	15.1325
873.148	55.5218
876.041	33.618
878.933	18.1535
881.826	17.4253
884.719	45.9939
887.611	48.7026
890.504	68.4109
893.397	27.1595
896.289	33.1744
899.182	38.2099
902.075	20.4224
904.968	45.6126
907.86	22.9395
910.753	19.0372
913.646	35.7577
916.538	18.2683
919.431	2.35437
922.324	29.431
925.216	26.539
928.109	31.8831
931.002	40.7853
933.894	114.814
936.787	77.1526
939.68	30.0674
942.573	81.3855
945.465	40.4272
948.358	26.4215
951.251	54.4268
954.143	28.8522
957.036	18.8682
959.929	55.4801
962.821	38.9429
965.714	47.7796
968.607	42.1332
971.5	55.5804
974.392	32.0276
977.285	66.0691
980.178	45.0136
983.07	43.803
985.963	11.1427
988.856	33.2327
991.748	17.2161
994.641	16.4246
997.534	22.2391
1000.43	22.0172
1003.32	68.1751
1006.21	67.3946
1009.11	43.3653
1012	75.0671
1014.89	27.068
1017.78	22.416
1020.68	11.4342
1023.57	35.1938
1026.46	19.4865
1029.35	50.9825
1032.25	46.5393
1035.14	49.5828
1038.03	104.284
1040.92	51.3548
1043.82	96.008
1046.71	99.9142
1049.6	79.6074
1052.49	54.7797
1055.39	36.6613
1058.28	7.03122
1061.17	40.4676
1064.07	34.6836
1066.96	40.3429
1069.85	38.4619
1072.74	24.0491
1075.64	37.9524
1078.53	42.608
1081.42	39.6996
1084.32	15.9128
1087.21	72.379
1090.1	29.2007
1092.99	37.2222
1095.89	6.49057
1098.78	15.4509
1101.67	31.9288
1104.56	18.9362
1107.46	53.7359
1110.35	4.41974
1113.24	77.1198
1116.13	48.3406
1119.03	56.5001
1121.92	27.2237
1124.81	82.9325
1127.7	39.4226
1130.6	59.6014
1133.49	55.5242
1136.38	17.0764
1139.28	6.76094
1142.17	14.2875
1145.06	14.9785
1147.95	57.6159
1150.85	17.1291
1153.74	71.6426
1156.63	49.3666
1159.53	37.4667
1162.42	36.6163
1165.31	62.2705
1168.2	57.7238
1171.1	7.89598
1173.99	45.8437
1176.88	14.8477
1179.77	26.9517
1182.67	114.441
1185.56	33.895
1188.45	77.0832
1191.35	68.3543
1194.24	41.7152
1197.13	49.8334
1200.02	81.3885
1202.92	64.6599
1205.81	9.56143
1208.7	7.75449
1211.59	48.1392
1214.49	17.3862
1217.38	11.3183
1220.27	90.8535
1223.16	45.9647
1226.06	83.2225
1228.95	94.8986
1231.84	52.2561
1234.73	48.0216
1237.63	35.5177
1240.52	10.9085
1243.41	67.2442
1246.31	45.7514
1249.2	44.1263
1252.09	7.02013
1254.98	47.9246
1257.88	77.1692
1260.77	67.7469
1263.66	37.5909
