Measurement: Raman, 532 nm, unoriented, Raman Data Processed
Mineral: Kernite
Rruff sample: R050661
Ideal chemistry: Na_2_B_4_O_6_(OH)_2_3H_2_O
Locality: Boron, Kern County, California, USA
Source: Marcus Origlieri
Description: Colorless cleavage fragment
Raman shift (cm-1)	intensity
124.494	0
127.869	3.19496
131.244	0.493866
134.619	1.63023
137.993	9.78273
141.368	14.0417
144.743	18.6114
148.118	33.4161
151.493	62.234
154.867	80.392
158.242	99.2516
161.617	118.306
164.992	141.796
168.367	165.864
171.742	184.868
175.116	176.835
178.491	144.557
181.866	87.8581
185.241	41.8555
188.616	26.1477
191.99	28.1852
195.365	31.354
198.74	34.5165
202.115	42.4267
205.49	56.6691
208.864	75.0302
212.239	89.3957
215.614	95.9259
218.989	89.9209
222.364	92.2092
225.739	108.69
229.113	116.268
232.488	116.748
235.863	132.635
239.238	162.562
242.613	189.242
245.988	209.45
249.362	235.162
252.737	270.021
256.112	302.291
259.487	286.637
262.862	195.361
266.236	101.304
269.611	44.1463
272.986	15.1843
276.361	0.067825
279.736	4.63685
283.111	6.08499
286.485	3.35805
289.86	1.98314
293.235	8.11567
296.61	10.6589
299.985	22.5671
303.36	36.2449
306.734	46.1388
310.109	48.6437
313.484	59.4985
316.859	83.9971
320.234	82.638
323.608	54.4694
326.983	27.613
330.358	17.1324
333.733	16.6857
337.108	19.414
340.483	21.5063
343.857	21.8479
347.232	16.5333
350.607	4.76069
353.982	1.42926
357.357	2.33969
360.731	1.02401
364.106	0.812675
367.481	2.26431
370.856	4.50938
374.231	8.02677
377.606	11.5923
380.98	18.3334
384.355	30.0217
387.73	38.7221
391.105	27.546
394.48	7.33596
397.854	0.808277
401.229	2.53263
404.604	2.04443
407.979	12.9236
411.354	31.6204
414.729	53.2259
418.103	79.3981
421.478	114.425
424.853	150.248
428.228	142.734
431.603	78.8468
434.978	36.7726
438.352	23.6503
441.727	30.7343
445.102	51.8966
448.477	81.3531
451.852	120.572
455.226	168.741
458.601	186.413
461.976	149.806
465.351	88.9183
468.726	55.8942
472.101	47.6041
475.475	56.1982
478.85	84.7184
482.225	134.972
485.6	200.804
488.975	278.569
492.349	382.373
495.724	464.29
499.099	388.466
502.474	208.405
505.849	97.8218
509.224	48.0181
512.598	24.4758
515.973	11.4218
519.348	3.90231
522.723	0.773586
526.098	1.56272
529.472	2.40408
532.847	2.35053
536.222	1.88728
539.597	0.413284
542.972	3.09974
546.347	7.17862
549.721	12.6193
553.096	21.3951
556.471	25.1384
559.846	16.6546
563.221	13.692
566.596	16.7631
569.97	22.1033
573.345	29.3805
576.72	32.9951
580.095	33.6921
583.47	29.1924
586.845	22.7318
590.219	16.5081
593.594	12.4192
596.969	11.1702
600.344	9.93764
603.719	9.15712
607.093	9.12715
610.468	8.3276
613.843	8.33112
617.218	6.41397
620.593	4.56111
623.967	4.89236
627.342	6.2831
630.717	8.2737
634.092	9.54373
637.467	9.66268
640.842	5.46961
644.216	3.0009
647.591	0.547718
650.966	0.098381
654.341	0.335392
657.716	0.304489
661.091	0.849182
664.465	0.09684
667.84	0.310825
671.215	0.364864
674.59	1.1456
677.965	1.82908
681.34	2.35997
684.714	2.60691
688.089	3.32616
691.464	2.79911
694.839	3.87526
698.214	5.32422
701.588	7.83155
704.963	9.7715
708.338	12.2538
711.713	15.5276
715.088	21.5691
718.462	32.7664
721.837	52.9049
725.212	85.725
728.587	126.877
731.962	163.392
735.337	194.455
738.711	197.302
742.086	125.371
745.461	63.7382
748.836	33.8125
752.211	19.7514
755.586	12.4423
758.96	7.26939
762.335	5.3867
765.71	3.56875
769.085	1.39205
772.46	0.533936
775.835	0.18166
779.209	0.29509
782.584	1.16498
785.959	0.567978
789.334	2.55542
792.709	4.27216
796.083	9.16032
799.458	13.2744
802.833	15.8318
806.208	16.179
809.583	12.4973
812.957	8.99759
816.332	6.94293
819.707	5.65659
823.082	7.31953
826.457	13.4634
829.832	21.2027
833.206	30.6833
836.581	45.6803
839.956	62.6055
843.331	76.4642
846.706	80.746
850.081	71.9685
853.455	54.8135
856.83	34.0808
860.205	20.0918
863.58	12.5121
866.955	6.09453
870.33	3.6955
873.704	2.63119
877.079	0.992989
880.454	0.778107
883.829	0.782257
887.204	0.411659
890.578	0.798023
893.953	1.41795
897.328	1.17109
900.703	0.136322
904.078	3.2931
907.452	6.17693
910.827	14.9905
914.202	29.3784
917.577	54.2586
920.952	89.8441
924.327	136.039
927.701	183.471
931.076	193.916
934.451	144.649
937.826	88.2672
941.201	52.8214
944.576	31.691
947.95	21.0984
951.325	14.4184
954.7	9.44465
958.075	7.39534
961.45	7.52669
964.824	10.5567
968.199	16.9238
971.574	23.444
974.949	31.2837
978.324	33.3484
981.698	24.9764
985.073	16.9288
988.448	16.7601
991.823	20.1155
995.198	26.8193
998.573	35.995
1001.95	46.2608
1005.32	52.5864
1008.7	54.9321
1012.07	52.698
1015.45	52.9668
1018.82	57.5567
1022.2	67.5239
1025.57	81.6419
1028.95	85.5308
1032.32	73.8011
1035.7	54.7436
1039.07	34.5031
1042.44	20.2285
1045.82	11.3969
1049.19	5.70278
1052.57	2.32402
1055.94	1.08131
1059.32	1.04407
1062.69	2.10652
1066.07	1.91551
1069.44	0.337994
1072.82	1.52294
1076.19	3.49403
1079.57	5.80956
1082.94	8.02042
1086.32	8.89753
1089.69	8.18958
1093.07	6.82864
1096.44	4.48892
1099.82	2.46815
1103.19	2.00876
1106.57	0.926189
1109.94	1.91902
1113.32	3.2454
1116.69	4.5113
1120.07	5.12193
1123.44	4.29781
1126.82	5.49035
1130.19	7.13137
1133.57	9.22167
1136.94	11.1481
1140.32	10.0987
1143.69	9.32468
1147.07	7.56276
1150.44	5.66596
1153.81	3.67984
1157.19	2.8054
1160.56	2.38449
1163.94	1.59687
1167.31	1.07433
1170.69	1.12565
1174.06	0.035248
1177.44	0.476374
1180.81	0.303291
1184.19	0.400488
1187.56	0.537127
1190.94	0.983858
1194.31	1.98854
1197.69	1.6293
1201.06	1.90196
1204.44	1.85455
1207.81	1.3824
1211.19	1.12113
1214.56	0.897606
1217.94	0.979567
1221.31	1.24304
1224.69	1.39527
1228.06	0.963556
1231.43	1.15552
1234.81	0.759949
1238.18	0.364851
1241.56	0.527298
1244.93	0.331758
1248.31	0.180941
1251.68	0.643522
1255.06	0.608156
1258.43	0.794851
1261.81	0.442556
1265.18	0.313747
1268.56	0.711037
1271.93	0.316727
1275.31	0.550089
1278.68	0.415997
1282.06	0.747009
1285.43	0.116417
1288.81	0.145536
1292.18	1.0903
1295.56	0.401897
1298.93	0.358597
