Measurement: Raman, 780 nm, unoriented, Raman Data Processed
Mineral: Kernite
Rruff sample: R050661
Ideal chemistry: Na_2_B_4_O_6_(OH)_2_3H_2_O
Locality: Boron, Kern County, California, USA
Source: Marcus Origlieri
Description: Colorless cleavage fragment
Raman shift (cm-1)	intensity
124.327	0
127.702	4.53249
131.077	6.3152
134.452	0.388519
137.826	2.6516
141.201	11.7042
144.576	15.0631
147.951	6.96783
151.326	5.66175
154.701	12.7757
158.075	21.8273
161.45	30.5475
164.825	34.1128
168.2	42.1033
171.575	58.1582
174.949	75.5699
178.324	74.0635
181.699	50.6395
185.074	21.3057
188.449	4.44541
191.823	0.506981
195.198	0.927406
198.573	2.01864
201.948	3.29569
205.323	13.6665
208.697	29.5488
212.072	50.7258
215.447	68.7477
218.822	79.7134
222.197	94.4676
225.572	116.694
228.946	119.411
232.321	96.7341
235.696	73.8894
239.071	70.733
242.446	68.0577
245.821	68.9443
249.195	73.4839
252.57	87.9138
255.945	110.056
259.32	120.233
262.695	94.7781
266.069	51.689
269.444	22.4397
272.819	10.1539
276.194	4.30408
279.569	3.02411
282.943	1.7803
286.318	3.97945
289.693	9.33365
293.068	15.8514
296.443	16.8037
299.817	15.5715
303.192	14.5175
306.567	13.7235
309.942	7.62602
313.317	5.04853
316.692	10.5729
320.066	14.4819
323.441	9.14274
326.816	0.359726
330.191	2.29449
333.566	2.02087
336.94	0.694809
340.315	4.97839
343.69	9.20127
347.065	9.72782
350.44	5.97658
353.815	2.8536
357.189	1.00086
360.564	1.6733
363.939	3.56732
367.314	4.18049
370.689	4.88553
374.063	7.47693
377.438	13.0815
380.813	22.5326
384.188	42.4513
387.563	64.6324
390.938	57.5952
394.312	28.2121
397.687	10.3784
401.062	3.21265
404.437	6.9e-05
407.812	0.163486
411.186	0.490498
414.561	2.154
417.936	7.62572
421.311	17.2652
424.686	31.2952
428.06	36.5443
431.435	21.6991
434.81	7.84967
438.185	1.80187
441.56	0.1991
444.935	0.193317
448.309	3.73389
451.684	9.96968
455.059	21.19
458.434	23.2763
461.809	18.6294
465.183	10.1085
468.558	4.92819
471.933	3.17305
475.308	5.04973
478.683	8.82408
482.058	14.0641
485.432	23.4404
488.807	38.7674
492.182	66.776
495.557	106.838
498.932	110.088
502.306	65.6326
505.681	31.5696
509.056	16.421
512.431	8.39021
515.806	4.24749
519.181	1.65595
522.555	0.723446
525.93	0.496532
529.305	0.892748
532.68	0.675945
536.055	0.451471
539.429	0.52235
542.804	0.343792
546.179	2.03411
549.554	3.81678
552.929	9.46272
556.303	15.8571
559.678	10.9145
563.053	5.87552
566.428	6.01324
569.803	6.27556
573.178	8.81212
576.552	10.0841
579.927	11.9145
583.302	10.6746
586.677	8.49831
590.052	4.77408
593.426	2.22881
596.801	1.92919
600.176	0.899561
603.551	0.980303
606.926	0.971611
610.301	1.08439
613.675	3.49306
617.05	5.01152
620.425	4.88386
623.8	3.18713
627.174	2.65038
630.549	2.61753
633.924	3.85787
637.299	4.00346
640.674	2.24099
644.049	2.24198
647.423	1.8296
650.798	0.337807
654.173	0.552509
657.548	0.172695
660.923	0.0994
664.298	0.010277
667.672	0.387419
671.047	0.525013
674.422	0.19393
677.797	0.477858
681.172	0.004192
684.546	0.234339
687.921	0.840994
691.296	1.70561
694.671	1.97608
698.046	3.62659
701.42	6.31567
704.795	8.8851
708.17	10.5251
711.545	13.2362
714.92	15.433
718.294	19.7608
721.669	27.7111
725.044	42.1904
728.419	66.0927
731.794	104.927
735.169	157.33
738.543	201.422
741.918	150.018
745.293	77.5196
748.668	41.964
752.043	25.7621
755.418	17.8416
758.792	12.4583
762.167	8.97285
765.542	6.09983
768.917	5.50629
772.292	4.06649
775.666	3.07082
779.041	2.34599
782.416	2.14794
785.791	2.66837
789.166	2.60902
792.54	4.71828
795.915	5.34146
799.29	8.70045
802.665	9.95007
806.04	10.1354
809.414	7.76772
812.789	5.25784
816.164	1.49326
819.539	0.477804
822.914	0.086908
826.289	0.873432
829.663	0.784454
833.038	0.145321
836.413	2.52918
839.788	5.02152
843.163	8.38933
846.538	9.91599
849.912	11.8104
853.287	9.39026
856.662	5.88148
860.037	2.95289
863.412	0.760674
866.786	0.516901
870.161	0.534513
873.536	0.081848
876.911	0.510494
880.286	0.985653
883.66	0.906271
887.035	0.505058
890.41	0.793606
893.785	0.066952
897.16	0.497911
900.534	1.64548
903.909	4.26407
907.284	5.34539
910.659	9.63341
914.034	16.8637
917.409	29.3402
920.783	50.0413
924.158	83.9935
927.533	135.33
930.908	168.685
934.283	135.87
937.658	83.1761
941.032	47.295
944.407	26.026
947.782	15.3914
951.157	9.06429
954.532	4.5444
957.906	1.90763
961.281	0.886234
964.656	0.255787
968.031	0.220613
971.406	2.15737
974.78	5.7485
978.155	8.5054
981.53	6.8241
984.905	3.03788
988.28	1.11788
991.654	0.234531
995.029	1.07779
998.404	2.67921
1001.78	4.36655
1005.15	6.95039
1008.53	9.5417
1011.9	11.3864
1015.28	9.80301
1018.65	6.64694
1022.03	5.74385
1025.4	6.51746
1028.78	8.02951
1032.15	8.10229
1035.53	5.32433
1038.9	3.26301
1042.28	1.13666
1045.65	0.678972
1049.03	0.086851
1052.4	0.678173
1055.78	0.031698
1059.15	0.826969
1062.53	0.817715
1065.9	2.61719
1069.28	3.03319
1072.65	5.46238
1076.03	7.10511
1079.4	9.20962
1082.77	12.3095
1086.15	14.0297
1089.52	13.8745
1092.9	12.0639
1096.27	9.40197
1099.65	6.85363
1103.02	3.8633
1106.4	2.83062
1109.77	2.29298
1113.15	1.07314
1116.52	0.552505
1119.9	0.964283
1123.27	0.897274
1126.65	1.58469
1130.02	2.03778
1133.4	1.73182
1136.77	2.85582
1140.15	3.57466
1143.52	2.57057
1146.9	2.52518
1150.27	1.82888
1153.65	0.825653
1157.02	0.500416
1160.39	1.06878
1163.77	0.438697
1167.14	0.188211
1170.52	0.548009
1173.89	0.801928
1177.27	0.249856
1180.64	1.26912
1184.02	0.019258
1187.39	1.05412
1190.77	1.07013
1194.14	1.72892
1197.52	0.73456
1200.89	1.63856
1204.27	0.67491
1207.64	0.456032
1211.02	1.1829
1214.39	0.435413
1217.77	0.706587
1221.14	0.656567
1224.52	0.001796
1227.89	0.449297
1231.27	0.207273
1234.64	0.030437
1238.02	0.554371
1241.39	0.181822
1244.77	0.896964
1248.14	0.956129
1251.52	1.60011
1254.89	0.243543
1258.27	1.30859
1261.64	0.972893
1265.01	0.587924
1268.39	0.642171
1271.76	0.515374
1275.14	0.897902
1278.51	0.400248
1281.89	0.021353
1285.26	0.190041
