Measurement: Raman, 780 nm, unoriented, Raman Data Processed
Mineral: Kesterite
Rruff sample: R120098
Ideal chemistry: Cu_2_ZnSnS_4_
Locality: Xuebaoding, Sichuan Province, China
Source: Marcus Origlieri
Description: Metallic gray surficially altered to green mushistonite
Measured chemistry: Cu_2.04_(Zn_0.84_Fe_0.18_)Sn_1.01_S_4_
Raman shift (cm-1)	intensity
100.842	0
104.217	0.887146
107.591	1.20377
110.966	3.94367
114.341	30.8157
117.716	57.7669
121.091	88.4711
124.466	118.594
127.84	157.565
131.215	201.922
134.59	231.167
137.965	237.326
141.34	213.136
144.714	149.825
148.089	86.5104
151.464	46.0761
154.839	26.5404
158.214	13.3008
161.589	20.7657
164.963	36.7916
168.338	36.5881
171.713	19.1221
175.088	7.67346
178.463	14.0168
181.838	18.9587
185.212	20.8415
188.587	20.0546
191.962	22.1168
195.337	17.0822
198.712	9.06857
202.086	0.689178
205.461	0.090515
208.836	0.377655
212.211	1.45218
215.586	10.0983
218.96	13.9251
222.335	20.0793
225.71	11.6768
229.085	7.87888
232.46	0.964569
235.834	12.5388
239.209	28.3946
242.584	64.9716
245.959	130.199
249.334	225.194
252.709	290.493
256.083	261.339
259.458	252.22
262.833	361.547
266.208	625.618
269.583	1029.05
272.957	1287.23
276.332	1877.44
279.707	3073.11
283.082	4970.59
286.457	4707.81
289.832	1876.3
293.206	769.113
296.581	490.59
299.956	487.397
303.331	519.084
306.706	597.19
310.08	907.259
313.455	1429.73
316.83	2255.54
320.205	3626.89
323.58	5676.09
326.954	8871
330.329	10472.5
333.704	11863.5
337.079	6967.9
340.454	1902.11
343.829	1195.55
347.203	641.688
350.578	255.251
353.953	137.217
357.328	111.664
360.703	144.278
364.077	166.315
367.452	198.536
370.827	113.455
374.202	1.14371
377.577	27.4211
380.952	30.0208
384.326	19.9259
387.701	13.6139
391.076	2.38817
394.451	5.93048
397.826	14.2644
401.2	19.8287
404.575	25.4588
407.95	32.6383
411.325	37.4201
414.7	45.4904
418.075	48.1048
421.449	54.0857
424.824	57.8941
428.199	62.4228
431.574	65.0927
434.949	62.482
438.323	51.6193
441.698	44.2133
445.073	33.3497
448.448	25.4069
451.823	18.6262
455.197	16.1129
458.572	13.9627
461.947	12.7137
465.322	12.0588
468.697	13.8289
472.072	13.7526
475.446	12.3869
478.821	13.5338
482.196	13.1877
485.571	13.7884
488.946	13.5951
492.32	13.2421
495.695	10.8263
499.07	8.64674
502.445	8.87188
505.82	7.29208
509.195	8.26065
512.569	8.14765
515.944	5.56677
519.319	5.51188
522.694	6.24941
526.068	5.23986
529.443	2.84499
532.818	1.92923
536.193	3.4911
539.568	3.2704
542.943	2.90441
546.317	3.33582
549.692	0.501678
553.067	3.36033
556.442	5.22383
559.817	7.02762
563.192	9.73089
566.566	9.17181
569.941	6.97919
573.316	7.06774
576.691	8.02513
580.066	10.9428
583.44	11.8424
586.815	12.7797
590.19	17.4584
593.565	17.5272
596.94	20.8798
600.314	20.578
603.689	21.0206
607.064	22.4465
610.439	26.2509
613.814	30.4899
617.188	32.0646
620.563	32.8764
623.938	29.2367
627.313	28.2171
630.688	24.405
634.063	23.6382
637.437	18.5234
640.812	18.9131
644.187	26.9709
647.562	38.6337
650.937	59.5203
654.312	85.2298
657.686	106.771
661.061	120.315
664.436	115.766
667.811	91.2116
671.186	59.2205
674.56	36.9002
677.935	26.5947
681.31	20.5784
684.685	14.557
688.06	8.254
691.434	4.21182
694.809	1.77545
698.184	0.100548
701.559	1.62556
704.934	2.41074
708.308	0.093857
711.683	2.98354
715.058	6.18383
718.433	11.6565
721.808	14.064
725.183	15.3668
728.557	17.1029
731.932	15.9771
735.307	12.4829
738.682	7.19627
742.057	2.94385
745.432	1.95933
748.806	0.714087
752.181	0.160877
755.556	0.16457
758.931	0.498861
762.306	0.209051
765.68	0.04228
769.055	1.55212
772.43	1.79603
775.805	2.24156
779.18	2.23032
782.554	2.79524
785.929	2.83878
789.304	4.67083
792.679	3.88898
796.054	3.5037
799.428	4.36422
802.803	4.39735
806.178	4.54864
809.553	4.30124
812.928	3.45849
816.303	1.82983
819.677	1.73277
823.052	3.00377
826.427	1.31996
829.802	3.02282
833.177	1.47598
836.552	1.70207
839.926	2.25126
843.301	2.89044
846.676	2.04766
850.051	1.68904
853.426	3.05331
856.8	2.40442
860.175	2.72547
863.55	1.7813
866.925	2.19858
870.3	2.36622
873.674	1.15457
877.049	1.39954
880.424	1.4309
883.799	0.944345
887.174	0.214594
890.548	1.55276
893.923	0.797344
897.298	0.119799
900.673	0.58791
904.048	0.307518
907.423	0.615448
910.797	0.180771
914.172	0.373312
917.547	0.479563
920.922	0.870829
924.297	0.528101
927.671	0.500391
931.046	1.24753
934.421	1.15965
937.796	1.06423
941.171	0.249306
944.545	0.974386
947.92	0.148716
951.295	1.01972
954.67	0.360497
958.045	0.907217
961.42	0.144142
964.794	2.44914
968.169	1.54554
971.544	1.57542
974.919	1.07043
978.294	0.977736
981.668	1.89864
985.043	2.77246
988.418	2.73854
991.793	2.73041
995.168	3.20661
998.543	1.79022
1001.92	0.863264
1005.29	1.05707
1008.67	0.314241
1012.04	0.950773
1015.42	0.719292
1018.79	1.18476
1022.17	1.03065
1025.54	0.396399
1028.92	2.04098
1032.29	1.81751
1035.67	1.16162
1039.04	0.020252
1042.41	1.2972
1045.79	0.844882
1049.16	1.8267
1052.54	0.793942
1055.91	0.527977
1059.29	1.41676
1062.66	0.694345
1066.04	0.032869
1069.41	1.05021
1072.79	0.693857
1076.16	0.820252
1079.54	1.79365
1082.91	1.36043
1086.29	0.720527
1089.66	1.20494
1093.04	0.550591
1096.41	0.079763
1099.79	1.06701
1103.16	0.824132
1106.54	1.48167
1109.91	0.51613
1113.29	0.92034
1116.66	1.3868
1120.04	1.48058
1123.41	0.85075
1126.79	1.51183
1130.16	0.200401
1133.54	1.16507
1136.91	0.760475
1140.29	1.42787
1143.66	1.35395
1147.03	0.510421
1150.41	1.1701
1153.78	0.559164
1157.16	0.580416
1160.53	0.761316
1163.91	0.256607
1167.28	2.02443
1170.66	1.77242
1174.03	2.13665
1177.41	1.15147
1180.78	0.0563
1184.16	2.35466
1187.53	0.281477
1190.91	0.163363
1194.28	1.95224
1197.66	1.94912
1201.03	2.1663
1204.41	1.62044
1207.78	1.08917
1211.16	1.73899
1214.53	1.03753
1217.91	2.47542
1221.28	0.71349
1224.65	1.11146
1228.03	1.09523
1231.4	2.01045
1234.78	1.10921
1238.15	0.541621
1241.53	0.14762
1244.9	0.314813
1248.28	0.15866
1251.65	1.6734
1255.03	0.549268
1258.4	1.78654
1261.78	0.562395
1265.15	0.540744
1268.53	0.179973
1271.9	0.033251
1275.28	0.640051
1278.65	0.12995
1282.03	1.25076
