Measurement: Raman, 532 nm, unoriented, Raman Data Processed
Mineral: Kesterite
Rruff sample: R120098
Ideal chemistry: Cu_2_ZnSnS_4_
Locality: Xuebaoding, Sichuan Province, China
Source: Marcus Origlieri
Description: Metallic gray surficially altered to green mushistonite
Measured chemistry: Cu_2.04_(Zn_0.84_Fe_0.18_)Sn_1.01_S_4_
Raman shift (cm-1)	intensity
195.909	0
198.802	1.9516
201.695	0.911453
204.588	1.26609
207.48	1.94785
210.373	2.64979
213.266	3.04164
216.158	0.641273
219.051	1.82957
221.944	0.758434
224.836	0.215405
227.729	0.53265
230.622	2.88062
233.514	3.2607
236.407	6.5384
239.3	9.40872
242.193	13.4985
245.085	17.193
247.978	26.4154
250.871	33.5052
253.763	36.6214
256.656	27.2543
259.549	19.5522
262.442	17.795
265.334	18.3191
268.227	12.9918
271.12	14.1661
274.012	13.7461
276.905	15.7007
279.798	25.0078
282.69	38.6101
285.583	57.5442
288.476	49.8878
291.368	19.4965
294.261	6.32879
297.154	0.629768
300.047	0.814816
302.939	2.47594
305.832	4.43218
308.725	5.09538
311.617	9.84877
314.51	16.9074
317.403	25.7007
320.296	36.6653
323.188	56.3649
326.081	84.4911
328.974	123.478
331.866	161.399
334.759	186.013
337.652	174.21
340.544	82.9809
343.437	76.685
346.33	86.4359
349.223	62.7473
352.115	30.6957
355.008	21.8607
357.901	23.3085
360.793	27.5454
363.686	33.7442
366.579	60.2657
369.471	86.6091
372.364	55.7179
375.257	9.32141
378.149	1.25808
381.042	1.26794
383.935	1.37263
386.828	0.49391
389.72	0.797224
392.613	0.652092
395.506	2.15704
398.398	2.48671
401.291	1.95834
404.184	2.56023
407.077	2.04167
409.969	2.27109
412.862	2.87122
415.755	2.50408
418.647	3.53958
421.54	2.36208
424.433	1.8324
427.325	3.24082
430.218	1.08907
433.111	1.39286
436.003	0.277639
438.896	1.94022
441.789	1.16916
444.682	1.15529
447.574	0.66189
450.467	0.27492
453.36	1.16475
456.252	0.853165
459.145	1.20649
462.038	1.40159
464.93	2.79919
467.823	2.46079
470.716	3.24802
473.609	1.9196
476.501	1.97476
479.394	3.35075
482.287	3.72287
485.179	4.14258
488.072	2.77394
490.965	2.4288
493.858	3.27965
496.75	2.25485
499.643	2.39271
502.536	1.79093
505.428	1.25935
508.321	1.25297
511.214	1.05791
514.106	2.03465
516.999	0.118433
519.892	0.977203
522.784	0.575676
525.677	0.573469
528.57	0.097424
531.463	1.31727
534.355	0.358126
537.248	0.396738
540.141	0.303978
543.033	0.048534
545.926	0.654247
548.819	0.396259
551.712	0.406631
554.604	1.15263
557.497	0.419121
560.39	0.012115
563.282	0.533039
566.175	1.06957
569.068	0.461414
571.96	0.59399
574.853	0.847145
577.746	1.14281
580.639	1.03706
583.531	1.28851
586.424	0.75069
589.317	1.97885
592.209	2.48472
595.102	2.20696
597.995	2.54952
600.888	3.03778
603.78	1.43718
606.673	2.01064
609.566	1.18652
612.458	2.28857
615.351	1.46229
618.244	3.0247
621.136	2.00685
624.029	2.40508
626.922	1.8699
629.814	1.06112
632.707	2.67656
635.6	2.36233
638.493	2.69301
641.385	1.80319
644.278	2.36259
647.171	3.08648
650.063	2.7752
652.956	2.73141
655.849	4.5296
658.741	5.80136
661.634	7.8701
664.527	10.5054
667.42	10.4939
670.312	9.20533
673.205	8.05708
676.098	6.76279
678.99	6.50067
681.883	5.22401
684.776	6.68963
687.668	6.31856
690.561	7.17266
693.454	6.55904
696.347	6.4907
699.239	4.81536
702.132	3.61509
705.025	1.60421
707.917	1.28121
710.81	0.135628
713.703	0.690399
716.596	0.282671
719.488	0.053728
722.381	0.385134
725.274	0.009092
728.166	0.323399
731.059	0.718693
733.952	0.446671
736.844	1.34511
739.737	0.892202
742.63	0.206623
745.523	0.909279
748.415	0.282045
751.308	0.096495
754.201	1.27828
757.093	1.67921
759.986	1.52113
762.879	0.854904
765.771	0.872406
768.664	0.985518
771.557	0.74292
774.449	0.936188
777.342	1.21375
780.235	0.324167
783.128	0.943235
786.02	1.86239
788.913	1.92893
791.806	1.58441
794.698	1.90997
797.591	0.029858
800.484	1.82237
803.376	2.38616
806.269	1.24751
809.162	2.43588
812.055	2.34008
814.947	2.63593
817.84	3.22442
820.733	2.35156
823.625	3.40482
826.518	3.17653
829.411	4.54638
832.303	2.77635
835.196	3.00802
838.089	3.84112
840.982	2.4227
843.874	3.73582
846.767	3.63258
849.66	3.2534
852.552	3.48724
855.445	3.9124
858.338	4.19202
861.231	4.66432
864.123	3.80439
867.016	3.80761
869.909	2.91042
872.801	3.68702
875.694	1.6472
878.587	2.77326
881.479	2.40658
884.372	1.09107
887.265	1.97534
890.158	1.87982
893.05	1.1043
895.943	0.629196
898.836	1.48145
901.728	0.332457
904.621	0.586658
907.514	0.067167
910.406	0.591045
913.299	0.279476
916.192	0.959797
919.085	0.728588
921.977	0.100695
924.87	1.07046
927.763	1.31145
930.655	0.658388
933.548	0.61907
936.441	0.860714
939.333	0.818848
942.226	2.16321
945.119	0.464571
948.011	0.275908
950.904	1.49835
953.797	1.02299
956.69	1.66508
959.582	1.07501
962.475	0.596138
965.368	0.794102
968.26	0.072153
971.153	0.513882
974.046	0.97888
976.938	0.952423
979.831	1.04714
982.724	1.30571
985.617	1.08883
988.509	1.41098
991.402	2.20197
994.295	2.45171
997.187	3.09075
1000.08	3.6701
1002.97	3.93379
1005.87	3.37442
1008.76	2.96878
1011.65	2.21372
1014.54	1.8042
1017.44	1.91634
1020.33	1.18988
1023.22	2.56513
1026.11	2.88408
1029.01	1.63029
1031.9	1.96921
1034.79	1.73024
1037.68	0.487688
1040.58	1.26865
1043.47	0.54864
1046.36	0.438518
1049.26	1.18206
1052.15	0.806291
1055.04	1.16199
1057.93	0.892007
1060.83	1.16283
1063.72	1.07151
1066.61	1.03442
1069.51	0.635794
1072.4	1.00073
1075.29	0.891517
1078.18	1.04679
1081.08	0.975783
1083.97	0.346311
1086.86	1.26062
1089.75	1.45866
1092.65	1.54065
1095.54	1.28334
1098.43	1.18569
1101.33	1.60541
1104.22	0.154235
1107.11	1.29014
1110	0.88498
1112.89	0.800879
1115.79	0.993495
1118.68	1.26777
1121.57	1.65088
1124.47	1.38755
1127.36	1.26988
1130.25	1.25884
1133.14	1.11862
1136.04	0.11438
1138.93	1.16823
1141.82	1.47958
1144.71	1.11877
1147.61	1.49927
1150.5	0.696958
1153.39	2.29292
1156.29	1.10683
1159.18	1.67515
1162.07	1.31186
1164.96	1.31426
1167.86	0.158045
1170.75	0.737781
1173.64	0.591524
1176.54	0.87741
1179.43	0.428059
1182.32	0.991586
1185.21	1.32688
1188.11	1.32818
1191	0.263704
1193.89	0.040126
1196.78	1.70537
1199.68	2.26827
1202.57	1.32884
1205.46	1.04847
1208.35	0.939199
1211.25	0.899721
1214.14	0.756939
1217.03	0.63533
1219.92	0.061815
1222.82	1.56124
1225.71	0.956127
1228.6	0.657217
1231.5	0.991949
1234.39	1.13699
1237.28	1.33093
1240.17	0.55994
1243.07	0.423488
1245.96	1.22393
1248.85	0.445974
1251.74	1.41812
1254.64	0.402164
1257.53	0.730602
1260.42	1.06438
1263.32	2.18951
1266.21	0.172272
1269.1	1.52755
1271.99	1.5768
1274.89	1.23189
1277.78	0.623363
1280.67	1.60788
1283.57	0.60412
1286.46	0.411092
1289.35	0.592817
1292.24	0.719589
1295.13	0.012258
1298.03	1.11228
1300.92	0.311611
