Measurement: Raman, 532 nm, unoriented, Raman Data Processed
Mineral: Kettnerite
Rruff sample: R130113
Ideal chemistry: CaBiO(CO_3_)F
Locality: Flying Saucer Group, Maricopa County, Arizona
Source: Mark Ascher
Description: Both colorless and lemon-yellow small platy crystals, associated with R130114 eulytine, and yellow-green mottramite
Raman shift (cm-1)	intensity
195.909	0
198.802	35.3596
201.695	3.01538
204.588	0.51416
207.48	57.0549
210.373	61.0574
213.266	25.7427
216.158	37.9346
219.051	41.3918
221.944	36.7773
224.836	15.1365
227.729	36.5478
230.622	22.2956
233.514	46.9609
236.407	77.4338
239.3	99.1309
242.193	156.213
245.085	199.925
247.978	211.171
250.871	166.959
253.763	100.741
256.656	108.072
259.549	77.6918
262.442	44.9956
265.334	17.9421
268.227	10.1835
271.12	3.27356
274.012	10.4884
276.905	0.678955
279.798	6.1189
282.69	17.1743
285.583	34.6749
288.476	9.09839
291.368	17.2421
294.261	22.7927
297.154	16.9519
300.047	30.9812
302.939	31.3936
305.832	24.4054
308.725	25.0625
311.617	32.0264
314.51	54.3495
317.403	69.2511
320.296	82.166
323.188	98.7943
326.081	106.261
328.974	102.828
331.866	78.6941
334.759	98.6738
337.652	111.165
340.544	117.942
343.437	127.594
346.33	86.0502
349.223	77.1202
352.115	35.0474
355.008	23.223
357.901	19.2061
360.793	11.4894
363.686	16.4753
366.579	2.17053
369.471	5.40662
372.364	9.04993
375.257	0.927856
378.149	9.151
381.042	9.02393
383.935	34.7173
386.828	69.6196
389.72	99.4651
392.613	116.591
395.506	176.375
398.398	232.895
401.291	265.653
404.184	346.301
407.077	410.167
409.969	488.187
412.862	527.781
415.755	571.169
418.647	561.391
421.54	568.895
424.433	529.403
427.325	490.463
430.218	448.125
433.111	374.199
436.003	309.191
438.896	291.692
441.789	250.946
444.682	247.545
447.574	235.806
450.467	215.684
453.36	185.247
456.252	187.64
459.145	178.535
462.038	160.276
464.93	144.812
467.823	123.401
470.716	134.66
473.609	106.995
476.501	93.3102
479.394	64.2263
482.287	35.1102
485.179	37.8042
488.072	7.97998
490.965	5.59607
493.858	8.85596
496.75	3.62378
499.643	6.50305
502.536	14.6879
505.428	4.5686
508.321	0.769409
511.214	4.57239
514.106	1.8429
516.999	4.33691
519.892	6.50134
522.784	3.6217
525.677	26.1007
528.57	14.3411
531.463	25.7955
534.355	20.3625
537.248	24.8355
540.141	39.0756
543.033	23.7415
545.926	36.6821
548.819	34.0909
551.712	54.8507
554.604	46.6958
557.497	40.1416
560.39	32.2266
563.282	31.599
566.175	36.6172
569.068	9.82532
571.96	9.76148
574.853	16.7446
577.746	0.536743
580.639	1.07324
583.531	4.81018
586.424	12.5411
589.317	7.70715
592.209	10.9575
595.102	15.3038
597.995	20.2054
600.888	9.43909
603.78	14.8136
606.673	14.9707
609.566	20.3622
612.458	6.6676
615.351	28.7225
618.244	43.572
621.136	36.3241
624.029	25.8547
626.922	33.5831
629.814	29.7239
632.707	24.3684
635.6	34.3545
638.493	9.97974
641.385	0.129272
644.278	19.9923
647.171	1.48206
650.063	10.3204
652.956	3.27649
655.849	6.44067
658.741	24.2317
661.634	11.5719
664.527	41.4375
667.42	29.1711
670.312	54.0354
673.205	72.2427
676.098	98.2793
678.99	165.354
681.883	238.449
684.776	186.132
687.668	63.1759
690.561	52.7706
693.454	57.3872
696.347	85.1654
699.239	104.852
702.132	102.446
705.025	92.5814
707.917	61.7002
710.81	30.6172
713.703	16.929
716.596	8.51245
719.488	7.71375
722.381	6.79993
725.274	12.2133
728.166	1.91956
731.059	2.14258
733.952	3.66797
736.844	0.284912
739.737	10.4368
742.63	17.4264
745.523	1.30859
748.415	19.5741
751.308	15.0986
754.201	2.73377
757.093	5.65039
759.986	4.39563
762.879	6.83606
765.771	0.008789
768.664	10.3453
771.557	14.6245
774.449	24.2291
777.342	11.8771
780.235	9.93701
783.128	4.10889
786.02	9.91455
788.913	8.49463
791.806	9.64966
794.698	13.6099
797.591	8.28857
800.484	1.00049
803.376	4.43335
806.269	9.32812
809.162	14.3296
812.055	1.35205
814.947	1.79053
817.84	2.81714
820.733	1.28711
823.625	28.1113
826.518	0.909424
829.411	8.17529
832.303	2.4624
835.196	35.1052
838.089	36.4187
840.982	39.7717
843.874	69.3308
846.767	88.688
849.66	97.4023
852.552	126.451
855.445	155.689
858.338	173.343
861.231	207.281
864.123	221.022
867.016	246.515
869.909	247.422
872.801	254.601
875.694	208.988
878.587	250.564
881.479	248.581
884.372	252.114
887.265	239.674
890.158	231.575
893.05	247.416
895.943	258.992
898.836	264.517
901.728	279.051
904.621	292.697
907.514	276.899
910.406	270.533
913.299	254.148
916.192	246.419
919.085	244.62
921.977	222.175
924.87	209.512
927.763	193.965
930.655	163.959
933.548	140.073
936.441	121.632
939.333	98.3591
942.226	64.7881
945.119	60.2986
948.011	31.6753
950.904	16.488
953.797	20.9766
956.69	26.8071
959.582	7.65283
962.475	7.34741
965.368	26.6877
968.26	39.9199
971.153	41.9744
974.046	58.5259
976.938	69.4307
979.831	108.144
982.724	93.9263
985.617	123.841
988.509	107.549
991.402	90.6367
994.295	97.6265
997.187	92.0513
1000.08	108.621
1002.97	95.2368
1005.87	92.6792
1008.76	86.8818
1011.65	107.186
1014.54	111.793
1017.44	95.0054
1020.33	69.2954
1023.22	43.7983
1026.11	14.0459
1029.01	22.5244
1031.9	15.3525
1034.79	21.4053
1037.68	15.2398
1040.58	2.61963
1043.47	59.1631
1046.36	125.194
1049.26	182.48
1052.15	278.566
1055.04	392.606
1057.93	665.765
1060.83	1087.3
1063.72	1541.44
1066.61	2267.7
1069.51	3912.24
1072.4	3612.13
1075.29	2475.19
1078.18	1952.1
1081.08	1560.54
1083.97	1405.83
1086.86	1350.77
1089.75	1323.67
1092.65	1296.44
1095.54	1258.43
1098.43	1222.37
1101.33	1188.85
1104.22	1130.92
1107.11	1111.15
1110	1086.69
1112.89	1072.83
1115.79	1076.41
1118.68	1087.77
1121.57	1063.98
1124.47	1014.88
1127.36	993.884
1130.25	929.852
1133.14	859.201
1136.04	785.265
1138.93	686.16
1141.82	590.076
1144.71	506.384
1147.61	437.636
1150.5	366.462
1153.39	277.498
1156.29	191.194
1159.18	151.286
1162.07	105.048
1164.96	78.2459
1167.86	46.8396
1170.75	13.5139
1173.64	15.3755
1176.54	0.444336
1179.43	0.666992
1182.32	3.2959
1185.21	10.5276
1188.11	3.61304
1191	6.6084
1193.89	15.5957
1196.78	8.83569
1199.68	1.77319
1202.57	17.582
1205.46	23.8823
1208.35	16.2493
1211.25	15.9846
1214.14	35.4085
1217.03	33.0403
1219.92	33.6892
1222.82	43.9412
1225.71	46.4097
1228.6	56.5266
1231.5	64.2251
1234.39	49.2588
1237.28	81.8184
1240.17	66.6081
1243.07	90.2754
1245.96	99.6597
1248.85	72.8003
1251.74	92.9356
1254.64	92.24
1257.53	67.1838
1260.42	98.5369
1263.32	82.1885
1266.21	81.6882
1269.1	66.7683
1271.99	55.9373
1274.89	65.5784
1277.78	45.6768
1280.67	36.6545
1283.57	35.5195
1286.46	48.4424
1289.35	26.3706
1292.24	19.4463
1295.13	16.2918
1298.03	11.3162
1300.92	4.14819
