Measurement: Raman, 532 nm, unoriented, Raman Data Processed
Mineral: Keyite
Rruff sample: R050585
Ideal chemistry: Cu^2+^_3_Zn^2+^_4_Cd^2+^_2_(As^5+^O_4_)_6_2H_2_O
Locality: Tsumeb mine, Tsumeb, Otavi District, Oshikoto, Namibia
Source: University of Arizona Mineral Museum
Description: Microscopic blue prismatic crystals embedded in green zincolivenite, R050583, and associated with schultenite, R050584
Measured chemistry: (Cu^2+^_2.67_Fe_0.33_)_Σ=3_Zn_4.00_(Cd_1.65_Fe_0.14_Pb_0.11_Mn_0.06_Ca_0.04_)_Σ=2_(As_1.00_O_4_)_6_·2H_2_O ; = lighter phase. The darker phase: Zn_1.00_(Cu_0.91_Fe_0.09_)_Σ=1_(As_1.00_O_4_)(OH)  is zincolivenite
Raman shift (cm-1)	intensity
150.983	0
153.875	59.2805
156.768	185.255
159.661	274.637
162.554	256.312
165.446	187.066
168.339	104.482
171.232	22.4055
174.124	6.11084
177.017	75.2686
179.91	137.831
182.803	310.375
185.695	493.921
188.588	783.563
191.481	892.693
194.373	899.142
197.266	640.132
200.159	350.946
203.051	305.988
205.944	315.062
208.837	310.816
211.729	340.134
214.622	379.881
217.515	477.09
220.407	555.108
223.3	540.701
226.193	537.943
229.086	493.183
231.978	472.3
234.871	331.705
237.764	232.49
240.656	189.219
243.549	74.7024
246.442	18.4219
249.334	26.9231
252.227	23.3374
255.12	32.5198
258.013	178.977
260.905	259.007
263.798	394.737
266.691	592.274
269.583	726.33
272.476	662.425
275.369	630.038
278.262	563.496
281.154	523.926
284.047	611.081
286.94	587.25
289.832	668.271
292.725	683.753
295.618	782.432
298.51	748.335
301.403	815.444
304.296	761.362
307.188	653.614
310.081	516.026
312.974	311.136
315.867	184.797
318.759	66.4839
321.652	0.89917
324.545	48.0774
327.437	9.3855
330.33	132.92
333.223	189.841
336.115	378.62
339.008	594.981
341.901	873.077
344.794	1146.87
347.686	1505.87
350.579	1742.24
353.472	1945.75
356.364	1789.32
359.257	1352.31
362.15	909.459
365.043	551.337
367.935	299.397
370.828	157.312
373.721	111.713
376.613	93.0898
379.506	14.2041
382.399	10.0535
385.291	6.40186
388.184	6.71314
391.077	75.7932
393.969	85.8491
396.862	159.555
399.755	266.62
402.648	349.751
405.54	443.629
408.433	482.286
411.326	469.531
414.218	454.829
417.111	406.746
420.004	302.457
422.897	211.633
425.789	131.224
428.682	112.861
431.575	110.553
434.467	95.0251
437.36	58.6682
440.253	30.4944
443.145	24.4285
446.038	23.2559
448.931	20.9534
451.824	4.5603
454.716	1.74609
457.609	26.7405
460.502	9.87598
463.394	65.1287
466.287	68.1291
469.18	152.555
472.072	174.131
474.965	228.954
477.858	270.904
480.75	329.105
483.643	390.335
486.536	459.148
489.429	584.082
492.321	681.992
495.214	813.492
498.107	836.665
500.999	906.037
503.892	804.855
506.785	741.903
509.678	577.799
512.57	508.529
515.463	448.816
518.356	351.08
521.248	311.132
524.141	266.408
527.034	216.114
529.926	190.549
532.819	170.234
535.712	28.7197
538.604	13.322
541.497	11.9202
544.39	15.6946
547.283	21.5496
550.175	17.6128
553.068	5.99292
555.961	23.4936
558.853	61.8935
561.746	96.7839
564.639	123.872
567.531	167.793
570.424	207.812
573.317	327.667
576.21	420.412
579.102	526.684
581.995	637.929
584.888	721.515
587.78	743.359
590.673	696.937
593.566	634.82
596.458	511.135
599.351	445.533
602.244	247.489
605.136	198.425
608.029	131.288
610.922	91.8506
613.815	101.989
616.707	59.8457
619.6	37.2383
622.493	22.2012
625.385	2.57532
628.278	16.2555
631.171	16.1749
634.063	1.67505
636.956	1.49292
639.849	5.07678
642.742	32.7991
645.634	37.282
648.527	7.09216
651.42	43.9738
654.312	57.5104
657.205	50.8257
660.098	11.6025
662.99	13.7887
665.883	48.8055
668.776	57.3981
671.669	52.7688
674.561	37.823
677.454	64.2203
680.347	29.032
683.239	40.4406
686.132	12.4631
689.025	1.20972
691.918	17.022
694.81	42.9281
697.703	43.6801
700.596	99.5521
703.488	109.935
706.381	113.569
709.274	150.167
712.166	159.289
715.059	150.922
717.952	152.558
720.845	175.159
723.737	212.427
726.63	254.236
729.523	254.669
732.415	258.566
735.308	258.95
738.201	195.146
741.093	119.28
743.986	48.3442
746.879	22.8315
749.771	6.30322
752.664	20.0134
755.557	53.3223
758.45	68.6414
761.342	54.9695
764.235	75.4448
767.128	27.2908
770.02	27.1306
772.913	85.675
775.806	140.523
778.698	314.549
781.591	512.511
784.484	768.978
787.377	1153.65
790.269	1741.11
793.162	2459.19
796.055	3238.55
798.947	4019.03
801.84	4570.3
804.733	4642.92
807.625	4110.98
810.518	3192.58
813.411	2405.22
816.304	1715.36
819.196	1348.48
822.089	1242.69
824.982	1253.53
827.874	1421.85
830.767	1817.34
833.66	2358.26
836.552	3228.34
839.445	4286.11
842.338	5736.02
845.231	7347.86
848.123	8757.74
851.016	9620.37
853.909	9577.39
856.801	8950.47
859.694	7732.33
862.587	6286.52
865.479	4905.41
868.372	3923.55
871.265	3400.53
874.158	3056.82
877.05	2868.79
879.943	2747.59
882.836	2477.12
885.728	2081.43
888.621	1578.64
891.514	1201.23
894.406	894.869
897.299	634.693
900.192	455.075
903.085	321.393
905.977	230.297
908.87	144.27
911.763	63.6223
914.655	17.3667
917.548	15.3191
920.441	14.8027
923.333	22.9163
926.226	72.2944
929.119	62.9951
932.011	42.5207
934.904	47.574
937.797	4.30762
940.69	29.5874
943.582	11.8293
946.475	19.4961
949.368	31.1338
952.26	49.9221
955.153	41.2722
958.046	72.9111
960.938	63.9336
963.831	126.665
966.724	93.473
969.617	88.3096
972.509	105.694
975.402	155.163
978.295	149.554
981.187	165.926
984.08	120.308
986.973	137.076
989.865	101.123
992.758	118.225
995.651	129.599
998.544	115.281
1001.44	133.952
1004.33	112.744
1007.22	98.722
1010.11	90.5557
1013.01	95.3793
1015.9	101.676
1018.79	65.2563
1021.68	98.8608
1024.58	78.6174
1027.47	63.3168
1030.36	92.2026
1033.26	43.5339
1036.15	65.7112
1039.04	77.2194
1041.93	40.4224
1044.83	42.1934
1047.72	50.1692
1050.61	48.0723
1053.51	54.7144
1056.4	28.4775
1059.29	42.8884
1062.18	3.33252
1065.08	18.241
1067.97	37.9255
1070.86	40.9204
1073.75	10.7368
1076.65	42.0039
1079.54	19.4321
1082.43	16.2512
1085.33	10.0815
1088.22	3.91016
1091.11	8.29321
1094	64.6938
1096.89	8.38159
1099.79	36.8477
1102.68	8.65185
1105.57	30.7
1108.47	27.6658
1111.36	30.2773
1114.25	37.3645
1117.14	23.582
1120.04	6.59155
1122.93	32.4077
1125.82	16.7632
1128.71	3.84277
1131.61	6.60083
1134.5	19.865
1137.39	8.24341
1140.29	29.8648
1143.18	48.1091
1146.07	16.2371
1148.96	11.9683
1151.86	34.9158
1154.75	6.43726
1157.64	27.6921
1160.54	13.791
1163.43	6.80225
1166.32	3.96899
1169.21	26.8911
1172.11	17.4145
1175	2.84985
1177.89	45.1016
1180.78	36.6763
1183.68	1.05786
1186.57	27.9744
1189.46	46.3467
1192.35	33.228
1195.25	12.2012
1198.14	53.3975
1201.03	42.8472
1203.92	40.7954
1206.82	43.3611
1209.71	34.3105
1212.6	39.0408
1215.5	59.1025
1218.39	42.2249
1221.28	6.32031
1224.17	13.4878
1227.07	22.9702
1229.96	30.1155
1232.85	8.75293
1235.74	52.9526
1238.64	19.3557
1241.53	18.3289
1244.42	33.1907
1247.32	61.512
1250.21	50.1392
1253.1	67.8579
1255.99	35.1416
1258.89	49.8406
1261.78	43.6331
1264.67	48.0122
1267.57	32.9758
1270.46	16.7642
1273.35	46.02
1276.24	16.1221
1279.13	5.29419
1282.03	51.8306
1284.92	41.9089
1287.81	57.1228
1290.71	12.4946
1293.6	0.59082
1296.49	0
