Measurement: Raman, 532 nm, unoriented, Raman Data Processed
Mineral: Keyite
Rruff sample: R090039
Ideal chemistry: Cu^2+^_3_Zn^2+^_4_Cd^2+^_2_(As^5+^O_4_)_6_2H_2_O
Locality: Tsumeb, Namibia
Source: William W. Pinch
Description: Blue crystals associated with green zincolivenite on matrix of tennantite.
Raman shift (cm-1)	intensity
121.489	0
124.863	10.6724
128.238	44.6969
131.613	92.9785
134.988	136.945
138.363	110.645
141.738	73.3171
145.112	60.1071
148.487	72.1644
151.862	70.4882
155.237	56.6767
158.612	27.6904
161.987	17.986
165.361	6.18564
168.736	5.56282
172.111	0.195999
175.486	0.454834
178.861	1.18378
182.235	9.15585
185.61	26.4483
188.985	40.6668
192.36	38.5612
195.735	27.2193
199.109	15.6559
202.484	10.0688
205.859	7.54498
209.234	0.994324
212.609	3.68527
215.984	2.0795
219.358	17.4545
222.733	33.2186
226.108	55.3938
229.483	79.6426
232.858	86.9732
236.232	94.3767
239.607	89.8333
242.982	79.2927
246.357	66.3233
249.732	50.5198
253.107	40.0747
256.481	34.5536
259.856	35.4563
263.231	37.411
266.606	53.3497
269.981	64.5605
273.356	73.0932
276.73	85.459
280.105	102.12
283.48	107.759
286.855	98.5218
290.23	80.3392
293.604	63.415
296.979	52.5479
300.354	43.6809
303.729	42.9478
307.104	38.2934
310.479	35.2013
313.853	21.6546
317.228	3.26627
320.603	1.30203
323.978	6.43477
327.353	5.54759
330.728	1.56145
334.102	6.44563
337.477	16.0005
340.852	34.4503
344.227	51.1343
347.602	68.8789
350.976	81.5429
354.351	88.2451
357.726	74.0747
361.101	52.9985
364.476	36.175
367.851	29.0157
371.225	23.8913
374.6	25.8423
377.975	25.0149
381.35	24.4212
384.725	24.479
388.099	24.8566
391.474	26.0331
394.849	28.949
398.224	41.1372
401.599	50.6067
404.974	58.4496
408.348	60.5764
411.723	48.3083
415.098	39.047
418.473	29.6017
421.848	20.0363
425.223	15.6426
428.597	7.96977
431.972	9.77675
435.347	9.18478
438.722	8.19858
442.097	6.88953
445.471	2.48169
448.846	1.50018
452.221	0.824303
455.596	2.8766
458.971	0.074684
462.346	3.1654
465.72	10.5143
469.095	16.7416
472.47	24.6842
475.845	29.5318
479.22	38.4015
482.594	49.7029
485.969	68.88
489.344	89.4272
492.719	108.896
496.094	136.728
499.469	158.176
502.843	166.048
506.218	152.261
509.593	121.803
512.968	100.669
516.343	76.9049
519.717	58.7091
523.092	44.9928
526.467	30.8756
529.842	16.2985
533.217	7.28477
536.592	2.99471
539.966	1.52119
543.341	2.5201
546.716	1.94167
550.091	1.74596
553.466	1.63722
556.841	0.913933
560.215	4.50958
563.59	8.94813
566.965	11.0062
570.34	19.4609
573.715	30.7852
577.09	41.4782
580.464	50.9272
583.839	56.9233
587.214	62.4536
590.589	59.9894
593.964	50.9761
597.338	43.334
600.713	29.497
604.088	22.8695
607.463	17.8204
610.838	12.1541
614.212	8.70097
617.587	4.55438
620.962	2.91898
624.337	1.17788
627.712	0.432167
631.087	0.164093
634.461	2.16248
637.836	2.834
641.211	2.55952
644.586	3.7561
647.961	1.96972
651.336	1.61326
654.71	0.024307
658.085	5.59546
661.46	4.1427
664.835	5.98407
668.21	4.22149
671.585	3.55125
674.959	4.84406
678.334	4.9298
681.709	4.54836
685.084	5.29379
688.459	6.33292
691.833	0.991394
695.208	3.52808
698.583	11.8562
701.958	15.5471
705.333	18.1459
708.707	26.8094
712.082	29.4158
715.457	36.0898
718.832	44.4061
722.207	50.3325
725.582	61.5103
728.956	60.9497
732.331	60.0981
735.706	50.2732
739.081	35.6218
742.456	17.6154
745.831	5.84579
749.205	0.577492
752.58	5.59647
755.955	6.8432
759.33	10.4736
762.705	7.33039
766.08	6.80729
769.454	0.325172
772.829	9.56062
776.204	24.141
779.579	54.7004
782.954	95.4056
786.328	156.97
789.703	243.168
793.078	350.666
796.453	464.17
799.828	540.116
803.202	530.442
806.577	417.046
809.952	271.612
813.327	179.368
816.702	130.33
820.077	121.648
823.451	139.34
826.826	183.53
830.201	268.277
833.576	394.582
836.951	570.31
840.326	802.131
843.7	1063.23
847.075	1342.16
850.45	1542.71
853.825	1502.78
857.2	1247.92
860.574	945.197
863.949	698.463
867.324	526.586
870.699	413.692
874.074	345.705
877.448	307.256
880.823	279.547
884.198	257.079
887.573	211.448
890.948	163.154
894.323	123.2
897.697	91.5218
901.072	65.5123
904.447	47.0588
907.822	31.8504
911.197	16.8668
914.572	8.03112
917.946	2.98453
921.321	1.56163
924.696	3.63541
928.071	7.14156
931.446	5.18866
934.821	6.12679
938.195	2.21467
941.57	0.44429
944.945	0.280273
948.32	3.59312
951.695	8.40202
955.069	6.84985
958.444	10.1264
961.819	10.763
965.194	12.1876
968.569	15.7184
971.943	19.2108
975.318	21.882
978.693	20.7986
982.068	21.1621
985.443	24.2926
988.818	22.9283
992.192	19.8813
995.567	17.0187
998.942	15.5881
1002.32	15.5108
1005.69	14.3466
1009.07	15.5094
1012.44	15.2813
1015.82	16.3481
1019.19	13.4073
1022.57	12.6466
1025.94	8.36231
1029.32	16.1646
1032.69	8.07133
1036.07	10.0364
1039.44	9.37128
1042.82	3.76858
1046.19	5.82665
1049.56	7.85558
1052.94	7.23796
1056.31	4.49305
1059.69	5.30837
1063.06	4.64523
1066.44	4.63148
1069.81	4.79338
1073.19	1.77665
1076.56	4.80025
1079.94	2.15907
1083.31	4.53855
1086.69	4.7048
1090.06	5.60897
1093.44	3.46159
1096.81	1.50458
1100.19	3.65831
1103.56	5.00508
1106.94	2.38259
1110.31	0.072662
1113.69	5.04836
1117.06	2.94577
1120.44	2.87514
1123.81	2.91989
1127.18	0.716116
1130.56	0.628139
1133.93	0.829319
1137.31	1.17787
1140.68	1.5827
1144.06	1.26806
1147.43	0.527155
1150.81	0.228828
1154.18	3.04004
1157.56	0.913414
1160.93	2.10909
1164.31	3.37762
1167.68	1.29331
1171.06	2.06858
1174.43	2.7376
1177.81	1.08181
1181.18	3.4981
1184.56	3.48169
1187.93	4.7029
1191.31	4.85858
1194.68	4.59054
1198.06	1.40295
1201.43	2.32006
1204.81	3.3721
1208.18	2.79561
1211.56	0.777056
1214.93	3.57644
1218.31	4.49621
1221.68	1.07752
1225.06	4.34636
1228.43	3.57968
1231.81	6.23036
1235.18	0.377047
1238.55	3.92552
1241.93	2.12652
1245.3	3.60218
1248.68	4.81646
1252.05	3.13147
1255.43	4.07571
1258.8	4.70431
1262.18	1.78816
1265.55	3.3025
1268.93	1.63948
1272.3	0.089685
1275.68	4.11564
1279.05	4.78163
1282.43	2.54986
1285.8	2.91368
1289.18	3.28902
1292.55	9.21257
1295.93	6.14684
1299.3	8.43728
1302.68	0
