Measurement: Raman, 780 nm, unoriented, Raman Data Processed
Mineral: Keyite
Rruff sample: R050585
Ideal chemistry: Cu^2+^_3_Zn^2+^_4_Cd^2+^_2_(As^5+^O_4_)_6_2H_2_O
Locality: Tsumeb mine, Tsumeb, Otavi District, Oshikoto, Namibia
Source: University of Arizona Mineral Museum
Description: Microscopic blue prismatic crystals embedded in green zincolivenite, R050583, and associated with schultenite, R050584
Measured chemistry: (Cu^2+^_2.67_Fe_0.33_)_Σ=3_Zn_4.00_(Cd_1.65_Fe_0.14_Pb_0.11_Mn_0.06_Ca_0.04_)_Σ=2_(As_1.00_O_4_)_6_·2H_2_O ; = lighter phase. The darker phase: Zn_1.00_(Cu_0.91_Fe_0.09_)_Σ=1_(As_1.00_O_4_)(OH)  is zincolivenite
Raman shift (cm-1)	intensity
106.506	0
109.881	35.6719
113.256	148.057
116.631	219.116
120.006	339.306
123.38	631.675
126.755	979.198
130.13	732.896
133.505	297.203
136.88	112.862
140.255	48.0645
143.629	23.5288
147.004	22.5889
150.379	103.788
153.754	179.78
157.129	296.789
160.503	289.143
163.878	190.554
167.253	192.907
170.628	210.763
174.003	261.627
177.377	197.048
180.752	282.148
184.127	219.387
187.502	240.735
190.877	336.428
194.251	273.641
197.626	226.612
201.001	181.898
204.376	213.917
207.751	17.0625
211.126	24.5415
214.5	12.6875
217.875	21.5776
221.25	43.9224
224.625	38.0747
228	20.3701
231.375	4.94385
234.749	14.416
238.124	12.0054
241.499	19.8628
244.874	27.3774
248.249	126.201
251.623	157.614
254.998	178.779
258.373	196.273
261.748	313.426
265.123	352.555
268.498	396.476
271.872	316.261
275.247	295.188
278.622	254.265
281.997	259.494
285.372	220.109
288.746	193.041
292.121	227.949
295.496	204.379
298.871	202.6
302.246	150.396
305.62	124.991
308.995	70.1113
312.37	144.301
315.745	78.8628
319.12	97.8047
322.495	75.8389
325.869	232.034
329.244	221.591
332.619	441.37
335.994	580.188
339.369	669.12
342.743	913.191
346.118	1040.79
349.493	1150.38
352.868	1112.02
356.243	984.407
359.618	794
362.992	491.158
366.367	316.972
369.742	209.566
373.117	139.875
376.492	91.7905
379.866	23.5078
383.241	8.81348
386.616	15.2656
389.991	39.189
393.366	27.6777
396.74	110.011
400.115	241.772
403.49	227.585
406.865	282.83
410.24	278.278
413.615	367.813
416.989	281.42
420.364	239.712
423.739	216.606
427.114	107.907
430.489	98.2876
433.863	98.4981
437.238	19.8286
440.613	23.0195
443.988	58.5864
447.363	11.9507
450.738	25.8652
454.112	28.3384
457.487	0.208496
460.862	5.47559
464.237	59.0322
467.612	53.7602
470.986	132.642
474.361	88.3272
477.736	170.942
481.111	210.16
484.486	211.469
487.861	211.67
491.235	190.135
494.61	264.557
497.985	240.883
501.36	171.17
504.735	164.189
508.109	139.668
511.484	162.405
514.859	151.837
518.234	133.175
521.609	162.764
524.984	80.9414
528.358	150.511
531.733	75.8887
535.108	71.8008
538.483	33.3506
541.858	61.9531
545.232	26.7158
548.607	1.96777
551.982	5.49707
555.357	0.72168
558.732	93.1621
562.106	35.373
565.481	69.4121
568.856	138.455
572.231	238.242
575.606	186.693
578.981	116.647
582.355	176.99
585.73	140.849
589.105	159.648
592.48	207.425
595.855	155.422
599.23	158.531
602.604	78.5654
605.979	49.8838
609.354	67.4326
612.729	27.2793
616.104	77.0342
619.478	103.19
622.853	6.46289
626.228	68.2158
629.603	83.4551
632.978	132.089
636.352	63.0254
639.727	74.0869
643.102	97.1494
646.477	6.67676
649.852	49.4707
653.227	30.876
656.601	52.583
659.976	57.1406
663.351	38.1084
666.726	62.9316
670.101	43.9766
673.476	26.501
676.85	82.3408
680.225	90.1758
683.6	31.1514
686.975	98.7461
690.35	109.98
693.724	105.934
697.099	52.2773
700.474	53.627
703.849	115.847
707.224	75.1348
710.598	203.242
713.973	142.583
717.348	142.878
720.723	57.4697
724.098	115.612
727.472	111.031
730.847	68.5674
734.222	115.244
737.597	100.955
740.972	57.3105
744.347	67.541
747.721	39.2685
751.096	0.555664
754.471	45.1035
757.846	85.71
761.221	42.8906
764.596	32.498
767.97	15.9336
771.345	20.4131
774.72	93.8789
778.095	144.011
781.47	292.747
784.844	415.065
788.219	582.161
791.594	776.75
794.969	927.023
798.344	1084.24
801.718	1093.87
805.093	907.859
808.468	891.132
811.843	729.771
815.218	681.607
818.593	688.05
821.967	783.514
825.342	1015.62
828.717	1299.67
832.092	1724.05
835.467	2286.85
838.841	2936.94
842.216	3661.24
845.591	4285.9
848.966	4515.43
852.341	4414.54
855.716	3943.68
859.09	3298.14
862.465	2607.34
865.84	2063.59
869.215	1698.15
872.59	1424.89
875.964	1298.37
879.339	1051.13
882.714	787.885
886.089	631.097
889.464	531.932
892.838	406.083
896.213	263.146
899.588	267.568
902.963	119.015
906.338	64.5127
909.713	1.15137
913.087	41.1787
916.462	2.48731
919.837	4.90918
923.212	36.7031
926.587	79.3369
929.962	40.292
933.336	15.9121
936.711	92.6543
940.086	22.6035
943.461	18.7754
946.836	52.1709
950.21	82.9853
953.585	70.1465
956.96	88.8379
960.335	45.2832
963.71	84.168
967.085	44.2188
970.459	54.3408
973.834	48.9922
977.209	40.9697
980.584	145.192
983.959	12.998
987.333	55.5742
990.708	103.524
994.083	43.7334
997.458	79.3564
1000.83	111.982
1004.21	67.9961
1007.58	126.653
1010.96	117.464
1014.33	141.815
1017.71	62.2617
1021.08	164.688
1024.46	163.421
1027.83	136.677
1031.21	122.652
1034.58	120.933
1037.96	123.152
1041.33	113.952
1044.7	64.4932
1048.08	165.376
1051.45	194.775
1054.83	46.0781
1058.2	108.897
1061.58	160.592
1064.95	111.346
1068.33	123.897
1071.7	134.654
1075.08	179.163
1078.45	175.625
1081.83	82.9873
1085.2	91.9668
1088.58	0.830078
1091.95	118.534
1095.33	44.3975
1098.7	85.876
1102.08	79.3018
1105.45	37.1523
1108.83	0.275391
1112.2	97.292
1115.58	46.5478
1118.95	25.8867
1122.33	15.0527
1125.7	51.584
1129.08	15.1221
1132.45	24.8633
1135.83	90.9258
1139.2	100.148
1142.58	109.721
1145.95	23.0977
1149.33	108.359
1152.7	125.852
1156.07	32.832
1159.45	240.486
1162.82	182.932
1166.2	159.935
1169.57	161.06
1172.95	213.84
1176.32	274.859
1179.7	204.182
1183.07	146.889
1186.45	205.902
1189.82	213.504
1193.2	192.541
1196.57	151.565
1199.95	334.873
1203.32	179.312
1206.7	152.959
1210.07	161.512
1213.45	35.6836
1216.82	168.119
1220.2	83.375
1223.57	70.2168
1226.94	25.9238
1230.32	92.7109
1233.69	29.9043
1237.07	38.0234
1240.44	103.887
1243.82	130.857
1247.19	72.793
1250.57	94.6856
1253.94	79.4473
1257.32	63.6562
1260.69	64.2188
1264.07	122.703
1267.44	97.416
1270.82	94.2812
1274.19	180.322
1277.57	23.7324
1280.94	56.9863
1284.32	33.207
