Measurement: Raman, 780 nm, unoriented, Raman Data Processed
Mineral: Keystoneite
Rruff sample: R070661
Ideal chemistry: H_0.8_Mg_0.8_(Ni,Fe^3+^,Mn)_2_(Te^4+^O_3_)_3_5H_2_O
Locality: McAlpine mine, Moccasin, Tuolumne Co., California, USA
Source: Michael Scott
Description: Clusters of greenish yellow acicular microcrystals associated with quartz and pyrite.
Raman shift (cm-1)	intensity
111.149	0
114.524	10.104
117.899	155.672
121.274	184.233
124.649	592.11
128.024	515.533
131.398	111.976
134.773	44.2969
138.148	123.264
141.523	248.385
144.898	513.571
148.272	607.539
151.647	664.365
155.022	406.934
158.397	213.094
161.772	135.459
165.147	59.1924
168.521	30.4246
171.896	122.967
175.271	260.641
178.646	375.361
182.02	443.662
185.395	676.971
188.77	816.575
192.145	935.69
195.52	1006.22
198.895	1151.85
202.269	1278.06
205.644	1480.12
209.019	1471.02
212.394	1489.95
215.769	1500.58
219.143	1563.66
222.518	1621.31
225.893	1691.42
229.268	1721.83
232.643	1839.93
236.018	1858.02
239.393	1976.26
242.767	2001.44
246.142	1823.85
249.517	1564.99
252.892	1431.85
256.267	1151.12
259.641	987.713
263.016	869.577
266.391	632.811
269.766	451.929
273.141	311.549
276.515	273.987
279.89	131.143
283.265	140.347
286.64	38.5137
290.015	6.31763
293.389	28.8115
296.764	25.304
300.139	47.02
303.514	22.4148
306.889	29.8403
310.264	16.5959
313.639	16.8352
317.013	23.7346
320.388	111.113
323.763	158.507
327.138	174.393
330.512	275.838
333.887	353.61
337.262	396.022
340.637	421.473
344.012	382.492
347.387	331.39
350.761	370.955
354.136	319.341
357.511	322.183
360.886	224.85
364.261	272.16
367.635	314.447
371.01	280.513
374.385	235.882
377.76	294.594
381.135	276.99
384.51	207.027
387.885	247.475
391.259	220.312
394.634	140.093
398.009	167.7
401.384	134.32
404.759	73.0596
408.133	29.8254
411.508	16.8467
414.883	8.3811
418.258	52.6929
421.633	50.613
425.007	113.721
428.382	160.135
431.757	220.904
435.132	369.265
438.507	397.426
441.882	602.297
445.256	827.537
448.631	1155.54
452.006	1542.91
455.381	1981
458.756	2703.06
462.13	3264.84
465.505	3120.61
468.88	2562
472.255	2115.37
475.63	1838.2
479.005	1587.05
482.379	1324.27
485.754	1107.85
489.129	903.541
492.504	721.351
495.879	632.747
499.253	472.036
502.628	392.479
506.003	329.248
509.378	315.347
512.753	156.545
516.128	152.589
519.502	125.32
522.877	64.4686
526.252	38.6926
529.627	61.4134
533.002	31.6444
536.376	70.2095
539.751	5.55164
543.126	20.4717
546.501	1.55798
549.876	25.3108
553.25	21.5411
556.625	3.59546
560	16.4232
563.375	5.10657
566.75	41.8267
570.125	28.454
573.5	19.5461
576.874	12.4345
580.249	13.3125
583.624	18.5409
586.999	4.65735
590.374	38.4554
593.748	103.359
597.123	127.052
600.498	138.848
603.873	122.616
607.248	199.855
610.622	241.024
613.997	311.31
617.372	341.386
620.747	411.053
624.122	379.02
627.496	490.745
630.871	525.457
634.246	503.575
637.621	563.365
640.996	558.276
644.371	494.243
647.745	506.556
651.12	403.579
654.495	323.877
657.87	288.892
661.245	253.925
664.62	136.575
667.994	28.1365
671.369	48.2988
674.744	8.61621
678.119	30.7087
681.494	164.637
684.869	222.604
688.243	412.101
691.618	594.601
694.993	803.142
698.368	1108.54
701.743	1570.36
705.117	2103.42
708.492	2706.43
711.867	3502.43
715.242	4284.35
718.617	5089.88
721.991	5775.51
725.366	6090.51
728.741	6066.52
732.116	5622.09
735.491	5019.52
738.865	4314.16
742.24	3504.58
745.615	2803.34
748.99	2183.53
752.365	1769.85
755.74	1335.27
759.114	993.697
762.489	746.329
765.864	564.815
769.239	376.885
772.614	220.921
775.989	109.518
779.363	47.0474
782.738	25.8832
786.113	55.7971
789.488	52.6611
792.863	7.60632
796.237	43.7772
799.612	29.0336
802.987	6.66418
806.362	48.6204
809.737	53.7683
813.111	103.747
816.486	18.9536
819.861	86.9408
823.236	143.34
826.611	156.886
829.986	147.06
833.361	182.31
836.735	174.191
840.11	186.551
843.485	161.858
846.86	158.985
850.235	131.923
853.609	117.767
856.984	132.422
860.359	74.3398
863.734	106.999
867.109	105.313
870.484	104.79
873.858	82.6992
877.233	126.674
880.608	75.761
883.983	77.3048
887.357	99.0511
890.732	77.972
894.107	66.8565
897.482	42.8201
900.857	66.1926
904.232	58.5208
907.606	42.7105
910.981	40.2581
914.356	51.6176
917.731	56.6614
921.106	77.1425
924.481	32.8567
927.855	10.8286
931.23	4.71021
934.605	35.8992
937.98	39.9889
941.355	49.0609
944.729	46.6858
948.104	20.2457
951.479	5.22345
954.854	48.1265
958.229	19.0727
961.604	41.8817
964.978	35.0591
968.353	12.0276
971.728	21.3093
975.103	11.9955
978.478	19.2875
981.852	24.7138
985.227	44.2581
988.602	2.14062
991.977	13.6469
995.352	14.6112
998.727	30.4596
1002.1	8.26166
1005.48	3.26599
1008.85	8.81256
1012.23	34.3165
1015.6	2.85254
1018.98	59.0385
1022.35	18.1262
1025.72	9.91455
1029.1	41.53
1032.47	15.6787
1035.85	12.1108
1039.22	9.96259
1042.6	14.5103
1045.97	48.8038
1049.35	39.1973
1052.72	28.7789
1056.1	21.3891
1059.47	42.9016
1062.85	62.3307
1066.22	27.4926
1069.6	29.1252
1072.97	52.0048
1076.35	24.4755
1079.72	44.4708
1083.1	48.1544
1086.47	46.5837
1089.85	15.1572
1093.22	52.3279
1096.6	37.2562
1099.97	25.1647
1103.35	23.8997
1106.72	11.1444
1110.1	14.4403
1113.47	18.5175
1116.85	33.5719
1120.22	22.42
1123.6	1.38873
1126.97	42.3578
1130.34	28.6081
1133.72	33.1966
1137.09	31.2252
1140.47	41.7906
1143.84	30.2518
1147.22	34.396
1150.59	49.03
1153.97	20.1633
1157.34	41.2459
1160.72	54.5812
1164.09	40.8945
1167.47	54.2186
1170.84	50.722
1174.22	48.128
1177.59	101.04
1180.97	40.0682
1184.34	37.1982
1187.72	43.4874
1191.09	9.37372
1194.47	23.0929
1197.84	36.1021
1201.22	47.55
1204.59	34.2492
1207.96	44.9836
1211.34	36.2101
1214.71	20.1559
1218.09	64.5483
1221.46	70.6622
1224.84	30.6497
1228.21	31.0359
1231.59	47.8688
1234.96	44.4977
1238.34	40.8437
1241.71	46.265
1245.09	54.0333
1248.46	13.4842
1251.84	58.0885
1255.21	50.7637
1258.59	42.814
1261.96	26.4293
1265.34	40.305
1268.71	49.4368
1272.09	28.2934
1275.46	12.2532
