Measurement: Raman, 532 nm, unoriented, Raman Data Processed
Mineral: Keystoneite
Rruff sample: R070661
Ideal chemistry: H_0.8_Mg_0.8_(Ni,Fe^3+^,Mn)_2_(Te^4+^O_3_)_3_5H_2_O
Locality: McAlpine mine, Moccasin, Tuolumne Co., California, USA
Source: Michael Scott
Description: Clusters of greenish yellow acicular microcrystals associated with quartz and pyrite.
Raman shift (cm-1)	intensity
110.952	0
114.326	11.4639
117.701	56.7783
121.076	422.523
124.451	1087.6
127.826	2157.97
131.201	2033.45
134.575	972.146
137.95	583.942
141.325	751.032
144.7	956.387
148.075	1379.23
151.449	1631.79
154.824	1464.88
158.199	863.829
161.574	296.139
164.949	82.5068
168.323	153.284
171.698	70.5537
175.073	164.294
178.448	452.51
181.823	841.092
185.198	1406.05
188.572	1923.56
191.947	2467.22
195.322	2884.51
198.697	3379.65
202.072	4011.08
205.446	4503.45
208.821	4690.08
212.196	4768.3
215.571	4873.69
218.946	4898.27
222.321	5125.7
225.695	5289.64
229.07	5582.31
232.445	5744.59
235.82	5946.35
239.195	6124.3
242.57	6395.48
245.944	6453.94
249.319	5679.86
252.694	4864.49
256.069	4148.73
259.443	3545.12
262.818	3150.4
266.193	2571.18
269.568	2033.16
272.943	1498.82
276.318	1033.76
279.692	779.59
283.067	483.923
286.442	258.801
289.817	117.076
293.192	59.9326
296.567	8.9331
299.941	62.436
303.316	56.8374
306.691	63.4253
310.066	85.9771
313.441	39.7563
316.815	56.6127
320.19	108.73
323.565	231.708
326.94	432.695
330.315	612.608
333.69	752.972
337.064	936.678
340.439	1078.92
343.814	1096.73
347.189	1227
350.564	1206.96
353.938	1340.97
357.313	1150.82
360.688	903.842
364.063	917.326
367.438	953.359
370.812	993.927
374.187	1206.69
377.562	1369.36
380.937	1338.04
384.312	1456.26
387.687	1309.02
391.061	1421.58
394.436	958.66
397.811	706.011
401.186	596.469
404.561	272.401
407.935	70.6514
411.31	71.7832
414.685	166.412
418.06	19.3691
421.435	152.517
424.81	477.161
428.184	912.98
431.559	1300.31
434.934	1844.63
438.309	2509.62
441.684	3084.29
445.058	3880.07
448.433	5278.83
451.808	7054.33
455.183	8968.49
458.558	11362.1
461.933	14146.4
465.307	16191.8
468.682	14566.6
472.057	12543.4
475.432	11026.6
478.807	9577.7
482.181	8255.05
485.556	7162.64
488.931	5957.44
492.306	4854.11
495.681	3978.52
499.055	3242.25
502.43	2651.2
505.805	2117.35
509.18	1850.66
512.555	1468.14
515.929	1236.24
519.304	939.698
522.679	760.623
526.054	617.302
529.429	567.082
532.804	412.032
536.178	349.139
539.553	219.315
542.928	264.445
546.303	186.149
549.678	116.184
553.053	35.1196
556.427	30.6582
559.802	45.3374
563.177	87.9771
566.552	35.8584
569.927	67.0166
573.301	143.443
576.676	207.63
580.051	156.425
583.426	112.262
586.801	16.9087
590.176	58.002
593.55	147.562
596.925	350.429
600.3	532.997
603.675	761.361
607.05	926.637
610.424	1199.64
613.799	1386.74
617.174	1709.51
620.549	1978.17
623.924	2155.4
627.298	2458.03
630.673	2648.16
634.048	2710.58
637.423	2667.09
640.798	2676.67
644.173	2677.64
647.547	2621.37
650.922	2442.78
654.297	2203.77
657.672	1898.24
661.047	1473.68
664.421	1058.62
667.796	733.215
671.171	384.024
674.546	263.688
677.921	391.502
681.295	614.417
684.67	1105.8
688.045	1790.48
691.42	2556.05
694.795	3989.41
698.17	5062.11
701.544	6736.84
704.919	8775.93
708.294	11328.2
711.669	14591.8
715.044	18135.8
718.418	21713.5
721.793	24752.5
725.168	26806.2
728.543	27396.4
731.918	26360.9
735.293	23855
738.667	20725.2
742.042	17233.1
745.417	14001
748.792	11219.7
752.167	9009.52
755.541	7237.24
758.916	5753.23
762.291	4462.11
765.666	3449.57
769.041	2550.02
772.415	1790.51
775.79	1211.55
779.165	667.806
782.54	386.928
785.915	92.8721
789.29	251.856
792.664	279.713
796.039	251.875
799.414	154.279
802.789	9.2124
806.164	16.3608
809.538	189.775
812.913	314.327
816.288	414.457
819.663	559.19
823.038	692.142
826.413	713.68
829.787	834.291
833.162	839.678
836.537	893.951
839.912	957.064
843.287	997.804
846.661	963.971
850.036	917.135
853.411	783.495
856.786	697.34
860.161	613.653
863.535	540.873
866.91	505.37
870.285	639.031
873.66	491.388
877.035	448.981
880.41	454.285
883.784	426.45
887.159	432.467
890.534	417.217
893.909	409.608
897.284	420.268
900.659	368.512
904.033	363.516
907.408	301.103
910.783	278.796
914.158	264.594
917.533	241.815
920.907	239.422
924.282	208.844
927.657	158.609
931.032	190.276
934.407	141.394
937.782	143.447
941.156	135.653
944.531	105.137
947.906	101.517
951.281	85.0427
954.656	53.9807
958.03	36.9954
961.405	54.8674
964.78	58.843
968.155	39.9202
971.53	3.18921
974.904	38.2463
978.279	26.1426
981.654	3.27759
985.029	21.7878
988.404	29.6685
991.779	119.29
995.153	19.8877
998.528	18.9976
1001.9	28.1355
1005.28	36.7029
1008.65	30.1497
1012.03	4.07227
1015.4	14.4355
1018.78	6.67529
1022.15	0.283447
1025.53	2.25342
1028.9	9.84888
1032.28	3.63647
1035.65	40.2332
1039.03	31.4307
1042.4	20.2102
1045.78	10.772
1049.15	38.2612
1052.53	41.8381
1055.9	30.283
1059.28	77.9246
1062.65	41.8301
1066.03	122.549
1069.4	93.9658
1072.77	43.0444
1076.15	108.539
1079.52	95.4036
1082.9	115.7
1086.27	112.064
1089.65	40.564
1093.02	28.0718
1096.4	12.6897
1099.77	56.8818
1103.15	33.512
1106.52	19.2197
1109.9	29.0996
1113.27	29.7312
1116.65	25.9951
1120.02	2.65625
1123.4	14.7459
1126.77	47.5063
1130.15	28.6895
1133.52	38.0525
1136.9	5.5415
1140.27	14.8042
1143.64	4.36133
1147.02	55.3935
1150.39	119.674
1153.77	137.088
1157.14	189.298
1160.52	165.727
1163.89	155.55
1167.27	53.6372
1170.64	89.1523
1174.02	1.20752
1177.39	75.1123
1180.77	22.864
1184.14	18.6043
1187.52	33.8923
1190.89	29.1301
1194.27	24.158
1197.64	15.3071
1201.02	59.9856
1204.39	24.9492
1207.77	27.7888
1211.14	48.1287
1214.52	0.783203
1217.89	28.3494
1221.27	65.1206
1224.64	78.7493
1228.02	43.1868
1231.39	38.7288
1234.77	43.4624
1238.14	20.5796
1241.52	75.0769
1244.89	61.3735
1248.27	70.6562
1251.64	42.9873
1255.01	78.7459
1258.39	13.6934
1261.76	21.7654
1265.14	45.0727
1268.51	91.7905
1271.89	82.5474
1275.26	35.3603
1278.64	19.4556
1282.01	0
