Measurement: Raman, 532 nm, unoriented, Raman Data Processed
Mineral: Keystoneite
Rruff sample: R070660
Ideal chemistry: H_0.8_Mg_0.8_(Ni,Fe^3+^,Mn)_2_(Te^4+^O_3_)_3_5H_2_O
Locality: McAlpine mine, Moccasin, Tuolumne Co., California, USA
Source: Michael Scott
Description: Clusters of greenish yellow acicular microcrystals associated with quartz and pyrite.
Raman shift (cm-1)	intensity
140.565	0
143.94	29.7763
147.315	25.7344
150.69	26.0492
154.065	39.5219
157.439	32.563
160.814	44.1559
164.189	31.7739
167.564	9.37085
170.939	1.99805
174.313	20.8835
177.688	13.0438
181.063	4.63928
184.438	29.2845
187.813	45.2689
191.187	59.1469
194.562	56.1942
197.937	95.3905
201.312	102.029
204.687	131.4
208.061	139.28
211.436	164.864
214.811	189.959
218.186	199.125
221.561	197.03
224.936	208.878
228.31	208.217
231.685	213.449
235.06	231.162
238.435	218.251
241.81	217.905
245.185	215.342
248.559	209.47
251.934	174.105
255.309	184.967
258.684	152.622
262.059	109.974
265.433	79.9288
268.808	70.3301
272.183	55.2693
275.558	49.2023
278.933	38.5756
282.308	20.9696
285.682	22.2401
289.057	27.7671
292.432	11.0426
295.807	0.33374
299.182	8.50854
302.556	6.91675
305.931	7.64282
309.306	6.93396
312.681	21.0794
316.056	12.745
319.43	21.8827
322.805	26.8691
326.18	27.8573
329.555	28.9087
332.93	25.4408
336.305	59.6694
339.679	61.6279
343.054	62.9066
346.429	46.6895
349.804	65.2188
353.179	61.087
356.553	55.9034
359.928	66.3218
363.303	49.4425
366.678	42.6288
370.053	48.02
373.428	37.6311
376.802	41.6072
380.177	13.2201
383.552	19.9144
386.927	14.0182
390.302	15.1313
393.676	2.88489
397.051	22.4055
400.426	13.2062
403.801	0.646729
407.176	4.00659
410.55	9.77148
413.925	28.9359
417.3	56.7336
420.675	104.32
424.05	124.154
427.425	169.183
430.799	220.591
434.174	296.018
437.549	358.254
440.924	433.365
444.299	521.354
447.673	590.549
451.048	667.932
454.423	718.828
457.798	773.449
461.173	774.849
464.548	741.926
467.922	702.596
471.297	635.428
474.672	564.274
478.047	477.059
481.422	384.305
484.796	332.114
488.171	274.758
491.546	211.51
494.921	168.61
498.296	145.617
501.671	111.266
505.045	81.8177
508.42	48.1599
511.795	47.4393
515.17	46.7673
518.545	42.9693
521.919	50.0128
525.294	65.9033
528.669	37.7285
532.044	43.2211
535.419	65.4707
538.794	33.7198
542.168	31.8768
545.543	32.3631
548.918	7.63696
552.293	19.9942
555.668	12.2216
559.043	12.373
562.417	15.8262
565.792	2.99023
569.167	3.40692
572.542	12.8021
575.917	17.1265
579.291	13.4625
582.666	5.38825
586.041	5.23114
589.416	7.5321
592.791	2.80695
596.165	10.535
599.54	8.87366
602.915	26.4109
606.29	25.9669
609.665	50.3977
613.039	66.9703
616.414	69.0635
619.789	83.9043
623.164	88.125
626.539	98.9342
629.914	119.453
633.288	99.6029
636.663	112.883
640.038	116.087
643.413	137.493
646.788	122.511
650.163	117.833
653.537	104.938
656.912	77.2717
660.287	58.4058
663.662	72.7305
667.037	35.9003
670.411	31.8341
673.786	24.5427
677.161	41.5767
680.536	55.6917
683.911	87.6254
687.285	108.908
690.66	152.572
694.035	215.326
697.41	278.26
700.785	375.253
704.159	465.448
707.534	585.679
710.909	685.885
714.284	794.402
717.659	875.661
721.034	962.43
724.408	974.756
727.783	993.946
731.158	947.63
734.533	872.49
737.908	788.821
741.283	711.122
744.657	594.705
748.032	497.262
751.407	397.619
754.782	327.4
758.157	256.365
761.531	187.129
764.906	124.639
768.281	104.534
771.656	34.0154
775.031	35.0258
778.405	1.2323
781.78	11.8684
785.155	27.1473
788.53	9.16626
791.905	13.1094
795.28	43.0642
798.654	61.9811
802.029	67.9737
805.404	77.8566
808.779	89.2284
812.154	99.4247
815.529	92.3003
818.903	76.2919
822.278	53.213
825.653	57.4194
829.028	43.6049
832.403	23.9257
835.777	4.61468
839.152	2.24072
842.527	4.68652
845.902	2.72937
849.277	10.7582
852.652	2.12494
856.026	7.16675
859.401	9.73621
862.776	16.1927
866.151	31.2941
869.526	26.0298
872.9	31.3812
876.275	44.1938
879.65	61.4372
883.025	66.277
886.4	68.5176
889.774	82.8844
893.149	88.0365
896.524	101.754
899.899	83.2939
903.274	88.4922
906.649	88.9694
910.023	83.3664
913.398	79.5783
916.773	80.0698
920.148	97.1464
923.523	67.0545
926.898	69.3133
930.272	79.8554
933.647	62.0615
937.022	58.4165
940.397	53.6964
943.771	55.0324
947.146	43.7539
950.521	49.4361
953.896	54.1405
957.271	33.6292
960.646	44.0374
964.02	33.7818
967.395	30.6211
970.77	27.5796
974.145	30.5818
977.52	33.9453
980.894	17.6086
984.269	22.7384
987.644	25.0666
991.019	24.965
994.394	15.9681
997.769	12.3199
1001.14	15.6639
1004.52	8.83902
1007.89	5.12653
1011.27	7.23312
1014.64	14.4281
1018.02	4.1987
1021.39	2.9668
1024.77	3.32828
1028.14	14.8827
1031.52	0.511749
1034.89	2.84097
1038.27	3.54416
1041.64	4.87924
1045.02	3.86902
1048.39	1.94757
1051.77	5.69367
1055.14	0.214111
1058.52	5.48846
1061.89	5.1496
1065.27	16.6987
1068.64	9.33408
1072.02	0.029419
1075.39	6.75836
1078.76	1.14963
1082.14	7.78714
1085.51	19.1249
1088.89	12.0743
1092.26	15.8327
1095.64	45.5621
1099.01	42.8384
1102.39	22.7541
1105.76	16.8169
1109.14	9.03015
1112.51	2.21036
1115.89	7.02197
1119.26	8.16431
1122.64	17.395
1126.01	1.07742
1129.39	2.66412
1132.76	11.5786
1136.14	4.69461
1139.51	20.096
1142.89	7.10211
1146.26	2.3244
1149.63	20.1981
1153.01	2.82663
1156.38	6.18683
1159.76	6.00137
1163.13	0.936768
1166.51	21.1457
1169.88	7.48261
1173.26	24.3575
1176.63	13.7548
1180.01	15.2766
1183.38	8.12125
1186.76	2.61029
1190.13	12.6562
1193.51	8.10184
1196.88	23.8877
1200.26	15.2137
1203.63	1.34638
1207.01	6.4039
1210.38	8.03296
1213.76	9.48615
1217.13	11.3615
1220.51	2.32141
1223.88	12.3866
1227.26	6.49439
1230.63	0.73175
1234.01	5.87857
1237.38	11.4367
1240.76	5.44342
1244.13	11.3029
1247.51	7.92007
1250.88	14.6664
1254.26	4.46796
1257.63	6.25772
1261	8.11343
1264.38	15.6034
1267.75	0.017426
1271.13	9.36023
1274.5	15.4339
1277.88	14.8836
1281.25	5.6741
1284.63	13.0476
1288	9.27838
1291.38	14.4931
1294.75	13.4573
1298.13	2.49048
1301.5	12.6593
1304.88	0
