Measurement: Raman, 532 nm, unoriented, Raman Data Processed
Mineral: Khinite
Rruff sample: R080124
Ideal chemistry: Cu^2+^_3_PbTe^6+^O_6_(OH)_2_
Locality: 400 ft. level, Empire mine, Tombstone, Arizona
Source: William W. Pinch
Description: Aggregates of dark emerald-green hexagonal prismatic crystals, this is the -3T polytype, previously known as parakhinite. Sample was used in the Hawthorne et al (2008) study
Raman shift (cm-1)	intensity
150.308	0
153.201	0.440506
156.094	3.83594
158.986	4.75896
161.879	1.47046
164.772	0.361237
167.664	1.13573
170.557	1.91885
173.45	5.15291
176.343	11.6326
179.235	19.4339
182.128	26.1745
185.021	43.4253
187.913	58.647
190.806	72.927
193.699	95.1849
196.591	119.673
199.484	148.478
202.377	162.01
205.269	105.841
208.162	55.8975
211.055	29.5627
213.948	12.6113
216.84	5.47377
219.733	5.03336
222.626	2.01303
225.518	2.45933
228.411	1.07571
231.304	1.22487
234.196	6.2195
237.089	12.8367
239.982	19.4133
242.875	26.1928
245.767	27.5049
248.66	27.4938
251.553	29.4019
254.445	43.1433
257.338	60.1798
260.231	84.8648
263.123	113.816
266.016	147.775
268.909	177.899
271.802	196.9
274.694	175.145
277.587	127.491
280.48	102.005
283.372	96.6944
286.265	114.855
289.158	144.002
292.05	166.938
294.943	188.446
297.836	226.286
300.729	278.263
303.621	308.981
306.514	278.822
309.407	210.184
312.299	156.376
315.192	120.968
318.085	95.799
320.978	72.2967
323.87	50.9228
326.763	32.4272
329.656	20.4419
332.548	9.0965
335.441	2.82552
338.334	0.226608
341.226	2.79715
344.119	1.86302
347.012	1.02389
349.904	0.270813
352.797	5.52266
355.69	12.9652
358.583	23.7157
361.475	28.0978
364.368	25.7794
367.261	20.2293
370.153	17.2143
373.046	11.0166
375.939	10.9267
378.832	13.7141
381.724	18.197
384.617	28.5559
387.51	45.3193
390.402	56.1666
393.295	65.8085
396.188	65.1402
399.08	48.7654
401.973	30.0215
404.866	13.3869
407.759	2.4473
410.651	5.99742
413.544	8.35792
416.437	5.6611
419.329	0.075684
422.222	10.9957
425.115	29.4674
428.007	49.5559
430.9	78.1957
433.793	109.356
436.685	138.919
439.578	155.071
442.471	143.613
445.364	109.773
448.256	73.8777
451.149	44.4229
454.042	29.8305
456.934	19.479
459.827	19.019
462.72	26.7779
465.613	36.5282
468.505	45.2562
471.398	44.2835
474.291	43.777
477.183	46.8977
480.076	57.2528
482.969	66.5312
485.861	76.8852
488.754	87.3119
491.647	108.245
494.539	136.728
497.432	168.19
500.325	189.785
503.218	164.126
506.11	101.503
509.003	47.1852
511.896	21.6223
514.788	8.84518
517.681	11.041
520.574	20.0918
523.466	32.1377
526.359	47.2356
529.252	63.3768
532.145	81.147
535.037	93.6226
537.93	110.675
540.823	129.27
543.715	154.779
546.608	175.934
549.501	187.622
552.394	174.725
555.286	138.458
558.179	107.601
561.072	84.7176
563.964	76.2038
566.857	74.456
569.75	68.717
572.642	50.1918
575.535	25.5946
578.428	6.49184
581.321	2.62123
584.213	5.85742
587.106	8.76953
589.999	7.16057
592.891	4.82754
595.784	0.54541
598.677	9.50081
601.569	23.6796
604.462	43.6079
607.355	71.04
610.247	108.425
613.14	150.344
616.033	184.54
618.926	185.631
621.818	147.106
624.711	101.315
627.604	70.144
630.496	48.8213
633.389	38.7467
636.282	35.471
639.174	34.9885
642.067	33.523
644.96	38.16
647.852	44.0097
650.745	55.9031
653.638	70.0348
656.531	96.7109
659.423	136.488
662.316	197.119
665.209	300.042
668.101	447.996
670.994	643.936
673.887	934.111
676.779	1313.36
679.672	1579.76
682.565	1385.42
685.458	812.616
688.35	430.455
691.243	250.42
694.136	158.721
697.028	102.262
699.921	66.1083
702.814	43.3969
705.707	30.91
708.599	19.8974
711.492	11.9383
714.385	8.02321
717.277	5.21254
720.17	2.50826
723.063	1.26057
725.955	0.342102
728.848	1.49936
731.741	1.66653
734.634	2.04855
737.526	1.84529
740.419	0.845764
743.312	0.22966
746.204	0.808411
749.097	1.69465
751.99	1.65602
754.882	1.64365
757.775	0.420654
760.668	0.905838
763.561	0.99295
766.453	0.714844
769.346	0.838219
772.239	0.396385
775.131	0.480278
778.024	1.36524
780.917	1.98473
783.809	2.30222
786.702	2.45109
789.595	3.17133
792.487	3.68447
795.38	4.68417
798.273	5.30144
801.166	5.66686
804.058	6.4081
806.951	6.79054
809.844	7.05744
812.736	7.31494
815.629	7.65502
818.522	7.9236
821.415	7.74583
824.307	7.68889
827.2	7.46942
830.093	8.06027
832.985	7.5067
835.878	6.95763
838.771	6.76108
841.663	7.17689
844.556	7.47395
847.449	6.88728
850.342	6.61687
853.234	5.96315
856.127	5.65436
859.02	5.54839
861.912	5.0554
864.805	4.27673
867.698	4.78578
870.591	3.36719
873.483	3.27179
876.376	2.57685
879.269	2.17843
882.161	1.55185
885.054	1.97916
887.947	0.809875
890.839	1.34825
893.732	0.91114
896.625	2.37836
899.518	3.24277
902.41	5.26839
905.303	7.26503
908.196	11.4819
911.088	14.6686
913.981	19.9295
916.874	24.0842
919.766	24.1381
922.659	21.5855
925.552	15.8919
928.444	11.2751
931.337	8.62167
934.23	6.10019
937.123	5.05592
940.015	3.94637
942.908	3.40512
945.801	2.99284
948.693	0.714386
951.586	0.680054
954.479	2.09044
957.371	2.03409
960.264	1.4769
963.157	1.47392
966.05	1.1964
968.942	0.627487
971.835	0.230606
974.728	1.83656
977.62	3.55089
980.513	6.44635
983.406	8.96603
986.298	11.1625
989.191	13.8858
992.084	15.8952
994.977	20.817
997.869	22.8006
1000.76	23.1195
1003.65	23.7333
1006.55	24.651
1009.44	25.3753
1012.33	25.2984
1015.23	25.0975
1018.12	25.4311
1021.01	27.0526
1023.9	28.4694
1026.8	28.3039
1029.69	30.9727
1032.58	30.0201
1035.47	35.2318
1038.37	37.0735
1041.26	38.8677
1044.15	39.1564
1047.05	41.8125
1049.94	42.385
1052.83	41.9993
1055.72	41.6885
1058.62	43.2556
1061.51	41.5262
1064.4	40.3733
1067.29	39.3364
1070.19	38.6304
1073.08	38.2463
1075.97	37.7223
1078.87	37.85
1081.76	36.4396
1084.65	37.2372
1087.54	40.1308
1090.44	41.7271
1093.33	44.778
1096.22	47.3158
1099.11	50.4967
1102.01	51.3926
1104.9	51.6005
1107.79	48.9204
1110.68	45.6104
1113.58	41.2956
1116.47	36.2332
1119.36	29.3682
1122.26	22.8636
1125.15	16.1974
1128.04	10.7456
1130.93	6.12824
1133.83	3.37918
1136.72	1.17213
1139.61	1.27107
1142.5	2.09035
1145.4	3.08752
1148.29	1.87067
1151.18	0.110214
1154.08	0.956177
1156.97	0.133499
1159.86	1.11662
1162.75	2.25275
1165.65	4.35509
1168.54	4.16574
1171.43	6.08006
1174.32	4.30591
1177.22	6.31238
1180.11	6.17068
1183	5.9147
1185.89	4.5316
1188.79	4.80397
1191.68	4.69392
1194.57	3.10271
1197.47	4.66939
1200.36	3.41371
1203.25	3.21518
1206.14	1.5208
1209.04	3.29616
1211.93	4.18957
1214.82	6.0862
1217.71	6.44086
1220.61	9.29727
1223.5	9.82014
1226.39	11.4145
1229.29	13.2168
1232.18	14.6969
1235.07	16.6253
1237.96	14.5967
1240.86	13.3116
1243.75	11.4037
1246.64	9.0086
1249.53	7.105
1252.43	4.56612
1255.32	2.49216
1258.21	1.89603
1261.11	0.938026
1264	0.698883
1266.89	0.025719
1269.78	0.741119
1272.68	0.338593
1275.57	0.764999
1278.46	1.93434
1281.35	2.37409
1284.25	2.01346
1287.14	2.06882
1290.03	1.44966
1292.92	1.28539
1295.82	0.423508
1298.71	0.045769
1301.6	0.548706
