Measurement: Raman, 780 nm, unoriented, Raman Data Processed
Mineral: Kidwellite
Rruff sample: R060324
Ideal chemistry: NaFe^3+^_9_(PO_4_)_6_(OH)_11_3H_2_O
Locality: York mine, Polk County, Arkansas, USA
Source: Michael Scott
Description: Light green radiating acicular crystals forming a spherical mat
Measured chemistry: (Na_0.98_Ca_0.02_)_Σ=1_(Fe^3+^_8.77_Al_0.21_Fe^2+^_0.02_)_Σ=9_(P_1.00_O_4_)_6_(OH)_11_·3H_2_O; OH estimated by charge balance; H_2_O by difference
Raman shift (cm-1)	intensity
119.978	0
123.353	9.28143
126.728	23.2718
130.102	54.9487
133.477	75.0757
136.852	101.707
140.227	100.018
143.602	67.5997
146.977	31.8632
150.351	2.70398
153.726	6.72852
157.101	1.01093
160.476	24.5529
163.851	42.4006
167.226	53.1399
170.6	53.2868
173.975	48.5738
177.35	35.5621
180.725	26.9778
184.1	16.722
187.474	10.9545
190.849	5.3609
194.224	3.49463
197.599	0.231049
200.974	1.39307
204.349	5.3363
207.723	7.4101
211.098	12.1181
214.473	14.9874
217.848	27.4192
221.223	45.6056
224.597	68.2694
227.972	81.29
231.347	81.2578
234.722	70.2272
238.097	48.1702
241.471	26.5551
244.846	12.4047
248.221	6.69229
251.596	23.9544
254.971	55.8625
258.346	107.192
261.72	169.785
265.095	241.977
268.47	313.748
271.845	380.17
275.22	421.11
278.594	419.205
281.969	375.399
285.344	307.841
288.719	237.141
292.094	169.142
295.469	121.246
298.843	93.5718
302.218	66.5762
305.593	58.4521
308.968	41.8494
312.343	29.939
315.717	16.3704
319.092	6.29096
322.467	2.24866
325.842	8.29153
329.217	11.5229
332.592	7.9964
335.966	0.411896
339.341	4.56607
342.716	9.31296
346.091	16.485
349.466	26.7818
352.841	41.6616
356.215	58.9334
359.59	85.5171
362.965	112.1
366.34	150.926
369.715	188.323
373.089	215.946
376.464	225.55
379.839	209.245
383.214	167.662
386.589	118.717
389.964	83.1833
393.338	59.2106
396.713	48.3762
400.088	47.9759
403.463	58.4203
406.838	74.6478
410.212	95.1454
413.587	116.986
416.962	132.487
420.337	132.269
423.712	114.966
427.087	85.0818
430.461	58.1447
433.836	35.5766
437.211	21.5383
440.586	17.795
443.961	26.4403
447.335	39.7561
450.71	61.4449
454.085	88.6812
457.46	125.032
460.835	159.951
464.209	189.174
467.584	196.688
470.959	185.412
474.334	161.469
477.709	135.01
481.084	116.261
484.458	111.777
487.833	106.11
491.208	99.0828
494.583	86.1068
497.958	65.4663
501.332	45.8173
504.707	25.722
508.082	12.6
511.457	3.36026
514.832	3.34804
518.207	6.36932
521.581	6.49533
524.956	5.22803
528.331	2.64829
531.706	7.0392
535.081	11.9682
538.455	22.1929
541.83	35.3804
545.205	49.4457
548.58	70.1097
551.955	101.266
555.33	130.627
558.704	158.772
562.079	180.633
565.454	174.516
568.829	135.131
572.204	96.5519
575.578	64.0288
578.953	44.098
582.328	34.3631
585.703	26.2679
589.078	20.4579
592.452	18.4903
595.827	11.447
599.202	10.1962
602.577	8.8813
605.952	7.45116
609.327	8.24176
612.701	11.2259
616.076	17.0336
619.451	26.5501
622.826	32.2061
626.201	40.9737
629.576	51.4731
632.95	61.8851
636.325	69.4203
639.7	75.9187
643.075	74.8563
646.45	66.129
649.824	52.3484
653.199	39.6819
656.574	24.9103
659.949	15.2943
663.324	7.69849
666.698	4.00708
670.073	0.892937
673.448	0.790794
676.823	0.684738
680.198	1.14994
683.573	0.14048
686.947	1.65663
690.322	0.008408
693.697	0.545135
697.072	0.287315
700.447	0.925842
703.822	2.14696
707.196	3.36807
710.571	6.31263
713.946	4.00554
717.321	5.84259
720.696	6.45165
724.07	8.16044
727.445	8.45865
730.82	8.45612
734.195	8.19953
737.57	6.07795
740.944	6.95766
744.319	6.96656
747.694	5.89775
751.069	6.13713
754.444	3.99854
757.818	6.17386
761.193	3.94405
764.568	3.99413
767.943	3.94393
771.318	4.38477
774.693	4.09279
778.067	2.84796
781.442	2.56034
784.817	1.62519
788.192	3.42447
791.567	3.8968
794.942	4.29078
798.316	3.5909
801.691	3.79549
805.066	4.54845
808.441	3.95873
811.816	5.6654
815.19	6.03745
818.565	8.85251
821.94	8.76548
825.315	9.43151
828.69	10.8165
832.064	11.4429
835.439	11.0813
838.814	12.9445
842.189	13.0726
845.564	13.2844
848.939	15.4057
852.313	16.0317
855.688	15.7947
859.063	14.0367
862.438	14.8483
865.813	12.9993
869.188	11.9679
872.562	10.5222
875.937	9.13845
879.312	7.67169
882.687	7.42034
886.062	4.109
889.436	3.34858
892.811	0.927895
896.186	0.015629
899.561	1.55635
902.936	0.847431
906.311	3.46862
909.685	3.31393
913.06	1.88577
916.435	2.49088
919.81	4.48145
923.185	8.8694
926.559	15.5775
929.934	18.2117
933.309	20.9845
936.684	21.0747
940.059	18.1031
943.433	16.2833
946.808	13.8008
950.183	10.8511
953.558	2.87122
956.933	0.072464
960.308	1.23475
963.682	1.39055
967.057	9.72789
970.432	23.4933
973.807	47.3672
977.182	80.9223
980.557	122.292
983.931	165.677
987.306	208.704
990.681	260.265
994.056	318.828
997.431	378.028
1000.8	427.22
1004.18	437.509
1007.55	399.945
1010.93	330.135
1014.3	252.041
1017.68	184.777
1021.05	132.781
1024.43	97.1358
1027.8	74.1516
1031.18	58.2632
1034.55	46.1271
1037.93	40.5977
1041.3	36.5197
1044.68	34.2774
1048.05	37.5848
1051.43	42.2432
1054.8	52.0333
1058.18	57.7967
1061.55	57.9423
1064.93	54.1888
1068.3	48.9194
1071.68	47.2318
1075.05	39.4344
1078.43	28.8166
1081.8	21.9629
1085.18	15.2794
1088.55	7.12132
1091.92	2.50505
1095.3	0.638153
1098.67	2.72776
1102.05	1.83955
1105.42	0.388039
1108.8	3.89448
1112.17	4.44609
1115.55	4.48686
1118.92	1.58897
1122.3	0.419289
1125.67	0.51001
1129.05	2.76524
1132.42	1.54638
1135.8	1.53244
1139.17	1.31476
1142.55	2.79789
1145.92	4.36022
1149.3	6.19316
1152.67	9.003
1156.05	10.265
1159.42	11.6279
1162.8	15.4939
1166.17	21.6686
1169.55	29.8381
1172.92	39.3974
1176.3	42.1256
1179.67	38.3376
1183.05	30.5535
1186.42	19.982
1189.8	12.7554
1193.17	6.48729
1196.55	5.37011
1199.92	4.29546
1203.29	4.90977
1206.67	3.50188
1210.04	7.12952
1213.42	3.63105
1216.79	3.85348
1220.17	4.20046
1223.54	4.53393
1226.92	5.97613
1230.29	5.12465
1233.67	5.51164
1237.04	7.9955
1240.42	6.29154
1243.79	6.70021
1247.17	7.21287
1250.54	6.01923
1253.92	5.25806
1257.29	3.2055
1260.67	3.582
1264.04	2.87173
1267.42	1.83091
1270.79	1.01797
1274.17	1.23384
1277.54	0.374266
1280.91	1.6812
1284.29	0.196526
