Measurement: Raman, 532 nm, unoriented, Raman Data Processed
Mineral: Kidwellite
Rruff sample: R070106
Ideal chemistry: NaFe^3+^_9_(PO_4_)_6_(OH)_11_3H_2_O
Locality: Teskov, Czech Republic
Source: Bob Jenkins
Description: Tan colored hemispheres on quartz, associated with meurigite, R070105
Raman shift (cm-1)	intensity
184.412	0
187.305	106.992
190.197	43.9043
193.09	68.9082
195.983	124.998
198.876	198.195
201.768	198.254
204.661	240.981
207.554	307.363
210.446	202.684
213.339	206.305
216.232	143.81
219.125	172.1
222.017	148.207
224.91	165.723
227.803	76.8066
230.695	101.938
233.588	143.826
236.481	118.318
239.373	89.8066
242.266	52.8184
245.159	70.9414
248.052	98.9434
250.944	14.8906
253.837	169.377
256.73	227.93
259.622	363.322
262.515	583.801
265.408	622.594
268.3	773.59
271.193	958.248
274.086	1037.13
276.978	1019.87
279.871	1035.83
282.764	1035.21
285.656	980.965
288.549	952.971
291.442	823.729
294.335	698.441
297.227	663.641
300.12	590.256
303.013	455.019
305.905	352.773
308.798	403.025
311.691	262.875
314.584	320.023
317.476	151.092
320.369	124.619
323.262	2.87695
326.154	89.2285
329.047	20.043
331.94	44.2637
334.832	54.0996
337.725	47.3496
340.618	21.4941
343.51	5.00977
346.403	1.50195
349.296	7.10742
352.188	17.0137
355.081	142.191
357.974	139.711
360.867	209.709
363.759	257.871
366.652	281.633
369.545	475.115
372.437	498.397
375.33	497.647
378.223	542.981
381.115	503.404
384.008	333.242
386.901	259.24
389.794	222.103
392.686	163.451
395.579	44.707
398.472	131.103
401.364	206.31
404.257	207.791
407.15	217.644
410.043	219.481
412.935	377.422
415.828	455.545
418.721	292.154
421.613	533.148
424.506	443.639
427.399	475.498
430.291	447.74
433.184	367.654
436.077	474.717
438.969	445.863
441.862	393.748
444.755	452.31
447.648	350.287
450.54	469.887
453.433	483.303
456.326	557.381
459.218	523.773
462.111	648.586
465.004	718.557
467.896	842.318
470.789	818.699
473.682	659.809
476.575	808.223
479.467	787.797
482.36	568.838
485.253	521.047
488.145	483.705
491.038	548.838
493.931	499.625
496.823	450.973
499.716	350.18
502.609	190.065
505.502	223.994
508.394	236.914
511.287	105.586
514.18	74.6426
517.072	11.7559
519.965	111.471
522.858	80.2285
525.75	74.0332
528.643	89.166
531.536	47.584
534.428	49.375
537.321	5.4707
540.214	255.477
543.107	122.519
545.999	332.496
548.892	325.799
551.785	487.42
554.677	565.24
557.57	722.654
560.463	791.254
563.355	885.955
566.248	898.963
569.141	604.002
572.034	666.834
574.926	612.42
577.819	612.207
580.712	554.256
583.604	559.248
586.497	516.027
589.39	549.312
592.282	354.19
595.175	320.26
598.068	311.074
600.96	333.865
603.853	380.199
606.746	408.781
609.639	186.947
612.531	364.357
615.424	294.033
618.317	264.324
621.209	421.481
624.102	491.709
626.995	455.856
629.888	583.742
632.78	510.902
635.673	594.754
638.566	779.719
641.458	852.811
644.351	705.836
647.244	690.619
650.136	684.752
653.029	585.533
655.922	434.435
658.814	410.184
661.707	260.568
664.6	284.484
667.492	222.69
670.385	109.283
673.278	167.228
676.171	0.632813
679.063	92.2949
681.956	56.0859
684.849	78.0586
687.741	26.9492
690.634	64.9609
693.527	36.4453
696.419	69.7734
699.312	31.1133
702.205	67.6992
705.097	78.1328
707.99	75.0469
710.883	122.926
713.776	59.6016
716.668	54.7227
719.561	150.098
722.454	18.1367
725.346	45.25
728.239	13.8398
731.132	51.1719
734.024	48.8867
736.917	177.859
739.81	45.8711
742.703	223.758
745.595	60.9453
748.488	64.2852
751.381	155.879
754.273	104.117
757.166	42.4531
760.059	108.543
762.952	105.062
765.844	138.301
768.737	173.953
771.63	182.781
774.522	188.129
777.415	40.1953
780.308	180.066
783.2	113.07
786.093	149.562
788.986	181.941
791.879	72.082
794.771	161.969
797.664	78.8359
800.557	141.441
803.449	26.8164
806.342	153.352
809.235	328.676
812.127	97.4609
815.02	250.898
817.913	92.9414
820.805	185.938
823.698	146.828
826.591	91.332
829.484	306.672
832.376	88.1641
835.269	168.91
838.162	361.816
841.054	234.457
843.947	147.141
846.84	179.016
849.732	249.934
852.625	226.902
855.518	333.672
858.41	321.641
861.303	245.578
864.196	330.523
867.089	340.461
869.981	267.269
872.874	159.234
875.767	202.738
878.659	132.156
881.552	236.496
884.445	6.21875
887.337	155.883
890.23	109.199
893.123	25.1797
896.016	139.359
898.908	79.4297
901.801	38.1523
904.694	112.535
907.586	130.562
910.479	108.977
913.372	11.625
916.264	85
919.157	40.8086
922.05	93.5312
924.942	185.75
927.835	172.523
930.728	165.723
933.621	114.164
936.513	24.6641
939.406	164.809
942.299	13.5469
945.191	131.539
948.084	139.367
950.977	21.6914
953.87	144.934
956.762	136.965
959.655	0.699219
962.548	316.164
965.44	499.25
968.333	677.969
971.226	1183.93
974.118	1390.33
977.011	1861.04
979.904	2310.57
982.796	2699.33
985.689	3164.01
988.582	3580.72
991.475	3774.91
994.367	3886.09
997.26	4328.61
1000.15	4344.85
1003.04	4321.34
1005.94	4276.07
1008.83	3838.56
1011.72	3222.55
1014.62	2689.27
1017.51	2257.27
1020.4	1789.37
1023.29	1471.39
1026.19	1042.63
1029.08	837.137
1031.97	680.148
1034.87	815.219
1037.76	649.898
1040.65	644.297
1043.54	591.91
1046.44	836.391
1049.33	789.117
1052.22	890.215
1055.11	1123.8
1058.01	1183.65
1060.9	1337.5
1063.79	1271.38
1066.68	1081.71
1069.58	968.238
1072.47	835.262
1075.36	706.539
1078.26	553.957
1081.15	389.188
1084.04	343.965
1086.93	246.602
1089.83	214.398
1092.72	56.3086
1095.61	86.3594
1098.5	94.125
1101.4	39.3516
1104.29	1.28906
1107.18	10.7773
1110.08	65.1953
1112.97	30.0039
1115.86	78.6914
1118.75	68.5
1121.65	58.5
1124.54	91.9258
1127.43	175.18
1130.32	34.1445
1133.22	179.234
1136.11	164.379
1139	82.0938
1141.89	99.4258
1144.79	175.332
1147.68	212.246
1150.57	129.316
1153.47	72.918
1156.36	98.4844
1159.25	84.4922
1162.14	174.477
1165.04	158.664
1167.93	253.027
1170.82	175.883
1173.71	246.031
1176.61	122.352
1179.5	208.371
1182.39	179.305
1185.29	293.762
1188.18	321.973
1191.07	241.215
1193.96	341.894
1196.86	313.75
1199.75	78.4375
1202.64	234.043
1205.53	359.523
1208.43	198.723
1211.32	152.57
1214.21	31.5938
1217.11	139.312
1220	191.535
1222.89	10.7969
1225.78	31.0625
1228.68	123.672
1231.57	145.316
1234.46	169.07
1237.35	74.8789
1240.25	138.953
1243.14	165.879
1246.03	283.539
1248.92	120.844
1251.82	192.637
1254.71	165.977
1257.6	233.098
1260.49	321.356
1263.39	301.652
1266.28	191.527
1269.17	261.894
1272.07	142.203
1274.96	207.684
1277.85	297.457
1280.74	196.098
1283.64	256.543
1286.53	197.391
1289.42	271.695
1292.32	219.805
1295.21	91.9336
1298.1	172.988
1300.99	131.863
1303.89	0
