Measurement: Raman, 532 nm, unoriented, Raman Data Processed
Mineral: Kidwellite
Rruff sample: R060324
Ideal chemistry: NaFe^3+^_9_(PO_4_)_6_(OH)_11_3H_2_O
Locality: York mine, Polk County, Arkansas, USA
Source: Michael Scott
Description: Light green radiating acicular crystals forming a spherical mat
Measured chemistry: (Na_0.98_Ca_0.02_)_Σ=1_(Fe^3+^_8.77_Al_0.21_Fe^2+^_0.02_)_Σ=9_(P_1.00_O_4_)_6_(OH)_11_·3H_2_O; OH estimated by charge balance; H_2_O by difference
Raman shift (cm-1)	intensity
160.881	0
163.774	39.3334
166.667	134.029
169.559	252.728
172.452	353.24
175.345	392.373
178.237	405.74
181.13	374.09
184.023	349.691
186.916	305.998
189.808	282.799
192.701	256.414
195.594	227.487
198.486	220.019
201.379	211.236
204.272	239.785
207.164	245.828
210.057	233.312
212.95	210.042
215.843	184.445
218.735	159.806
221.628	115.918
224.521	97.823
227.413	86.0288
230.306	92.2853
233.199	92.0381
236.091	72.4296
238.984	35.1863
241.877	3.40723
244.769	33.6405
247.662	28.3044
250.555	4.38342
253.448	80.0482
256.34	174.309
259.233	293.908
262.126	400.485
265.018	487.006
267.911	563.055
270.804	624.675
273.697	673.73
276.589	691.609
279.482	667.112
282.375	608.677
285.267	527.78
288.16	427.264
291.053	327.267
293.945	236.928
296.838	165.358
299.731	131.295
302.623	91.8026
305.516	65.2109
308.409	54.4919
311.302	45.9921
314.194	37.1764
317.087	20.3121
319.98	7.1897
322.872	7.59717
325.765	17.5316
328.658	21.9221
331.55	10.3528
334.443	6.95447
337.336	29.3876
340.229	73.0208
343.121	110.353
346.014	148.334
348.907	193.322
351.799	228.526
354.692	248.612
357.585	249.413
360.478	251.126
363.37	244.475
366.263	244.044
369.156	249.811
372.048	260.574
374.941	277.786
377.834	277.256
380.726	240.796
383.619	161.521
386.512	83.0671
389.404	20.3771
392.297	5.16516
395.19	1.79504
398.083	16.8196
400.975	72.2769
403.868	141.938
406.761	231.522
409.653	334.957
412.546	438.87
415.439	519.536
418.332	562.768
421.224	555.692
424.117	506.969
427.01	425.623
429.902	347.809
432.795	273.166
435.688	215.342
438.58	180.169
441.473	164.644
444.366	181.534
447.259	220.467
450.151	278.014
453.044	364.973
455.937	440.202
458.829	532.036
461.722	607.034
464.615	665.793
467.507	676.21
470.4	627.244
473.293	524.246
476.185	430.544
479.078	360.593
481.971	318.106
484.864	309.528
487.756	312.015
490.649	307.77
493.542	287.535
496.434	252.926
499.327	210.401
502.22	157.386
505.113	110.897
508.005	65.1536
510.898	36.5835
513.791	8.93658
516.683	1.51379
519.576	9.3078
522.469	6.7677
525.361	13.2753
528.254	11.2667
531.147	18.3995
534.04	10.8234
536.932	8.13495
539.825	29.5558
542.718	62.3739
545.61	111.355
548.503	174.955
551.396	253.207
554.288	329.81
557.181	400.022
560.074	466.856
562.967	514.955
565.859	493.852
568.752	395.519
571.645	290.898
574.537	221.441
577.43	185.955
580.323	171.722
583.216	160.079
586.108	156.317
589.001	149.272
591.894	141.901
594.786	124.833
597.679	112.604
600.572	107.587
603.464	95.144
606.357	92.549
609.25	91.473
612.142	99.4186
615.035	118.016
617.928	141.675
620.821	179.247
623.713	221.339
626.606	265.179
629.499	300.31
632.391	330.075
635.284	340.938
638.177	335.598
641.069	315.73
643.962	290.89
646.855	258.588
649.747	208.67
652.64	156.88
655.533	110.324
658.426	72.2688
661.318	44.8946
664.211	23.4783
667.104	9.50595
669.996	3.93771
672.889	0.113739
675.782	5.0235
678.674	5.89639
681.567	5.98135
684.46	3.44013
687.353	4.65605
690.245	1.51502
693.138	0.50853
696.031	1.43138
698.923	2.48624
701.816	7.32843
704.709	7.63312
707.601	11.2645
710.494	15.4017
713.387	17.7454
716.28	18.0405
719.172	22.6619
722.065	27.5041
724.958	27.0724
727.85	28.9235
730.743	29.1659
733.636	27.4554
736.529	24.4418
739.421	23.5205
742.314	20.9483
745.207	21.2582
748.099	19.1486
750.992	18.6524
753.885	15.4242
756.777	15.1585
759.67	14.9561
762.563	13.0501
765.456	10.6859
768.348	8.66629
771.241	5.97284
774.134	7.59576
777.026	5.54688
779.919	6.94136
782.812	8.56079
785.704	5.07845
788.597	6.30772
791.49	8.19682
794.383	9.36083
797.275	10.2084
800.168	12.7905
803.061	11.1548
805.953	17.7782
808.846	21.7634
811.739	23.5293
814.631	28.9349
817.524	29.8395
820.417	32.7175
823.309	38.1975
826.202	41.2307
829.095	46.3611
831.988	49.9503
834.88	54.3203
837.773	54.2166
840.666	56.714
843.558	59.6078
846.451	63.178
849.344	65.1734
852.236	72.2038
855.129	73.7863
858.022	71.3945
860.915	67.3164
863.807	62.5324
866.7	58.0488
869.593	55.9434
872.485	49.9494
875.378	44.1052
878.271	37.5898
881.163	33.1744
884.056	27.2879
886.949	18.3302
889.842	16.1791
892.734	9.22378
895.627	4.2961
898.52	1.14778
901.412	3.90579
904.305	2.51801
907.198	2.37433
910.091	0.791168
912.983	2.21783
915.876	10.1429
918.769	25.8055
921.661	41.7107
924.554	61.6421
927.447	83.4252
930.339	95.5093
933.232	98.7596
936.125	90.0437
939.018	78.3448
941.91	65.2962
944.803	47.2127
947.696	36.9059
950.588	20.7184
953.481	2.08734
956.374	16.6312
959.266	26.3386
962.159	32.8021
965.052	23.4802
967.944	8.38001
970.837	67.3341
973.73	166.417
976.623	304.413
979.515	486.482
982.408	708.254
985.301	955.435
988.193	1209.78
991.086	1464.11
993.979	1728.38
996.871	2035.65
999.764	2348.32
1002.66	2572.37
1005.55	2580.74
1008.44	2344.73
1011.34	1949.89
1014.23	1516.27
1017.12	1134.45
1020.01	841.536
1022.91	632.471
1025.8	487.241
1028.69	402.946
1031.58	352.853
1034.48	333.37
1037.37	332.33
1040.26	339.465
1043.15	347.731
1046.05	385.549
1048.94	452.928
1051.83	546.475
1054.73	669.314
1057.62	790.69
1060.51	857.072
1063.4	831.267
1066.3	752.101
1069.19	683.744
1072.08	631.945
1074.97	584.454
1077.87	515.322
1080.76	426.519
1083.65	339.66
1086.55	251.406
1089.44	174.827
1092.33	117.27
1095.22	71.2344
1098.12	46.7248
1101.01	32.9398
1103.9	31.6708
1106.79	38.3146
1109.69	42.8528
1112.58	48.8586
1115.47	50.0446
1118.37	39.4465
1121.26	25.599
1124.15	8.67001
1127.04	8.48328
1129.94	19.6422
1132.83	21.9793
1135.72	24.5901
1138.61	15.4752
1141.51	7.159
1144.4	0.975403
1147.29	9.51117
1150.18	15.9946
1153.08	23.6652
1155.97	24.3035
1158.86	26.7436
1161.76	32.348
1164.65	46.9321
1167.54	65.6157
1170.43	93.8827
1173.33	132.057
1176.22	157.585
1179.11	163.471
1182	145.923
1184.9	116.11
1187.79	85.2152
1190.68	59.2043
1193.58	44.6947
1196.47	29.6307
1199.36	22.6199
1202.25	18.116
1205.15	18.4181
1208.04	19.3428
1210.93	21.9783
1213.82	24.4518
1216.72	24.9393
1219.61	24.925
1222.5	27.2554
1225.39	29.3689
1228.29	33.2175
1231.18	34.1062
1234.07	34.4009
1236.97	36.1846
1239.86	37.6351
1242.75	37.5796
1245.64	36.917
1248.54	36.6422
1251.43	35.41
1254.32	31.8605
1257.21	27.4769
1260.11	26.5164
1263	22.758
1265.89	19.8001
1268.79	18.3588
1271.68	14.0838
1274.57	12.4617
1277.46	11.5244
1280.36	8.53097
1283.25	5.34237
1286.14	4.29967
1289.03	2.29978
1291.93	1.31737
1294.82	0.230385
1297.71	0.776695
1300.61	1.29127
