Measurement: Raman, 780 nm, unoriented, Raman Data Processed
Mineral: Kimuraite-(Y)
Rruff sample: R050586
Ideal chemistry: CaY_2_(CO_3_)_4_6H_2_O
Locality: Mitsukoshi, Hizen town, Higashimatsuura County, Saga Prefecture, Japan
Source: Marcus Origlieri
Description: Aggregate of white scaly crystals
Measured chemistry: Ca_1.05_(Y_1.57_Nd_0.08_Gd_0.05_Dy_0.05_La_0.04_Er_0.04_Sm_0.02_Ho_0.01_Pr_0.01_Eu_0.01_Yb_0.01_Tb_0.01_Lu_0.01_Ca_0.09_)_Σ=2.00_(CO_3_)_4_·6H_2_O
Raman shift (cm-1)	intensity
100.842	0
103.735	1.08307
106.627	4.79096
109.52	1.17004
112.413	10.5361
115.305	11.8926
118.198	10.2548
121.091	11.0013
123.984	10.7354
126.876	15.9243
129.769	10.2918
132.662	9.4964
135.554	9.54797
138.447	12.6473
141.34	11.6753
144.232	11.2074
147.125	14.9083
150.018	16.1537
152.911	11.9872
155.803	11.5405
158.696	11.682
161.589	14.7355
164.481	17.1755
167.374	14.519
170.267	17.2668
173.159	15.6417
176.052	18.5097
178.945	16.551
181.838	22.9824
184.73	26.2747
187.623	28.543
190.516	27.279
193.408	28.6836
196.301	29.1705
199.194	28.8105
202.086	26.7235
204.979	21.0074
207.872	12.1414
210.764	7.97974
213.657	3.25446
216.55	3.00958
219.442	3.55945
222.335	0.451172
225.228	0.949585
228.121	0.066528
231.013	1.12408
233.906	4.98737
236.799	9.11377
239.691	10.3947
242.584	11.0652
245.477	18.1142
248.369	21.8159
251.262	22.6368
254.155	29.403
257.048	31.5683
259.94	41.2684
262.833	50.6211
265.726	55.3519
268.618	67.693
271.511	80.4247
274.404	85.157
277.296	95.9915
280.189	102.239
283.082	107.175
285.975	104.573
288.867	104.146
291.76	96.4073
294.653	90.45
297.545	76.0861
300.438	58.3741
303.331	48.9117
306.224	38.5585
309.116	28.3749
312.009	21.4508
314.902	7.00452
317.794	3.8833
320.687	0.678345
323.58	1.52826
326.472	2.27539
329.365	1.14069
332.258	2.65894
335.151	4.14398
338.043	4.59473
340.936	8.99854
343.829	8.51752
346.721	16.7838
349.614	15.7409
352.507	21.4818
355.399	23.6519
358.292	25.4377
361.185	28.0234
364.077	29.0336
366.97	27.6525
369.863	28.9769
372.755	25.8135
375.648	22.7696
378.541	18.8613
381.434	19.9468
384.326	21.3976
387.219	20.5668
390.112	20.2632
393.004	23.6315
395.897	27.1755
398.79	25.4936
401.683	22.3264
404.575	29.9365
407.468	26.8119
410.361	31.6821
413.253	27.4787
416.146	30.7031
419.039	30.2921
421.931	33.2187
424.824	35.0671
427.717	32.8188
430.61	29.0406
433.502	28.9778
436.395	30.8095
439.288	29.6502
442.18	24.27
445.073	20.0841
447.966	17.2168
450.858	13.5081
453.751	9.35821
456.644	8.54129
459.536	5.1351
462.429	5.92779
465.322	0.281494
468.215	1.38281
471.107	2.04886
474	0.406952
476.893	1.28381
479.785	2.8873
482.678	1.67956
485.571	0.962219
488.463	0.74173
491.356	1.10321
494.249	1.64551
497.142	4.89349
500.034	0.535767
502.927	6.22516
505.82	4.44455
508.712	7.8468
511.605	8.36813
514.498	8.34503
517.39	9.10541
520.283	9.53153
523.176	9.99722
526.068	10.1495
528.961	8.47601
531.854	6.14206
534.747	10.6863
537.639	7.76782
540.532	8.95679
543.425	7.1597
546.317	9.15015
549.21	5.31457
552.103	3.75488
554.995	6.32404
557.888	5.4556
560.781	5.25424
563.674	6.09711
566.566	4.88742
569.459	4.42386
572.352	2.29773
575.244	2.99814
578.137	6.04239
581.03	3.94507
583.923	5.44275
586.815	5.12869
589.708	6.33429
592.601	5.90341
595.493	6.39883
598.386	4.56256
601.279	5.76398
604.171	3.08218
607.064	5.30032
609.957	7.14059
612.85	6.24014
615.742	4.67044
618.635	3.67593
621.528	7.79114
624.42	3.50784
627.313	3.41147
630.206	3.41843
633.098	0.492889
635.991	0.225586
638.884	1.56827
641.776	1.11603
644.669	0.917786
647.562	0.362793
650.455	0.241852
653.347	0.796387
656.24	0.296417
659.133	0.983856
662.025	0.108154
664.918	0.626709
667.811	2.93048
670.703	1.68753
673.596	0.800568
676.489	1.91922
679.381	3.61777
682.274	6.1247
685.167	5.80228
688.06	5.44785
690.952	8.43811
693.845	7.61276
696.738	4.75653
699.63	6
702.523	3.50845
705.416	4.36169
708.308	6.69315
711.201	5.22555
714.094	5.39569
716.987	7.23279
719.879	6.92294
722.772	8.85287
725.665	7.77594
728.557	10.783
731.45	11.6366
734.343	11.8335
737.236	14.8847
740.128	15.8817
743.021	19.7458
745.914	21.6095
748.806	24.7385
751.699	25.8432
754.592	27.1338
757.484	23.3625
760.377	22.7166
763.27	18.6138
766.163	19.1369
769.055	14.7058
771.948	12.3818
774.841	10.4319
777.733	10.1743
780.626	8.1131
783.519	7.65643
786.411	5.86928
789.304	6.01938
792.197	6.48805
795.089	4.35942
797.982	4.27235
800.875	1.58048
803.768	1.3026
806.66	1.07278
809.553	2.58661
812.446	1.27409
815.338	1.25784
818.231	0.433014
821.124	2.61737
824.016	1.2598
826.909	0.911591
829.802	0.295486
832.694	0.416382
835.587	0.866318
838.48	0.081543
841.373	0.023499
844.265	0.528915
847.158	1.4205
850.051	1.01706
852.943	0.788177
855.836	1.10036
858.729	1.60974
861.621	2.48233
864.514	0.876144
867.407	2.39731
870.3	1.49457
873.192	2.58554
876.085	0.97403
878.978	0.194672
881.87	2.68939
884.763	3.94237
887.656	1.8358
890.548	0.876648
893.441	1.04979
896.334	2.66036
899.227	1.5883
902.119	5.57619
905.012	3.44336
907.905	2.15622
910.797	0.846985
913.69	2.19308
916.583	3.61647
919.476	0.678467
922.368	1.61708
925.261	2.17398
928.154	2.11233
931.046	2.7329
933.939	3.23622
936.832	2.80559
939.724	1.2023
942.617	1.65129
945.51	1.72122
948.403	1.23122
951.295	2.31776
954.188	2.32666
957.081	1.25592
959.973	1.70355
962.866	0.430038
965.759	1.58737
968.651	2.14438
971.544	0.110748
974.437	1.48215
977.329	1.64796
980.222	2.55298
983.115	0.957642
986.008	1.40138
988.9	2.65721
991.793	0.917114
994.686	2.24655
997.578	2.69955
1000.47	1.72885
1003.36	3.01535
1006.26	1.69614
1009.15	2.13503
1012.04	2.04094
1014.93	1.70822
1017.83	3.02097
1020.72	1.32823
1023.61	0.533325
1026.51	0.356964
1029.4	0.608078
1032.29	1.51012
1035.18	1.92229
1038.08	0.116806
1040.97	0.998459
1043.86	1.13481
1046.75	2.23865
1049.65	8.02528
1052.54	12.5664
1055.43	23.9609
1058.33	38.3954
1061.22	56.6865
1064.11	59.3504
1067	54.6732
1069.9	44.9602
1072.79	32.2719
1075.68	26.6316
1078.57	28.1105
1081.47	41.9812
1084.36	58.097
1087.25	81.4575
1090.14	102.127
1093.04	133.67
1095.93	156.338
1098.82	149.565
1101.71	102.507
1104.61	43.4091
1107.5	20.3492
1110.39	7.66583
1113.29	0.031677
1116.18	4.35727
1119.07	0
