Measurement: Raman, 532 nm, unoriented, Raman Data Processed
Mineral: Kimzeyite
Rruff sample: R060148
Ideal chemistry: Ca_3_(Zr,Ti)_2_(Si,Al,Fe^3+^)_3_O_12_
Locality: Magnet Cove, Arkansas, USA
Source: University of Arizona Mineral Museum
Description: Black dodecahedra mixed with andradite and associated with quartz
Measured chemistry: (Ca_2.97_Mg_0.03_)_Σ=3_(Zr_1.58_Ti_0.42_)_Σ=2_(Si_1.06_Fe^3+^_0.98_Al_0.96_)_Σ=3_O_12_
Raman shift (cm-1)	intensity
150.226	0
153.119	5.81798
156.012	9.81924
158.905	5.30255
161.797	7.37157
164.69	7.07191
167.583	3.76749
170.475	1.28599
173.368	0.685532
176.261	2.68678
179.153	7.05348
182.046	13.4777
184.939	12.5701
187.832	11.5876
190.724	10.4474
193.617	6.53116
196.51	6.89612
199.402	2.00041
202.295	2.60202
205.188	4.55659
208.08	6.5045
210.973	7.45911
213.866	1.64383
216.758	5.11606
219.651	13.8847
222.544	24.7812
225.437	37.9842
228.329	52.1553
231.222	70.1446
234.115	88.2019
237.007	106.459
239.9	128.879
242.793	141.442
245.685	139.981
248.578	132.127
251.471	122.918
254.364	119.919
257.256	117.571
260.149	117.318
263.042	118.026
265.934	119.961
268.827	122.046
271.72	122.303
274.613	122.7
277.505	128.892
280.398	134.687
283.291	147.195
286.183	156.649
289.076	168.308
291.969	183.492
294.861	197.101
297.754	206.702
300.647	210.142
303.539	209.437
306.432	202.072
309.325	191.832
312.218	176.151
315.11	162.342
318.003	151.225
320.896	139.81
323.788	128.958
326.681	121.599
329.574	113.591
332.466	105.818
335.359	98.7574
338.252	91.9279
341.145	81.9204
344.037	73.0193
346.93	62.3848
349.823	52.8827
352.715	41.0056
355.608	30.2982
358.501	19.921
361.394	11.6359
364.286	4.74216
367.179	2.2113
370.072	3.82194
372.964	4.66042
375.857	3.9364
378.75	2.93365
381.642	2.26421
384.535	0.271057
387.428	0.984299
390.32	3.7473
393.213	6.37788
396.106	10.8665
398.999	16.2909
401.891	24.1859
404.784	31.1827
407.677	41.4623
410.569	46.9069
413.462	53.8074
416.355	57.5087
419.248	57.3775
422.14	55.8923
425.033	51.9802
427.926	45.2302
430.818	39.4087
433.711	31.5037
436.604	26.9999
439.496	19.5542
442.389	15.4937
445.282	6.87424
448.174	4.82431
451.067	1.27115
453.96	1.29486
456.853	3.51593
459.745	4.03572
462.638	2.11882
465.531	1.04941
468.423	2.94369
471.316	8.85611
474.209	18.0283
477.101	33.6804
479.994	54.5497
482.887	85.3867
485.779	129.165
488.672	181.806
491.565	250.272
494.458	328.124
497.35	396.575
500.243	435.853
503.136	415.307
506.028	343.075
508.921	261.325
511.814	193.532
514.707	147.349
517.599	113.484
520.492	91.0444
523.385	79.4578
526.277	69.328
529.17	62.6192
532.063	56.8611
534.955	52.5553
537.848	48.0864
540.741	42.9252
543.634	38.5184
546.526	31.2262
549.419	28.8457
552.312	29.2584
555.204	29.3875
558.097	30.4498
560.99	31.0877
563.882	30.8771
566.775	31.7957
569.668	32.8204
572.561	29.468
575.453	27.7382
578.346	24.5654
581.239	21.4035
584.131	21.2308
587.024	18.3719
589.917	16.0255
592.809	13.78
595.702	13.1986
598.595	11.2493
601.487	7.67871
604.38	7.70695
607.273	4.90276
610.166	2.93878
613.058	2.12706
615.951	0.987259
618.844	1.04598
621.736	0.280167
624.629	1.2334
627.522	0.416046
630.414	0.031708
633.307	0.059402
636.2	0.790878
639.093	1.52557
641.985	2.29337
644.878	2.76334
647.771	3.14586
650.663	2.25294
653.556	2.12723
656.449	0.273972
659.341	1.386
662.234	2.43803
665.127	2.29849
668.02	5.31479
670.912	5.84631
673.805	7.69807
676.698	7.54218
679.59	9.87651
682.483	13.063
685.376	15.6087
688.269	19.331
691.161	23.6303
694.054	28.0577
696.947	33.2951
699.839	38.7414
702.732	45.0631
705.625	52.5886
708.517	59.8582
711.41	67.0242
714.303	74.0879
717.196	81.9831
720.088	88.779
722.981	93.6654
725.874	93.6902
728.766	95.8179
731.659	92.0458
734.552	89.4991
737.444	82.7911
740.337	78.9397
743.23	70.9584
746.122	64.5342
749.015	58.6089
751.908	52.3616
754.801	48.1468
757.693	44.8831
760.586	42.5425
763.479	41.6127
766.371	42.2892
769.264	41.0832
772.157	42.8843
775.049	43.0899
777.942	42.9322
780.835	42.0889
783.727	41.7713
786.62	38.8088
789.513	33.0222
792.406	26.9489
795.298	20.7504
798.191	14.4153
801.084	9.11483
803.976	4.77081
806.869	2.55735
809.762	0.891655
812.654	1.40749
815.547	2.88574
818.44	2.73421
821.333	2.64101
824.225	1.47974
827.118	0.619934
830.011	1.5558
832.903	1.17647
835.796	2.0478
838.689	2.50448
841.582	3.41158
844.474	3.6171
847.367	3.78593
850.26	6.55212
853.152	7.06435
856.045	10.2566
858.938	11.7966
861.83	13.6022
864.723	17.5193
867.616	19.6987
870.509	20.8503
873.401	21.5873
876.294	20.9183
879.187	18.9659
882.079	16.4902
884.972	14.9841
887.865	14.5104
890.757	14.449
893.65	13.219
896.543	13.1332
899.436	13.5882
902.328	13.7089
905.221	13.9989
908.114	14.4135
911.006	13.2006
913.899	14.9644
916.792	16.0621
919.684	15.5838
922.577	16.6663
925.47	16.8562
928.362	17.2834
931.255	18.0373
934.148	18.6353
937.041	19.0244
939.933	18.7592
942.826	18.467
945.719	18.8612
948.611	17.5521
951.504	16.4806
954.397	16.7166
957.29	15.494
960.182	15.2181
963.075	12.1223
965.968	6.73872
968.86	2.28818
971.753	1.06246
974.646	0.0849
977.538	0.335396
980.431	1.69312
983.324	2.17893
986.216	1.58528
989.109	2.24442
992.002	0.572548
994.895	0.281921
997.787	0.353363
1000.68	1.04201
1003.57	0.577614
1006.47	0.465103
1009.36	0.600433
1012.25	0.219707
1015.14	0.576321
1018.04	1.17179
1020.93	1.51659
1023.82	1.51891
1026.71	1.42348
1029.61	2.23339
1032.5	3.23687
1035.39	3.54099
1038.29	3.41986
1041.18	3.54925
1044.07	3.37989
1046.96	4.73348
1049.86	4.10272
1052.75	4.34868
1055.64	4.67344
1058.53	4.43633
1061.43	3.12915
1064.32	2.46341
1067.21	2.58346
1070.11	3.15519
1073	2.24389
1075.89	2.06275
1078.78	2.91216
1081.68	2.78377
1084.57	1.51617
1087.46	1.8495
1090.35	2.06866
1093.25	1.85748
1096.14	1.77668
1099.03	1.67538
1101.92	1.38678
1104.82	1.40565
1107.71	0.965908
1110.6	0.693272
1113.49	0.17033
1116.39	0.501488
1119.28	0.510559
1122.17	0.522388
1125.07	0.259857
1127.96	0.830818
1130.85	0.285904
1133.74	0.398376
1136.64	0.342064
1139.53	0.101109
1142.42	0.080189
1145.32	0.061665
1148.21	0.568645
1151.1	1.05545
1153.99	0.40749
1156.89	0.812286
1159.78	0.064125
1162.67	0.214718
1165.56	0.26091
1168.46	0.067154
1171.35	0.312817
1174.24	0.206299
1177.13	0.851738
1180.03	0.743561
1182.92	0.095623
1185.81	0.913773
1188.7	0.570377
1191.6	0.704559
1194.49	0.563427
1197.38	0.401165
1200.28	0.521214
1203.17	0.574833
1206.06	1.02564
1208.95	0.186337
1211.85	0.189045
1214.74	0.166393
1217.63	0.205372
1220.53	0.186401
1223.42	0.063549
1226.31	0.193169
1229.2	0.103905
1232.1	0.271286
1234.99	0.247917
1237.88	0.08482
1240.77	0.445587
1243.67	0.306004
1246.56	0.259993
1249.45	-0.3267
1252.35	0.0594631
1255.24	0.462265
1258.13	0.255589
1261.02	0.495796
1263.92	0.553467
1266.81	0.812031
1269.7	0.727612
1272.59	0.829659
1275.49	0.988533
1278.38	1.03153
1281.27	0.702572
1284.16	0.595959
1287.06	0.00972
1289.95	0.068104
1292.84	0.126369
1295.73	0.306946
1298.63	0.422531
1301.52	0.159954
