Measurement: Raman, 532 nm, unoriented, Raman Data Processed
Mineral: Kinoite
Rruff sample: R040155
Ideal chemistry: Ca_2_Cu_2_Si_3_O_10_2H_2_O
Locality: Christmas mine, Christmas, Gila County, Arizona, USA
Source: University of Arizona Mineral Museum
Description: Pale blue crust
Measured chemistry: Ca_2.00_Cu_2.00_Si_3.00_O_10_Â·2H_2_O
Raman shift (cm-1)	intensity
137.609	0
140.984	258.642
144.358	1.36853
147.733	92.3486
151.108	449.077
154.483	903.319
157.858	842.197
161.233	421.825
164.607	399.101
167.982	233.407
171.357	19.3179
174.732	67.2429
178.107	91.8088
181.482	196.036
184.856	311.757
188.231	157.279
191.606	153.808
194.981	254.113
198.356	258.009
201.731	32.0315
205.105	71.3757
208.48	71.4952
211.855	47.0852
215.23	9.48016
218.605	123.859
221.979	255.093
225.354	409.54
228.729	502.43
232.104	464.936
235.479	421.834
238.853	319.747
242.228	308.911
245.603	397.053
248.978	604.148
252.353	761.799
255.727	785.599
259.102	616.348
262.477	554.348
265.852	566.742
269.227	502.883
272.602	449.308
275.976	513.997
279.351	719.836
282.726	1009.12
286.101	1324.39
289.476	1199.88
292.851	871.867
296.225	719.127
299.6	789.431
302.975	890.105
306.35	752.076
309.725	754.544
313.099	569.172
316.474	473.925
319.849	558.395
323.224	789.353
326.599	893.444
329.974	887.445
333.348	942.811
336.723	1184.5
340.098	1400.27
343.473	1253.81
346.848	829.267
350.223	522.263
353.597	368.325
356.972	254.95
360.347	140.712
363.722	18.667
367.097	3.00098
370.471	33.4679
373.846	93.2175
377.221	98.7905
380.596	47.009
383.971	64.188
387.346	221.341
390.72	360.43
394.095	413.59
397.47	282.701
400.845	196.824
404.219	134.395
407.594	141.814
410.969	267.985
414.344	534.568
417.719	914.811
421.094	1286
424.469	1633.45
427.843	1381.53
431.218	637.739
434.593	163.508
437.968	22.7747
441.343	75.759
444.717	285.761
448.092	632.306
451.467	929.609
454.842	1031.87
458.217	875.329
461.591	501.049
464.966	191.701
468.341	80.0663
471.716	135.196
475.091	419.688
478.466	988.438
481.84	1761.87
485.215	2636.3
488.59	3200.33
491.965	2610.78
495.34	2413.04
498.714	2278.55
502.089	1647.77
505.464	868.169
508.839	429.059
512.214	274.275
515.589	266.932
518.963	362.828
522.338	686.879
525.713	1161.5
529.088	1681.28
532.463	2048.13
535.837	1852.32
539.212	1255.85
542.587	811.54
545.962	480.268
549.337	273.068
552.712	104.201
556.086	59.2511
559.461	23.3578
562.836	16.7424
566.211	42.0052
569.586	19.1508
572.96	13.0255
576.335	18.702
579.71	6.87878
583.085	8.37903
586.46	25.2606
589.835	20.0395
593.209	25.7754
596.584	56.2581
599.959	55.6364
603.334	45.4226
606.709	99.7333
610.083	120.201
613.458	148.356
616.833	135.833
620.208	157.29
623.583	226.307
626.958	280.668
630.332	432.911
633.707	672.691
637.082	889.331
640.457	1143.27
643.832	1231.74
647.207	924.575
650.581	541.662
653.956	308.996
657.331	241.007
660.706	160.496
664.081	127.902
667.455	92.5585
670.83	66.7587
674.205	40.9967
677.58	28.6915
680.955	37.816
684.33	37.5123
687.704	46.0493
691.079	12.666
694.454	10.3756
697.829	26.733
701.204	8.86206
704.578	41.605
707.953	49.5527
711.328	21.9501
714.703	23.9591
718.078	11.1025
721.452	7.1582
724.827	20.0048
728.202	27.4535
731.577	19.276
734.952	56.188
738.327	72.8832
741.701	121.948
745.076	174.066
748.451	257.436
751.826	326.121
755.201	390.025
758.576	518.354
761.95	573.036
765.325	640.378
768.7	617.756
772.075	560.849
775.45	387.481
778.824	262.963
782.199	158.156
785.574	94.6571
788.949	30.7459
792.324	5.23303
795.698	7.53381
799.073	10.031
802.448	4.00378
805.823	11.46
809.198	40.3374
812.573	80.2743
815.947	99.0371
819.322	129.186
822.697	193.863
826.072	283.078
829.447	387.46
832.822	530.564
836.196	694.973
839.571	831.389
842.946	915.614
846.321	991.837
849.696	946.336
853.07	779.451
856.445	620.877
859.82	521.57
863.195	499.011
866.57	484.891
869.944	433.964
873.319	428.239
876.694	416.971
880.069	364.322
883.444	321.12
886.819	229.847
890.193	158.037
893.568	102.985
896.943	51.8392
900.318	17.4137
903.693	19.0709
907.067	15.4707
910.442	18.3478
913.817	9.94165
917.192	9.68384
920.567	23.8983
923.942	2.11816
927.316	29.7687
930.691	69.9822
934.066	100.902
937.441	190.042
940.816	321.337
944.191	600.328
947.565	943.005
950.94	1178.16
954.315	1123.78
957.69	678.21
961.065	374.591
964.439	210.894
967.814	139.976
971.189	117.824
974.564	134.84
977.939	128.74
981.313	203.314
984.688	274.304
988.063	478.052
991.438	783.488
994.813	1285.62
998.188	1653.41
1001.56	1765.43
1004.94	1228.7
1008.31	525.551
1011.69	218.614
1015.06	134.181
1018.44	19.9208
1021.81	23.1857
1025.19	2.79822
1028.56	6.04736
1031.94	29.0626
1035.31	28.7842
1038.68	37.7371
1042.06	57.8616
1045.43	109.659
1048.81	193.457
1052.18	283.361
1055.56	263.756
1058.93	145.84
1062.31	67.1177
1065.68	56.415
1069.06	11.5358
1072.43	20.4679
1075.81	42.9976
1079.18	193.093
1082.56	326.768
1085.93	427.633
1089.31	136.396
1092.68	24.7844
1096.06	20.5878
1099.43	2.77624
1102.81	0.279419
1106.18	12.2527
1109.56	31.6433
1112.93	16.2169
1116.31	5.62488
1119.68	11.2142
1123.06	6.09705
1126.43	12.9688
1129.81	13.1303
1133.18	0.215332
1136.56	29.0245
1139.93	13.3248
1143.31	33.8561
1146.68	26.9933
1150.05	45.6018
1153.43	25.5459
1156.8	10.2488
1160.18	8.6156
1163.55	3.87549
1166.93	28.2421
1170.3	17.1379
1173.68	40.4344
1177.05	64.6803
1180.43	108.451
1183.8	114.974
1187.18	105.1
1190.55	128.518
1193.93	105.884
1197.3	73.9059
1200.68	88.0183
1204.05	39.329
1207.43	67.3911
1210.8	45.5492
1214.18	15.0944
1217.55	45.5219
1220.93	23.3154
1224.3	12.5775
1227.67	41.9817
1231.05	20.8357
1234.42	20.9737
1237.8	34.7082
1241.17	20.4733
1244.55	13.882
1247.92	11.9264
1251.3	15.3054
1254.67	15.4707
1258.05	13.7854
1261.42	42.183
1264.8	22.3413
1268.17	11.6818
1271.55	18.2284
1274.92	50.5952
1278.3	17.7393
1281.67	13.0327
1285.05	14.8085
1288.42	32.2018
1291.8	28.8383
1295.17	44.4929
1298.55	11.069
1301.92	0.818359
1305.3	2.94006
1308.67	52.0145
1312.05	8.28088
