Measurement: Raman, 514 nm, unoriented, Raman Data Processed
Mineral: Kinoite
Rruff sample: R050168
Ideal chemistry: Ca_2_Cu_2_Si_3_O_10_2H_2_O
Locality: Christmas mine, Christmas, Gila County, Arizona, USA
Source: Marcus Origlieri
Description: Blue tabular crystals associated with hydroxyapophyllite, R050169
Measured chemistry: Ca_2.00_Cu_2.00_Si_3.00_O_10_Â·2.94H_2_O; trace amounts of Fe and Mn; H_2_O estimated by difference
Raman shift (cm-1)	intensity
73.842	0
78.031	94.42
82.218	3179.06
86.404	4666.78
90.587	2338.5
94.768	1156.58
98.947	448.916
103.124	292.724
107.3	768.544
111.473	312.831
115.644	1032.88
119.813	488.82
123.981	301.749
128.146	455.573
132.309	735.606
136.47	2751.36
140.63	2816.47
144.787	1490.77
148.942	2448.51
153.096	4727.47
157.247	3427.95
161.396	3652.01
165.544	3151.9
169.689	1346.26
173.833	548.402
177.974	770.521
182.114	2489.73
186.251	1090.08
190.387	523.6
194.52	1034.27
198.652	723.438
202.782	339.89
206.909	415.769
211.035	151.356
215.159	51.855
219.281	474.242
223.4	1614.45
227.518	1974.85
231.634	1699.53
235.748	1166.95
239.86	867.021
243.97	1144.64
248.079	2070.45
252.185	2878.11
256.289	2491.71
260.391	1809.73
264.492	1604.78
268.59	1465.62
272.687	1319.01
276.781	2058.91
280.874	4361.14
284.964	7257.52
289.053	6624.96
293.14	4243.37
297.225	3882.75
301.308	4121.92
305.389	2852.77
309.468	2240.14
313.545	1366.02
317.62	1438.4
321.693	2172.22
325.765	2288.48
329.834	2017.17
333.902	2406.3
337.967	3476.84
342.031	3082.8
346.093	1685.15
350.153	952.878
354.21	783.964
358.267	600.416
362.321	178.239
366.373	64.581
370.423	238.264
374.471	290.24
378.518	214.124
382.563	3.741
386.605	473.612
390.646	1130.92
394.685	1199.93
398.722	959.205
402.757	709.775
406.79	746.904
410.821	1078.53
414.851	2017.58
418.878	3906.62
422.904	6627.21
426.927	6349.78
430.949	3670.91
434.969	2085.13
438.987	1662.02
443.003	1853.52
447.018	2892.04
451.03	4376.09
455.041	4889.06
459.049	3976.9
463.056	2890.57
467.061	2146.57
471.064	1961.87
475.065	2168.18
479.064	3178.48
483.062	6085.78
487.057	11113.1
491.051	7478.3
495.043	8619.5
499.032	8490.65
503.02	5621.74
507.007	3394.77
510.991	2547.71
514.973	1942.72
518.954	1962.63
522.933	2510.57
526.91	4093.32
530.885	6905.22
534.858	6907.86
538.829	4730.96
542.799	3168.92
546.766	1918.49
550.732	1212.84
554.696	800.855
558.658	567.632
562.618	424.389
566.576	340.844
570.533	251.058
574.488	184.966
578.44	57.823
582.391	46.618
586.341	9.463
590.288	69.246
594.233	47.471
598.177	13.335
602.119	5.934
606.059	30.441
609.997	47.549
613.933	35.988
617.868	75.912
621.801	104.519
625.731	420.883
629.66	403.999
633.588	871.879
637.513	1698.52
641.437	3001.93
645.358	2940.09
649.278	1704.02
653.196	942.705
657.113	509.148
661.027	282.351
664.94	185.312
668.851	139.034
672.76	47.498
676.667	20.65
680.572	11.445
684.476	106.919
688.378	17.637
692.278	86.899
696.176	1.698
700.072	56.557
703.967	29.385
707.86	133.306
711.751	2.735
715.64	49.87
719.527	77.699
723.413	94.242
727.297	140.529
731.179	111.515
735.059	131.053
738.937	290.55
742.814	349.498
746.689	446.035
750.562	613.995
754.433	860.983
758.303	1011.75
762.17	1156.41
766.036	1247.95
769.901	1218.09
773.763	1121.71
777.624	698.741
781.482	485.998
785.339	306.858
789.195	185.626
793.048	110.31
796.9	59.911
800.75	69.437
804.598	211.89
808.445	166.275
812.289	242.597
816.132	338.064
819.973	472.093
823.813	680.266
827.65	983.35
831.486	1520.62
835.32	1878.19
839.152	2292.28
842.983	2201.41
846.812	2066.87
850.639	1757.84
854.464	1146.85
858.288	826.574
862.11	763.51
865.93	654.149
869.748	526.769
873.564	404.623
877.379	336.424
881.192	360.281
885.004	231.206
888.813	140.385
892.621	121.99
896.427	61.088
900.232	67.349
904.034	2.82
907.835	154.569
911.634	4.519
915.432	126.664
919.227	75.987
923.021	61.579
926.813	99.349
930.604	165.21
934.393	301.15
938.18	542.175
941.965	875.295
945.749	1525.52
949.53	3040.83
953.311	3915.22
957.089	2698.68
960.866	1390.26
964.641	823.61
968.414	559.343
972.185	351.127
975.955	456.993
979.723	609.99
983.49	766.326
987.254	863.393
991.017	1291.6
994.779	2238.06
998.538	3895.95
1002.3	5418.4
1006.05	3372.86
1009.81	1524.71
1013.56	901.083
1017.31	624.035
1021.06	565.442
1024.81	418.936
1028.55	453.791
1032.3	486.578
1036.04	694.345
1039.78	626.159
1043.52	456.026
1047.26	477.935
1050.99	717.851
1054.73	1006.42
1058.46	795.188
1062.19	530.139
1065.92	347.219
1069.65	282.633
1073.37	255.27
1077.1	212.451
1080.82	326.675
1084.54	1385.39
1088.26	633.655
1091.97	179.338
1095.69	177.786
1099.4	139.201
1103.12	131.739
1106.83	49.215
1110.54	59.206
1114.24	87.173
1117.95	218.823
1121.65	280.024
1125.35	214.308
1129.06	6.714
1132.75	11.975
1136.45	138.25
1140.15	114.175
1143.84	58.328
1147.53	12.915
1151.22	0.291
1154.91	46.989
1158.6	14.247
1162.28	64.333
1165.97	11.062
1169.65	138.424
1173.33	101.944
1177.01	115.662
1180.69	172.136
1184.36	246.761
1188.04	265.408
1191.71	272.53
1195.38	189.156
1199.05	190.009
1202.71	251.295
1206.38	156.608
1210.04	96.153
1213.71	141.063
1217.37	29.17
1221.03	97.273
1224.68	132.992
1228.34	97.645
1231.99	117.233
1235.65	136.313
1239.3	109.171
1242.95	26.927
1246.59	210.477
1250.24	204.821
1253.88	92.975
1257.53	15.759
1261.17	149.786
1264.81	95.299
1268.45	95.574
1272.08	87.079
1275.72	119.341
1279.35	179.106
1282.98	71.42
1286.61	53.9
1290.24	49.353
1293.87	68.091
1297.49	71.513
1301.11	62.451
1304.73	39.755
1308.36	89.912
1311.97	5.88
1315.59	47.67
1319.2	57.521
1322.82	18.067
1326.43	104.256
1330.04	123.515
1333.65	11.594
1337.26	50.483
1340.86	139.217
1344.47	55.809
1348.07	149.26
1351.67	177.534
1355.27	127.262
1358.87	117.286
1362.46	67.797
1366.06	150.826
1369.65	76.938
1373.24	71.656
1376.83	107.047
1380.42	165.931
1384	258.249
1387.59	84.636
1391.17	187.604
1394.75	209.284
1398.33	151.523
1401.91	55.99
1405.49	133.288
1409.06	165.898
1412.64	157.817
1416.21	178.427
1419.78	393.893
1423.35	168.657
1426.91	83.5
1430.48	182.171
1434.05	175.047
1437.61	256.529
1441.17	258.511
1444.73	248.794
1448.29	148.759
1451.84	245.924
1455.4	302.779
1458.95	299.519
1462.5	86.717
1466.05	115.767
1469.6	152.539
1473.15	131.071
1476.69	135.065
1480.24	104.221
1483.78	148.781
1487.32	67.025
1490.86	36.351
1494.39	172.8
1497.93	55.657
1501.46	116.649
1505	65.942
1508.53	94.823
1512.06	0
