Measurement: Raman, 514 nm, unoriented, Raman Data Processed
Mineral: Kinoite
Rruff sample: R040155
Ideal chemistry: Ca_2_Cu_2_Si_3_O_10_2H_2_O
Locality: Christmas mine, Christmas, Gila County, Arizona, USA
Source: University of Arizona Mineral Museum
Description: Pale blue crust
Measured chemistry: Ca_2.00_Cu_2.00_Si_3.00_O_10_Â·2H_2_O
Raman shift (cm-1)	intensity
101.732	0
105.908	204.859
110.082	628.191
114.254	1084.52
118.424	1803.75
122.592	1344.74
126.758	128.029
130.922	792.393
135.083	4390.37
139.243	10520.5
143.401	7707.98
147.557	4893.34
151.711	9029.2
155.863	13437.9
160.013	10391.2
164.161	9499.76
168.308	6023.4
172.452	1717.14
176.594	828.221
180.734	2362.08
184.872	3683.52
189.008	1822.83
193.143	2210.28
197.275	2863.71
201.405	1430.51
205.534	99.174
209.66	89.705
213.784	677.869
217.907	85.955
222.027	1770.14
226.146	4277.65
230.263	5251.44
234.377	4556.48
238.49	3065.8
242.601	2841.53
246.709	4587.29
250.816	7448.34
254.921	7981.63
259.024	6616.04
263.125	5780.53
267.224	5737.68
271.321	4443.78
275.416	3875
279.51	5370.75
283.601	10438.7
287.69	14078.6
291.778	11303.8
295.863	8773.04
299.947	9723.79
304.029	9838.61
308.108	9272.37
312.186	7777.92
316.262	5142.17
320.336	5340.95
324.408	6701.67
328.478	7218.5
332.546	6857.88
336.612	9296.71
340.677	11388.9
344.739	9629.27
348.799	5789.91
352.858	3716.74
356.915	2910.77
360.969	1742.04
365.022	655.594
369.073	196.434
373.122	205.494
377.169	70.016
381.215	280.654
385.258	825.697
389.299	3059.15
393.339	4385.93
397.376	3959.85
401.412	3350.58
405.446	2953.32
409.478	2455.84
413.508	3647.51
417.536	6180.66
421.562	11857.6
425.586	16900.7
429.609	13549.3
433.629	6972.45
437.648	4251.06
441.665	3852.63
445.68	5227.8
449.693	8445.44
453.704	11929.6
457.713	12403.6
461.721	9359.01
465.726	7022.82
469.73	5130.25
473.731	4696.84
477.731	6285.88
481.729	11510.4
485.725	22095.3
489.72	26315.6
493.712	21778.3
497.703	22700.3
501.691	19087.7
505.678	12103.4
509.663	7452.41
513.646	5552.39
517.627	4632.56
521.607	4868.08
525.584	7406.39
529.56	12795.6
533.534	17235.4
537.506	15465.4
541.476	10660
545.444	6490.5
549.41	4241.36
553.375	3016.42
557.337	1585.42
561.298	1191.06
565.257	546.201
569.214	100.852
573.17	224.301
577.123	141.652
581.075	62.09
585.024	279.654
588.972	20.266
592.918	26.893
596.863	243.508
600.805	218.395
604.746	95.676
608.685	65.223
612.621	15.521
616.557	48.166
620.49	220.49
624.421	759.883
628.351	627.006
632.279	1351.89
636.205	3181.52
640.129	5686.9
644.051	8810.01
647.972	7023.86
651.89	3795.44
655.807	1903.75
659.722	984.783
663.636	530.539
667.547	168.012
671.457	586.182
675.365	322.02
679.271	180.396
683.175	19.812
687.077	49.447
690.978	199.52
694.877	195.422
698.774	54.043
702.669	40.951
706.562	176.729
710.454	277.447
714.344	401.904
718.232	231.199
722.118	313.906
726.002	318.41
729.885	87.965
733.766	600.24
737.645	795.342
741.522	1148.62
745.397	1437.98
749.271	1617.14
753.143	2780.42
757.013	3059.7
760.881	3621.86
764.748	4913.75
768.613	5219.05
772.476	4669.21
776.337	3288.8
780.196	2340.77
784.054	1669.97
787.91	1159.79
791.764	931.277
795.616	503.771
799.467	814.438
803.316	489.172
807.163	134.939
811.008	477.904
814.851	610.076
818.693	950.451
822.533	1778.56
826.371	2056.86
830.208	3181.07
834.042	4029.27
837.875	5190.74
841.706	5974.75
845.536	6416.83
849.363	6858.28
853.189	6641.82
857.013	4378.46
860.836	3044.01
864.656	2827.75
868.475	2917.87
872.292	1995.22
876.108	2021.4
879.922	2198.73
883.733	1970.5
887.544	1675.48
891.352	1217.78
895.159	623.531
898.964	150.9
902.767	166.721
906.568	54.322
910.368	194.879
914.166	371.117
917.962	47.873
921.757	261.166
925.55	555.09
929.341	320.422
933.13	871.049
936.918	1083.95
940.703	1447.13
944.488	2836.58
948.27	5828.33
952.051	9867.97
955.83	9740.52
959.607	5874.22
963.383	2858.23
967.156	1808.25
970.928	1164.45
974.699	1346.51
978.468	1281.76
982.234	1739.26
986	1730.63
989.763	2632.85
993.525	5061.81
997.285	8644.66
1001.04	14221.1
1004.8	15447.5
1008.55	7469.97
1012.31	3388.25
1016.06	1951.79
1019.81	1271.22
1023.56	1248.46
1027.31	1019.23
1031.05	1378.8
1034.79	1189.72
1038.53	1359.81
1042.27	1898.94
1046.01	1426.03
1049.75	1741.06
1053.48	3154.03
1057.22	3412.97
1060.95	1773.93
1064.68	1142.98
1068.4	662.035
1072.13	573.033
1075.86	593.307
1079.58	396.465
1083.3	492.783
1087.02	620.037
1090.74	374.469
1094.45	94.061
1098.17	209.371
1101.88	259.34
1105.59	13.527
1109.3	231.312
1113.01	123.826
1116.71	140.234
1120.42	241.908
1124.12	151.01
1127.82	201.066
1131.52	271.719
1135.22	161.014
1138.91	169.668
1142.61	16.867
1146.3	3.477
1149.99	86.33
1153.68	124.191
1157.37	216.199
1161.06	33.621
1164.74	81.787
1168.42	213.602
1172.1	315.014
1175.78	106.822
1179.46	87.223
1183.14	512.822
1186.81	737.385
1190.48	1024.9
1194.15	1130.78
1197.83	891.793
1201.49	925.076
1205.16	398.01
1208.82	503.455
1212.49	539.408
1216.15	445.818
1219.81	567.674
1223.46	393.963
1227.12	425.66
1230.78	476.715
1234.43	314.191
1238.08	257.062
1241.73	601.293
1245.38	410.715
1249.03	655.232
1252.67	402.695
1256.31	424.949
1259.95	542.908
1263.6	330.514
1267.23	170.654
1270.87	452.203
1274.51	173.115
1278.14	147.807
1281.77	233.68
1285.4	70.041
1289.03	40.529
1292.66	181.23
1296.28	34.131
1299.91	187.227
1303.53	660.191
1307.15	47.287
1310.77	16.07
1314.38	282.057
1318	268.545
1321.61	405.654
1325.23	432.742
1328.84	68.773
1332.45	375.482
1336.06	338.672
1339.66	428.568
1343.27	165.203
1346.87	471.92
1350.47	476.576
1354.07	529.973
1357.67	454.41
1361.26	335.873
1364.86	541.293
1368.45	396.107
1372.04	516.021
1375.63	478.781
1379.22	407.715
1382.81	326.07
1386.39	522.889
1389.98	486.664
1393.56	235.857
1397.14	194.029
1400.72	402.25
1404.3	308.379
1407.87	424.801
1411.45	452.848
1415.02	216.186
1418.59	578.629
1422.16	327.75
1425.73	354.686
1429.29	420.652
1432.86	105.816
1436.42	228.145
1439.98	271.846
1443.54	430.424
1447.1	425.289
1450.66	218.908
1454.21	517.123
1457.77	151.363
1461.32	156.049
1464.87	14.865
1468.42	607.682
1471.96	176.646
1475.51	318.049
1479.06	122.928
1482.6	52.756
1486.14	79.34
1489.68	0
