Measurement: Raman, 785 nm, unoriented, Raman Data Processed
Mineral: Kinoite
Rruff sample: R040155
Ideal chemistry: Ca_2_Cu_2_Si_3_O_10_2H_2_O
Locality: Christmas mine, Christmas, Gila County, Arizona, USA
Source: University of Arizona Mineral Museum
Description: Pale blue crust
Measured chemistry: Ca_2.00_Cu_2.00_Si_3.00_O_10_Â·2H_2_O
Raman shift (cm-1)	intensity
146.089	0
148.982	70.0049
151.875	174.863
154.768	261.825
157.66	131.881
160.553	82.7966
163.446	110.447
166.338	86.4715
169.231	36.4066
172.124	8.72281
175.017	9.17593
177.909	1.00238
180.802	10.8572
183.695	55.2873
186.587	26.4105
189.48	12.8915
192.373	31.5998
195.265	51.1303
198.158	33.4697
201.051	14.3509
203.944	2.03073
206.836	29.4269
209.729	13.6898
212.622	17.129
215.514	56.5447
218.407	78.0124
221.3	127.069
224.192	204.655
227.085	216.41
229.978	165.275
232.87	122.765
235.763	82.5347
238.656	70.4457
241.549	63.9097
244.441	45.8771
247.334	81.9749
250.227	119.04
253.119	126.1
256.012	99.0809
258.905	77.4161
261.798	57.2738
264.69	52.5565
267.583	55.8636
270.476	46.9674
273.368	47.0794
276.261	71.3616
279.154	101.73
282.046	172.749
284.939	195.238
287.832	207.184
290.724	258.673
293.617	225.028
296.51	284.314
299.403	393.774
302.295	424.599
305.188	345.233
308.081	333.953
310.973	283.663
313.866	191.48
316.759	146.94
319.651	126.584
322.544	128.374
325.437	159.989
328.33	158.84
331.222	183.633
334.115	203.362
337.008	219.554
339.9	244.206
342.793	231.395
345.686	157.159
348.579	106.597
351.471	73.3405
354.364	83.8024
357.257	41.4758
360.149	36.1814
363.042	0.952515
365.935	14.8578
368.827	4.69861
371.72	7.61218
374.613	11.0909
377.505	19.6536
380.398	23.8352
383.291	5.57147
386.184	35.0175
389.076	67.4999
391.969	83.285
394.862	64.3632
397.754	72.0097
400.647	51.4731
403.54	56.8762
406.433	31.2198
409.325	48.3801
412.218	73.4061
415.111	114.175
418.003	144.148
420.896	230.02
423.789	240.295
426.681	235.915
429.574	164.211
432.467	89.4203
435.36	15.2288
438.252	6.13855
441.145	4.91425
444.038	37.2181
446.93	37.2419
449.823	61.24
452.716	116.829
455.608	120.554
458.501	147.525
461.394	109.865
464.286	68.1019
467.179	58.5521
470.072	34.0109
472.965	60.3292
475.857	120.925
478.75	162.809
481.643	286.348
484.535	419.264
487.428	529.246
490.321	431.536
493.214	363.626
496.106	319.081
498.999	294.471
501.892	195.851
504.784	120.464
507.677	67.2992
510.57	12.3586
513.462	8.50427
516.355	10.4138
519.248	18.8733
522.14	61.9265
525.033	103.366
527.926	142.461
530.819	186.49
533.711	218.141
536.604	223.319
539.497	148.47
542.389	123.888
545.282	75.4945
548.175	61.6366
551.067	29.7153
553.96	30.2908
556.853	12.3749
559.745	12.3817
562.638	0.547546
565.531	1.35889
568.424	1.40881
571.316	3.62564
574.209	8.31751
577.102	7.20584
579.994	10.2578
582.887	16.916
585.78	5.61346
588.673	21.2451
591.565	40.6658
594.458	26.0221
597.351	14.6742
600.243	5.26703
603.136	50.8828
606.029	4.94717
608.921	15.1158
611.814	36.9201
614.707	10.0067
617.6	45.1162
620.492	48.4736
623.385	44.3239
626.278	79.3705
629.17	104.404
632.063	123.835
634.956	195.367
637.848	222.278
640.741	278.665
643.634	278.145
646.527	230.817
649.419	171.304
652.312	117.825
655.205	67.8868
658.097	94.8868
660.99	43.1555
663.883	19.6831
666.775	22.6858
669.668	32.1629
672.561	28.7495
675.454	42.6832
678.346	3.28793
681.239	18.1685
684.132	5.65289
687.024	0.086945
689.917	17.9154
692.81	2.80829
695.702	29.4154
698.595	0.432617
701.488	14.7817
704.381	15.2212
707.273	6.29639
710.166	6.53424
713.059	1.21252
715.951	19.3694
718.844	12.862
721.737	5.84857
724.63	11.0939
727.522	20.3253
730.415	18.9948
733.308	25.291
736.2	3.45297
739.093	30.4966
741.986	29.6465
744.878	31.9597
747.771	72.9794
750.664	66.1469
753.557	75.2274
756.449	99.8773
759.342	91.0554
762.235	120.354
765.127	98.2527
768.02	112.551
770.913	79.7283
773.805	70.1006
776.698	42.4806
779.591	50.1509
782.484	41.8551
785.376	21.7398
788.269	10.172
791.162	12.6824
794.054	37.0507
796.947	3.79678
799.84	13.952
802.732	22.6311
805.625	15.3032
808.518	5.78683
811.41	13.9614
814.303	18.9963
817.196	32.3817
820.089	39.3611
822.981	32.7722
825.874	28.3318
828.767	61.5356
831.659	109.565
834.552	135.624
837.445	137.496
840.337	177.553
843.23	216.056
846.123	244.692
849.016	245.633
851.908	204.07
854.801	161.43
857.694	114.323
860.586	126.157
863.479	76.63
866.372	99.8505
869.264	87.5516
872.157	65.6557
875.05	75.299
877.943	65.5533
880.835	66.4786
883.728	61.1311
886.621	32.1904
889.513	44.835
892.406	9.12589
895.299	31.0592
898.192	45.3321
901.084	7.96222
903.977	36.0635
906.87	34.1188
909.762	8.44867
912.655	0.91571
915.548	12.9725
918.44	12.8018
921.333	30.147
924.226	2.64496
927.119	26.4089
930.011	14.8159
932.904	40.4315
935.797	37.239
938.689	67.354
941.582	102.762
944.475	147.829
947.367	214.29
950.26	241.286
953.153	261.932
956.045	171.252
958.938	125.852
961.831	92.608
964.724	45.4379
967.616	23.8001
970.509	31.234
973.402	14.2688
976.294	11.9832
979.187	31.0764
982.08	42.5805
984.972	56.4653
987.865	82.6701
990.758	132.042
993.651	193.953
996.543	269.021
999.436	270.707
1002.33	291.369
1005.22	218.163
1008.11	100.897
1011.01	79.1584
1013.9	25.9514
1016.79	42.4063
1019.68	12.837
1022.58	25.7855
1025.47	17.074
1028.36	13.629
1031.26	9.70398
1034.15	1.69971
1037.04	17.505
1039.93	24.3296
1042.83	37.4356
1045.72	40.605
1048.61	28.7612
1051.51	59.3555
1054.4	80.2213
1057.29	71.9688
1060.18	23.7739
1063.08	3.62396
1065.97	29.2446
1068.86	48.0663
1071.75	2.25854
1074.65	9.25214
1077.54	9.27801
1080.43	37.7925
1083.32	56.6527
1086.22	65.2245
1089.11	34.7846
1092	30.1853
1094.89	4.1225
1097.79	26.6172
1100.68	25.1221
1103.57	12.7559
1106.47	0.226318
1109.36	5.14502
1112.25	0.766418
1115.14	6.68481
1118.04	18.4987
1120.93	7.35199
1123.82	4.48413
1126.71	10.1312
1129.61	39.2589
1132.5	16.1743
1135.39	27.5722
1138.29	20.0715
1141.18	27.0964
1144.07	12.7623
1146.96	23.6096
1149.86	9.70752
1152.75	13.9193
1155.64	11.4343
1158.53	12.5787
1161.43	7.53986
1164.32	4.95593
1167.21	20.5162
1170.11	0.530457
1173	28.5056
1175.89	19.1906
1178.78	26.9936
1181.68	30.9905
1184.57	42.3969
1187.46	43.1933
1190.35	42.9734
1193.25	23.5261
1196.14	20.1043
1199.03	23.7556
1201.92	41.3113
1204.82	24.6036
1207.71	22.4584
1210.6	50.8484
1213.5	14.7176
1216.39	39.1959
1219.28	5.4707
1222.17	4.02545
1225.07	10.1938
1227.96	21.159
1230.85	29.2524
1233.74	5.31702
1236.64	8.17572
1239.53	18.7413
1242.42	2.0163
