Measurement: Raman, 532 nm, unoriented, Raman Data Processed
Mineral: Kinoite
Rruff sample: R050168
Ideal chemistry: Ca_2_Cu_2_Si_3_O_10_2H_2_O
Locality: Christmas mine, Christmas, Gila County, Arizona, USA
Source: Marcus Origlieri
Description: Blue tabular crystals associated with hydroxyapophyllite, R050169
Measured chemistry: Ca_2.00_Cu_2.00_Si_3.00_O_10_Â·2.94H_2_O; trace amounts of Fe and Mn; H_2_O estimated by difference
Raman shift (cm-1)	intensity
173.295	0
176.188	0.153073
179.081	0.718271
181.973	2.19301
184.866	4.07799
187.759	2.69697
190.651	2.18569
193.544	2.49047
196.437	3.61241
199.33	2.00095
202.222	0.404118
205.115	0.390287
208.008	0.80922
210.9	0.142479
213.793	0.101009
216.686	1.02125
219.578	1.85146
222.471	3.5865
225.364	5.79231
228.257	7.55777
231.149	7.44964
234.042	7.35292
236.935	6.75803
239.827	6.18652
242.72	6.53737
245.613	8.37447
248.506	10.748
251.398	13.645
254.291	14.6946
257.184	13.3523
260.076	11.1349
262.969	9.80807
265.862	9.64555
268.754	9.17304
271.647	8.41277
274.54	7.33573
277.433	7.69339
280.325	9.69512
283.218	14.0181
286.111	19.2948
289.003	19.9535
291.896	15.8352
294.789	11.9058
297.681	11.4107
300.574	13.3278
303.467	14.7958
306.36	12.9793
309.252	12.5902
312.145	11.0237
315.038	8.70206
317.93	7.66119
320.823	8.97172
323.716	11.1487
326.608	12.5769
329.501	12.1254
332.394	11.7726
335.286	12.3665
338.179	13.7122
341.072	14.331
343.965	12.9591
346.857	10.0386
349.75	7.27996
352.643	5.31819
355.535	4.44755
358.428	3.68944
361.321	2.07496
364.214	0.630419
367.106	0.249339
369.999	0.897723
372.892	0.98477
375.784	1.06809
378.677	0.822393
381.57	0.603482
384.462	0.126255
387.355	0.885239
390.248	1.96824
393.14	2.84125
396.033	2.92453
398.926	2.62249
401.819	2.57904
404.711	2.93048
407.604	3.82506
410.497	5.13953
413.389	6.91014
416.282	10.3208
419.175	13.8323
422.067	18.8941
424.96	22.4153
427.853	20.8342
430.746	13.7646
433.638	7.45539
436.531	4.07388
439.424	3.17971
442.316	3.71281
445.209	5.54156
448.102	8.4276
450.994	11.3306
453.887	13.2107
456.78	12.1865
459.673	9.30284
462.565	5.6751
465.458	3.17943
468.351	2.3837
471.243	3.53545
474.136	6.13202
477.029	9.17061
479.921	14.517
482.814	22.2143
485.707	31.6138
488.599	37.9046
491.492	33.7051
494.385	28.1331
497.278	27.5954
500.17	25.0469
503.063	17.6231
505.956	10.421
508.848	5.85786
511.741	3.2276
514.634	2.121
517.527	2.96106
520.419	4.50197
523.312	7.04651
526.205	11.0451
529.097	15.9184
531.99	21.0465
534.883	22.397
537.775	18.7788
540.668	13.4084
543.561	9.05001
546.454	5.84082
549.346	3.61134
552.239	1.78241
555.132	0.76562
558.024	0.245762
560.917	0.074262
563.81	0.407317
566.702	0.294197
569.595	0.399153
572.488	0.478208
575.381	0.370272
578.273	0.200245
581.166	0.106432
584.059	0.001284
586.951	0.146007
589.844	0.188353
592.737	0.369299
595.629	0.533155
598.522	0.746515
601.415	0.828174
604.308	0.845232
607.2	0.974584
610.093	1.19674
612.986	1.49731
615.878	1.82038
618.771	2.11952
621.664	2.4971
624.556	2.94181
627.449	3.69348
630.342	4.58601
633.235	5.61138
636.127	6.79789
639.02	8.40733
641.913	9.74578
644.805	10.1929
647.698	8.48228
650.591	6.0859
653.483	4.09913
656.376	2.95974
659.269	2.41085
662.162	1.89825
665.054	1.58521
667.947	1.16857
670.84	0.853065
673.732	0.705927
676.625	0.663525
679.518	0.451867
682.41	0.40635
685.303	0.456056
688.196	0.437167
691.088	0.333165
693.981	0.319072
696.874	0.197934
699.767	0.235894
702.659	0.180251
705.552	0.086691
708.445	0.02433
711.337	0.001367
714.23	0.114705
717.123	0.03849
720.015	0.013796
722.908	0.01606
725.801	0.137021
728.694	0.17837
731.586	0.304312
734.479	0.480677
737.372	0.58142
740.264	0.923831
743.157	1.27077
746.05	1.7313
748.942	2.1613
751.835	2.60315
754.728	3.2756
757.621	3.78078
760.513	4.31374
763.406	4.90081
766.299	4.99061
769.191	4.92805
772.084	4.43961
774.977	3.51334
777.87	2.71626
780.762	1.69906
783.655	1.04522
786.548	0.676517
789.44	0.343263
792.333	0.091268
795.226	0.014512
798.118	0.006563
801.011	0.031597
803.904	0.002562
806.796	0.194446
809.689	0.353986
812.582	0.65548
815.475	0.799817
818.367	1.20925
821.26	2.02653
824.153	2.70129
827.045	3.7477
829.938	4.8723
832.831	6.00891
835.723	7.15983
838.616	7.88867
841.509	8.55418
844.402	8.36408
847.294	7.81483
850.187	7.21113
853.08	5.90429
855.972	5.23921
858.865	4.43547
861.758	4.19439
864.65	4.02349
867.543	3.71983
870.436	3.24871
873.329	2.79598
876.221	2.4032
879.114	2.08647
882.007	1.90482
884.899	1.69227
887.792	1.38249
890.685	0.959626
893.577	0.725088
896.47	0.434289
899.363	0.382325
902.256	0.182537
905.148	0.121403
908.041	0.002891
910.934	0.097203
913.826	0.188484
916.719	0.101297
919.612	0.012295
922.505	0.04425
925.397	0.103915
928.29	0.207966
931.183	0.420581
934.075	0.717208
936.968	1.32483
939.861	2.11313
942.753	3.35887
945.646	4.71974
948.539	6.57342
951.432	8.52992
954.324	8.88139
957.217	7.21874
960.11	4.66738
963.002	2.82749
965.895	1.89836
968.788	1.17969
971.68	0.888939
974.573	0.904487
977.466	1.01252
980.359	1.17872
983.251	1.50947
986.144	2.24716
989.037	2.93296
991.929	4.31006
994.822	5.99387
997.715	7.35791
1000.61	8.6056
1003.5	8.45752
1006.39	6.05873
1009.28	3.38044
1012.18	1.54681
1015.07	0.907379
1017.96	0.301739
1020.86	0.311083
1023.75	0.085331
1026.64	0.119478
1029.53	0.105316
1032.43	0.235123
1035.32	0.295729
1038.21	0.418931
1041.11	0.411528
1044	0.580905
1046.89	0.662939
1049.78	0.825145
1052.68	1.10676
1055.57	1.19753
1058.46	0.789914
1061.35	0.429644
1064.25	0.25017
1067.14	0.227287
1070.03	0.054348
1072.92	0.031343
1075.82	0.043843
1078.71	0.011775
1081.6	0.069496
1084.5	0.085599
1087.39	0.033254
1090.28	0.058044
1093.17	0.004242
1096.07	0.028167
1098.96	0.053862
1101.85	0.073776
1104.74	0.009377
1107.64	0.040116
1110.53	0.120958
1113.42	0.041753
1116.32	0.119858
1119.21	0.062667
1122.1	0.063523
1124.99	0.096831
1127.89	0.071239
1130.78	0.123744
1133.67	0.11583
1136.56	0.055833
1139.46	0.045853
1142.35	0.136487
1145.24	0.221057
1148.13	0.120875
1151.03	0.145343
1153.92	0.147594
1156.81	0.208673
1159.71	0.137526
1162.6	0.190874
1165.49	0.225878
1168.38	0.308764
1171.28	0.330793
1174.17	0.439132
1177.06	0.544137
1179.95	0.555457
1182.85	0.712372
1185.74	0.776006
1188.63	0.851113
1191.53	0.800486
1194.42	0.668074
1197.31	0.565791
1200.2	0.454103
1203.1	0.359704
1205.99	0.24562
1208.88	0.227935
1211.77	0.2207
1214.67	0.156868
1217.56	0.150702
1220.45	0.048771
1223.35	0.142087
1226.24	0.028243
1229.13	0.021798
1232.02	0.098587
1234.92	0.095708
1237.81	0.110748
1240.7	0.077881
1243.59	0.001237
1246.49	0.017154
1249.38	0.084918
1252.27	0.21975
1255.16	0.270327
1258.06	0.267152
1260.95	0.082725
1263.84	0.12189
1266.74	0.220118
1269.63	0.190846
1272.52	0.031684
1275.41	0.085518
1278.31	0.158203
1281.2	0.123046
1284.09	0.109283
1286.98	0.018701
1289.88	0.075362
1292.77	0.07952
1295.66	0
