Measurement: Raman, 532 nm, unoriented, Raman Data Processed
Mineral: Kipushite
Rruff sample: R060826
Ideal chemistry: Cu_6_(PO_4_)_2_(OH)_6_H_2_O
Locality: Shaba Provence, Zaire
Source: Michael Scott
Description: Spherical aggregates of medium and dark greenish blue mineral associated with pseudo-kipushite
Raman shift (cm-1)	intensity
200.108	0
203	0.202637
205.893	149.505
208.786	179.388
211.678	228.554
214.571	248.856
217.464	235.257
220.357	121.798
223.249	45.001
226.142	1.14917
229.035	14.266
231.927	10.6067
234.82	56.9401
237.713	137.155
240.605	282.144
243.498	375.058
246.391	461.291
249.284	413.841
252.176	413.977
255.069	407.443
257.962	350.844
260.854	305.781
263.747	246.247
266.64	145.965
269.532	98.2378
272.425	49.4458
275.318	20.9449
278.211	71.5277
281.103	56.1615
283.996	107.16
286.889	149.266
289.781	205.783
292.674	288.79
295.567	399.952
298.459	490.247
301.352	537.867
304.245	531.305
307.138	415.85
310.03	335.028
312.923	264.741
315.816	158.405
318.708	101.781
321.601	61.1088
324.494	25.2273
327.386	26.7773
330.279	8.00403
333.172	7.95606
336.065	25.174
338.957	20.0721
341.85	51.127
344.743	108.474
347.635	236.268
350.528	352.979
353.421	488.829
356.313	610.142
359.206	769.934
362.099	811.888
364.991	812.269
367.884	768.375
370.777	671.726
373.67	561.734
376.562	546.496
379.455	585.569
382.348	610.581
385.24	628.413
388.133	548.093
391.026	381.677
393.918	146.998
396.811	34.4716
399.704	64.7482
402.597	96.6977
405.489	123.996
408.382	45.4662
411.275	2.19067
414.167	98.5075
417.06	191.727
419.953	308.05
422.845	408.408
425.738	535.823
428.631	737.81
431.524	996.647
434.416	1380.93
437.309	1916.9
440.202	2584.24
443.094	3516.73
445.987	4854.77
448.88	6373.07
451.772	7796.93
454.665	8542.37
457.558	8349.2
460.451	7606.35
463.343	6535.16
466.236	6141.62
469.129	6134.64
472.021	6257.29
474.914	6296.86
477.807	6112.32
480.699	5652.04
483.592	4825.68
486.485	3970.2
489.378	3208.44
492.27	2629.87
495.163	2279.13
498.056	1927.95
500.948	1685.11
503.841	1479.69
506.734	1303.62
509.626	1074.64
512.519	852.274
515.412	704.085
518.305	584.063
521.197	482.159
524.09	531.876
526.983	710.032
529.875	1068.53
532.768	1599.54
535.661	1872.55
538.553	1305.58
541.446	607.002
544.339	232.309
547.231	18.0035
550.124	64.0465
553.017	112.561
555.909	99.897
558.802	56.4399
561.695	63.3995
564.588	185.145
567.48	343.791
570.373	587.598
573.266	985.093
576.158	1049.38
579.051	859.33
581.944	512.109
584.836	470.378
587.729	457.714
590.622	516.212
593.515	696.943
596.407	965.578
599.3	1323.59
602.193	1775.74
605.085	2137.72
607.978	2170.76
610.871	1911.62
613.763	1498.27
616.656	1161.48
619.549	900.33
622.442	679.558
625.334	455.881
628.227	285.39
631.12	201.857
634.012	111.117
636.905	56.6907
639.798	40.2112
642.69	18.7973
645.583	14.3381
648.476	13.9167
651.369	10.5479
654.261	3.42822
657.154	26.898
660.047	7.55652
662.939	11.1756
665.832	17.6205
668.725	12.4465
671.617	6.1767
674.51	6.06488
677.403	13.2037
680.296	20.1737
683.188	45.7438
686.081	39.0378
688.974	53.3872
691.866	60.0798
694.759	80.2205
697.652	104.879
700.544	151.32
703.437	160.096
706.33	196.993
709.222	220.63
712.115	258.649
715.008	301.514
717.901	352.614
720.793	362.032
723.686	410.888
726.579	375.009
729.471	333.426
732.364	300.097
735.257	253.672
738.149	233.839
741.042	191.525
743.935	172.082
746.828	107.374
749.72	76.1746
752.613	46.5314
755.506	41.3179
758.398	16.6157
761.291	26.4783
764.184	26.134
767.076	83.8418
769.969	103.827
772.862	132.038
775.755	204.245
778.647	221.142
781.54	270.388
784.433	324.816
787.325	348.736
790.218	420.685
793.111	438.806
796.003	448.642
798.896	486.443
801.789	467.416
804.682	437.886
807.574	374.983
810.467	316.749
813.36	249.373
816.252	177.175
819.145	108.833
822.038	79.2864
824.93	55.2362
827.823	39.6321
830.716	17.1453
833.609	0.022217
836.501	13.5801
839.394	57.3241
842.287	53.6842
845.179	102.049
848.072	122.929
850.965	174.683
853.857	241.489
856.75	291.934
859.643	316.132
862.536	308.451
865.428	244.377
868.321	152.168
871.214	52.1297
874.106	28.7775
876.999	7.79602
879.892	1.21692
882.784	18.2772
885.677	7.55389
888.57	0.694641
891.463	3.37744
894.355	24.6218
897.248	6.61023
900.141	5.09198
903.033	20.7031
905.926	29.3074
908.819	4.60034
911.711	0.84375
914.604	39.2373
917.497	78.3892
920.39	128.382
923.282	172.827
926.175	209.873
929.068	278.877
931.96	339.931
934.853	378.182
937.746	440.327
940.638	540.364
943.531	654.077
946.424	810.838
949.317	1056.24
952.209	1336.43
955.102	1813.37
957.995	2328.99
960.887	3068.28
963.78	3789.63
966.673	4298.8
969.565	4549.83
972.458	4440.52
975.351	4093.94
978.244	3424.5
981.136	2765.31
984.029	2311.9
986.922	2036.81
989.814	2065.7
992.707	2182.06
995.6	2402.68
998.492	2537.23
1001.38	2381.96
1004.28	1955.79
1007.17	1320.47
1010.06	876.568
1012.96	510.435
1015.85	338.725
1018.74	198.134
1021.63	119.353
1024.53	50.1237
1027.42	51.8784
1030.31	35.1263
1033.2	42.0718
1036.1	46.5422
1038.99	3.96558
1041.88	79.24
1044.78	161.372
1047.67	253.63
1050.56	371.242
1053.45	474.804
1056.35	569.246
1059.24	693.393
1062.13	801.301
1065.02	880.12
1067.92	893.923
1070.81	851.636
1073.7	898.95
1076.6	885.757
1079.49	859.018
1082.38	828.179
1085.27	767.522
1088.17	639.874
1091.06	443.897
1093.95	339.143
1096.84	276.032
1099.74	232.071
1102.63	186.872
1105.52	149.269
1108.41	134.812
1111.31	120.792
1114.2	103.063
1117.09	32.0807
1119.99	29.2844
1122.88	12.052
1125.77	3.94739
1128.66	12.0906
1131.56	1.07929
1134.45	14.6768
1137.34	3.74588
1140.23	32.9023
1143.13	1.08591
1146.02	23.2772
1148.91	24.5069
1151.81	48.4558
1154.7	47.945
1157.59	65.7526
1160.48	79.6666
1163.38	98.7829
1166.27	108.628
1169.16	126.936
1172.05	147.243
1174.95	156.489
1177.84	148.582
1180.73	147.693
1183.62	146.811
1186.52	144.439
1189.41	148.235
1192.3	136.083
1195.2	132.558
1198.09	112.069
1200.98	97.3627
1203.87	105.362
1206.77	87.4086
1209.66	100.322
1212.55	103.779
1215.44	94.0736
1218.34	100.765
1221.23	108.203
1224.12	102.433
1227.02	94.2207
1229.91	84.0088
1232.8	77.9993
1235.69	86.3379
1238.59	79.3791
1241.48	70.9588
1244.37	48.6349
1247.26	60.5033
1250.16	51.9429
1253.05	40.6433
1255.94	57.0178
1258.84	25.1193
1261.73	30.1092
1264.62	8.84412
1267.51	21.5087
1270.41	4.19357
1273.3	12.1493
1276.19	15.382
1279.08	13.8125
1281.98	8.14476
1284.87	30.0384
1287.76	7.46356
1290.65	22.6564
1293.55	0
