Measurement: Raman, 785 nm, unoriented, Raman Data Processed
Mineral: Kirschsteinite
Rruff sample: R070266
Ideal chemistry: CaFe^2+^SiO_4_
Locality: Dolores mine, Pastrana, Mazarrón, Murcia, Spain
Source: Michael Scott
Description: Aggregate of vitreous brown rhombic prismatic crystals with conchoidal fracture
Measured chemistry: (Ca_0.95_Mn_0.02_Mg_0.02_Na_0.01_)_Σ=1_(Fe^2+^_0.83_Mg_0.16_Fe^3+^_0.01_)_Σ=1_Si_1.00_O_4_; Fe^2+^ and Fe^3+^ by charge balance
Raman shift (cm-1)	intensity
139.34	0
142.232	56.1491
145.125	238.293
148.018	590.231
150.911	814.158
153.803	821.46
156.696	832.522
159.589	863.929
162.481	829.721
165.374	583.377
168.267	320.37
171.16	187.04
174.052	62.536
176.945	34.2681
179.838	14.7019
182.73	11.4773
185.623	2.03552
188.516	24.6932
191.408	58.3977
194.301	53.4735
197.194	110.287
200.087	114.645
202.979	173.42
205.872	139.678
208.765	62.2111
211.657	0.644287
214.55	20.9945
217.443	30.8595
220.335	3.323
223.228	8.77734
226.121	21.2361
229.013	43.0963
231.906	95.1323
234.799	147.816
237.692	213.839
240.584	332.749
243.477	381.844
246.37	469.631
249.262	523.052
252.155	520.868
255.048	421.291
257.94	292.65
260.833	199.798
263.726	111.368
266.619	61.4954
269.511	55.5806
272.404	66.8144
275.297	76.3279
278.189	180.866
281.082	234.789
283.975	375.138
286.868	521.519
289.76	654.66
292.653	616.624
295.546	549.348
298.438	355.28
301.331	254.957
304.224	124.477
307.116	122.792
310.009	70.9391
312.902	32.4902
315.795	5.08203
318.687	19.0935
321.58	3.04077
324.473	14.9635
327.365	21.4663
330.258	5.1864
333.151	22.0897
336.043	8.49951
338.936	27.7235
341.829	26.9456
344.721	29.1822
347.614	72.2437
350.507	110.086
353.4	162.528
356.292	210.669
359.185	298.07
362.078	405.174
364.97	560.006
367.863	689.597
370.756	912.406
373.649	1167.41
376.541	1477.63
379.434	1772.27
382.327	2101.38
385.219	2260.61
388.112	2409.86
391.005	2392.21
393.897	2212.98
396.79	1955.63
399.683	1577.51
402.575	1255.71
405.468	922.041
408.361	722.811
411.254	551.732
414.146	420.56
417.039	330.536
419.932	264.12
422.824	219.61
425.717	170.993
428.61	149.384
431.502	123.465
434.395	85.8652
437.288	51.3096
440.181	65.809
443.073	35.9379
445.966	35.3374
448.859	2.24463
451.751	12.9506
454.644	29.1964
457.537	11.7245
460.43	12.3903
463.322	18.7767
466.215	15.813
469.108	10.5737
472	28.102
474.893	20.7621
477.786	8.78467
480.678	29.4344
483.571	4.81104
486.464	13.1088
489.356	31.0211
492.249	31.9115
495.142	32.073
498.035	32.3628
500.927	44.1945
503.82	60.2692
506.713	46.1716
509.605	74.2502
512.498	143.573
515.391	200.933
518.284	283.496
521.176	312.502
524.069	380.015
526.962	336.182
529.854	266.538
532.747	217.599
535.64	230.186
538.532	204.947
541.425	201.598
544.318	184.49
547.211	180.267
550.103	146.226
552.996	137.775
555.889	120.38
558.781	135.074
561.674	148.351
564.567	129.779
567.459	134.258
570.352	121.38
573.245	115.703
576.138	82.1383
579.03	92.8715
581.923	69.5403
584.816	65.5833
587.708	59.4636
590.601	36.9301
593.494	63.7139
596.386	17.0475
599.279	25.6515
602.172	24.6184
605.064	24.8906
607.957	1.24439
610.85	17.7197
613.743	6.20886
616.635	5.65088
619.528	14.0964
622.421	21.6564
625.313	17.1027
628.206	40.8378
631.099	40.2388
633.991	25.4492
636.884	10.1794
639.777	33.5133
642.67	49.4218
645.562	28.6956
648.455	24.9565
651.348	24.9457
654.24	42.5699
657.133	62.6135
660.026	56.0068
662.918	28.5617
665.811	22.7428
668.704	28.2715
671.597	40.6199
674.489	28.7195
677.382	55.0271
680.275	11.4113
683.167	65.1605
686.06	54.0184
688.953	41.0222
691.846	3.50464
694.738	43.4019
697.631	53.583
700.524	21.7554
703.416	33.064
706.309	37.0337
709.202	27.2837
712.094	30.1379
714.987	29.1656
717.88	16.0997
720.773	36.4918
723.665	8.59644
726.558	29.3368
729.451	3.68066
732.343	20.6635
735.236	29.6301
738.129	9.90015
741.021	0.743286
743.914	2.47668
746.807	7.54773
749.699	0.868286
752.592	1.22449
755.485	25.4906
758.378	9.35193
761.27	38.9922
764.163	31.2793
767.056	51.3774
769.948	71.3668
772.841	76.4669
775.734	99.5706
778.626	176.754
781.519	214.58
784.412	314.615
787.305	456.421
790.197	673.6
793.09	953.454
795.983	1381.7
798.875	2150.15
801.768	3248.45
804.661	5025.95
807.553	7314.32
810.446	9985.6
813.339	12060
816.232	12271.5
819.124	10563.8
822.017	7819.33
824.91	5412.23
827.802	3853
830.695	2896.44
833.588	2252.44
836.481	1857.58
839.373	1782.72
842.266	1809.64
845.159	1874.46
848.051	1887.28
850.944	1695.6
853.837	1364.82
856.729	1039.99
859.622	731.85
862.515	461.807
865.408	332.125
868.3	202.308
871.193	87.493
874.086	28.5294
876.978	0.713501
879.871	12.4533
882.764	49.8541
885.656	21.3827
888.549	22.4216
891.442	41.957
894.335	21.2513
897.227	110.194
900.12	182.037
903.013	204.863
905.905	184.057
908.798	118.055
911.691	106.996
914.583	117.602
917.476	135.578
920.369	233.244
923.261	369.29
926.154	544.852
929.047	718.425
931.94	854.429
934.832	864.952
937.725	759.044
940.618	553.53
943.51	390.902
946.403	278.262
949.296	210.09
952.188	100.184
955.081	103.089
957.974	53.7366
960.867	55.5198
963.759	12.7957
966.652	8.02979
969.545	25.2919
972.437	17.1525
975.33	5.85596
978.223	19.2148
981.115	10.229
984.008	0.709106
986.901	7.31274
989.794	0.87915
992.686	8.88684
995.579	24.0813
998.472	41.8413
1001.36	7.74377
1004.26	41.165
1007.15	11.1151
1010.04	22.083
1012.93	17.0013
1015.83	28.209
1018.72	35.8898
1021.61	40.9023
1024.51	32.3598
1027.4	4.00726
1030.29	23.7076
1033.18	16.2735
1036.08	1.96973
1038.97	16.7476
1041.86	25.7988
1044.76	34.0361
1047.65	19.024
1050.54	11.9734
1053.43	28.4976
1056.33	36.2569
1059.22	11.2706
1062.11	0.20813
1065	10.309
1067.9	21.577
1070.79	14.1974
1073.68	28.6888
1076.58	26.5621
1079.47	10.934
1082.36	3.48608
1085.25	11.1367
1088.14	1.91327
1091.04	29.811
1093.93	22.6543
1096.82	43.4753
1099.72	55.2659
1102.61	44.2462
1105.5	1.01312
1108.39	13.222
1111.29	1.65936
1114.18	32.4995
1117.07	45.734
1119.96	20.423
1122.86	27.2832
1125.75	33.5134
1128.64	36.6617
1131.54	40.1533
1134.43	23.8099
1137.32	39.8543
1140.21	29.6344
1143.11	52.5772
1146	49.6392
1148.89	27.262
1151.79	34.8209
1154.68	11.5436
1157.57	25.4048
1160.46	17.7974
1163.36	37.9807
1166.25	8.9588
1169.14	27.9581
1172.03	23.6963
1174.93	15.5209
1177.82	23.665
1180.71	15.3529
1183.6	12.6619
1186.5	19.9672
1189.39	6.7821
1192.28	18.9524
1195.17	16.6379
1198.07	8.05847
1200.96	10.5647
1203.85	20.5261
1206.75	22.9883
1209.64	24.236
1212.53	0.92627
1215.42	8.0036
1218.32	19.4756
1221.21	22.4317
1224.1	36.9092
1226.99	5.72314
1229.89	19.5202
1232.78	40.2944
1235.67	10.1759
1238.57	2.79108
