Measurement: Raman, 532 nm, unoriented, Raman Data Processed
Mineral: Kirschsteinite
Rruff sample: R070266
Ideal chemistry: CaFe^2+^SiO_4_
Locality: Dolores mine, Pastrana, Mazarrón, Murcia, Spain
Source: Michael Scott
Description: Aggregate of vitreous brown rhombic prismatic crystals with conchoidal fracture
Measured chemistry: (Ca_0.95_Mn_0.02_Mg_0.02_Na_0.01_)_Σ=1_(Fe^2+^_0.83_Mg_0.16_Fe^3+^_0.01_)_Σ=1_Si_1.00_O_4_; Fe^2+^ and Fe^3+^ by charge balance
Raman shift (cm-1)	intensity
145.805	0
149.18	1.87476
152.554	134.468
155.929	280.764
159.304	375.258
162.679	339.712
166.054	196.023
169.429	74.5529
172.803	20.501
176.178	5.71411
179.553	8.60211
182.928	0.053345
186.303	5.19812
189.678	27.7633
193.052	47.0553
196.427	96.57
199.802	102.121
203.177	113.937
206.552	131.711
209.926	132.868
213.301	96.3251
216.676	109.683
220.051	143.641
223.426	175.938
226.8	205.693
230.175	258.513
233.55	325.626
236.925	422.765
240.3	493.12
243.675	572.503
247.049	647.04
250.424	664.487
253.799	546.156
257.174	409.053
260.549	275.172
263.923	198.024
267.298	157.824
270.673	122.133
274.048	163.181
277.423	208.891
280.798	261.52
284.173	347.474
287.547	462.339
290.922	506.793
294.297	435.512
297.672	308.141
301.046	187.562
304.421	104.216
307.796	80.0123
311.171	52.2481
314.546	45.3972
317.921	14.7167
321.295	22.0446
324.67	9.92779
328.045	7.5683
331.42	12.4059
334.795	6.23749
338.17	10.2874
341.544	16.0338
344.919	12.1005
348.294	31.8572
351.669	70.7843
355.044	96.6671
358.418	128.417
361.793	219.367
365.168	304.277
368.543	445.386
371.918	590.952
375.293	798.475
378.667	1034.69
382.042	1222.55
385.417	1463.33
388.792	1570.82
392.167	1560.49
395.541	1412.08
398.916	1172.53
402.291	889.252
405.666	664.764
409.041	475.427
412.416	359.74
415.79	306.678
419.165	224.003
422.54	172.825
425.915	136.522
429.29	142.548
432.664	120.869
436.039	124.039
439.414	112.013
442.789	106.687
446.164	85.0698
449.538	80.9471
452.913	42.1487
456.288	44.5682
459.663	42.1434
463.038	23.6632
466.413	10.632
469.787	4.7265
473.162	7.88562
476.537	9.78247
479.912	1.50293
483.287	4.53528
486.661	1.46387
490.036	1.09192
493.411	3.5025
496.786	6.39551
500.161	27.1172
503.536	41.3498
506.911	69.845
510.285	123.241
513.66	126.01
517.035	175.143
520.41	187.495
523.784	187.685
527.159	140.786
530.534	93.1991
533.909	84.8464
537.284	98.5807
540.659	73.5805
544.033	88.2575
547.408	86.6677
550.783	99.4796
554.158	89.023
557.533	93.7076
560.908	103.219
564.282	126.578
567.657	106.01
571.032	98.4203
574.407	78.9942
577.782	78.4834
581.156	45.1215
584.531	35.2117
587.906	24.2726
591.281	11.5264
594.656	8.72882
598.031	8.10199
601.405	15.2868
604.78	21.0406
608.155	27.765
611.53	24.1097
614.905	29.8945
618.279	47.4179
621.654	71.0715
625.029	90.7897
628.404	100.207
631.779	106.833
635.154	142.39
638.528	131.106
641.903	116.004
645.278	77.345
648.653	50.643
652.028	55.88
655.403	35.9085
658.777	9.90271
662.152	13.4727
665.527	10.5475
668.902	9.83124
672.277	7.35278
675.651	11.9567
679.026	18.1017
682.401	32.3159
685.776	31.7211
689.151	14.7084
692.525	41.7962
695.9	46.3746
699.275	39.5225
702.65	15.7642
706.025	29.2747
709.399	22.2803
712.774	17.841
716.149	12.0233
719.524	8.49957
722.899	10.1844
726.274	9.05902
729.648	4.47363
733.023	9.25775
736.398	14.1569
739.773	5.0545
743.148	9.26099
746.523	1.72156
749.897	15.3386
753.272	2.16602
756.647	5.41797
760.022	30.9243
763.397	14.098
766.771	38.1762
770.146	62.0549
773.521	55.5313
776.896	111.459
780.271	183.426
783.646	256.037
787.02	402.568
790.395	624.973
793.77	966.51
797.145	1564.17
800.52	2506.99
803.894	4058.78
807.269	6222.36
810.644	8495.65
814.019	9818.29
817.394	9155.15
820.769	6839.95
824.143	4635.96
827.518	3212.97
830.893	2458.35
834.268	2129.86
837.643	2118.09
841.018	2335.82
844.392	2676.15
847.767	2769.9
851.142	2473.75
854.517	1946.68
857.891	1372.73
861.266	827.824
864.641	518.312
868.016	252.199
871.391	132.928
874.766	30.9943
878.14	21.4379
881.515	30.92
884.89	25.4992
888.265	5.43323
891.64	44.7772
895.015	72.6444
898.389	168.142
901.764	196.961
905.139	172.611
908.514	82.2421
911.889	41.0795
915.264	48.8467
918.638	85.9472
922.013	172.966
925.388	290.877
928.763	459.125
932.138	572.572
935.512	553.13
938.887	438.973
942.262	312.885
945.637	187.585
949.012	124.23
952.386	82.3636
955.761	33.2521
959.136	28.623
962.511	17.4019
965.886	7.85632
969.261	5.41473
972.635	1.64703
976.01	19.8541
979.385	3.33905
982.76	3.61548
986.135	1.86786
989.51	12.7924
992.884	3.56128
996.259	31.3714
999.634	12.2968
1003.01	35.8635
1006.38	13.7858
1009.76	9.3031
1013.13	20.8165
1016.51	16.109
1019.88	6.29364
1023.26	29.6225
1026.63	22.8373
1030.01	19.7502
1033.38	26.6902
1036.76	19.1352
1040.13	25.2139
1043.51	23.8987
1046.88	11.8837
1050.26	0.228271
1053.63	7.69684
1057.01	8.05634
1060.38	14.1504
1063.76	4.4682
1067.13	8.03613
1070.51	4.02338
1073.88	11.3825
1077.26	24.2686
1080.63	38.6817
1084	58.113
1087.38	54.0748
1090.75	38.1675
1094.13	27.264
1097.5	30.1018
1100.88	33.216
1104.25	9.29846
1107.63	8.47552
1111	32.504
1114.38	31.9255
1117.75	19.6755
1121.13	26.7462
1124.5	37.1457
1127.88	50.5048
1131.25	48.2988
1134.63	32.9012
1138	22.048
1141.38	37.58
1144.75	31.1743
1148.13	31.9731
1151.5	31.5223
1154.88	26.9377
1158.25	28.0264
1161.62	28.7817
1165	39.8483
1168.38	22.7317
1171.75	21.252
1175.12	24.9396
1178.5	4.97125
1181.87	8.62451
1185.25	9.19757
1188.62	18.3796
1192	11.1276
1195.37	4.5282
1198.75	7.0907
1202.12	3.53674
1205.5	13.6908
1208.87	12.1506
1212.25	5.31396
1215.62	10.8038
1219	5.38031
1222.37	14.644
1225.75	5.29755
1229.12	4.64673
1232.5	22.9473
1235.87	21.8677
1239.25	4.05005
1242.62	31.2009
1246	12.3949
1249.37	19.4795
1252.74	15.9497
1256.12	13.5814
1259.49	16.7961
1262.87	12.0792
1266.24	7.31488
1269.62	24.3872
1272.99	4.6792
1276.37	25.5779
1279.74	7.27032
1283.12	25.579
1286.49	23.7162
1289.87	5.32312
1293.24	15.185
1296.62	4.46759
1299.99	4.86017
1303.37	7.12408
1306.74	21.977
