Measurement: Raman, 532 nm, unoriented, Raman Data Processed
Mineral: Klebelsbergite
Rruff sample: R060157
Ideal chemistry: Sb^3+^_4_O_4_(SO_4_)(OH)_2_
Locality: Pereta mine, near Grosseto, Tuscany, Italy
Source: Marcus Origlieri
Description: Yellow-orange tufted aggregates of bladed crystals on stibnite
Raman shift (cm-1)	intensity
145.707	0
148.6	6.15192
151.493	156.28
154.385	348.426
157.278	619.38
160.171	851.324
163.063	843.727
165.956	827.044
168.849	880.345
171.742	752.055
174.634	538.171
177.527	469.53
180.42	479.028
183.312	469.733
186.205	517.54
189.098	640.222
191.99	782.243
194.883	911.912
197.776	1077.23
200.668	1289.77
203.561	1403.5
206.454	1242.23
209.347	943.731
212.239	752.303
215.132	737.121
218.025	874.004
220.917	1096.46
223.81	1122.86
226.703	916.24
229.596	800.686
232.488	792.841
235.381	833.933
238.274	778.926
241.166	544.336
244.059	332.005
246.952	178.038
249.845	90.103
252.737	47.7319
255.63	29.24
258.523	7.17438
261.415	17.5788
264.308	27.6541
267.201	24.536
270.093	19.9479
272.986	15.5218
275.879	5.04382
278.772	9.21814
281.664	44.8466
284.557	98.3819
287.45	160.565
290.342	237.018
293.235	320.614
296.128	424.509
299.021	531.208
301.913	563.438
304.806	489.561
307.699	387.9
310.591	314.146
313.484	268.329
316.377	253.202
319.269	245.648
322.162	240.65
325.055	224.663
327.947	191.726
330.84	145.395
333.733	104.238
336.626	71.6357
339.518	51.1345
342.411	36.3047
345.304	28.5194
348.196	19.6591
351.089	18.3062
353.982	10.1931
356.875	1.24893
359.767	1.33011
362.66	1.46564
365.553	2.46902
368.445	3.70355
371.338	1.00552
374.231	5.5874
377.123	2.6532
380.016	0.865753
382.909	6.10504
385.802	20.2287
388.694	29.6348
391.587	42.9789
394.48	54.892
397.372	66.6376
400.265	86.0271
403.158	95.9128
406.05	107.68
408.943	107.84
411.836	94.2529
414.729	78.7441
417.621	65.4686
420.514	65.6068
423.407	68.9221
426.299	96.425
429.192	142.082
432.085	179.821
434.978	179.447
437.87	156.168
440.763	144.998
443.656	137.968
446.548	121.828
449.441	82.4401
452.334	58.7877
455.226	58.059
458.119	89.1684
461.012	140.625
463.905	214.685
466.797	317.122
469.69	436.859
472.583	583.259
475.475	728.457
478.368	859.724
481.261	939.89
484.154	960.608
487.046	915.352
489.939	825.904
492.832	702.092
495.724	560.348
498.617	429.253
501.51	314.645
504.402	219.222
507.295	149.643
510.188	98.17
513.081	61.0162
515.973	33.3022
518.866	13.2449
521.759	2.23486
524.651	9.82117
527.544	12.7483
530.437	14.2207
533.33	5.72174
536.222	2.08673
539.115	10.307
542.008	26.1575
544.9	47.6537
547.793	76.7672
550.686	110.344
553.578	157.984
556.471	232.417
559.364	326.395
562.256	456.643
565.149	619.881
568.042	809.163
570.935	1008.53
573.827	1205.25
576.72	1374.47
579.613	1445.95
582.505	1339.37
585.398	1085.83
588.291	871.792
591.184	773.719
594.076	772.904
596.969	853.327
599.862	993.602
602.754	1141.13
605.647	1131.48
608.54	982.797
611.433	781.057
614.325	558.609
617.218	364.607
620.111	221.904
623.003	137.474
625.896	78.8728
628.789	42.9772
631.682	22.7149
634.574	8.24609
637.467	2.23315
640.36	0.668243
643.252	5.03482
646.145	16.1912
649.038	25.058
651.93	36.0981
654.823	48.1585
657.716	53.3291
660.609	48.3813
663.501	37.1786
666.394	29.9027
669.287	16.2915
672.179	7.24674
675.072	2.69025
677.965	4.67496
680.857	6.23557
683.75	5.25955
686.643	4.10809
689.535	0.075317
692.428	4.30597
695.321	11.6471
698.214	20.7142
701.106	38.3525
703.999	53.6393
706.892	81.2977
709.784	114.411
712.677	156.978
715.57	195.389
718.462	229.061
721.355	243.6
724.248	225.852
727.141	180.059
730.033	139.97
732.926	104.213
735.819	72.43
738.712	57.3843
741.604	38.3202
744.497	28.4837
747.39	20.8224
750.282	13.3165
753.175	6.70871
756.068	9.46478
758.96	2.67596
761.853	4.73386
764.746	3.30045
767.639	0.613281
770.531	1.74847
773.424	0.939941
776.317	0.768188
779.209	2.45233
782.102	1.13388
784.995	0.491608
787.888	0.872223
790.78	3.36874
793.673	0.545715
796.566	1.50183
799.458	2.06943
802.351	2.68628
805.244	5.51773
808.136	6.42044
811.029	2.87415
813.922	3.19019
816.814	7.28369
819.707	4.20917
822.6	7.02637
825.493	5.18564
828.385	10.1751
831.278	12.0795
834.171	10.2128
837.063	12.7337
839.956	8.70908
842.849	14.3106
845.741	10.3166
848.634	9.07221
851.527	12.3858
854.42	11.5416
857.312	12.9559
860.205	14.4518
863.098	12.4497
865.99	10.2585
868.883	11.9302
871.776	10.8758
874.669	10.8148
877.561	6.88602
880.454	10.8011
883.347	6.9292
886.239	6.08084
889.132	5.33875
892.025	0.479095
894.918	6.04614
897.81	3.00003
900.703	3.95737
903.596	1.21967
906.488	2.50241
909.381	1.26437
912.274	1.1387
915.166	0.248047
918.059	2.48883
920.952	1.89032
923.845	8.10584
926.737	11.1919
929.63	16.0451
932.523	16.5144
935.415	25.0253
938.308	31.8511
941.201	42.5322
944.093	58.3145
946.986	76.5622
949.879	112.837
952.771	162.713
955.664	246.739
958.557	372.611
961.45	542.339
964.342	739.049
967.235	959.277
970.128	1060.03
973.02	843.178
975.913	494.164
978.806	270.322
981.699	151.845
984.591	87.1636
987.484	52.6206
990.377	28.0102
993.269	12.1961
996.162	3.80481
999.055	1.04456
1001.95	2.6127
1004.84	2.1807
1007.73	0.358643
1010.63	18.8299
1013.52	34.9916
1016.41	59.7776
1019.3	84.946
1022.2	109.497
1025.09	127.198
1027.98	127.746
1030.88	113.698
1033.77	93.0188
1036.66	67.3181
1039.55	49.1645
1042.44	35.2105
1045.34	31.4906
1048.23	20.9312
1051.12	24.0907
1054.02	27.0072
1056.91	35.208
1059.8	44.071
1062.69	62.544
1065.59	80.6459
1068.48	99.4632
1071.37	113.782
1074.27	126.559
1077.16	133.941
1080.05	138.333
1082.94	140.128
1085.84	132.122
1088.73	110.466
1091.62	79.6631
1094.51	47.667
1097.41	27.7192
1100.3	8.89258
1103.19	0.18573
1106.09	3.48535
1108.98	5.18426
1111.87	7.76547
1114.76	14.3315
1117.66	32.0101
1120.55	54.8711
1123.44	77.0903
1126.33	105.858
1129.23	118.148
1132.12	133.704
1135.01	143.194
1137.9	146.342
1140.8	144.094
1143.69	116.076
1146.58	79.0657
1149.47	52.5478
1152.37	28.3622
1155.26	16.8378
1158.15	7.77893
1161.05	4.95331
1163.94	4.23425
1166.83	1.07156
1169.72	0.310913
1172.62	1.07046
1175.51	2.78305
1178.4	1.22144
1181.3	0.941803
1184.19	3.80753
1187.08	1.09305
1189.97	4.32355
1192.87	6.63022
1195.76	7.78061
1198.65	13.6256
1201.54	10.4043
1204.44	11.989
1207.33	8.14096
1210.22	6.28714
1213.12	7.12988
1216.01	8.08704
1218.9	8.77588
1221.79	5.53354
1224.69	8.33926
1227.58	8.22986
1230.47	7.34094
1233.36	8.33337
1236.26	6.91724
1239.15	4.42734
1242.04	3.23529
1244.93	4.76874
1247.83	4.99417
1250.72	6.0213
1253.61	5.43362
1256.51	6.06735
1259.4	6.02426
1262.29	7.75558
1265.18	7.34198
1268.08	8.11621
1270.97	6.75351
1273.86	4.21478
1276.75	2.04544
1279.65	4.98764
1282.54	4.16714
1285.43	1.23746
1288.33	2.11603
1291.22	5.41486
1294.11	5.39542
1297	0.101685
1299.9	0.285339
