Measurement: Raman, 780 nm, unoriented, Raman Data Processed
Mineral: Klebelsbergite
Rruff sample: R060157
Ideal chemistry: Sb^3+^_4_O_4_(SO_4_)(OH)_2_
Locality: Pereta mine, near Grosseto, Tuscany, Italy
Source: Marcus Origlieri
Description: Yellow-orange tufted aggregates of bladed crystals on stibnite
Raman shift (cm-1)	intensity
146.022	0
148.915	0.29798
151.808	3.17127
154.701	6.28134
157.593	13.5629
160.486	23.6485
163.379	27.993
166.271	30.6
169.164	34.8135
172.057	28.6536
174.949	15.9454
177.842	9.07792
180.735	6.36647
183.627	5.71348
186.52	6.93145
189.413	10.2182
192.306	14.6983
195.198	22.7494
198.091	30.6595
200.984	42.2662
203.876	50.8444
206.769	44.9177
209.662	36.3109
212.554	30.6325
215.447	31.0431
218.34	38.0621
221.233	43.8183
224.125	44.2413
227.018	37.1971
229.911	31.5918
232.803	30.2696
235.696	31.6884
238.589	31.3835
241.482	24.2967
244.374	20.3822
247.267	9.84166
250.16	4.81016
253.052	0.847924
255.945	0.573837
258.838	0.058941
261.73	0.581039
264.623	0.716062
267.516	0.943478
270.408	0.575714
273.301	0.108972
276.194	0.130568
279.087	0.920248
281.979	3.07386
284.872	5.58062
287.765	6.97192
290.657	8.87266
293.55	11.8674
296.443	16.6351
299.335	19.7806
302.228	20.8297
305.121	19.7431
308.014	15.7879
310.906	12.6196
313.799	10.6331
316.692	9.69681
319.584	9.10255
322.477	8.0556
325.37	7.06671
328.262	6.49944
331.155	5.57395
334.048	4.76179
336.94	3.72408
339.833	2.63302
342.726	0.731493
345.619	0.417339
348.511	0.633693
351.404	0.403995
354.297	0.052119
357.189	0.224868
360.082	0.585713
362.975	0.182731
365.868	0.479817
368.76	0.023131
371.653	0.115212
374.546	0.29186
377.438	0.421186
380.331	0.57618
383.224	0.31828
386.116	1.45435
389.009	2.7618
391.902	2.04522
394.795	2.95492
397.687	2.81533
400.58	3.91162
403.473	4.03214
406.365	4.58972
409.258	4.84955
412.151	3.99845
415.043	3.35346
417.936	2.04239
420.829	1.49702
423.721	3.08844
426.614	4.19794
429.507	6.2866
432.399	7.70146
435.292	7.84268
438.185	6.70305
441.078	6.57135
443.97	5.56177
446.863	4.2739
449.756	3.06245
452.648	1.43559
455.541	0.919864
458.434	1.01775
461.327	5.12506
464.219	7.60947
467.112	13.1714
470.005	15.5818
472.897	20.4534
475.79	23.3458
478.683	28.9332
481.575	31.1568
484.468	31.343
487.361	28.6841
490.253	25.4041
493.146	20.4705
496.039	16.4456
498.932	12.2111
501.824	9.81307
504.717	5.96545
507.61	3.41613
510.502	2.5
513.395	1.52666
516.288	1.03387
519.181	0.066
522.073	0.085387
524.966	0.618994
527.859	0.13458
530.751	0.534999
533.644	0.840599
536.537	0.109715
539.429	0.18066
542.322	1.39811
545.215	1.21078
548.107	2.47415
551	3.79035
553.893	7.06719
556.785	9.68122
559.678	13.0697
562.571	17.8995
565.464	24.5282
568.356	31.9231
571.249	38.605
574.142	46.4004
577.034	51.9147
579.927	55.0796
582.82	52.8206
585.712	41.7897
588.605	32.9533
591.498	25.7865
594.391	24.154
597.283	24.4076
600.176	29.1994
603.069	32.7717
605.961	32.3239
608.854	28.4081
611.747	22.8391
614.639	15.8795
617.532	10.1795
620.425	6.88673
623.318	3.63039
626.21	2.48611
629.103	1.23673
631.996	0.442019
634.888	0.508989
637.781	0.364607
640.674	0.241423
643.567	0.68767
646.459	1.55883
649.352	1.19239
652.245	2.34895
655.137	2.39839
658.03	2.91636
660.923	2.82228
663.815	1.47571
666.708	0.646404
669.601	0.783402
672.494	0.94668
675.386	0.230878
678.279	0.216281
681.172	0.394178
684.064	0.459406
686.957	0.491057
689.85	0.367832
692.742	0.050481
695.635	0.238006
698.528	0.885667
701.42	1.25636
704.313	1.30201
707.206	2.96947
710.098	3.23832
712.991	3.93747
715.884	5.15632
718.777	6.8712
721.669	6.84518
724.562	6.38755
727.455	6.26742
730.347	4.04688
733.24	3.08858
736.133	2.00096
739.025	0.946297
741.918	0.76742
744.811	0.571151
747.704	0.092539
750.596	0.217421
753.489	0.540249
756.382	0.481795
759.274	0.662853
762.167	0.094467
765.06	0.045858
767.952	0.367714
770.845	0.319021
773.738	1.01795
776.631	0.503302
779.523	0.003873
782.416	0.726066
785.309	0.213416
788.201	0.290292
791.094	0.842639
793.987	0.346487
796.88	0.82571
799.772	0.382612
802.665	1.12787
805.558	0.088122
808.45	0.108913
811.343	1.35272
814.236	0.10377
817.128	0.571798
820.021	0.617301
822.914	0.903911
825.807	1.10574
828.699	1.09591
831.592	1.56848
834.485	1.71322
837.377	1.70182
840.27	1.26519
843.163	2.34195
846.055	1.77628
848.948	1.13452
851.841	1.0549
854.734	1.73428
857.626	1.22092
860.519	1.36553
863.412	0.79124
866.304	1.73044
869.197	1.03997
872.09	0.615993
874.982	2.31396
877.875	1.55057
880.768	0.796795
883.66	0.154024
886.553	0.043031
889.446	1.39341
892.338	0.522376
895.231	1.15993
898.124	0.057519
901.017	0.938178
903.909	0.331335
906.802	0.857383
909.695	0.338414
912.587	0.920916
915.48	0.873685
918.373	0.071694
921.265	0.9414
924.158	0.057739
927.051	0.110988
929.944	0.477224
932.836	0.141795
935.729	0.627888
938.622	1.34359
941.514	0.486363
944.407	1.56129
947.3	3.12783
950.192	2.45498
953.085	5.65888
955.978	7.84948
958.87	13.0596
961.763	17.9661
964.656	23.6103
967.549	31.6291
970.441	33.4741
973.334	27.1328
976.227	16.0801
979.119	8.46786
982.012	3.75393
984.905	1.51383
987.798	0.557753
990.69	0.062732
993.583	0.195707
996.476	0.064852
999.368	0.406719
1002.26	0.350929
1005.15	0.397322
1008.05	0.640652
1010.94	1.34548
1013.83	3.9763
1016.73	5.13788
1019.62	6.52013
1022.51	7.35947
1025.4	7.69943
1028.3	7.30548
1031.19	6.69749
1034.08	5.74275
1036.97	4.73061
1039.87	4.0839
1042.76	3.20078
1045.65	2.42834
1048.54	1.65483
1051.44	1.39705
1054.33	1.12731
1057.22	2.11514
1060.12	1.52299
1063.01	2.6462
1065.9	2.31162
1068.79	3.00525
1071.69	3.6227
1074.58	3.61666
1077.47	5.29608
1080.36	3.69002
1083.26	4.38012
1086.15	4.35519
1089.04	2.82955
1091.93	2.253
1094.83	1.45422
1097.72	0.630651
1100.61	0.013839
1103.51	0.023888
1106.4	0.012252
1109.29	0.134347
1112.18	0.310466
1115.08	1.86577
1117.97	1.67901
1120.86	2.12567
1123.75	2.52881
1126.65	3.66291
1129.54	3.80644
1132.43	4.74175
1135.33	4.65394
1138.22	3.89203
1141.11	4.59278
1144	3.69493
1146.9	3.72846
1149.79	1.75154
1152.68	1.27551
1155.57	0.507213
1158.47	0.318119
1161.36	0.101423
1164.25	0.139581
1167.14	0.017479
1170.04	0.445808
1172.93	1.04918
1175.82	0.341638
1178.72	0.823999
1181.61	0.13418
1184.5	1.34923
1187.39	0.268686
1190.29	0.098367
1193.18	0.686938
1196.07	0.939167
1198.96	0.399334
1201.86	0.793987
1204.75	0.957616
1207.64	0.42686
1210.54	0.620044
1213.43	1.7748
1216.32	0.557072
1219.21	0.762599
1222.11	1.30325
1225	0.514283
1227.89	0.175741
1230.78	0.78674
1233.68	0.711169
1236.57	0.591332
1239.46	0.700079
1242.36	0.012874
1245.25	0.069277
1248.14	0.055824
1251.03	0.2879
1253.93	0.360941
1256.82	0.02839
1259.71	0.105044
1262.6	0.276118
1265.5	0.615951
1268.39	0.008897
1271.28	0.432947
1274.17	0.541859
1277.07	0.552983
