Measurement: Raman, 532 nm, unoriented, Raman Data Processed
Mineral: Kleinite
Rruff sample: R060329
Ideal chemistry: Hg_2_N(Cl,SO_4_)nH_2_O
Locality: McDermott mine, Humboldt County, Nevada, USA
Source: Michael Scott
Description: Light yellow hexagonal prismatic or tabular crystals, associated with orange or dark yellow platy terlinguacreekite.
Raman shift (cm-1)	intensity
89.7832	0
93.158	11.4375
96.5328	16.1223
99.9077	51.096
103.282	162.17
106.657	294.468
110.032	387.758
113.407	394.873
116.782	410.11
120.157	453.918
123.531	478.618
126.906	489.498
130.281	371.369
133.656	291.927
137.031	223.385
140.405	165.857
143.78	121.086
147.155	92.9945
150.53	85.2808
153.905	95.9243
157.28	110.683
160.654	143.484
164.029	173.694
167.404	200.444
170.779	202.527
174.154	177.379
177.528	136.986
180.903	101.483
184.278	71.3999
187.653	55.9019
191.028	35.8963
194.403	16.1995
197.777	3.27624
201.152	0.941833
204.527	7.24374
207.902	4.69336
211.277	3.28595
214.651	5.25336
218.026	6.21921
221.401	3.24246
224.776	1.72202
228.151	3.41824
231.525	1.36606
234.9	4.68204
238.275	7.95538
241.65	16.0179
245.025	26.1052
248.4	39.0877
251.774	53.7843
255.149	74.1485
258.524	89.9896
261.899	100.095
265.274	102.365
268.649	97.5357
272.023	92.1272
275.398	78.7802
278.773	67.8787
282.148	57.4415
285.523	51.5924
288.897	48.5892
292.272	44.8146
295.647	44.6661
299.022	44.3754
302.397	44.2407
305.772	42.6723
309.146	43.5812
312.521	44.1974
315.896	45.5111
319.271	45.1876
322.646	41.4997
326.02	38.7138
329.395	33.1707
332.77	27.1295
336.145	24.7608
339.52	21.2516
342.894	19.3613
346.269	20.217
349.644	21.0448
353.019	23.1136
356.394	24.8498
359.769	26.6388
363.143	28.6278
366.518	29.4448
369.893	33.7554
373.268	37.5436
376.643	40.3081
380.017	42.4159
383.392	41.2627
386.767	40.1569
390.142	37.3089
393.517	34.1444
396.892	31.0509
400.266	28.0063
403.641	26.5147
407.016	20.9117
410.391	17.4171
413.766	13.3822
417.14	12.3013
420.515	7.15447
423.89	3.10184
427.265	1.29918
430.64	4.82164
434.014	6.01706
437.389	6.73282
440.764	6.21086
444.139	3.3781
447.514	0.836731
450.889	0.4729
454.263	3.6076
457.638	5.37692
461.013	6.45962
464.388	8.74558
467.763	0.170471
471.137	17.4943
474.512	43.1027
477.887	73.4035
481.262	110.721
484.637	156.865
488.012	210.883
491.386	264.368
494.761	319.635
498.136	381.552
501.511	452.868
504.886	535.082
508.26	633.845
511.635	758.16
515.01	900.539
518.385	1080.36
521.76	1284.79
525.135	1548.29
528.509	1864.92
531.884	2250.46
535.259	2651.29
538.634	3043.41
542.009	3360.01
545.384	3436.9
548.758	3201.13
552.133	2865.94
555.508	2659.92
558.883	2606.39
562.258	2535.28
565.632	2285.24
569.007	1821.23
572.382	1394.92
575.757	1113.28
579.132	812.792
582.506	478.538
585.881	255.287
589.256	124.142
592.631	48.2246
596.006	3.83868
599.381	21.3096
602.755	31.6074
606.13	21.5547
609.505	21.922
612.88	93.7206
616.255	195.697
619.63	320.207
623.004	431.209
626.379	458.443
629.754	367.03
633.129	233.639
636.504	132.873
639.878	70.1351
643.253	35.962
646.628	24.4269
650.003	19.3538
653.378	20.1469
656.752	16.21
660.127	8.11127
663.502	1.52599
666.877	2.31401
670.252	2.02452
673.626	2.65082
677.001	2.26974
680.376	3.20361
683.751	8.06084
687.126	12.7254
690.501	15.5285
693.875	20.5669
697.25	24.7816
700.625	28.6515
704	32.1737
707.375	33.7383
710.75	36.2931
714.124	37.0497
717.499	36.9315
720.874	38.6869
724.249	36.7925
727.624	35.1781
730.998	34.5682
734.373	34.7947
737.748	31.9043
741.123	31.4248
744.498	30.9364
747.872	31.2527
751.247	28.2379
754.622	28.9207
757.997	26.8436
761.372	24.4497
764.747	22.9553
768.121	21.1019
771.496	20.0427
774.871	16.4223
778.246	15.1919
781.621	10.9122
784.995	10.1746
788.37	6.31023
791.745	4.33194
795.12	2.54463
798.495	0.638092
801.87	1.96228
805.244	1.53082
808.619	2.55626
811.994	1.09064
815.369	0.665649
818.744	1.0547
822.119	2.43162
825.493	0.68837
828.868	2.34573
832.243	0.154633
835.618	0.595642
838.993	1.55867
842.367	1.50439
845.742	0.098343
849.117	0.463791
852.492	0.410645
855.867	1.01976
859.241	1.08835
862.616	0.656006
865.991	0.933029
869.366	0.125
872.741	2.53982
876.115	2.88243
879.49	5.93195
882.865	6.59847
886.24	5.58986
889.615	10.0729
892.99	13.9728
896.364	19.6534
899.739	28.1918
903.114	32.7989
906.489	33.8907
909.864	27.6414
913.239	18.7788
916.613	11.6487
919.988	3.99579
923.363	3.80321
926.738	2.39055
930.113	0.174103
933.487	0.630768
936.862	0.233948
940.237	0.667938
943.612	2.24016
946.987	5.09644
950.361	7.269
953.736	5.84062
957.111	5.74446
960.486	4.76146
963.861	4.01331
967.236	3.62344
970.61	3.79991
973.985	3.7477
977.36	1.27792
980.735	1.84624
984.11	7.89078
987.485	0.71347
990.859	1.03001
994.234	0.696503
997.609	0.317947
1000.98	0.817352
1004.36	0.624237
1007.73	0.844681
1011.11	0.634567
1014.48	0.350891
1017.86	2.20572
1021.23	1.45853
1024.61	3.46341
1027.98	7.89522
1031.36	8.89075
1034.73	11.962
1038.11	16.0945
1041.48	17.2396
1044.86	19.1278
1048.23	17.5255
1051.61	15.8092
1054.98	13.5256
1058.36	11.2512
1061.73	9.19151
1065.11	7.61775
1068.48	6.38324
1071.86	5.16022
1075.23	6.19144
1078.6	6.1449
1081.98	8.10513
1085.35	5.715
1088.73	7.39874
1092.1	6.12817
1095.48	6.4944
1098.85	6.26834
1102.23	6.21002
1105.6	4.45442
1108.98	5.78828
1112.35	3.56792
1115.73	3.31253
1119.1	3.67857
1122.48	1.84963
1125.85	2.57265
1129.23	1.41365
1132.6	3.7675
1135.98	3.51901
1139.35	3.61873
1142.73	3.22615
1146.1	4.9594
1149.48	6.11824
1152.85	6.25446
1156.22	8.99622
1159.6	8.34341
1162.97	9.92258
1166.35	6.75648
1169.72	9.40083
1173.1	6.23927
1176.47	5.66014
1179.85	4.91702
1183.22	3.36955
1186.6	4.26343
1189.97	1.68552
1193.35	1.6817
1196.72	2.08975
1200.1	0.095367
1203.47	1.07356
1206.85	0.024216
1210.22	1.35368
1213.6	0.079651
1216.97	1.04146
1220.35	1.44208
1223.72	4.49793
1227.1	4.97789
1230.47	7.01274
1233.85	8.92816
1237.22	9.42067
1240.6	9.33997
1243.97	9.85066
1247.35	8.57584
1250.72	8.27203
1254.1	7.47712
1257.47	6.27154
1260.85	5.69933
1264.22	4.67553
1267.59	4.01871
1270.97	4.59119
1274.34	3.82961
1277.72	3.34224
1281.09	2.97424
1284.47	1.84547
1287.84	2.12145
1291.22	1.27896
1294.59	0.795334
1297.97	0.717262
1301.34	0.253288
