Measurement: Raman, 780 nm, unoriented, Raman Data Processed
Mineral: Kleinite
Rruff sample: R060179
Ideal chemistry: Hg_2_N(Cl,SO_4_)nH_2_O
Locality: McDermott mine, Humboldt County, Nevada, USA
Source: Marcus Origlieri
Description: Yellow druses of hexagonal prisms, associated with orange terlinguacreekite, and colorless strontianite.
Measured chemistry: Hg_2.00_N_1.00_Cl_1.00_Â·0.5H_2_O
Raman shift (cm-1)	intensity
146.505	0
149.397	6.21655
152.29	10.3342
155.183	19.4274
158.075	28.5252
160.968	37.5359
163.861	50.1137
166.753	54.7531
169.646	57.5304
172.539	52.7101
175.431	43.0146
178.324	40.3949
181.217	33.2833
184.11	29.7883
187.002	20.9946
189.895	19.7321
192.788	16.9703
195.68	14.3989
198.573	7.56171
201.466	2.60339
204.358	2.62457
207.251	1.15057
210.144	0.340332
213.037	2.37042
215.929	4.14032
218.822	0.062622
221.715	2.1582
224.607	5.88739
227.5	4.591
230.393	7.01135
233.286	6.90601
236.178	9.60126
239.071	15.4182
241.964	15.3958
244.856	19.772
247.749	22.0153
250.642	23.8837
253.534	25.8742
256.427	28.0777
259.32	28.2694
262.212	28.2883
265.105	28.3534
267.998	26.6101
270.891	24.6942
273.783	20.3472
276.676	17.2119
279.569	12.5175
282.461	12.3351
285.354	12.0188
288.247	12.5191
291.139	12.7028
294.032	13.6049
296.925	12.7642
299.817	14.5869
302.71	14.3209
305.603	17.6508
308.496	17.9521
311.388	19.8363
314.281	20.0025
317.174	20.3917
320.066	19.6668
322.959	17.8915
325.852	11.5557
328.745	8.6629
331.637	6.50665
334.53	5.20453
337.423	4.2915
340.315	3.68988
343.208	3.08252
346.101	0.681091
348.993	1.04614
351.886	1.84265
354.779	1.17285
357.671	0.760925
360.564	3.22131
363.457	1.10846
366.35	0.889832
369.242	1.47528
372.135	2.06311
375.028	1.80078
377.92	2.00812
380.813	5.00348
383.706	5.90167
386.599	4.79388
389.491	3.84381
392.384	5.35126
395.277	6.59265
398.169	4.6665
401.062	3.1579
403.955	6.95111
406.847	2.92047
409.74	2.34515
412.633	4.28461
415.526	0.986023
418.418	0.917664
421.311	3.91742
424.204	2.3122
427.096	1.47083
429.989	0.561096
432.882	0.230835
435.774	1.30115
438.667	0.726929
441.56	2.92957
444.452	2.63403
447.345	0.833374
450.238	1.7735
453.13	1.68487
456.023	1.27112
458.916	0.091125
461.809	2.55151
464.701	4.66034
467.594	8.9657
470.487	12.4483
473.379	21.6506
476.272	26.8585
479.165	31.4283
482.058	40.2162
484.95	46.0079
487.843	55.7058
490.736	62.8969
493.628	75.1849
496.521	74.7184
499.414	81.5272
502.306	85.4291
505.199	93.1274
508.092	97.3491
510.985	108.17
513.877	116.48
516.77	132.026
519.663	148.623
522.555	167.712
525.448	192.802
528.341	217.498
531.233	257.608
534.126	292.184
537.019	335.817
539.912	372.846
542.804	393.443
545.697	410.995
548.59	408.712
551.482	397.131
554.375	386.259
557.268	389.907
560.16	395.082
563.053	408.658
565.946	410.618
568.838	387.113
571.731	345.588
574.624	304.707
577.516	249.818
580.409	171.21
583.302	104.982
586.195	63.7669
589.087	34.9154
591.98	19.3326
594.873	8.24316
597.765	0.39209
600.658	5.09869
603.551	4.03052
606.443	4.8078
609.336	4.3031
612.229	4.20203
615.122	8.40869
618.014	13.1229
620.907	16.4044
623.8	23.2786
626.692	28.6617
629.585	29.8452
632.478	23.0918
635.37	20.1873
638.263	16.6167
641.156	7.66589
644.049	3.72424
646.941	4.77515
649.834	2.32318
652.727	1.82648
655.619	0.99176
658.512	1.91742
661.405	2.9892
664.298	1.52448
667.19	0.651672
670.083	0.030518
672.976	0.098145
675.868	0.339905
678.761	0.624329
681.654	2.04321
684.546	4.14789
687.439	3.19678
690.332	3.13361
693.225	5.63538
696.117	8.2558
699.01	8.38165
701.903	8.56097
704.795	9.33331
707.688	8.83661
710.581	8.31421
713.473	8.50372
716.366	9.31958
719.259	9.18585
722.151	5.99695
725.044	5.7619
727.937	8.39691
730.83	6.07855
733.722	6.72351
736.615	3.61981
739.508	3.28595
742.4	5.58697
745.293	3.48645
748.186	2.04779
751.078	3.92902
753.971	1.60407
756.864	1.18152
759.756	3.21484
762.649	0.337646
765.542	1.7915
768.435	1.50775
771.327	0.381165
774.22	1.89319
777.113	1.57696
780.005	1.17248
782.898	3.21112
785.791	0.531311
788.683	0.399841
791.576	1.2489
794.469	2.4635
797.362	3.08697
800.254	0.605286
803.147	4.86261
806.04	3.90234
808.932	4.52203
811.825	3.0235
814.718	5.49658
817.611	2.71667
820.503	4.29382
823.396	6.37225
826.289	6.02637
829.181	3.93237
832.074	4.90875
834.967	4.46362
837.859	3.00696
840.752	1.19025
843.645	2.84448
846.538	1.98151
849.43	0.240784
852.323	2.62946
855.216	2.17932
858.108	1.039
861.001	0.817078
863.894	1.84143
866.786	0.046326
869.679	1.39038
872.572	3.07544
875.464	2.81085
878.357	2.37353
881.25	2.43921
884.143	3.11182
887.035	4.11911
889.928	2.47012
892.821	3.05963
895.713	4.87717
898.606	4.46442
901.499	3.86172
904.391	4.65921
907.284	5.05026
910.177	4.39066
913.069	2.73636
915.962	1.76053
918.855	1.56842
921.748	1.37231
924.64	0.713409
927.533	0.712036
930.426	4.07504
933.318	3.26041
936.211	2.81772
939.104	3.75424
941.996	4.36011
944.889	3.3978
947.782	5.80655
950.675	6.55389
953.567	5.08929
956.46	4.67294
959.353	3.3826
962.245	2.41974
965.138	0.304199
968.031	1.38461
970.923	0.978088
973.816	0.763184
976.709	0.341766
979.602	0.257538
982.494	1.18542
985.387	0.103638
988.28	0.412811
991.172	1.02948
994.065	2.77106
996.958	2.00784
999.851	3.19141
1002.74	0.267059
1005.64	1.97263
1008.53	2.27811
1011.42	2.71637
1014.31	2.21744
1017.21	3.65546
1020.1	3.81519
1022.99	3.84842
1025.88	3.15268
1028.78	3.95068
1031.67	4.80399
1034.56	8.85852
1037.46	4.8364
1040.35	5.3631
1043.24	3.39313
1046.13	4.43375
1049.03	6.00528
1051.92	4.83225
1054.81	2.52362
1057.7	2.91519
1060.6	3.34018
1063.49	3.3468
1066.38	0.022736
1069.28	0.085815
1072.17	2.00079
1075.06	3.0896
1077.95	2.37885
1080.85	1.68753
1083.74	0.434204
1086.63	3.02069
1089.52	3.04095
1092.42	1.52097
1095.31	1.35059
1098.2	1.58109
1101.1	0.165833
1103.99	1.85248
1106.88	3.10776
1109.77	4.51462
1112.67	2.50574
1115.56	2.80942
1118.45	2.35049
1121.34	0.514069
1124.24	2.22876
1127.13	0.552979
1130.02	1.00433
1132.91	1.92715
1135.81	4.28564
1138.7	0.211151
1141.59	2.53555
1144.48	1.24847
1147.38	1.52252
1150.27	1.78607
1153.16	0.097717
1156.06	1.03049
1158.95	1.54425
1161.84	1.14011
1164.73	3.44803
1167.63	1.89954
1170.52	2.89221
1173.41	3.70029
1176.31	4.45432
1179.2	7.38293
1182.09	4.18805
1184.98	7.02994
1187.88	4.49429
1190.77	3.8389
1193.66	4.65597
1196.55	1.85886
1199.45	0.383453
1202.34	1.13687
1205.23	1.47415
1208.12	0.079346
1211.02	0.662201
1213.91	5.49454
1216.8	1.99921
1219.7	3.2323
1222.59	2.22397
1225.48	3.01175
1228.37	4.05804
1231.27	3.08106
1234.16	4.4104
1237.05	4.47919
1239.94	3.22232
1242.84	3.71191
1245.73	4.39209
1248.62	5.56104
1251.52	5.55051
1254.41	4.57541
1257.3	1.25513
1260.19	2.69269
1263.09	2.50775
1265.98	2.28744
1268.87	4.02896
1271.76	3.21143
1274.66	1.4447
1277.55	5.82712
1280.44	4.18436
1283.34	2.61597
1286.23	0
