Measurement: Raman, 532 nm, unoriented, Raman Data Processed
Mineral: Kleinite
Rruff sample: R060179
Ideal chemistry: Hg_2_N(Cl,SO_4_)nH_2_O
Locality: McDermott mine, Humboldt County, Nevada, USA
Source: Marcus Origlieri
Description: Yellow druses of hexagonal prisms, associated with orange terlinguacreekite, and colorless strontianite.
Measured chemistry: Hg_2.00_N_1.00_Cl_1.00_Â·0.5H_2_O
Raman shift (cm-1)	intensity
146.671	0
149.564	23.5432
152.457	57.1789
155.35	69.013
158.242	80.7384
161.135	95.4352
164.028	109.322
166.92	118.741
169.813	120.91
172.706	105.025
175.598	87.1227
178.491	69.5449
181.384	56.6613
184.277	51.9874
187.169	47.6443
190.062	37.3094
192.955	28.9374
195.847	21.8867
198.74	15.3284
201.633	6.51978
204.525	2.26544
207.418	2.10553
210.311	6.1116
213.204	5.46793
216.096	5.96692
218.989	3.85959
221.882	2.38443
224.774	2.76434
227.667	1.57968
230.56	0.024963
233.452	0.98819
236.345	5.81473
239.238	7.11545
242.131	13.4129
245.023	19.7363
247.916	28.6976
250.809	38.7867
253.701	49.5972
256.594	56.8846
259.487	61.7867
262.38	64.4662
265.272	64.3435
268.165	61.5806
271.058	54.6758
273.95	43.876
276.843	37.2142
279.736	28.5446
282.628	24.7393
285.521	20.5771
288.414	19.6185
291.307	18.1008
294.199	17.5122
297.092	16.9117
299.985	16.8603
302.877	17.0127
305.77	17.7496
308.663	18.9675
311.555	21.5771
314.448	24.2445
317.341	23.6328
320.234	20.0124
323.126	21.285
326.019	17.8492
328.912	14.2364
331.804	12.3806
334.697	12.0135
337.59	11.9168
340.483	10.1027
343.375	10.3806
346.268	10.4366
349.161	11.4542
352.053	11.3671
354.946	12.7521
357.839	14.0293
360.731	13.8099
363.624	15.7596
366.517	16.6767
369.41	15.6136
372.302	17.8125
375.195	17.9766
378.088	19.1211
380.98	20.1906
383.873	21.3631
386.766	22.6296
389.659	21.0692
392.551	22.1935
395.444	21.2031
398.337	20.3725
401.229	19.1761
404.122	17.7616
407.015	17.1972
409.908	15.5521
412.8	11.5532
415.693	9.75664
418.586	9.42455
421.478	5.22461
424.371	4.76273
427.264	1.75021
430.156	0.257782
433.049	0.714478
435.942	3.91187
438.834	4.38406
441.727	4.39059
444.62	6.28979
447.513	5.88947
450.405	7.88577
453.298	6.11063
456.191	4.54114
459.083	2.46622
461.976	2.1564
464.869	10.1627
467.762	19.9779
470.654	34.6613
473.547	52.4064
476.44	71.1751
479.332	93.6145
482.225	119.845
485.118	145.352
488.01	172.929
490.903	201.8
493.796	223.875
496.689	250.804
499.581	274.596
502.474	298.116
505.367	322.353
508.259	351.855
511.152	386.317
514.045	427.49
516.938	477.575
519.83	539.13
522.723	617.136
525.616	711.597
528.508	823.15
531.401	953.074
534.294	1093.25
537.187	1215.48
540.079	1308.57
542.972	1373.72
545.865	1396.54
548.757	1366.57
551.65	1308.53
554.543	1283.81
557.435	1304.9
560.328	1338.88
563.221	1364.53
566.114	1331.36
569.006	1213.07
571.899	1063.87
574.792	924.354
577.684	733.665
580.577	488.398
583.47	291.782
586.362	172.88
589.255	100.175
592.148	54.8137
595.04	31.5684
597.933	4.85928
600.826	10.7267
603.719	17.3524
606.611	17.8625
609.504	11.1688
612.397	0.466095
615.289	20.8053
618.182	48.8017
621.075	79.4091
623.967	104.311
626.86	117.973
629.753	108.063
632.646	84.8474
635.538	57.1457
638.431	32.6923
641.324	16.0127
644.216	10.4936
647.109	7.01813
650.002	8.3143
652.895	7.86719
655.787	9.44388
658.68	7.84537
661.573	5.67908
664.465	2.10114
667.358	0.881622
670.251	0.250366
673.144	1.55762
676.036	1.2803
678.929	0.448212
681.822	1.69229
684.714	2.81174
687.607	4.62747
690.5	7.81995
693.393	9.9769
696.285	10.2747
699.178	13.0438
702.071	13.739
704.963	14.7353
707.856	16.2962
710.749	15.2616
713.641	15.4804
716.534	17.0119
719.427	15.0919
722.319	17.0377
725.212	13.4932
728.105	15.7216
730.998	17.1285
733.89	17.1136
736.783	15.1604
739.676	14.8908
742.568	14.3822
745.461	15.6259
748.354	14.3311
751.246	13.4527
754.139	13.2988
757.032	11.6308
759.925	11.9848
762.817	12.5193
765.71	11.177
768.603	8.82156
771.495	8.71994
774.388	8.33777
777.281	7.44376
780.174	5.30188
783.066	6.18481
785.959	5.38767
788.852	3.50891
791.744	2.01767
794.637	1.74945
797.53	1.30368
800.423	2.1608
803.315	0.317352
806.208	3.58972
809.101	1.97873
811.993	0.965088
814.886	0.418488
817.779	0.145508
820.671	0.532715
823.564	0.817047
826.457	1.35788
829.35	1.48547
832.242	0.297058
835.135	1.01825
838.028	0.406189
840.92	0.805267
843.813	0.726959
846.706	0.165955
849.598	0.919739
852.491	0.931061
855.384	2.47226
858.277	0.188751
861.169	0.101135
864.062	0.105408
866.955	1.36096
869.847	4.6615
872.74	2.26694
875.633	2.80942
878.525	5.51926
881.418	5.62265
884.311	3.18576
887.204	5.96652
890.096	7.22632
892.989	10.4394
895.882	12.5798
898.774	18.0372
901.667	23.7982
904.56	23.4217
907.452	19.2171
910.345	16.8021
913.238	12.2899
916.131	7.47955
919.023	6.60672
921.916	2.52377
924.809	1.34122
927.702	1.14841
930.594	1.45236
933.487	1.85175
936.38	2.41065
939.272	3.44308
942.165	4.81457
945.058	5.96802
947.95	5.49383
950.843	5.86618
953.736	4.99225
956.629	4.81564
959.521	2.97006
962.414	1.82767
965.307	3.16772
968.199	1.77725
971.092	2.62338
973.985	0.69342
976.877	2.37344
979.77	2.77148
982.663	1.54413
985.556	2.40515
988.448	0.279327
991.341	1.88614
994.234	0.269928
997.126	1.06808
1000.02	2.19623
1002.91	0.513092
1005.8	0.087524
1008.7	1.03919
1011.59	0.301514
1014.48	1.62686
1017.38	0.240417
1020.27	3.63403
1023.16	4.12952
1026.05	3.62552
1028.95	6.56705
1031.84	6.55032
1034.73	8.79834
1037.62	8.14514
1040.52	6.90219
1043.41	8.24002
1046.3	7.67877
1049.19	6.96762
1052.09	6.15973
1054.98	4.26276
1057.87	3.77341
1060.77	2.27127
1063.66	1.82632
1066.55	2.13513
1069.44	2.25034
1072.34	2.21573
1075.23	0.526764
1078.12	0.141632
1081.02	0.084137
1083.91	0.527252
1086.8	0.067413
1089.69	2.92978
1092.59	2.98917
1095.48	1.327
1098.37	3.01285
1101.26	1.81586
1104.16	3.20789
1107.05	3.58533
1109.94	1.79153
1112.83	3.15381
1115.73	4.65567
1118.62	3.46854
1121.51	0.61615
1124.4	0.650116
1127.3	5.78131
1130.19	2.14844
1133.08	1.31418
1135.98	3.20111
1138.87	2.41989
1141.76	2.06116
1144.65	4.05496
1147.55	5.17755
1150.44	4.59918
1153.33	8.18024
1156.22	4.66162
1159.12	7.07172
1162.01	5.26328
1164.9	4.7561
1167.8	5.074
1170.69	3.94626
1173.58	5.48416
1176.47	4.72992
1179.37	5.07538
1182.26	1.9595
1185.15	4.23498
1188.05	1.10583
1190.94	3.0788
1193.83	2.89648
1196.72	2.3898
1199.62	0.89801
1202.51	0.054169
1205.4	0.427185
1208.29	0.79364
1211.19	0.592255
1214.08	0.367188
1216.97	2.07635
1219.87	3.53766
1222.76	1.40753
1225.65	2.12042
1228.54	1.87091
1231.43	4.41583
1234.33	4.52002
1237.22	6.17996
1240.11	3.48865
1243.01	3.43655
1245.9	2.76166
1248.79	5.97375
1251.68	4.2218
1254.58	3.62921
1257.47	5.02655
1260.36	2.29388
1263.26	3.62128
1266.15	2.96356
1269.04	4.91827
1271.93	5.98322
1274.83	5.74683
1277.72	3.09729
1280.61	1.80487
1283.5	0.042664
1286.4	3.56909
1289.29	3.5968
1292.18	1.96405
1295.08	0.310852
1297.97	1.41449
1300.86	0.013062
