Measurement: Raman, 780 nm, unoriented, Raman Data Processed
Mineral: Kleinite
Rruff sample: R060329
Ideal chemistry: Hg_2_N(Cl,SO_4_)nH_2_O
Locality: McDermott mine, Humboldt County, Nevada, USA
Source: Michael Scott
Description: Light yellow hexagonal prismatic or tabular crystals, associated with orange or dark yellow platy terlinguacreekite.
Raman shift (cm-1)	intensity
90.5957	0
93.9705	165.46
97.3453	225.152
100.72	353.551
104.095	514.145
107.47	565.908
110.845	548.183
114.219	466.594
117.594	434.285
120.969	450.758
124.344	451.3
127.719	376.421
131.094	216.507
134.468	113.846
137.843	46.809
141.218	5.96716
144.593	20.4113
147.968	13.6256
151.342	1.8125
154.717	25.7071
158.092	78.7415
161.467	136.616
164.842	199.62
168.216	250.313
171.591	232.519
174.966	185.596
178.341	131.608
181.716	87.3373
185.09	60.3934
188.465	38.4286
191.84	25.7937
195.215	21.8724
198.59	12.7931
201.965	1.24338
205.339	3.56216
208.714	5.51447
212.089	5.67087
215.464	8.43625
218.839	4.80444
222.214	2.17093
225.588	9.01909
228.963	13.7344
232.338	20.1228
235.713	28.6072
239.088	37.736
242.462	46.4278
245.837	61.8439
249.212	73.3396
252.587	83.3795
255.962	99.4553
259.336	110.173
262.711	118.617
266.086	120.269
269.461	117.75
272.836	108.066
276.211	96.7378
279.585	91.1147
282.96	86.1131
286.335	87.1089
289.71	89.2766
293.085	91.8125
296.459	97.9326
299.834	100.102
303.209	103.757
306.584	107.583
309.959	111.145
313.334	107.133
316.708	109.022
320.083	96.7555
323.458	87.7016
326.833	77.6682
330.207	62.1895
333.582	48.3394
336.957	32.5746
340.332	27.0095
343.707	17.1315
347.082	7.8947
350.456	3.10321
353.831	4.31056
357.206	1.8399
360.581	3.82754
363.956	2.26965
367.33	4.42216
370.705	4.69593
374.08	5.5721
377.455	3.64243
380.83	6.22989
384.205	7.25883
387.579	9.57757
390.954	10.9158
394.329	11.48
397.704	10.9531
401.079	12.3151
404.453	11.2828
407.828	10.2889
411.203	7.90713
414.578	8.36674
417.953	4.27171
421.327	5.90533
424.702	1.65395
428.077	0.283768
431.452	0.622299
434.827	2.87439
438.202	3.39136
441.576	2.52916
444.951	4.51048
448.326	5.77921
451.701	5.43543
455.076	6.83409
458.45	3.34224
461.825	4.49085
465.2	3.43646
468.575	10.9103
471.95	25.7899
475.325	37.3249
478.699	52.198
482.074	76.7199
485.449	103.052
488.824	123.957
492.199	152.709
495.573	182.179
498.948	199.159
502.323	231.119
505.698	262.055
509.073	301.375
512.447	345.42
515.822	406.741
519.197	469.67
522.572	567.503
525.947	669.591
529.322	802.514
532.696	947.516
536.071	1094.85
539.446	1228.72
542.821	1358.19
546.196	1419.53
549.57	1369.52
552.945	1290.73
556.32	1260.78
559.695	1312.19
563.07	1363.11
566.444	1349.04
569.819	1161.49
573.194	927.785
576.569	832.6
579.944	671.934
583.319	409.384
586.693	231.681
590.068	126.76
593.443	70.669
596.818	31.3102
600.193	5.07448
603.567	12.0092
606.942	16.3017
610.317	11.2329
613.692	4.66103
617.067	16.5151
620.442	48.0416
623.816	92.5247
627.191	123.274
630.566	121.095
633.941	90.416
637.316	52.4051
640.69	28.1285
644.065	11.5548
647.44	10.8363
650.815	9.45943
654.19	9.21977
657.564	7.38845
660.939	9.40765
664.314	5.58277
667.689	1.10744
671.064	3.00233
674.439	1.97238
677.813	0.596703
681.188	1.59228
684.563	2.42699
687.938	5.9936
691.313	6.9815
694.688	8.61104
698.062	10.8755
701.437	12.4954
704.812	13.8271
708.187	14.4721
711.562	15.601
714.936	14.8948
718.311	14.7663
721.686	14.0797
725.061	14.6157
728.436	12.2564
731.81	16.0564
735.185	11.9551
738.56	12.4818
741.935	10.8301
745.31	10.8334
748.684	9.33556
752.059	12.2132
755.434	10.4192
758.809	7.10865
762.184	7.90229
765.559	7.09441
768.933	5.86809
772.308	7.11692
775.683	3.51788
779.058	5.43347
782.433	5.96158
785.808	3.49576
789.182	2.3839
792.557	1.96356
795.932	1.34956
799.307	0.618187
802.682	0.666771
806.056	2.04426
809.431	2.06085
812.806	1.32883
816.181	0.487694
819.556	1.00996
822.93	0.186401
826.305	1.55499
829.68	0.382736
833.055	1.75891
836.43	1.11864
839.804	1.20683
843.179	0.488022
846.554	0.253349
849.929	0.356804
853.304	0.89489
856.679	0.695938
860.053	1.5161
863.428	1.04536
866.803	2.09659
870.178	0.540359
873.553	2.11283
876.927	3.96477
880.302	3.36021
883.677	4.21094
887.052	4.42773
890.427	4.50891
893.802	7.8474
897.176	14.5287
900.551	19.605
903.926	25.6904
907.301	24.7547
910.676	20.0874
914.05	12.1542
917.425	6.947
920.8	6.71903
924.175	2.85792
927.55	3.15789
930.924	1.3529
934.299	0.206928
937.674	2.22632
941.049	2.56249
944.424	3.2162
947.799	6.62726
951.173	7.08092
954.548	5.72473
957.923	5.55752
961.298	2.63676
964.673	1.59568
968.047	2.56226
971.422	1.75321
974.797	2.49452
978.172	2.47824
981.547	0.630875
984.922	2.04795
988.296	0.730064
991.671	0.933937
995.046	1.24792
998.421	0.468987
1001.8	0.144882
1005.17	0.594807
1008.54	0.99509
1011.92	2.17387
1015.29	1.81733
1018.67	3.08886
1022.04	3.08418
1025.42	3.03067
1028.79	4.98922
1032.17	3.65678
1035.54	7.34688
1038.92	9.03532
1042.29	11.011
1045.67	10.2943
1049.04	9.84577
1052.42	8.77826
1055.79	10.4915
1059.17	7.64604
1062.54	5.63475
1065.92	3.80567
1069.29	4.07953
1072.67	2.06409
1076.04	4.01967
1079.42	1.687
1082.79	2.01438
1086.17	1.19938
1089.54	2.2016
1092.92	3.00325
1096.29	2.51657
1099.66	0.788937
1103.04	1.97687
1106.41	0.75267
1109.79	2.57805
1113.16	0.962547
1116.54	0.605301
1119.91	1.12113
1123.29	2.20449
1126.66	1.55545
1130.04	0.091988
1133.41	3.69821
1136.79	0.572525
1140.16	2.41745
1143.54	4.03953
1146.91	4.83542
1150.29	2.65083
1153.66	3.2902
1157.04	2.72534
1160.41	3.14715
1163.79	5.00161
1167.16	3.57243
1170.54	4.44909
1173.91	6.64952
1177.29	3.46559
1180.66	4.63215
1184.04	6.0682
1187.41	4.24883
1190.79	3.1442
1194.16	3.96641
1197.54	2.47429
1200.91	4.5447
1204.28	3.71851
1207.66	2.00896
1211.03	2.06633
1214.41	0.538033
1217.78	0.517662
1221.16	0.988712
1224.53	2.33892
1227.91	1.43434
1231.28	1.78049
1234.66	1.47753
1238.03	2.38757
1241.41	1.55924
1244.78	2.81636
1248.16	3.91495
1251.53	2.52725
1254.91	1.35844
1258.28	1.97901
1261.66	0.745628
1265.03	1.17247
1268.41	1.31685
1271.78	0.975872
1275.16	1.44332
1278.53	3.08481
1281.9	1.2432
