Measurement: Raman, 532 nm, unoriented, Raman Data Processed
Mineral: Kleinite
Rruff sample: R150069
Ideal chemistry: Hg_2_N(Cl,SO_4_)nH_2_O
Locality: Terlingua, Brewster County, Texas, USA
Source: Marcus Origlieri
Description: Aggregates of orange-yellow short prismatic or equant crystals
Raman shift (cm-1)	intensity
89.7832	0
93.158	70.0525
96.5328	137.636
99.9077	328.623
103.282	696.072
106.657	899.862
110.032	1231.16
113.407	1620.41
116.782	1788.36
120.157	1665.09
123.531	1520.21
126.906	1396.4
130.281	1272.24
133.656	1142.22
137.031	1021.97
140.405	966.821
143.78	932.691
147.155	1002.42
150.53	759.704
153.905	593.562
157.28	472.174
160.654	332.607
164.029	235.192
167.404	174.679
170.779	108.574
174.154	83.3431
177.528	53.9204
180.903	25.0781
184.278	2.20435
187.653	2.41785
191.028	12.3516
194.403	20.068
197.777	22.4181
201.152	23.3096
204.527	10.1576
207.902	17.3023
211.277	7.62146
214.651	11.6993
218.026	0.922363
221.401	5.19519
224.776	10.184
228.151	11.0269
231.525	11.592
234.9	25.4465
238.275	51.3326
241.65	85.9072
245.025	137.666
248.4	187.789
251.774	240.925
255.149	290.253
258.524	345.091
261.899	401.094
265.274	460.105
268.649	532.954
272.023	623.915
275.398	748.882
278.773	892.268
282.148	1066.31
285.523	1261.93
288.897	1474.72
292.272	1694.8
295.647	1880.64
299.022	1997.58
302.397	1968.94
305.772	1878.08
309.146	1759.53
312.521	1655.04
315.896	1547.57
319.271	1413.14
322.646	1242.66
326.02	1010.81
329.395	740.771
332.77	500.726
336.145	331.232
339.52	226.518
342.894	163.984
346.269	128.308
349.644	103.079
353.019	83.9282
356.394	71.4524
359.769	62.227
363.143	49.5447
366.518	39.415
369.893	24.3053
373.268	15.5566
376.643	4.46655
380.017	1.56946
383.392	2.08374
386.767	2.09924
390.142	1.42273
393.517	10.6957
396.892	7.9154
400.266	6.38733
403.641	5.95667
407.016	4.1239
410.391	11.2395
413.766	5.39929
417.14	7.45166
420.515	13.4579
423.89	17.8396
427.265	27.5721
430.64	34.8215
434.014	56.495
437.389	74.5824
440.764	70.4209
444.139	59.2184
447.514	53.8662
450.889	55.2734
454.263	63.7598
457.638	63.3746
461.013	62.964
464.388	66.415
467.763	71.4558
471.137	79.0205
474.512	79.0791
477.887	75.4736
481.262	65.1077
484.637	51.6068
488.012	30.8145
491.386	9.02295
494.761	5.04358
498.136	16.7634
501.511	13.6257
504.886	4.50342
508.26	21.5314
511.635	55.9971
515.01	100.672
518.385	155.417
521.76	239.343
525.135	368.796
528.509	560.171
531.884	850.112
535.259	1231.63
538.634	1736.15
542.009	2300.32
545.384	2887.6
548.758	3430.48
552.133	3785.64
555.508	3892.62
558.883	3889.53
562.258	3853.01
565.632	3724.27
569.007	3368.2
572.382	2783.93
575.757	2168.61
579.132	1595.82
582.506	1174.38
585.881	856.018
589.256	615.481
592.631	440.04
596.006	314.848
599.381	227.382
602.755	156.083
606.13	105.002
609.505	74.106
612.88	45.7965
616.255	37.4145
619.63	28.2097
623.004	12.2316
626.379	13.3114
629.754	11.4258
633.129	4.77344
636.504	0.770386
639.878	4.37073
643.253	1.05664
646.628	3.48596
650.003	0.68042
653.378	4.69006
656.752	11.9414
660.127	8.81104
663.502	4.41504
666.877	1.73206
670.252	0.466797
673.626	7.22436
677.001	9.62378
680.376	12.6531
683.751	28.7212
687.126	29.7048
690.501	40.7776
693.875	46.3076
697.25	57.0768
700.625	65.7457
704	70.7344
707.375	79.3857
710.75	80.5512
714.124	91.512
717.499	84.3634
720.874	79.7571
724.249	86.5873
727.624	85.804
730.998	77.6137
734.373	73.1808
737.748	73.1913
741.123	65.4014
744.498	67.0469
747.872	62.196
751.247	62.1804
754.622	54.8119
757.997	42.6324
761.372	40.7572
764.747	35.1191
768.121	32.3696
771.496	27.5874
774.871	16.2217
778.246	10.4155
781.621	6.05408
784.995	3.45728
788.37	1.18603
791.745	1.55212
795.12	1.85644
798.495	2.23975
801.87	3.49011
805.244	6.48181
808.619	16.9766
811.994	18.8446
815.369	29.5935
818.744	38.9427
822.119	42.6139
825.493	43.5388
828.868	40.0011
832.243	43.8434
835.618	33.9869
838.993	32.4386
842.367	36.1215
845.742	35.3048
849.117	30.4999
852.492	31.5518
855.867	39.9434
859.241	38.2117
862.616	39.4896
865.991	34.3345
869.366	33.2557
872.741	36.8837
876.115	37.0896
879.49	25.3855
882.865	18.0641
886.24	9.8739
889.615	9.12476
892.99	7.15784
896.364	4.90991
899.739	4.78357
903.114	1.67127
906.489	2.31103
909.864	2.15918
913.239	2.44641
916.613	0.384277
919.988	8.00647
923.363	9.75452
926.738	23.8789
930.113	51.9779
933.487	93.5881
936.862	196.256
940.237	356.198
943.612	641.171
946.987	1099.59
950.361	1077.46
953.736	617.822
957.111	417.548
960.486	293.531
963.861	167.717
967.236	86.1295
970.61	37.6238
973.985	17.2726
977.36	5.01782
980.735	0.63147
984.11	3.96326
987.485	4.49524
990.859	2.33057
994.234	4.78442
997.609	9.35657
1000.98	20.8002
1004.36	39.043
1007.73	41.5953
1011.11	48.6329
1014.48	48.8345
1017.86	44.529
1021.23	32.7838
1024.61	30.2025
1027.98	32.6923
1031.36	25.1558
1034.73	25.9067
1038.11	25.1521
1041.48	24.7963
1044.86	24.8326
1048.23	26.2715
1051.61	37.8346
1054.98	47.9838
1058.36	56.1833
1061.73	68.3422
1065.11	63.8395
1068.48	62.4509
1071.86	38.382
1075.23	25.0846
1078.6	15.9625
1081.98	1.90295
1085.35	6.88061
1088.73	8.21765
1092.1	4.51782
1095.48	8.94812
1098.85	6.724
1102.23	11.0673
1105.6	10.6586
1108.98	11.7867
1112.35	16.4373
1115.73	20.0409
1119.1	19.8132
1122.48	22.5983
1125.85	21.8662
1129.23	13.6947
1132.6	11.7685
1135.98	12.114
1139.35	7.9364
1142.73	6.61206
1146.1	3.28088
1149.48	6.74207
1152.85	6.99292
1156.22	11.8373
1159.6	0.069458
1162.97	0.458496
1166.35	1.86816
1169.72	0.741943
1173.1	0.554443
1176.47	3.41309
1179.85	3.33472
1183.22	0.243652
1186.6	2.82996
1189.97	1.74097
1193.35	4.5802
1196.72	5.65137
1200.1	4.39429
1203.47	1.6571
1206.85	2.59949
1210.22	2.80176
1213.6	3.2096
1216.97	3.49036
1220.35	3.63428
1223.72	7.05591
1227.1	1.41467
1230.47	0.069946
1233.85	8.33765
1237.22	2.76208
1240.6	1.14502
1243.97	5.64136
1247.35	12.1301
1250.72	11.5008
1254.1	11.6161
1257.47	10.5709
1260.85	8.64648
1264.22	4.56482
1267.59	5.02576
1270.97	5.00928
1274.34	5.31433
1277.72	5.2854
1281.09	21.5635
1284.47	0.439575
1287.84	2.34924
1291.22	1.75147
1294.59	8.73242
1297.97	7.21753
1301.34	3.33044
