Measurement: Raman, 780 nm, unoriented, Raman Data Processed
Mineral: Kleinite
Rruff sample: R150069
Ideal chemistry: Hg_2_N(Cl,SO_4_)nH_2_O
Locality: Terlingua, Brewster County, Texas, USA
Source: Marcus Origlieri
Description: Aggregates of orange-yellow short prismatic or equant crystals
Raman shift (cm-1)	intensity
91.5599	0
94.9347	669.703
98.3096	765.465
101.684	1376.43
105.059	2144.25
108.434	2219.64
111.809	2958.73
115.184	3146.04
118.558	2388.02
121.933	1610.61
125.308	1346.13
128.683	1179.68
132.058	849.26
135.433	626.933
138.807	448.931
142.182	271.472
145.557	153.267
148.932	90.5708
152.307	102.749
155.681	126.137
159.056	108.628
162.431	72.2117
165.806	15.0642
169.181	52.7605
172.555	126.781
175.93	185.823
179.305	244.172
182.68	291.634
186.055	336.542
189.43	362.969
192.804	388.634
196.179	410.571
199.554	424.548
202.929	439.969
206.304	449.503
209.678	411.002
213.053	340.039
216.428	262.558
219.803	179.25
223.178	116.955
226.553	70.8406
229.927	46.991
233.302	41.616
236.677	39.2129
240.052	55.4888
243.427	82.6248
246.801	127.593
250.176	165.55
253.551	209.46
256.926	249.323
260.301	282.666
263.675	320.389
267.05	366.637
270.425	428.922
273.8	522.437
277.175	650.396
280.55	811.253
283.924	1008.32
287.299	1273.42
290.674	1572.62
294.049	1911.81
297.424	2162.34
300.798	2277.86
304.173	2263.36
307.548	2271.05
310.923	2367.6
314.298	2503.23
317.673	2679.9
321.047	2760.36
324.422	2583.68
327.797	2097.33
331.172	1407.78
334.547	779.252
337.921	385.081
341.296	189.755
344.671	101.087
348.046	66.969
351.421	44.6106
354.796	39.5857
358.17	34.8877
361.545	14.689
364.92	13.4109
368.295	2.90772
371.67	7.89453
375.044	16.4695
378.419	11.783
381.794	22.0398
385.169	13.9646
388.544	18.9642
391.918	9.10547
395.293	11.426
398.668	3.94275
402.043	2.01636
405.418	2.07056
408.793	9.06152
412.167	14.5548
415.542	15.7784
418.917	30.5012
422.292	62.6416
425.667	75.7587
429.041	102.393
432.416	139.15
435.791	198.835
439.166	227.355
442.541	157.137
445.915	103.359
449.29	91.6017
452.665	92.2753
456.04	75.5803
459.415	48.5139
462.789	19.5536
466.164	10.2253
469.539	13.4919
472.914	23.1248
476.289	30.8777
479.664	51.956
483.038	67.9255
486.413	74.2673
489.788	71.5068
493.163	67.0403
496.538	36.8364
499.913	12.9827
503.287	0.401367
506.662	11.5059
510.037	1.45947
513.412	13.8015
516.787	41.3809
520.161	106.907
523.536	196.214
526.911	350.021
530.286	599.141
533.661	987.056
537.035	1555.9
540.41	2322.05
543.785	3187.59
547.16	3992.44
550.535	4679.57
553.909	5007.04
557.284	4665.09
560.659	4149.52
564.034	3995.68
567.409	4025.3
570.784	3670.9
574.158	2882.74
577.533	2021.36
580.908	1350.25
584.283	924.204
587.658	646.11
591.033	479.057
594.407	380.561
597.782	296.881
601.157	219.685
604.532	169.577
607.907	114.941
611.281	72.0113
614.656	36.4181
618.031	18.5161
621.406	2.96814
624.781	3.63513
628.155	1.59778
631.53	4.61951
634.905	7.04102
638.28	6.50378
641.655	9.63464
645.029	4.2522
648.404	2.83789
651.779	2.66809
655.154	3.49841
658.529	19.9927
661.904	23.1232
665.278	23.5343
668.653	29.1815
672.028	36.3871
675.403	40.5033
678.778	51.1226
682.153	56.7527
685.527	60.4186
688.902	70.0028
692.277	77.1821
695.652	82.559
699.027	75.2575
702.401	75.7637
705.776	76.5254
709.151	76.3148
712.526	74.8962
715.901	77.1997
719.275	74.7213
722.65	75.6298
726.025	71.1792
729.4	73.1588
732.775	71.1919
736.149	72.2678
739.524	62.1106
742.899	58.2333
746.274	51.3939
749.649	46.5511
753.024	47.1013
756.398	40.1141
759.773	32.6835
763.148	30.7167
766.523	28.9819
769.898	21.5794
773.273	17.9377
776.647	16.1987
780.022	13.879
783.397	9.17847
786.772	3.47644
790.146	1.26819
793.521	0.46167
796.896	1.28723
800.271	2.57251
803.646	0.134277
807.021	3.54651
810.395	2.04004
813.77	0.712891
817.145	3.18835
820.52	6.07117
823.895	4.33911
827.269	2.85803
830.644	2.05737
834.019	5.14673
837.394	3.84387
840.769	4.42603
844.144	3.7771
847.518	3.44763
850.893	4.84839
854.268	0.156616
857.643	1.55359
861.018	2.81055
864.393	1.94507
867.767	1.22522
871.142	1.22253
874.517	5.77466
877.892	1.86621
881.266	0.238647
884.641	2.70825
888.016	1.75989
891.391	4.71753
894.766	1.84277
898.141	5.98828
901.515	5.39233
904.89	3.19495
908.265	3.83923
911.64	6.09582
915.015	3.5448
918.389	3.23315
921.764	10.7489
925.139	24.3474
928.514	45.9313
931.889	77.9579
935.264	187.715
938.638	330.839
942.013	537.105
945.388	997.807
948.763	1505.84
952.138	822.051
955.512	395.906
958.887	246.314
962.262	154.079
965.637	76.968
969.012	36.2264
972.386	15.0853
975.761	7.28784
979.136	1.64233
982.511	0.509338
985.886	0.979492
989.261	1.19385
992.635	4.93738
996.01	7.70026
999.385	19.3242
1002.76	26.1752
1006.13	44.475
1009.51	59.8392
1012.88	60.044
1016.26	53.2659
1019.63	45.3585
1023.01	32.0941
1026.38	16.6975
1029.76	10.5884
1033.13	10.1862
1036.51	18.1697
1039.88	16.8206
1043.26	13.39
1046.63	18.8651
1050.01	25.1895
1053.38	43.1959
1056.76	57.5763
1060.13	74.0389
1063.51	79.9341
1066.88	80.259
1070.26	56.7164
1073.63	28.8624
1077.01	19.4241
1080.38	3.22967
1083.76	0.799561
1087.13	0.245972
1090.51	3.08087
1093.88	1.44556
1097.26	4.21716
1100.63	2.69452
1104	4.99341
1107.38	8.35864
1110.75	14.3878
1114.13	13.821
1117.5	21.4496
1120.88	26.402
1124.25	25.549
1127.63	21.3152
1131	21.2826
1134.38	19.1939
1137.75	14.9156
1141.13	16.5447
1144.5	8.12763
1147.88	7.48651
1151.25	13.4132
1154.63	10.3727
1158	10.941
1161.38	4.99463
1164.75	9.75519
1168.13	7.56903
1171.5	6.26007
1174.88	3.79303
1178.25	5.52844
1181.62	11.7474
1185	4.27185
1188.38	7.40826
1191.75	3.33777
1195.12	8.3902
1198.5	4.7055
1201.87	4.99866
1205.25	3.43811
1208.62	4.40485
1212	14.4412
1215.37	7.90521
1218.75	1.89185
1222.12	0.029968
1225.5	5.45288
1228.87	7.11493
1232.25	6.31567
1235.62	2.84906
1239	1.35736
1242.37	1.55743
1245.75	1.55042
1249.12	0.046143
1252.5	8.01843
1255.87	5.21478
1259.25	5.39197
1262.62	7.64404
1265.99	7.86316
1269.37	1.69971
1272.74	4.69189
1276.12	7.55017
1279.49	1.57532
1282.87	5.90399
