Measurement: Raman, 780 nm, unoriented, Raman Data Processed
Mineral: Klockmannite
Rruff sample: R070658
Ideal chemistry: Cu_5.2_Se_6_
Locality: Cacheuta mine, Cerro de Cacheuta, Sierra de Cacheuta, Mendoza, Argentina
Source: Michael Scott
Description: Metallic steel-gray granular aggregates with dull blue-green tarnish associated with umangite mounted in epoxy disc
Raman shift (cm-1)	intensity
122.72	0
125.613	117.165
128.506	277.804
131.398	130.1
134.291	107.561
137.184	234.795
140.076	227.603
142.969	167.665
145.862	234.501
148.755	123.93
151.647	148.436
154.54	109.168
157.433	40.5342
160.325	24.0889
163.218	74.1719
166.111	34.8291
169.003	83.6943
171.896	16.5967
174.789	78.7978
177.681	161.967
180.574	127.951
183.467	273.033
186.36	355.597
189.252	310.341
192.145	469.411
195.038	340.141
197.93	344.606
200.823	271.657
203.716	166.739
206.608	193.71
209.501	88.3457
212.394	139.86
215.287	180.689
218.179	167.228
221.072	81.3711
223.965	38.6728
226.857	73.1582
229.75	87.6299
232.643	76.5674
235.536	121.055
238.428	208.745
241.321	488.281
244.214	712.494
247.106	1071.39
249.999	1541.06
252.892	1980.34
255.784	2539.31
258.677	2904.98
261.57	2461.32
264.462	1432.62
267.355	576.298
270.248	245.114
273.141	73.8584
276.033	128.366
278.926	29.7119
281.819	14.2861
284.711	80.6387
287.604	44.1728
290.497	56.582
293.389	3.72461
296.282	76.5039
299.175	99.6397
302.068	59.2783
304.96	83.665
307.853	105.935
310.746	76.8965
313.639	109.261
316.531	62.5029
319.424	68.9492
322.317	63.9873
325.209	2.85352
328.102	30.9609
330.995	25.9883
333.887	42.4932
336.78	68.8916
339.673	10.2891
342.565	91.4307
345.458	21.2744
348.351	71.9356
351.244	11.5693
354.136	28.4404
357.029	9.01758
359.922	36.4062
362.814	40.3164
365.707	63.1787
368.6	109.975
371.493	7.22461
374.385	71.3428
377.278	88.9727
380.171	116.309
383.063	77.0381
385.956	16.0654
388.849	4.41309
391.741	58.3525
394.634	110.266
397.527	54.8867
400.42	91.7549
403.312	97.208
406.205	100.616
409.098	96.1084
411.99	130.102
414.883	82.6728
417.776	142.371
420.668	105.114
423.561	102.382
426.454	32.3877
429.346	95.3164
432.239	76.193
435.132	126.594
438.025	161.174
440.917	148.276
443.81	118.865
446.703	29.1035
449.595	134.592
452.488	98.2578
455.381	61.8369
458.274	78.1533
461.166	132.135
464.059	44.4053
466.952	123.201
469.844	116.439
472.737	76.9902
475.63	37.5645
478.522	27.0713
481.415	19.4141
484.308	54.7539
487.2	136.09
490.093	128.429
492.986	134.721
495.879	65.0439
498.771	41.999
501.664	51.2705
504.557	57.459
507.449	77.7441
510.342	157.424
513.235	121.601
516.128	168.918
519.02	172.239
521.913	83.6748
524.806	93.5644
527.698	152.389
530.591	75.0098
533.484	85.332
536.376	9.5625
539.269	54.8994
542.162	2.24902
545.055	118.843
547.947	19.79
550.84	4.19922
553.733	15.3848
556.625	52.8164
559.518	83.1826
562.411	48.6963
565.303	27.1865
568.196	78.4941
571.089	56.9502
573.982	105.075
576.874	71.8232
579.767	6.2168
582.66	145.111
585.552	34.3516
588.445	56.9971
591.338	62.2432
594.231	13.1123
597.123	49.582
600.016	74.8135
602.909	53.1621
605.801	28.9951
608.694	68.5908
611.587	9.5498
614.479	55.0234
617.372	124.012
620.265	55.6514
623.158	119.262
626.05	121.145
628.943	86.0947
631.836	91.1279
634.728	45.6055
637.621	90.4668
640.514	3.75879
643.406	103.703
646.299	86.4238
649.192	26.4834
652.085	40.7188
654.977	74.5371
657.87	19.5811
660.763	48.0625
663.655	105.085
666.548	51.5518
669.441	112.669
672.333	48.3174
675.226	130.452
678.119	40.0312
681.011	130.273
683.904	150.035
686.797	120.33
689.69	96.6807
692.582	38.5205
695.475	110.613
698.368	50.6162
701.26	113.023
704.153	34.9766
707.046	22.3223
709.938	104.344
712.831	34.4961
715.724	89.3769
718.617	43.0977
721.509	72.2031
724.402	146.102
727.295	65.1934
730.187	69.5498
733.08	89.3897
735.973	22.1182
738.865	14.5156
741.758	27.3701
744.651	92.6416
747.544	80.7246
750.436	133.289
753.329	84.4082
756.222	43.2627
759.114	109.807
762.007	109.226
764.9	41.5791
767.793	161.383
770.685	14.6162
773.578	94.6231
776.471	36.5752
779.363	15.2744
782.256	10.085
785.149	76.7686
788.041	54.7627
790.934	79.6904
793.827	64.0859
796.72	27.9883
799.612	36.0518
802.505	78.4873
805.398	9.89551
808.29	52.9629
811.183	29.0439
814.076	16.4199
816.968	68.4336
819.861	93.3115
822.754	99.8066
825.646	51.5879
828.539	63.1426
831.432	91.6221
834.325	61.7578
837.217	129.823
840.11	58.5
843.003	124.138
845.895	36.9717
848.788	82.8369
851.681	48.7344
854.574	55.1777
857.466	95.4307
860.359	125.419
863.252	1.32227
866.144	44.4062
869.037	35.3691
871.93	110.986
874.822	73.9717
877.715	69.7012
880.608	30.0576
883.501	56.5654
886.393	85.4717
889.286	22.2725
892.179	45.9346
895.071	178.949
897.964	27.6328
900.857	119.762
903.75	65.917
906.642	47.0693
909.535	115.515
912.428	40.3535
915.32	113.362
918.213	27.6025
921.106	100.397
923.998	33.1484
926.891	38.9473
929.784	19.5264
932.677	1.22363
935.569	103.286
938.462	96.1269
941.355	10.9766
944.247	79.9258
947.14	117.276
950.033	73.0283
952.925	59.8565
955.818	72.6318
958.711	113.744
961.604	106.322
964.496	5.36621
967.389	55.2383
970.282	39.2978
973.174	56.3164
976.067	72.3174
978.96	154.667
981.852	47.707
984.745	46.043
987.638	52.6904
990.53	44.5869
993.423	33.127
996.316	33.833
999.209	14.2451
1002.1	52.9541
1004.99	62.2822
1007.89	55.9551
1010.78	59.4141
1013.67	83.6768
1016.57	28.7871
1019.46	44.9541
1022.35	91.6885
1025.24	117.498
1028.14	82.4385
1031.03	31.0908
1033.92	72.1885
1036.81	63.1621
1039.71	62.248
1042.6	68.8301
1045.49	98.0215
1048.38	152.977
1051.28	119.031
1054.17	102.158
1057.06	104.581
1059.95	122.189
1062.85	201.917
1065.74	87.0547
1068.63	113.257
1071.53	91.6178
1074.42	32.5142
1077.31	78.4495
1080.2	76.1884
1083.1	72.9473
1085.99	36.9892
1088.88	46.7861
1091.78	9.16233
1094.67	39.8322
1097.56	87.582
1100.45	47.3076
1103.35	46.9062
1106.24	52.6768
1109.13	82.1269
1112.02	35.873
1114.92	94.0859
1117.81	30.2676
1120.7	36.9453
1123.6	40.4746
1126.49	155.387
1129.38	90.7559
1132.27	139.705
1135.17	152.28
1138.06	99.8633
1140.95	160.212
1143.84	168.522
1146.74	160.131
1149.63	110.09
1152.52	120.231
1155.41	59.7588
1158.31	94.915
1161.2	110.688
1164.09	120.144
1166.98	193.091
1169.88	150.57
1172.77	193.226
1175.66	117.439
1178.56	182.772
1181.45	123.277
1184.34	149.252
1187.23	106.17
1190.13	107.381
1193.02	147.65
1195.91	132.097
1198.81	146.649
1201.7	67.3926
1204.59	106.885
1207.48	112.905
1210.38	45.9316
1213.27	58.7852
1216.16	114.962
1219.05	211.772
1221.95	14.8779
1224.84	48.2725
1227.73	42.543
1230.62	2.55371
1233.52	43.3848
1236.41	7.21289
1239.3	5.40137
1242.2	20.9404
1245.09	67.8125
1247.98	52.6855
1250.87	27.1084
1253.77	187.876
1256.66	104.076
1259.55	11.7334
1262.44	68.8272
1265.34	51.7734
