Measurement: Raman, 532 nm, unoriented, Raman Data Processed
Mineral: Klockmannite
Rruff sample: R070658
Ideal chemistry: Cu_5.2_Se_6_
Locality: Cacheuta mine, Cerro de Cacheuta, Sierra de Cacheuta, Mendoza, Argentina
Source: Michael Scott
Description: Metallic steel-gray granular aggregates with dull blue-green tarnish associated with umangite mounted in epoxy disc
Raman shift (cm-1)	intensity
131.201	0
134.575	24.5547
137.95	122.364
141.325	137.348
144.7	107.223
148.075	238.408
151.449	160.768
154.824	111.914
158.199	19.375
161.574	63.3818
164.949	58.1748
168.323	18.0732
171.698	13.1602
175.073	119.627
178.448	106.449
181.823	105.864
185.198	190.7
188.572	154.334
191.947	174.064
195.322	127.986
198.697	92.8872
202.072	78.9199
205.446	30.7422
208.821	30.9155
212.196	75.6394
215.571	21.5776
218.946	34.8315
222.321	38.8386
225.695	36.0586
229.07	71.7297
232.445	134.875
235.82	113.985
239.195	315.615
242.57	598.585
245.944	1124.47
249.319	1706.48
252.694	2112.97
256.069	2805.76
259.443	3809.36
262.818	3750.47
266.193	2015.32
269.568	826.294
272.943	454.575
276.318	310.844
279.692	293.225
283.067	322.679
286.442	265.438
289.817	277.733
293.192	344.715
296.567	299.707
299.941	268.837
303.316	293.413
306.691	269.649
310.066	283.456
313.441	303.124
316.815	333.413
320.19	340.785
323.565	325.137
326.94	285.536
330.315	232.803
333.69	224.572
337.064	150.034
340.439	96.0071
343.814	141.237
347.189	129.725
350.564	100.652
353.938	144.836
357.313	22.6589
360.688	95.5818
364.063	48.9641
367.438	73.6585
370.812	0.598633
374.187	28.7686
377.562	30.719
380.937	26.6328
384.312	0.703613
387.687	23.6787
391.061	12.6653
394.436	3.15478
397.811	1.69409
401.186	28.7605
404.561	36.3565
407.935	6.40161
411.31	11.0054
414.685	44.1187
418.06	82.478
421.435	34.2771
424.81	55.1719
428.184	44.2188
431.559	57.8513
434.934	76.8921
438.309	116.121
441.684	84.4006
445.058	124.497
448.433	171.365
451.808	72.0212
455.183	62.3706
458.558	106.098
461.933	29.6851
465.307	34.3403
468.682	79.5608
472.057	55.4456
475.432	96.0535
478.807	0.200928
482.181	70.583
485.556	48.3914
488.931	101.235
492.306	64.4182
495.681	50.106
499.055	97.1856
502.43	18.7048
505.805	148.163
509.18	168.459
512.555	194.69
515.929	246.397
519.304	156.672
522.679	89.8591
526.054	96.374
529.429	117.388
532.804	35.5955
536.178	83.6692
539.553	22.1375
542.928	27.0254
546.303	64.8972
549.678	77.0256
553.053	16.4761
556.427	73.4551
559.802	21.2759
563.177	4.34155
566.552	81.5041
569.927	12.979
573.301	50.7747
576.676	19.4373
580.051	34.676
583.426	20.1352
586.801	76.4771
590.176	63.3413
593.55	40.8569
596.925	57.7112
600.3	41.2178
603.675	43.448
607.05	95.8796
610.424	122.616
613.799	119.124
617.174	81.6055
620.549	101.683
623.924	54.5911
627.298	44.1877
630.673	45.2949
634.048	84.468
637.423	69.0593
640.798	74.739
644.173	80.5796
647.547	63.3
650.922	63.4922
654.297	83.5942
657.672	5.97314
661.047	31.9893
664.421	30.6941
667.796	43.2539
671.171	57.4065
674.546	51.8655
677.921	70.105
681.295	39.2197
684.67	68.5269
688.045	33.0964
691.42	32.5915
694.795	63.3767
698.17	31.1089
701.544	49.0249
704.919	0.180908
708.294	29.4399
711.669	11.5059
715.044	16.6963
718.418	21.4883
721.793	45.5269
725.168	27.7656
728.543	58.7241
731.918	46.5869
735.293	30.7864
738.667	18.9688
742.042	18.812
745.417	46.2749
748.792	55.9285
752.167	13.9995
755.541	83.78
758.916	47.4885
762.291	45.5322
765.666	17.8474
769.041	41.6887
772.415	56.8535
775.79	126.09
779.165	64.6614
782.54	48.707
785.915	38.2866
789.29	4.15527
792.664	19.2725
796.039	57.0244
799.414	73.7644
802.789	61.4839
806.164	19.105
809.538	19.8066
812.913	132.284
816.288	35.5486
819.663	14.1126
823.038	51.096
826.413	96.4556
829.787	71.3618
833.162	16.8459
836.537	46.7505
839.912	56.7305
843.287	73.5779
846.661	23.7771
850.036	37.4941
853.411	71.1003
856.786	52.3242
860.161	54.2854
863.535	31.5896
866.91	31.2507
870.285	5.31763
873.66	45.6287
877.035	1.74414
880.41	13.1155
883.784	31.4211
887.159	3.927
890.534	38.1582
893.909	35.5823
897.284	44.1843
900.659	51.0745
904.033	45.8225
907.408	39.2529
910.783	40.6755
914.158	38.3335
917.533	3.07373
920.907	71.3796
924.282	72.9946
927.657	12.0593
931.032	74.7986
934.407	35.6809
937.782	69.6638
941.156	66.7114
944.531	8.89307
947.906	33.2229
951.281	41.719
954.656	64.5969
958.03	79.2712
961.405	50.332
964.78	107.12
968.155	107.663
971.53	51.7647
974.904	24.9209
978.279	37.8469
981.654	21.854
985.029	41.646
988.404	18.8809
991.779	28.3245
995.153	54.1965
998.528	30.8923
1001.9	75.2678
1005.28	79.6426
1008.65	30.4453
1012.03	50.0842
1015.4	11.3626
1018.78	9.41773
1022.15	35.2773
1025.53	101.761
1028.9	26.5425
1032.28	10.4517
1035.65	41.5295
1039.03	6.67358
1042.4	32.8533
1045.78	4.85718
1049.15	11.0457
1052.53	61.9954
1055.9	59.4888
1059.28	56.5737
1062.65	13.397
1066.03	72.9143
1069.4	26.3472
1072.77	21.7141
1076.15	38.0947
1079.52	61.5278
1082.9	41.8779
1086.27	41.052
1089.65	18.136
1093.02	8.08911
1096.4	3.00757
1099.77	43.2883
1103.15	24.77
1106.52	28.1011
1109.9	4.70801
1113.27	49.5727
1116.65	36.6455
1120.02	39.5874
1123.4	51.2217
1126.77	48.9072
1130.15	83.9736
1133.52	117.387
1136.9	142.29
1140.27	97.6211
1143.64	110.871
1147.02	160.162
1150.39	194.018
1153.77	169.182
1157.14	175.523
1160.52	158.634
1163.89	234.592
1167.27	103.247
1170.64	146.626
1174.02	138.818
1177.39	120.284
1180.77	81.6943
1184.14	116.783
1187.52	82.2046
1190.89	53.7134
1194.27	116.555
1197.64	25.8281
1201.02	19.251
1204.39	40.1953
1207.77	44.8081
1211.14	76.2822
1214.52	32.1148
1217.89	24.4292
1221.27	17.7568
1224.64	59.9375
1228.02	51.2515
1231.39	20.2158
1234.77	0.324707
1238.14	20.3076
1241.52	45.23
1244.89	50.187
1248.27	59.9263
1251.64	27.6387
1255.01	71.9082
1258.39	6.38672
1261.76	23.416
1265.14	3.72559
1268.51	61.9517
1271.89	3.33301
1275.26	71.2173
1278.64	52.5415
1282.01	92.2622
1285.39	67.7954
1288.76	91.0986
1292.14	97.4961
1295.51	136.359
1298.89	72.6138
1302.26	4.94727
