Measurement: Raman, 785 nm, unoriented, Raman Data Processed
Mineral: Koenenite
Rruff sample: R060989
Ideal chemistry: Na_4_Mg_9_Al_4_Cl_12_(OH)_22_
Locality: Grauer Salzton, Bergmannssegen Quarry, Lehrte, near Hannover, Germany
Source: Michael Scott
Description: Aggregate of orange tabular crystals showing a micaceous cleavage.
Raman shift (cm-1)	intensity
140.813	0
143.705	69.2425
146.598	328.585
149.491	707.691
152.383	771.907
155.276	668.146
158.169	515.131
161.062	483.678
163.954	464.807
166.847	518.246
169.74	492.253
172.632	403.887
175.525	333.888
178.418	273.708
181.31	240.861
184.203	246.524
187.096	301.904
189.989	373.636
192.881	557.795
195.774	951.013
198.667	1000.99
201.559	742.764
204.452	569.499
207.345	555.399
210.238	474.962
213.13	285.574
216.023	142.762
218.916	42.5741
221.808	40.6903
224.701	19.0139
227.594	7.42206
230.486	22.7554
233.379	2.5625
236.272	31.4103
239.165	21.1783
242.057	25.0991
244.95	3.36414
247.843	64.0742
250.735	71.3036
253.628	14.8271
256.521	23.0405
259.413	13.6291
262.306	6.90045
265.199	18.2073
268.091	2.15625
270.984	37.1409
273.877	40.9691
276.769	0.565063
279.662	26.3729
282.555	96.3598
285.448	124.168
288.34	47.5966
291.233	106.766
294.126	234.198
297.018	360.002
299.911	484.022
302.804	441.941
305.697	324.311
308.589	240.409
311.482	146.663
314.375	121.301
317.267	156.672
320.16	208.39
323.053	291.13
325.945	254.746
328.838	139.579
331.731	114.668
334.623	133.579
337.516	102.133
340.409	72.7344
343.302	77.927
346.194	67.5881
349.087	31.9372
351.98	37.6708
354.872	36.3263
357.765	101.991
360.658	176.43
363.55	293.479
366.443	440.294
369.336	375.292
372.229	249.03
375.121	140.24
378.014	127.086
380.907	205.471
383.799	309.735
386.692	458.012
389.585	706.681
392.478	854.965
395.37	569.195
398.263	275.447
401.156	165.043
404.048	85.5313
406.941	51.2177
409.834	34.9518
412.726	40.7019
415.619	26.7712
418.512	15.1786
421.404	3.18634
424.297	5.61505
427.19	14.2067
430.083	6.88934
432.975	4.23303
435.868	60.9888
438.761	71.4324
441.653	87.8859
444.546	154.425
447.439	155.21
450.332	108.701
453.224	101.52
456.117	73.5463
459.01	72.8415
461.902	102.394
464.795	132.628
467.688	181.472
470.58	204.337
473.473	193.339
476.366	195.584
479.258	169.111
482.151	141.943
485.044	131.834
487.937	163.488
490.829	161.137
493.722	125.087
496.615	84.6051
499.507	86.7094
502.4	25.4377
505.293	25.3018
508.185	9.17535
511.078	3.76166
513.971	2.2359
516.864	12.5278
519.756	17.2724
522.649	17.5249
525.542	48.0367
528.434	97.8378
531.327	112.985
534.22	149.599
537.112	277.048
540.005	456.896
542.898	806.374
545.79	1453.51
548.683	2618.79
551.576	3933.82
554.469	4559.73
557.361	3735.47
560.254	2487.01
563.147	1631.25
566.039	1101.65
568.932	766.513
571.825	596.358
574.717	409.224
577.61	265.044
580.503	149.7
583.396	100.517
586.288	15.4527
589.181	15.5832
592.074	17.0419
594.966	30.6757
597.859	21.2644
600.752	20.8308
603.644	60.99
606.537	90.0853
609.43	165.815
612.323	209.475
615.215	312.252
618.108	378.303
621.001	477.767
623.893	516.624
626.786	600.238
629.679	632.478
632.571	653.177
635.464	643.55
638.357	576.266
641.25	472.632
644.142	395.821
647.035	349.335
649.928	284.48
652.82	256.543
655.713	194.125
658.606	200.235
661.498	183.4
664.391	106.386
667.284	177.699
670.177	191.388
673.069	185.964
675.962	191.416
678.855	156.086
681.747	107.46
684.64	75.3841
687.533	26.7933
690.425	23.9291
693.318	15.074
696.211	23.0322
699.104	11.9119
701.996	11.7706
704.889	24.5499
707.782	10.7005
710.674	20.7473
713.567	40.2169
716.46	26.5499
719.352	67.683
722.245	46.9332
725.138	72.4568
728.03	71.5996
730.923	65.9606
733.816	39.0563
736.709	35.4254
739.601	0.028259
742.494	19.153
745.387	7.79858
748.279	9.46863
751.172	6.11731
754.065	4.29413
756.957	0.086212
759.85	7.76404
762.743	2.60294
765.636	11.728
768.528	7.98776
771.421	18.3049
774.314	31.4349
777.206	40.731
780.099	30.4975
782.992	41.0855
785.885	31.0611
788.777	25.9233
791.67	18.8902
794.563	48.2203
797.455	0.577545
800.348	9.28967
803.241	31.6379
806.133	50.5451
809.026	115.575
811.919	162.204
814.812	202.531
817.704	228.073
820.597	242.362
823.49	223.117
826.382	185.208
829.275	158.557
832.168	166.566
835.06	158.46
837.953	166.628
840.846	185.614
843.738	182.103
846.631	182.81
849.524	179.151
852.417	151.412
855.309	124.129
858.202	117.592
861.095	89.6011
863.987	49.7572
866.88	37.7346
869.773	59.6965
872.665	52.1237
875.558	60.0038
878.451	59.2318
881.343	58.9084
884.236	50.4533
887.129	30.9297
890.022	29.874
892.914	42.3099
895.807	44.2087
898.7	54.5932
901.592	27.5522
904.485	0.262482
907.378	2.06192
910.27	8.39978
913.163	13.6049
916.056	2.73938
918.949	18.4004
921.841	10.3634
924.734	12.0627
927.627	29.0728
930.519	32.9314
933.412	65.4125
936.305	70.1465
939.197	80.431
942.09	90.6491
944.983	115.961
947.875	108.263
950.768	141.489
953.661	104.44
956.554	120.672
959.446	111.662
962.339	106.049
965.232	87.7741
968.125	85.5876
971.017	77.9848
973.91	75.8728
976.803	40.2777
979.695	12.778
982.588	38.6514
985.481	26.1967
988.373	9.82901
991.266	0.742371
994.159	32.5867
997.052	40.4727
999.944	49.7156
1002.84	35.4327
1005.73	33.2614
1008.62	23.9754
1011.51	27.598
1014.41	28.0109
1017.3	45.9345
1020.19	26.7699
1023.09	0.95723
1025.98	0.487488
1028.87	10.5025
1031.76	41.1831
1034.66	19.3782
1037.55	15.2228
1040.44	17.4577
1043.34	24.6482
1046.23	22.4394
1049.12	6.49438
1052.01	5.67177
1054.9	18.8766
1057.8	2.36301
1060.69	10.2423
1063.58	10.7596
1066.48	3.85136
1069.37	20.6019
1072.26	4.52402
1075.15	38.2931
1078.05	10.5423
1080.94	9.42659
1083.83	20.6327
1086.72	8.18611
1089.62	38.6869
1092.51	18.0775
1095.4	34.9858
1098.3	28.6572
1101.19	12.4756
1104.08	29.7204
1106.97	11.9335
1109.87	39.3625
1112.76	15.7452
1115.65	18.6452
1118.55	2.45048
1121.44	5.87006
1124.33	19.5167
1127.22	23.0137
1130.12	23.0875
1133.01	33.1416
1135.9	21.2441
1138.79	8.23103
1141.69	37.2805
1144.58	15.5343
1147.47	9.98256
1150.37	12.6202
1153.26	9.71234
1156.15	35.2775
1159.04	30.8975
1161.93	35.137
1164.83	16.8145
1167.72	42.9887
1170.61	14.2571
1173.51	15.9724
1176.4	28.3874
1179.29	28.2742
1182.18	15.9389
1185.08	14.5713
1187.97	21.1214
1190.86	50.5516
1193.76	11.0158
1196.65	44.0689
1199.54	18.8468
1202.43	22.0609
1205.33	36.1588
1208.22	21.9398
1211.11	4.71041
1214	37.4193
1216.9	25.5578
1219.79	16.8318
1222.68	7.3689
1225.58	44.9583
1228.47	9.84629
1231.36	52.5068
1234.25	46.5224
1237.14	14.0773
1240.04	39.5276
1242.93	15.1597
1245.82	29.9285
1248.72	13.9249
1251.61	25.7895
1254.5	30.0813
1257.39	23.9248
1260.29	6.65226
1263.18	46.8094
1266.07	18.9676
1268.96	23.7522
1271.86	0
