Measurement: Raman, 532 nm, unoriented, Raman Data Processed
Mineral: Kolbeckite
Rruff sample: R060981
Ideal chemistry: ScPO_4_2H_2_O
Locality: Hot Springs County, Arkansas, USA
Source: Bob Jenkins
Description: Greenish-yellow prismatic single crystal. Used in the Yang et al (2007) study
Measured chemistry: (Sc_0.94_V^3+^_0.03_Fe^3+^_0.02_Al_0.01_)_Σ=1_P_1.00_O_4_·2H_2_O
Raman shift (cm-1)	intensity
136.468	0
139.843	320.076
143.217	1149.1
146.592	1394.16
149.967	1113.1
153.342	627.344
156.717	645.936
160.091	737.337
163.466	879.262
166.841	802.675
170.216	610.738
173.591	567.551
176.965	580.212
180.34	817.776
183.715	910.552
187.09	1068.52
190.465	1148.1
193.84	1297.35
197.214	1077.8
200.589	1070.28
203.964	1290.51
207.339	1343.17
210.714	1522.32
214.089	1487.31
217.463	1257.72
220.838	815.383
224.213	290.897
227.588	22.0234
230.963	98.6602
234.337	125.74
237.712	119.344
241.087	20.4199
244.462	263.18
247.837	489.533
251.212	719.402
254.586	1128.32
257.961	1336.91
261.336	1341.61
264.711	1118.17
268.086	941.717
271.46	912.506
274.835	990.314
278.21	951.594
281.585	747.762
284.96	526.008
288.334	457.488
291.709	512.17
295.084	646.248
298.459	964.598
301.834	1530.64
305.209	2330.35
308.583	2891.49
311.958	3429.07
315.333	3707.3
318.708	3985.66
322.083	4089.11
325.457	3957.4
328.832	3417.35
332.207	2810.56
335.582	2149.28
338.957	1714.21
342.332	1230.75
345.706	701.674
349.081	389.434
352.456	275.082
355.831	84.957
359.206	5.18164
362.58	34.2129
365.955	56.3145
369.33	10.6875
372.705	100.102
376.08	135.449
379.454	369.588
382.829	607.562
386.204	1046.13
389.579	1613.21
392.954	1937.77
396.329	2144.6
399.703	2225.53
403.078	1887.7
406.453	1737.07
409.828	1541.1
413.203	1552.07
416.577	1576.37
419.952	1768.05
423.327	2188.24
426.702	2643.16
430.077	3207.47
433.452	3862.77
436.826	4377.81
440.201	4776.5
443.576	4935.46
446.951	4323.74
450.326	3682.06
453.7	3163.89
457.075	2708.33
460.45	2332.59
463.825	1951.82
467.2	1551.74
470.575	1184.28
473.949	747.494
477.324	521.523
480.699	337.984
484.074	344.184
487.449	160.35
490.823	61.7715
494.198	32.7285
497.573	138.039
500.948	49.6602
504.323	65.8789
507.697	11.0664
511.072	71.8457
514.447	173.225
517.822	360.641
521.197	521.756
524.572	570.309
527.946	785.381
531.321	950.936
534.696	1170.38
538.071	1360.33
541.446	1689.38
544.82	2110.02
548.195	2492.91
551.57	2640.85
554.945	2629.3
558.32	2492.88
561.694	2495.12
565.069	2510.23
568.444	2394.49
571.819	2247.41
575.194	2092.64
578.568	1891.51
581.943	1783.29
585.318	1497.55
588.693	1268.37
592.068	993.996
595.443	935.865
598.817	777.783
602.192	865.109
605.567	877.016
608.942	850.547
612.317	811.252
615.692	884.104
619.066	959.014
622.441	1146.37
625.816	1025.31
629.191	958.121
632.566	752.221
635.94	720.277
639.315	737.934
642.69	548.705
646.065	726.57
649.44	754.613
652.814	688.994
656.189	459.629
659.564	476.584
662.939	201.297
666.314	262.66
669.688	161.924
673.063	21.7812
676.438	87.0527
679.813	32.5059
683.188	9.93359
686.563	42.7695
689.937	57.0762
693.312	59.6523
696.687	92.1328
700.062	48.6797
703.437	66.8848
706.812	97.4473
710.186	25.2129
713.561	9.85547
716.936	177.853
720.311	85.3438
723.686	96.3984
727.06	90.25
730.435	71.5781
733.81	110.58
737.185	98.916
740.56	102.762
743.934	128.805
747.309	291.719
750.684	159.185
754.059	63.9688
757.434	31.3906
760.809	106.631
764.183	61.1484
767.558	25.6758
770.933	113.066
774.308	20.2754
777.683	61.8047
781.057	154.914
784.432	12.9883
787.807	205.062
791.182	248.809
794.557	447.312
797.932	276.928
801.306	225.455
804.681	339.621
808.056	325.603
811.431	300.447
814.806	383.678
818.18	381.572
821.555	374.803
824.93	392.812
828.305	591.293
831.68	516.678
835.054	545.598
838.429	423.822
841.804	436.416
845.179	542.865
848.554	186.018
851.929	72.5527
855.303	201.801
858.678	394.893
862.053	556.324
865.428	609.541
868.803	687.312
872.178	839.627
875.552	875.057
878.927	1197.2
882.302	1254.62
885.677	1362.41
889.052	1481.49
892.426	1760.92
895.801	1653.02
899.176	1327.77
902.551	923.432
905.926	713.307
909.3	536.6
912.675	341.713
916.05	135.953
919.425	177.523
922.8	152.65
926.174	132.736
929.549	165.69
932.924	37.291
936.299	134.922
939.674	110.449
943.049	158.553
946.423	8.07812
949.798	154.565
953.173	47.0137
956.548	108.353
959.923	283.592
963.298	361.977
966.672	650.229
970.047	1020.49
973.422	1794.02
976.797	2457.64
980.172	3246.71
983.546	4217.05
986.921	5211.56
990.296	6667.56
993.671	8216.66
997.046	9933.64
1000.42	11712.2
1003.79	13263.1
1007.17	14888.3
1010.54	15793.2
1013.92	16029.7
1017.29	15419.8
1020.67	14815.4
1024.04	14454.1
1027.42	14426.2
1030.79	15149.4
1034.17	16470.5
1037.54	18528.7
1040.92	20252.1
1044.29	20554.3
1047.67	18912.1
1051.04	15169.8
1054.42	11280.6
1057.79	7820.29
1061.17	5053.5
1064.54	3020.61
1067.92	1822.46
1071.29	1100.4
1074.67	550.629
1078.04	33.3203
1081.42	49.9688
1084.79	13.668
1088.17	47.4609
1091.54	46.6562
1094.91	86.2109
1098.29	37.1211
1101.66	59.793
1105.04	75.4219
1108.41	141.922
1111.79	23.1172
1115.16	5.88672
1118.54	34.1094
1121.91	109.705
1125.29	193.217
1128.66	462.736
1132.04	444.232
1135.41	368.193
1138.79	263.113
1142.16	190.34
1145.54	32.6113
1148.91	97.2519
1152.29	183.107
1155.66	186.125
1159.04	128.469
1162.41	64.8945
1165.79	27.0664
1169.16	73.8418
1172.54	131.188
1175.91	57.123
1179.29	296.998
1182.66	283.209
1186.04	178.584
1189.41	350.435
1192.79	165.504
1196.16	179.297
1199.54	178.897
1202.91	254.652
1206.28	477.76
1209.66	386.143
1213.03	366.379
1216.41	450.373
1219.78	393.555
1223.16	311.641
1226.53	383.758
1229.91	312.781
1233.28	300.867
1236.66	382.848
1240.03	345.644
1243.41	351.812
1246.78	416.144
1250.16	294.793
1253.53	387.281
1256.91	278.695
1260.28	65.9766
1263.66	40.875
1267.03	84.0391
1270.41	369.586
1273.78	373.449
1277.15	725.375
1280.53	294.16
1283.9	242.91
1287.28	124.824
1290.65	221.949
1294.03	31.293
