Measurement: Raman, 532 nm, unoriented, Raman Data Processed
Mineral: Kolbeckite
Rruff sample: R061040
Ideal chemistry: ScPO_4_2H_2_O
Locality: Christy Pit, Magnet Cove, Arkansas, USA
Source: Mark Mauthner
Description: Green platy crystal, severely twinned, associated with quartz.
Raman shift (cm-1)	intensity
121.04	0
124.415	78.0135
127.79	128.805
131.165	105.808
134.539	196.613
137.914	455.334
141.289	660.258
144.664	697.85
148.038	677.095
151.413	527.781
154.788	486.498
158.163	417.086
161.538	368.166
164.913	257.433
168.287	140.258
171.662	87.7158
175.037	110.83
178.412	229.045
181.787	329.726
185.161	392.68
188.536	441.347
191.911	536.164
195.286	612.761
198.661	754.158
202.036	983.208
205.41	1388.11
208.785	1901.48
212.16	2375.55
215.535	2473.93
218.91	1794.91
222.285	830.037
225.659	264.089
229.034	20.5178
232.409	111.795
235.784	81.9981
239.159	2.75049
242.533	188.181
245.908	540.309
249.283	1026.65
252.658	1594.21
256.033	2095.74
259.407	2171.85
262.782	1405.09
266.157	801.048
269.532	580.082
272.907	555.719
276.281	508.576
279.656	408.622
283.031	358.124
286.406	393.439
289.781	558.62
293.156	890.669
296.53	1496.35
299.905	2476.12
303.28	3733.23
306.655	5038.26
310.03	5802.76
313.404	5842.74
316.779	5205.25
320.154	4762.74
323.529	4331.22
326.904	3319.12
330.279	2504.76
333.653	1979.54
337.028	1711.51
340.403	1447.05
343.778	912.999
347.153	472.248
350.527	172.995
353.902	43.2864
357.277	51.1582
360.652	97.8931
364.027	111.899
367.401	11.7241
370.776	36.501
374.151	176.237
377.526	346.677
380.901	560.113
384.276	861.453
387.65	1194.57
391.025	1447.32
394.4	1658.53
397.775	1708.17
401.15	1607.67
404.524	1424.56
407.899	1242.62
411.274	1127.01
414.649	1191.27
418.024	1373.7
421.399	1685.9
424.773	2125.27
428.148	2764.93
431.523	3481.64
434.898	4210.17
438.273	4858.04
441.647	5008.15
445.022	4748.71
448.397	4149.41
451.772	3548.3
455.147	3039.2
458.522	2580.3
461.896	2175.08
465.271	1790.25
468.646	1390.39
472.021	976.973
475.396	638.088
478.77	364.801
482.145	200.31
485.52	104.736
488.895	32.6484
492.27	64.1636
495.644	75.9624
499.019	70.8137
502.394	38.6011
505.769	20.9509
509.144	58.4656
512.519	141.841
515.893	229.777
519.268	385.022
522.643	563.672
526.018	755.888
529.393	886.937
532.768	1092.74
536.142	1413.24
539.517	1663.94
542.892	1954.52
546.267	2247.16
549.641	2575.53
553.016	2718.71
556.391	2863.19
559.766	2815.73
563.141	2700.43
566.516	2647.17
569.89	2575.89
573.265	2504.39
576.64	2375.28
580.015	2242.89
583.39	2029.05
586.764	1855.54
590.139	1637.55
593.514	1436.65
596.889	1229.7
600.264	1070.27
603.639	837.694
607.013	693.263
610.388	550.133
613.763	437.632
617.138	408.779
620.513	319.01
623.888	251.842
627.262	224.576
630.637	168.499
634.012	127.134
637.387	118.204
640.761	70.6829
644.136	30.5317
647.511	31.8171
650.886	29.4285
654.261	10.0749
657.636	0.170654
661.01	27.7517
664.385	2.61694
667.76	11.8227
671.135	23.3038
674.51	4.07434
677.885	21.2436
681.259	4.05713
684.634	13.364
688.009	28.5868
691.384	37.0487
694.759	48.9055
698.133	39.2766
701.508	64.291
704.883	87.2698
708.258	69.1576
711.633	49.8849
715.008	144.447
718.382	155.991
721.757	120.72
725.132	148.67
728.507	151.306
731.882	115.117
735.256	112.937
738.631	125.084
742.006	130.585
745.381	119.723
748.756	108.406
752.13	22.8525
755.505	119.027
758.88	96.567
762.255	82.0222
765.63	53.3718
769.005	53.377
772.379	45.36
775.754	22.8171
779.129	21.2954
782.504	5.93323
785.879	30.4769
789.253	13.3596
792.628	29.3889
796.003	16.6462
799.378	57.2406
802.753	27.6464
806.128	30.7281
809.502	13.8527
812.877	29.1614
816.252	20.4926
819.627	70.959
823.002	10.7671
826.376	69.4484
829.751	47.169
833.126	78.7251
836.501	63.4654
839.876	50.678
843.25	78.606
846.625	49.1962
850	73.5293
853.375	67.7651
856.75	44.147
860.125	113.037
863.499	149.17
866.874	120.616
870.249	167.47
873.624	154.529
876.999	230.611
880.374	230.796
883.748	232.696
887.123	251.463
890.498	311.592
893.873	257.23
897.247	238.056
900.622	179.386
903.997	160.757
907.372	117.6
910.747	87.3274
914.122	38.4072
917.496	22.8977
920.871	30.5796
924.246	2.65772
927.621	19.9465
930.996	23.9976
934.37	16.4912
937.745	93.0347
941.12	71.3623
944.495	62.4131
947.87	23.7581
951.245	8.93262
954.619	35.312
957.994	136.178
961.369	269.28
964.744	421.329
968.119	662.517
971.494	996.481
974.868	1471.71
978.243	2046.18
981.618	2865.04
984.993	3957.48
988.368	5568.92
991.742	7760.76
995.117	10329.1
998.492	12950.8
1001.87	15324
1005.24	17262.5
1008.62	18575.5
1011.99	19043.2
1015.37	18361
1018.74	16904
1022.12	14920
1025.49	13368.9
1028.87	12083.5
1032.24	11462.8
1035.62	11250.4
1038.99	11353.6
1042.37	11242.2
1045.74	10706
1049.11	9112.83
1052.49	6965.28
1055.86	4793.04
1059.24	3104.63
1062.61	1983.02
1065.99	1197.17
1069.36	755.434
1072.74	455.802
1076.11	193.763
1079.49	39.948
1082.86	2.75684
1086.24	62.0078
1089.61	77.1856
1092.99	68.2815
1096.36	66.6462
1099.74	15.4499
1103.11	9.66382
1106.49	32.4905
1109.86	221.929
1113.24	166.624
1116.61	235.897
1119.98	274.144
1123.36	317.778
1126.73	336.358
1130.11	355.96
1133.48	290.717
1136.86	302.424
1140.23	277.609
1143.61	230.981
1146.98	159.065
1150.36	106.712
1153.73	65.0024
1157.11	44.8379
1160.48	34.4522
1163.86	20.0659
1167.23	29.0679
1170.61	13.4023
1173.98	28.1006
1177.36	28.8738
1180.73	18.97
1184.11	46.3159
1187.48	57.3994
1190.86	63.5132
1194.23	53.4829
1197.61	48.4067
1200.98	74.3245
1204.36	108.231
1207.73	84.4831
1211.11	133.648
1214.48	107.534
1217.86	78.5657
1221.23	102.812
1224.61	69.7053
1227.98	88.8882
1231.35	95.2634
1234.73	64.4756
1238.1	71.7717
1241.48	61.8152
1244.85	59.9902
1248.23	64.7478
1251.6	72.7844
1254.98	40.4287
1258.35	24.5879
1261.73	34.2835
1265.1	49.7302
1268.48	59.0395
1271.85	53.8516
1275.23	66.9771
1278.6	21.9556
1281.98	7.36768
1285.35	19.5884
1288.73	9.04517
