Measurement: Raman, 785 nm, unoriented, Raman Data Processed
Mineral: Kolbeckite
Rruff sample: R060981
Ideal chemistry: ScPO_4_2H_2_O
Locality: Hot Springs County, Arkansas, USA
Source: Bob Jenkins
Description: Greenish-yellow prismatic single crystal. Used in the Yang et al (2007) study
Measured chemistry: (Sc_0.94_V^3+^_0.03_Fe^3+^_0.02_Al_0.01_)_Σ=1_P_1.00_O_4_·2H_2_O
Raman shift (cm-1)	intensity
163.954	0
166.847	315.72
169.74	502.856
172.632	520.84
175.525	246.357
178.418	111.814
181.31	38.4404
184.203	57.1709
187.096	189.505
189.989	192.713
192.881	151.868
195.774	302.209
198.667	443.802
201.559	449.192
204.452	531.68
207.345	532.98
210.238	541.658
213.13	476.342
216.023	539.59
218.916	485.027
221.808	305.01
224.701	224.658
227.594	133.584
230.486	35.1465
233.379	116.853
236.272	37.9121
239.164	6.23828
242.057	69.3516
244.95	87.6035
247.843	261.469
250.735	385.545
253.628	622.432
256.521	833.484
259.413	910.434
262.306	611.955
265.199	466.365
268.091	235.602
270.984	306.096
273.877	257.195
276.769	178.672
279.662	322.963
282.555	296.102
285.448	352.791
288.34	291.535
291.233	265.941
294.126	490.227
297.018	728.566
299.911	1128.03
302.804	1651.54
305.697	2335.95
308.589	2847.92
311.482	3124.75
314.375	3226.9
317.267	3258.38
320.16	3306.34
323.053	3276.13
325.945	3087.67
328.838	2860.18
331.731	2424.97
334.623	1989.75
337.516	1640.97
340.409	1218.27
343.302	1057.65
346.194	803.785
349.087	568.996
351.98	433.977
354.872	337.447
357.765	140.949
360.658	48.5293
363.55	125.875
366.443	81.0254
369.336	2.35352
372.229	148.504
375.121	235.445
378.014	311.066
380.907	339.258
383.799	405.309
386.692	542.076
389.585	842.51
392.477	1269.77
395.37	1477.74
398.263	1506.58
401.156	1315.05
404.048	1338.55
406.941	1074.86
409.834	921.199
412.726	887.912
415.619	1090.38
418.512	1268.79
421.404	1447.68
424.297	1625.82
427.19	1729.34
430.082	2001.29
432.975	2309.69
435.868	2635.64
438.761	2910.89
441.653	2975.55
444.546	2977.34
447.439	2449.05
450.331	2191.94
453.224	1922.76
456.117	1535.58
459.01	1395.68
461.902	1226.95
464.795	1037.21
467.688	825.236
470.58	670.139
473.473	520.064
476.366	343.336
479.258	60.4316
482.151	21.9121
485.044	35.8867
487.937	16.3906
490.829	121.936
493.722	37.1738
496.615	41.0488
499.507	89.6328
502.4	25.0176
505.293	106.627
508.185	15.1445
511.078	61.8398
513.971	103.912
516.864	107.223
519.756	297.102
522.649	276.996
525.542	289.418
528.434	436.193
531.327	494.943
534.22	643.668
537.112	920.336
540.005	1060.92
542.898	1170.48
545.79	1395.92
548.683	1480.84
551.576	1627.86
554.469	1850.01
557.361	1728.99
560.254	1895.83
563.147	1702.74
566.039	1646.97
568.932	1456.51
571.825	1410.81
574.717	1347.02
577.61	1270.11
580.503	1233.06
583.395	1102.4
586.288	1010.88
589.181	834.615
592.074	771.088
594.966	533.178
597.859	503.262
600.752	524.762
603.644	452.586
606.537	434.332
609.43	381.76
612.322	363.449
615.215	279.961
618.108	279.533
621.001	223.666
623.893	190.543
626.786	229.793
629.679	131.697
632.571	149.065
635.464	118.272
638.357	78.9707
641.25	114.615
644.142	147.096
647.035	50.0664
649.928	132.258
652.82	46.5215
655.713	164.494
658.606	129.736
661.498	32.5957
664.391	44.2793
667.284	10.9629
670.177	44.5898
673.069	32.4004
675.962	2.67188
678.855	89.1953
681.747	70.209
684.64	30.2695
687.533	16.9414
690.425	107.218
693.318	18.3369
696.211	112.877
699.104	118.317
701.996	87.1807
704.889	33.6904
707.782	55.3096
710.674	67.6279
713.567	141.984
716.46	154.169
719.352	83.6367
722.245	245.238
725.138	75.3213
728.03	106.227
730.923	17.2578
733.816	69.7324
736.709	121.158
739.601	133.557
742.494	158.416
745.387	78.0742
748.279	140.284
751.172	96.4453
754.065	87.5019
756.957	89.4238
759.85	148.663
762.743	48.6455
765.635	145.333
768.528	39.4395
771.421	128.015
774.314	89.5127
777.206	78.0186
780.099	132.221
782.992	97.5391
785.884	152.593
788.777	160.355
791.67	104.155
794.562	19.2793
797.455	95.7031
800.348	72.0674
803.241	186.527
806.133	116.081
809.026	194.172
811.919	108.644
814.811	191.106
817.704	168.954
820.597	38.4648
823.49	10.4463
826.382	65.9482
829.275	56.7432
832.168	16.3916
835.06	25.8789
837.953	64.0762
840.846	43.9297
843.738	81.917
846.631	126.561
849.524	128.51
852.416	117.64
855.309	82.6133
858.202	136.177
861.095	255.12
863.987	297.757
866.88	282.78
869.773	313.966
872.665	386.513
875.558	406.275
878.451	402.516
881.343	526.644
884.236	502.404
887.129	457.084
890.021	611.129
892.914	653.99
895.807	754.368
898.7	633.602
901.592	696.936
904.485	535.399
907.378	423.273
910.27	418.967
913.163	421.961
916.056	208.821
918.948	179.808
921.841	134.901
924.734	160.633
927.627	117.257
930.519	233.412
933.412	131.935
936.305	160.894
939.197	138.815
942.09	25.6748
944.983	16.5752
947.875	105.176
950.768	47.6182
953.661	14.1709
956.554	74.7676
959.446	12.1289
962.339	60.2656
965.232	197.905
968.124	282.076
971.017	394.333
973.91	608.352
976.803	847.422
979.695	1144.64
982.588	1683.42
985.481	2207.56
988.373	2751.45
991.266	3584.3
994.159	4431.15
997.051	5438.26
999.944	6410.76
1002.84	7583.78
1005.73	8416.16
1008.62	9068.25
1011.51	9213.05
1014.41	8953.81
1017.3	8143.53
1020.19	7202.39
1023.09	6158.65
1025.98	5462.9
1028.87	4918.8
1031.76	4668.83
1034.66	4592.44
1037.55	4673.6
1040.44	4796.97
1043.34	4839.99
1046.23	4564.77
1049.12	3999.87
1052.01	3258.84
1054.9	2375.43
1057.8	1726.65
1060.69	1228.59
1063.58	910.817
1066.48	459.685
1069.37	294.044
1072.26	293.353
1075.15	53.6299
1078.05	33.5088
1080.94	42.0742
1083.83	65.3545
1086.72	5.28125
1089.62	118.543
1092.51	39.2666
1095.4	87.1953
1098.3	103.214
1101.19	34.9609
1104.08	80.7598
1106.97	160.017
1109.87	220.467
1112.76	302.56
1115.65	284.897
1118.55	381.18
1121.44	508.502
1124.33	489.295
1127.22	512.655
1130.12	597.879
1133.01	503.887
1135.9	566.374
1138.79	562.076
1141.69	508.146
1144.58	471.56
1147.47	511.043
1150.36	489.435
1153.26	430.315
1156.15	418.661
1159.04	379.803
1161.93	286.986
1164.83	219.082
1167.72	248.551
1170.61	213.723
1173.51	118.644
1176.4	113.905
1179.29	33.5371
1182.18	69.5527
1185.08	23.2842
1187.97	61.6768
1190.86	26.2773
1193.76	64.1797
1196.65	61.8467
1199.54	67.0615
1202.43	61.8701
1205.33	33.6348
1208.22	1.64941
