Measurement: Raman, 785 nm, unoriented, Raman Data Processed
Mineral: Kolbeckite
Rruff sample: R061040
Ideal chemistry: ScPO_4_2H_2_O
Locality: Christy Pit, Magnet Cove, Arkansas, USA
Source: Mark Mauthner
Description: Green platy crystal, severely twinned, associated with quartz.
Raman shift (cm-1)	intensity
137.438	0
140.33	65.9924
143.223	416.779
146.116	704.095
149.008	771.409
151.901	656.569
154.794	496.589
157.686	376.36
160.579	376.653
163.472	384.786
166.365	408.974
169.257	385.789
172.15	343.906
175.043	272.899
177.935	297.492
180.828	321.722
183.721	349.36
186.613	447.841
189.506	547.868
192.399	554.965
195.292	565.493
198.184	637.21
201.077	734.552
203.97	873.035
206.862	1157.18
209.755	1486.38
212.648	1795.9
215.541	1805.06
218.433	1410.56
221.326	763.25
224.219	333.957
227.111	96.1677
230.004	32.0742
232.897	110.592
235.789	72.1023
238.682	56.0791
241.575	42.8982
244.468	207.897
247.36	358.652
250.253	706.847
253.146	1148.12
256.038	1541.44
258.931	1556.34
261.824	1140.18
264.716	702.38
267.609	518.664
270.502	427.763
273.394	394.854
276.287	326.418
279.18	303.976
282.072	266.313
284.965	266.94
287.858	302.447
290.751	355.541
293.643	644.706
296.536	1047.73
299.429	1646.7
302.321	2463.86
305.214	3396.41
308.107	4247.83
311	4587.1
313.892	4561.91
316.785	4341.47
319.678	4284.51
322.57	3981.45
325.463	3427.66
328.356	2611.79
331.248	2075.12
334.141	1681.11
337.034	1459.6
339.926	1282.93
342.819	916.081
345.712	575.219
348.605	312.637
351.497	156.113
354.39	92.0019
357.283	37.0247
360.175	40.645
363.068	74.4399
365.961	57.1333
368.853	29.0005
371.746	82.2331
374.639	199.62
377.532	328.117
380.424	453.201
383.317	659.247
386.21	850.217
389.102	1142.12
391.995	1386.56
394.888	1559.53
397.781	1552.35
400.673	1512.72
403.566	1290.24
406.459	1089.03
409.351	987.244
412.244	886.984
415.137	899.096
418.029	1002
420.922	1156.06
423.815	1428.56
426.707	1787.63
429.6	2229.02
432.493	2760.88
435.386	3203.43
438.278	3632.77
441.171	3820.31
444.064	3661.3
446.956	3291.09
449.849	2821.71
452.742	2462.21
455.635	2103.41
458.527	1875.53
461.42	1607.16
464.313	1350.67
467.205	1109.69
470.098	807.499
472.991	596.164
475.883	374.946
478.776	232.49
481.669	152.371
484.562	52.036
487.454	23.1759
490.347	44.7704
493.24	27.5532
496.132	35.4862
499.025	34.6195
501.918	22.3468
504.81	1.3158
507.703	27.1429
510.596	56.5182
513.489	141.495
516.381	209.575
519.274	309.08
522.167	384.546
525.059	484.596
527.952	595.644
530.845	686.516
533.737	840.102
536.63	1014.62
539.523	1172.89
542.415	1392.87
545.308	1566.28
548.201	1713.29
551.094	1853.72
553.986	1992.5
556.879	2008.33
559.772	2051.92
562.664	2009.35
565.557	1934.99
568.45	1908.05
571.342	1921.84
574.235	1851.8
577.128	1767.39
580.021	1743.1
582.913	1606.03
585.806	1468.42
588.699	1272.34
591.591	1122.01
594.484	980.385
597.377	833.699
600.269	723.955
603.162	599.081
606.055	490.428
608.947	396.988
611.84	352.364
614.733	266.698
617.626	187.33
620.518	162.398
623.411	119.1
626.304	69.0287
629.196	94.3007
632.089	63.4536
634.982	47.8357
637.875	43.2139
640.767	33.691
643.66	15.9811
646.553	0.556274
649.445	6.25317
652.338	4.25891
655.231	2.70544
658.123	3.36121
661.016	27.061
663.909	25.1083
666.802	19.0383
669.694	8.88879
672.587	16.3621
675.48	5.09424
678.372	9.65918
681.265	34.074
684.158	20.835
687.05	29.6604
689.943	1.68738
692.836	26.5526
695.729	73.2413
698.621	88.4133
701.514	59.0554
704.407	56.9368
707.299	102.533
710.192	84.3396
713.085	104.152
715.977	70.212
718.87	60.3509
721.763	119.493
724.655	103.698
727.548	83.9402
730.441	99.7922
733.334	106.593
736.226	80.8106
739.119	107.533
742.012	96.8895
744.904	79.3718
747.797	107.867
750.69	79.4634
753.582	85.479
756.475	49.8944
759.368	96.1859
762.261	78.6375
765.153	52.4894
768.046	23.6991
770.939	72.5955
773.831	66.2682
776.724	24.9428
779.617	10.6766
782.51	25.9517
785.402	41.3995
788.295	58.3239
791.188	35.5436
794.08	53.3426
796.973	42.5354
799.866	5.50269
802.758	23.3939
805.651	10.9873
808.544	36.8153
811.437	48.6065
814.329	38.1288
817.222	12.7817
820.115	31.4031
823.007	46.3883
825.9	34.4371
828.793	44.0206
831.685	20.5284
834.578	20.5332
837.471	23.9667
840.364	8.11841
843.256	52.665
846.149	8.06079
849.042	37.0928
851.934	63.634
854.827	52.88
857.72	56.1642
860.612	57.0928
863.505	72.7076
866.398	69.8683
869.29	76.8959
872.183	87.4592
875.076	87.988
877.968	130.853
880.861	91.9928
883.754	124.497
886.647	133.406
889.539	179.879
892.432	160.422
895.325	112.467
898.217	126.699
901.11	101.871
904.003	146.193
906.895	86.196
909.788	75.957
912.681	74.7151
915.574	32.5336
918.466	17.223
921.359	22.6578
924.252	18.7112
927.144	18.0094
930.037	14.7847
932.93	4.4779
935.822	21.8967
938.715	30.4906
941.608	42.721
944.501	37.0354
947.393	11.6672
950.286	15.9067
953.179	34.342
956.071	25.1885
958.964	26.6138
961.857	94.6853
964.75	207.922
967.642	272.867
970.535	420.07
973.428	548.925
976.32	749.933
979.213	1066.13
982.106	1439.56
984.998	1947.98
987.891	2636.09
990.784	3581.73
993.677	4771.48
996.569	6135.53
999.462	7320.24
1002.36	8606.76
1005.25	9696.67
1008.14	10392.5
1011.03	10832.8
1013.92	10934
1016.82	10353.8
1019.71	9520.26
1022.6	8602.38
1025.5	7848.71
1028.39	7280.58
1031.28	7083.57
1034.17	7105.61
1037.07	7290.37
1039.96	7489.26
1042.85	7726.88
1045.74	7534.93
1048.64	6623.08
1051.53	5332.25
1054.42	3968.1
1057.32	2793.79
1060.21	1884.32
1063.1	1301.17
1065.99	888.945
1068.89	583.543
1071.78	374.783
1074.67	218.027
1077.57	110.572
1080.46	51.3372
1083.35	5.14795
1086.24	38.6075
1089.13	20.0668
1092.03	50.0604
1094.92	18.876
1097.81	61.7277
1100.71	24.1594
1103.6	6.55518
1106.49	9.21545
1109.38	73.8591
1112.28	73.2112
1115.17	111.82
1118.06	115.909
1120.95	161.016
1123.85	187.92
1126.74	201.242
1129.63	192.012
1132.53	168.448
1135.42	162.733
1138.31	102.167
1141.2	124.711
1144.1	127.627
1146.99	113.906
1149.88	67.9336
1152.78	52.728
1155.67	55.9228
1158.56	8.14258
1161.45	1.83875
1164.35	2.71045
1167.24	14.499
1170.13	5.96704
1173.02	4.15613
1175.92	38.5554
1178.81	34.363
1181.7	32.5487
1184.6	18.6049
1187.49	54.7119
1190.38	25.557
1193.27	27.5526
1196.16	54.4126
1199.06	44.4921
1201.95	23.5358
1204.84	47.8982
1207.74	35.8356
1210.63	77.2931
1213.52	64.1835
1216.41	105.121
1219.31	63.8094
1222.2	79.2847
1225.09	60.4327
1227.98	80.9979
1230.88	70.6625
1233.77	46.3552
1236.66	26.4035
1239.56	23.3408
1242.45	57.0768
1245.34	78.2383
1248.23	76.0547
1251.13	36.0739
1254.02	24.6564
1256.91	30.0336
1259.81	29.7976
1262.7	7.3335
