Measurement: Raman, 785 nm, unoriented, Raman Data Processed
Mineral: Komarovite
Rruff sample: R070054
Ideal chemistry: (Ca,Sr,Na)_6-x_(Nb,Ti)_6_(Si_4_O_12_)(O,OH,F)_16_nH_2_O
Locality: Kukisvumchorr Mountain, Khibiny Massif, Kola Peninsula, Russia
Source: Michael Scott
Description: Pale rose colored tabular crystals associated with natrolite
Raman shift (cm-1)	intensity
158.433	0
161.326	1.42334
164.218	256.754
167.111	556.862
170.004	726.799
172.897	759.6
175.789	706.049
178.682	618.471
181.575	489.977
184.467	394.88
187.36	334.228
190.253	254.189
193.145	243.443
196.038	306.641
198.931	465.684
201.823	591.162
204.716	888.547
207.609	1076.7
210.502	1456.57
213.394	1858.03
216.287	2286.1
219.18	2743.5
222.072	2972.91
224.965	3269.55
227.858	3493.09
230.75	3778.75
233.643	4107.3
236.536	4533.26
239.429	4925.91
242.321	5249.84
245.214	5418.8
248.107	5306.78
250.999	5273.5
253.892	4697.21
256.785	4437.37
259.678	3769.17
262.57	3194.96
265.463	2694.01
268.356	2239.3
271.248	1943.36
274.141	1830.42
277.034	1631.4
279.926	1715.1
282.819	1761.04
285.712	1788.99
288.604	1938.93
291.497	1740.12
294.39	1699.87
297.283	1623.41
300.175	1502.17
303.068	1414.47
305.961	1281.74
308.853	1076.06
311.746	891.004
314.639	587.323
317.531	410.06
320.424	172.502
323.317	72.5478
326.21	15.6934
329.102	90.8848
331.995	60.5518
334.888	99.4707
337.78	98.8682
340.673	118.316
343.566	61.3984
346.459	49.0478
349.351	35.0752
352.244	73.8789
355.137	200.408
358.029	129.661
360.922	238.096
363.815	277.897
366.707	376.132
369.6	407.026
372.493	453.229
375.385	528.24
378.278	504.137
381.171	487.905
384.064	474.441
386.956	477.656
389.849	595.727
392.742	542.325
395.634	573.596
398.527	496.601
401.42	480.001
404.312	340.983
407.205	195.977
410.098	137.988
412.99	44.9053
415.883	20.3447
418.776	16.4326
421.669	57.7227
424.561	40.0185
427.454	155.299
430.347	336.815
433.239	478.305
436.132	687.281
439.025	825.974
441.918	929.592
444.81	1075.18
447.703	1025.86
450.596	1176.15
453.488	1238.06
456.381	1221.23
459.274	1169.61
462.166	893.492
465.059	672.543
467.952	491.247
470.844	407.537
473.737	364.919
476.63	325.086
479.523	470.383
482.415	590.656
485.308	741.838
488.201	969.673
491.093	1059.83
493.986	1338.35
496.879	1457.77
499.772	1703.27
502.664	1995.15
505.557	2129.19
508.45	2140.18
511.342	2059.35
514.235	1710.33
517.128	1440.25
520.02	1065.47
522.913	864.763
525.806	633.048
528.698	514.405
531.591	373.858
534.484	325.333
537.377	195.342
540.269	185.791
543.162	50.1025
546.055	89.4424
548.947	41.3213
551.84	8.68652
554.733	47.9219
557.625	95.3125
560.518	158.1
563.411	121.639
566.304	223.797
569.196	209.85
572.089	244.145
574.982	217.479
577.874	147.913
580.767	184.374
583.66	230.107
586.553	144.593
589.445	150.826
592.338	102.439
595.231	95.8667
598.123	42.3481
601.016	106.138
603.909	64.1958
606.801	53.8906
609.694	21.3496
612.587	32.1655
615.48	3.80908
618.372	74.9185
621.265	124.798
624.158	104.132
627.05	83.9482
629.943	116.533
632.836	58.6533
635.728	1.39258
638.621	106.057
641.514	149.234
644.407	293.493
647.299	414.587
650.192	609.805
653.085	733.263
655.977	894.871
658.87	1013.68
661.763	1239.47
664.655	1275.47
667.548	1438.45
670.441	1615.74
673.333	1800.67
676.226	1981.12
679.119	2126.03
682.012	2310.71
684.904	2573.01
687.797	2734.5
690.69	3163
693.582	3384.55
696.475	3649.11
699.368	4049.94
702.26	4215.43
705.153	4470.29
708.046	4662.28
710.939	4781.63
713.831	4861.46
716.724	4776.59
719.617	4799.06
722.509	4719.1
725.402	4527.48
728.295	4272.7
731.188	4010.96
734.08	3774.33
736.973	3521.56
739.866	3297.16
742.758	2977.48
745.651	2861.84
748.544	2644.56
751.436	2228.16
754.329	2048.49
757.222	1965.92
760.114	1667.51
763.007	1511.25
765.9	1355.04
768.793	1185.82
771.685	1140.76
774.578	912.938
777.471	866.555
780.363	833.392
783.256	692.706
786.149	642.538
789.041	521.102
791.934	398.305
794.827	261.143
797.72	184.308
800.612	130.615
803.505	114.951
806.398	4.48535
809.29	22.5764
812.183	-8.41292
815.076	20.4442
817.968	-6.6331
820.861	-19.1467
823.754	-6.90135
826.646	17.9154
829.539	8.30363
832.432	-28.9592
835.325	1.34375
838.217	38.3701
841.11	74.1069
844.003	134.177
846.895	206.713
849.788	247.431
852.681	330.709
855.573	523.812
858.466	653.492
861.359	907.28
864.252	1300.61
867.144	1822.9
870.037	2664.39
872.93	3495.85
875.822	4441.41
878.715	5165.7
881.608	5449.38
884.5	4953.93
887.393	4047.8
890.286	3093.46
893.179	2324.58
896.071	1702.77
898.964	1265.45
901.857	1070.18
904.75	1041.25
907.642	974.341
910.535	1022.71
913.428	978.464
916.32	1023.83
919.213	999.4
922.106	1057.85
924.998	1090.38
927.891	1172.08
930.784	1152.7
933.677	1186.7
936.569	1205.84
939.462	1269
942.355	1175.56
945.247	1122.58
948.14	1056.17
951.033	996.898
953.925	776.918
956.818	672.202
959.711	515.785
962.603	373.024
965.496	231.857
968.389	181.678
971.282	76.4473
974.174	22.3467
977.067	2.59082
979.96	43.915
982.852	36.3003
985.745	23.3149
988.638	1.229
991.53	37.3169
994.423	8.78223
997.316	4.45019
1000.21	45.0986
1003.1	47.895
1005.99	143.339
1008.89	99.0249
1011.78	172.15
1014.67	182.033
1017.57	187.016
1020.46	170.59
1023.35	221.141
1026.24	196.832
1029.13	255.631
1032.03	187.073
1034.92	238.056
1037.81	245.904
1040.71	253.625
1043.6	265.975
1046.49	321.894
1049.38	327.819
1052.28	342.144
1055.17	382.112
1058.06	367.681
1060.95	319.161
1063.85	258.16
1066.74	206.577
1069.63	117.086
1072.53	70.187
1075.42	95.1387
1078.31	24.0356
1081.2	39.0474
1084.1	28.1099
1086.99	80.4702
1089.88	98.0298
1092.78	129.414
1095.67	236.558
1098.56	267.237
1101.45	284.647
1104.35	355.914
1107.24	481.406
1110.13	480.538
1113.02	586.457
1115.92	579.553
1118.81	551.366
1121.7	591.016
1124.6	489.813
1127.49	435.027
1130.38	414.782
1133.27	355.569
1136.16	280.82
1139.06	195.312
1141.95	171.558
1144.84	123.031
1147.74	124.366
1150.63	92.7905
1153.52	65.1436
1156.41	41.9565
1159.31	22.1186
1162.2	29.5356
1165.09	10.5977
1167.98	23.7783
1170.88	31.8936
1173.77	5.65771
1176.66	38.9321
1179.56	10.8369
1182.45	29.7178
1185.34	18.0542
1188.23	9.62305
1191.13	84.4028
1194.02	3.06445
1196.91	109.38
1199.81	74.3433
1202.7	27.5151
1205.59	56.2315
1208.48	117.638
1211.38	34.9858
1214.27	104.66
1217.16	11.583
1220.05	61.3584
1222.95	47.2602
1225.84	36.0405
1228.73	39.2598
1231.62	9.91748
1234.52	0.291504
