Measurement: Raman, 532 nm, unoriented, Raman Data Processed
Mineral: Komarovite
Rruff sample: R070054
Ideal chemistry: (Ca,Sr,Na)_6-x_(Nb,Ti)_6_(Si_4_O_12_)(O,OH,F)_16_nH_2_O
Locality: Kukisvumchorr Mountain, Khibiny Massif, Kola Peninsula, Russia
Source: Michael Scott
Description: Pale rose colored tabular crystals associated with natrolite
Raman shift (cm-1)	intensity
141.986	0
145.361	17.3906
148.736	123.482
152.11	413.193
155.485	760.891
158.86	1225.71
162.235	1785.57
165.61	2339.08
168.984	2712.69
172.359	2716.91
175.734	2334.98
179.109	2094.16
182.484	1502.77
185.858	1236.76
189.233	828.007
192.608	595.746
195.983	562.496
199.358	838.457
202.732	1212.1
206.107	1776.2
209.482	2415.56
212.857	3425.92
216.232	4444.68
219.607	5460.11
222.981	6209.27
226.356	6872.71
229.731	7664.8
233.106	8597.41
236.481	9473.89
239.856	10360.9
243.23	10999.8
246.605	11164.7
249.98	10890.2
253.355	9611.14
256.73	8437.33
260.104	6880.5
263.479	5662.63
266.854	4459
270.229	3857.7
273.604	3558.17
276.978	3483.18
280.353	3646.91
283.728	3922.6
287.103	4042.04
290.478	4042.14
293.853	3944.03
297.227	3713.19
300.602	3430.1
303.977	3016.71
307.352	2435.63
310.727	1919.21
314.101	1273
317.476	680.857
320.851	206.805
324.226	45.7927
327.601	10.9819
330.975	24.0499
334.35	42.9211
337.725	-12.3901
341.1	-31.1068
344.475	-33.7195
347.849	118.143
351.224	257.867
354.599	329.646
357.974	524.513
361.349	792.973
364.724	974.644
368.098	1149.02
371.473	1281.63
374.848	1397.09
378.223	1334.49
381.598	1289.26
384.972	1271.51
388.347	1280.11
391.722	1254.93
395.097	1279.77
398.472	1148.03
401.846	896.503
405.221	545.347
408.596	166.505
411.971	21.9082
415.346	27.8901
418.721	33.3392
422.095	17.7604
425.47	429.3
428.845	997.418
432.22	1777.61
435.595	2239.43
438.969	2678.8
442.344	2919.32
445.719	2942.04
449.094	3307.21
452.469	3438.48
455.844	3433.06
459.218	2964.45
462.593	2238.9
465.968	1636.95
469.343	1343.48
472.718	1286.31
476.092	1427.83
479.467	1820.75
482.842	2513.63
486.217	3110.8
489.592	4017.36
492.966	4759.38
496.341	5636
499.716	6489.09
503.091	7157.46
506.466	7457.31
509.841	6944.31
513.215	6003.56
516.59	4774.39
519.965	3415.81
523.34	2446.44
526.715	1704.89
530.089	1217.99
533.464	891.572
536.839	543.02
540.214	417.57
543.589	197.071
546.963	234.506
550.338	107.786
553.713	95.2588
557.088	236.613
560.463	281.318
563.837	440.184
567.212	416.633
570.587	550.388
573.962	589.488
577.337	561.199
580.712	520.673
584.086	427.627
587.461	292.175
590.836	276.055
594.211	200.898
597.586	177.958
600.96	194.126
604.335	181.252
607.71	52.6719
611.085	37.2319
614.46	11.9497
617.835	20.4643
621.209	33.0753
624.584	-6.6778
627.959	-20.5995
631.334	-23.1537
634.709	5.49895
638.083	135.182
641.458	492.481
644.833	1000.92
648.208	1367.3
651.583	1815.47
654.957	2411.42
658.332	2891.78
661.707	3384.79
665.082	3863.88
668.457	4370.08
671.832	4837.57
675.206	5430.28
678.581	6074.97
681.956	6769.89
685.331	7497.84
688.706	8332.44
692.08	9254.42
695.455	10400.8
698.83	11391.2
702.205	12811.3
705.58	13177.3
708.955	13779.3
712.329	14118.4
715.704	14306.4
719.079	14114.9
722.454	13746.9
725.829	13312.6
729.203	12622.4
732.578	11881.9
735.953	10984.6
739.328	10191.3
742.703	9308.06
746.077	8215.06
749.452	7384.93
752.827	6655.49
756.202	5843.8
759.577	5210.94
762.952	4515.28
766.326	4227.99
769.701	3667.82
773.076	3413.02
776.451	2833.33
779.826	2603.16
783.2	2222.1
786.575	1948.21
789.95	1444.77
793.325	1143.71
796.7	890.221
800.074	409.152
803.449	246.006
806.824	37.7539
810.199	35.9225
813.574	46.3173
816.948	35.506
820.323	62.8104
823.698	54.8759
827.073	42.6284
830.448	52.2515
833.823	31.0867
837.197	12.3594
840.572	155.062
843.947	409.999
847.322	677.637
850.697	1094.89
854.072	1596.56
857.446	2453.23
860.821	3806.85
864.196	5862.03
867.571	9066.49
870.946	13245.4
874.32	17799
877.695	21608.4
881.07	22482.4
884.445	20182
887.82	16010.1
891.194	11535.5
894.569	8197.01
897.944	6062.15
901.319	5122.43
904.694	4763.42
908.068	4644.87
911.443	4663.88
914.818	4832.76
918.193	4840.97
921.568	4863.47
924.942	5153.03
928.317	5450.29
931.692	5733.19
935.067	5873.57
938.442	5947.49
941.817	5819.44
945.191	5444.52
948.566	4894.36
951.941	4239.05
955.316	3464.48
958.691	2567.91
962.065	1855.26
965.44	1212.45
968.815	679.595
972.19	294.592
975.565	35.8025
978.939	-9.71919
982.314	45.4087
985.689	41.6484
989.064	14.7037
992.439	26.9351
995.814	39.3242
999.188	105.292
1002.56	263.343
1005.94	377.81
1009.31	434.859
1012.69	465.001
1016.06	562.898
1019.44	657.476
1022.81	604.721
1026.19	789.969
1029.56	751.395
1032.94	943.452
1036.31	941.365
1039.69	965.465
1043.06	1045.04
1046.44	1164
1049.81	1176.68
1053.18	1266.78
1056.56	1099.1
1059.93	905.754
1063.31	772.611
1066.68	461.072
1070.06	317.979
1073.43	148.848
1076.81	146.77
1080.18	137.367
1083.56	279.087
1086.93	559.234
1090.31	786.278
1093.68	1169.3
1097.06	1489.72
1100.43	1920.06
1103.81	2373.96
1107.18	2744.42
1110.56	2994.47
1113.93	3192.53
1117.31	3266.01
1120.68	3153.01
1124.06	2867.75
1127.43	2537.08
1130.81	1997.64
1134.18	1620.89
1137.56	1228.64
1140.93	925.731
1144.31	623.243
1147.68	422.434
1151.06	339.174
1154.43	133.079
1157.81	39.3066
1161.18	58.1562
1164.55	30.627
1167.93	16.6035
1171.3	50.7803
1174.68	74.8516
1178.05	24.9033
1181.43	67.624
1184.8	35.9424
1188.18	25.2383
1191.55	9.38379
1194.93	91.1289
1198.3	61.041
1201.68	95.8281
1205.05	112.434
1208.43	67.3066
1211.8	115.996
1215.18	117.088
1218.55	176.2
1221.93	142.464
1225.3	146.686
1228.68	68.8281
1232.05	112.424
1235.42	120.486
1238.8	157.266
1242.17	143.198
1245.55	116.207
1248.92	47.3047
1252.3	116.406
1255.67	132.695
1259.05	151.93
1262.42	162.428
1265.8	18.5908
1269.17	164.671
1272.55	89.7578
1275.92	191.248
1279.3	66.5898
1282.67	105.066
1286.05	109.491
1289.42	70.5898
1292.8	45.5518
1296.17	117.929
1299.55	14.957
1302.92	41.0908
1306.3	0.519531
