Measurement: Raman, 780 nm, unoriented, Raman Data Processed
Mineral: Kombatite
Rruff sample: R070720
Ideal chemistry: Pb_14_O_9_(VO_4_)_2_Cl_4_
Locality: Kombat mine, Kombat, Grootfontein District, Otjozondjupa Region, Namibia
Source: William W. Pinch
Description: Yellow irregular crystals with perfect cleavage, associated with black jacobsite, R070719 and colorless barysilite, R070651
Raman shift (cm-1)	intensity
178.824	1.97461
181.716	183.86
184.609	257.199
187.502	108.182
190.395	123.303
193.287	121.824
196.18	95.7656
199.073	45.4077
201.965	139.012
204.858	183.952
207.751	264.835
210.643	435.365
213.536	193.916
216.429	1099.18
219.322	1821.45
222.214	2435.94
225.107	2891.92
228	3203.03
230.892	3549.78
233.785	3823.17
236.678	3938.84
239.571	4022.73
242.463	4028.83
245.356	4187.67
248.249	4307.11
251.141	4280.71
254.034	3888.62
256.927	3341.11
259.819	2931.05
262.712	2600.91
265.605	2472.42
268.498	2682.79
271.39	3158.07
274.283	3694.03
277.176	3986
280.068	3562.22
282.961	2659.23
285.854	1942.7
288.746	1543.98
291.639	1617.5
294.532	2010.28
297.425	2793.35
300.317	3609.37
303.21	4575.44
306.103	5638.88
308.995	6665.67
311.888	7759.82
314.781	8813.74
317.673	9628.55
320.566	9935.63
323.459	8976.43
326.351	8312.64
329.244	7763.68
332.137	7140.88
335.03	6653.74
337.922	6140.29
340.815	5542.84
343.708	4776.56
346.6	3808.37
349.493	2754.19
352.386	2036.52
355.279	1436.57
358.171	1183.44
361.064	1256.85
363.957	1740.92
366.849	2382.01
369.742	2559.21
372.635	2135.92
375.527	1508.87
378.42	818.11
381.313	163.497
384.205	167.107
387.098	437.685
389.991	369.711
392.884	250.613
395.776	27.3149
398.669	383.153
401.562	855.618
404.454	1532.74
407.347	2363.54
410.24	3513.2
413.132	4307.87
416.025	4968.36
418.918	4893.88
421.811	4620.11
424.703	4206.45
427.596	3772.29
430.489	3225.24
433.381	2846.65
436.274	2454.81
439.167	2207.15
442.06	1940.48
444.952	1568.17
447.845	1109.01
450.738	744.631
453.63	454.4
456.523	383.825
459.416	326.3
462.308	222.731
465.201	105.38
468.094	36.2476
470.986	6.28223
473.879	48.6882
476.772	11.5144
479.665	15.6245
482.557	70.7399
485.45	128.46
488.343	163.831
491.235	203.117
494.128	105.924
497.021	103.794
499.913	78.5884
502.806	56.2098
505.699	59.6747
508.592	109.125
511.484	138.012
514.377	196.843
517.27	180.433
520.162	188.01
523.055	174.596
525.948	178.949
528.841	182.084
531.733	127.347
534.626	111.254
537.519	113.388
540.411	100.94
543.304	103.92
546.197	107.146
549.089	124.971
551.982	109.73
554.875	147.638
557.768	162.378
560.66	153.089
563.553	140.547
566.446	96.864
569.338	125.028
572.231	102.047
575.124	68.9973
578.016	76.2264
580.909	34.6253
583.802	17.7703
586.694	20.05
589.587	28.235
592.48	1.35089
595.373	2.10339
598.265	13.3603
601.158	24.1853
604.051	10.8276
606.943	3.39423
609.836	7.89203
612.729	21.9976
615.621	31.6784
618.514	44.5589
621.407	28.3895
624.3	27.5239
627.192	23.4708
630.085	13.5371
632.978	24.1468
635.87	10.3375
638.763	3.76587
641.656	20.936
644.548	27.3558
647.441	1.17859
650.334	45.4966
653.227	38.691
656.119	44.4773
659.012	38.25
661.905	53.1256
664.797	36.6095
667.69	43.0286
670.583	42.3636
673.476	22.1139
676.368	29.9998
679.261	29.3691
682.154	14.6362
685.046	6.60583
687.939	8.86548
690.832	17.4082
693.724	0.76709
696.617	18.863
699.51	13.7424
702.403	11.5602
705.295	6.90222
708.188	11.6383
711.081	3.01648
713.973	13.0035
716.866	18.133
719.759	19.3734
722.651	7.8728
725.544	9.07532
728.437	7.55554
731.33	16.973
734.222	6.02197
737.115	25.0945
740.008	14.6864
742.9	34.9963
745.793	114.22
748.686	237.55
751.578	404.03
754.471	692.944
757.364	1062.32
760.256	1333.83
763.149	1269.87
766.042	1007.69
768.935	843.72
771.827	1035.03
774.72	1626.69
777.613	2678.65
780.505	4111.66
783.398	5132.05
786.291	4472.4
789.183	3349.37
792.076	2872.78
794.969	3450.86
797.862	5019.84
800.754	8327.3
803.647	13252.8
806.54	14485.4
809.432	11299.9
812.325	10996.2
815.218	13837.4
818.111	15985
821.003	12042.6
823.896	6894.95
826.789	3929.56
829.681	2375.92
832.574	1547.09
835.467	1018.28
838.359	739.49
841.252	504.683
844.145	358.113
847.037	264.165
849.93	173.56
852.823	105.212
855.716	72.431
858.608	48.5836
861.501	44.2139
864.394	6.815
867.286	29.7084
870.179	21.0823
873.072	21.8297
875.964	28.9111
878.857	35.6548
881.75	4.78082
884.643	28.4846
887.535	98.349
890.428	175.691
893.321	328.764
896.213	423.909
899.106	368.873
901.999	242.773
904.891	96.3275
907.784	47.2764
910.677	40.5977
913.569	79.5424
916.462	106.716
919.355	111.357
922.248	53.437
925.14	19.9098
928.033	5.16708
930.926	14.2073
933.818	7.12064
936.711	5.96768
939.604	21.0919
942.496	16.6181
945.389	10.5434
948.282	47.7238
951.175	41.5547
954.067	53.0648
956.96	63.1342
959.853	119.636
962.745	180.45
965.638	248.426
968.531	337.048
971.423	330.52
974.316	228.829
977.209	160.283
980.102	116.728
982.994	91.0829
985.887	98.6744
988.78	92.0713
991.672	78.6979
994.565	62.2096
997.458	71.0615
1000.35	74.3196
1003.24	65.424
1006.14	68.7904
1009.03	51.2084
1011.92	46.5967
1014.81	29.3623
1017.71	29.8086
1020.6	20.7559
1023.49	24.9822
1026.38	35.6704
1029.28	23.6001
1032.17	23.5851
1035.06	2.60794
1037.96	18.269
1040.85	11.6442
1043.74	21.1712
1046.63	21.1208
1049.53	5.15677
1052.42	9.61527
1055.31	4.92868
1058.2	2.94357
1061.1	10.2971
1063.99	19.0449
1066.88	7.96948
1069.78	5.86018
1072.67	9.40611
1075.56	30.5939
1078.45	27.504
1081.35	43.5471
1084.24	48.2975
1087.13	50.7374
1090.02	23.0624
1092.92	23.5843
1095.81	26.6437
1098.7	29.5138
1101.6	16.8053
1104.49	14.5144
1107.38	9.38928
1110.27	12.1788
1113.17	1.63734
1116.06	6.30817
1118.95	0.611404
1121.84	2.99385
1124.74	8.65389
1127.63	12.8535
1130.52	14.3888
1133.41	13.2853
1136.31	19.6705
1139.2	21.8481
1142.09	6.86552
1144.98	25.1301
1147.88	19.2916
1150.77	0.96965
1153.66	26.7379
1156.56	9.91302
1159.45	12.2116
1162.34	2.70088
1165.23	14.2211
1168.13	16.2931
1171.02	1.07678
1173.91	1.96877
1176.81	17.0844
1179.7	19.2485
1182.59	15.3666
1185.48	8.29877
1188.38	35.8401
1191.27	13.1178
1194.16	16.1737
1197.05	14.2099
1199.95	24.4896
1202.84	20.3332
1205.73	28.7918
1208.62	15.8569
1211.52	12.9965
1214.41	21.391
1217.3	14.1057
1220.2	22.8653
1223.09	4.64697
1225.98	18.7831
1228.87	10.9852
1231.77	8.77464
1234.66	17.5393
1237.55	10.3085
1240.44	26.4394
1243.34	5.85344
1246.23	8.09117
1249.12	10.864
1252.02	0.137192
1254.91	15.7216
1257.8	13.4336
1260.69	26.5648
1263.59	11.7733
1266.48	29.5272
1269.37	14.3822
1272.26	8.71445
1275.16	32.2155
1278.05	13.8235
1280.94	9.12305
1283.84	8.52536
1286.73	13.8739
