Measurement: Raman, 532 nm, unoriented, Raman Data Processed
Mineral: Kombatite
Rruff sample: R070720
Ideal chemistry: Pb_14_O_9_(VO_4_)_2_Cl_4_
Locality: Kombat mine, Kombat, Grootfontein District, Otjozondjupa Region, Namibia
Source: William W. Pinch
Description: Yellow irregular crystals with perfect cleavage, associated with black jacobsite, R070719 and colorless barysilite, R070651
Raman shift (cm-1)	intensity
190.034	153.684
192.927	192.31
195.82	36.4346
198.712	19.3936
201.605	150.19
204.498	351.495
207.39	507.247
210.283	433.473
213.176	1270.88
216.069	1866
218.961	2504.67
221.854	2897.11
224.747	3098.98
227.639	3284.69
230.532	3348.25
233.425	3414.85
236.317	3399.58
239.21	3485.25
242.103	3429.86
244.995	3580.58
247.888	3747.18
250.781	3617.01
253.674	3170.77
256.566	2739.93
259.459	2411.17
262.352	2177.08
265.244	2218.34
268.137	2625.26
271.03	3264.72
273.923	4001.71
276.815	4171.65
279.708	3447.14
282.601	2463.4
285.493	1655.04
288.386	1430.48
291.279	1614.06
294.171	1990.71
297.064	2655.32
299.957	3354.29
302.849	4097.33
305.742	4760.99
308.635	5356.16
311.528	5837.38
314.42	6196.59
317.313	6566.12
320.206	6423.06
323.098	5755.77
325.991	5257.92
328.884	4994.75
331.776	4744.43
334.669	4664.99
337.562	4437.69
340.455	3990.39
343.347	2997.24
346.24	2203.29
349.133	1428.29
352.025	876.011
354.918	573.981
357.811	654.828
360.704	1048.4
363.596	1874.38
366.489	2857.98
369.382	3156.66
372.274	2745.28
375.167	1831.94
378.06	941.947
380.952	174.543
383.845	241.097
386.738	477.601
389.63	405.55
392.523	176.996
395.416	137.016
398.308	804.039
401.201	1448.66
404.094	2417.88
406.987	3688.68
409.879	5204.78
412.772	6393.63
415.665	6920.98
418.557	6704.82
421.45	6048.15
424.343	5186.56
427.236	4298.34
430.128	3674.52
433.021	3138.23
435.914	2797.88
438.806	2394.68
441.699	2125.44
444.592	1735.26
447.484	1182.1
450.377	736
453.27	587.658
456.163	421.952
459.055	356.883
461.948	259.404
464.841	116.551
467.733	22.3225
470.626	0.303223
473.519	11.3025
476.411	25.3296
479.304	30.1135
482.197	23.4102
485.089	154.148
487.982	180.105
490.875	117.74
493.768	111.79
496.66	111.314
499.553	99.2373
502.446	98.9023
505.338	110.516
508.231	145.113
511.124	179.59
514.016	203.647
516.909	226.751
519.802	216.849
522.695	191.983
525.587	196.856
528.48	177.874
531.373	165.445
534.265	176.419
537.158	107.242
540.051	76.2576
542.943	121.929
545.836	89.2993
548.729	120.06
551.622	147.188
554.514	114.412
557.407	81.6531
560.3	105.41
563.192	53.3481
566.085	119.149
568.978	111.812
571.87	47.7465
574.763	55.3975
577.656	73.0481
580.549	49.9515
583.441	64.2894
586.334	50.5627
589.227	51.9696
592.119	63.7334
595.012	92.1683
597.905	114.613
600.798	108.212
603.69	99.0864
606.583	119.177
609.476	80.5776
612.368	111.105
615.261	99.0604
618.154	105.908
621.046	123.446
623.939	81.9915
626.832	83.4873
629.725	117.965
632.617	93.3053
635.51	80.2064
638.403	110.985
641.295	120.859
644.188	129.55
647.081	110.037
649.973	138.143
652.866	106.756
655.759	61.5625
658.651	113.156
661.544	101.18
664.437	90.3447
667.33	87.7148
670.222	64.2781
673.115	57.9607
676.008	18.4851
678.9	9.05371
681.793	14.1277
684.686	8.04053
687.578	1.1499
690.471	2.84937
693.364	35.168
696.256	61.9824
699.149	28.0481
702.042	29.4304
704.935	26.9487
707.827	22.6921
710.72	50.4121
713.613	79.0105
716.505	198.351
719.398	230.44
722.291	321.217
725.183	346.202
728.076	343.977
730.969	258.021
733.862	204.826
736.754	106.36
739.647	23.5698
742.54	14.103
745.432	6.12061
748.325	98.6199
751.218	200.752
754.111	393.928
757.003	723.575
759.896	976.662
762.789	952.153
765.681	659.333
768.574	472.341
771.467	556.596
774.359	908.244
777.252	1532.4
780.145	2543.05
783.038	3276.95
785.93	2914.78
788.823	2352.78
791.716	2724.24
794.608	3743.55
797.501	5806.51
800.394	9660.96
803.286	15679.5
806.179	18274.9
809.072	15140.2
811.965	17402.9
814.857	23537
817.75	28505.2
820.643	21108.4
823.535	11305.2
826.428	6386.98
829.321	3913.31
832.213	2538.14
835.106	1716.85
837.999	1171.4
840.891	865.204
843.784	590.513
846.677	434.128
849.57	293.297
852.462	208.58
855.355	131.098
858.248	85.0776
861.14	64.3435
864.033	39.2012
866.926	55.0574
869.818	38.6201
872.711	47.1382
875.604	41.657
878.497	21.3696
881.389	60.2151
884.282	142.416
887.175	229.343
890.067	418.776
892.96	590.426
895.853	730.629
898.745	703.04
901.638	415.545
904.531	211.352
907.424	75.2153
910.316	41.5681
913.209	69.5208
916.102	132.583
918.994	110.145
921.887	68.4937
924.78	15.2117
927.673	21.1963
930.565	12.3047
933.458	15.0332
936.351	4.88232
939.243	16.7617
942.136	32.3167
945.029	49.9451
947.921	84.1516
950.814	118.356
953.707	133.108
956.6	133.148
959.492	182.796
962.385	282.303
965.278	311.946
968.17	469.293
971.063	463.682
973.956	333.178
976.848	261.699
979.741	196.519
982.634	214.971
985.526	186.996
988.419	164.985
991.312	127.182
994.205	131.449
997.097	87.3381
999.99	146.061
1002.88	131.283
1005.77	133.882
1008.67	71.8584
1011.56	91.7969
1014.45	64.3137
1017.35	70.8579
1020.24	89.7739
1023.13	61.4185
1026.02	36.0725
1028.92	42.8227
1031.81	40.1182
1034.7	46.9177
1037.6	22.4434
1040.49	17.1079
1043.38	53.2246
1046.27	30.5249
1049.17	5.31323
1052.06	43.875
1054.95	13.6843
1057.84	29.0012
1060.74	9.82129
1063.63	34.7144
1066.52	51.7278
1069.41	45.0915
1072.31	56.8477
1075.2	114.465
1078.09	83.105
1080.98	69.6523
1083.88	57.0193
1086.77	104.966
1089.66	93.019
1092.56	98.5879
1095.45	61.9238
1098.34	67.8496
1101.23	32.4614
1104.13	77.2798
1107.02	8.646
1109.91	53.7483
1112.81	37.3018
1115.7	17.9934
1118.59	20.3525
1121.48	27.0759
1124.38	23.6038
1127.27	8.41089
1130.16	38.439
1133.05	82.7046
1135.95	59.095
1138.84	52.1738
1141.73	42.9951
1144.62	44.1343
1147.52	38.1953
1150.41	80.416
1153.3	13.3794
1156.2	38.0964
1159.09	25.6448
1161.98	22.7761
1164.87	6.46606
1167.77	26.0762
1170.66	24.2478
1173.55	63.8779
1176.44	8.25513
1179.34	44.6211
1182.23	5.41675
1185.12	45.7114
1188.02	18.3882
1190.91	84.9875
1193.8	57.8447
1196.69	55.5486
1199.59	51.9812
1202.48	56.3677
1205.37	63.5154
1208.26	67.9644
1211.16	66.27
1214.05	57.2864
1216.94	41.7996
1219.84	186.082
1222.73	38.9214
1225.62	5.09521
1228.51	16.6968
1231.41	37.509
1234.3	7.58862
1237.19	10.0544
1240.08	20.5427
1242.98	36.8398
1245.87	4.93262
1248.76	8.34106
1251.65	58.4529
1254.55	45.6787
1257.44	0.914063
1260.33	30.5669
1263.23	26.4065
1266.12	22.1101
1269.01	0.656738
1271.9	15.3799
1274.8	50.6504
1277.69	42.6645
1280.58	2.19873
1283.47	39.3237
1286.37	28.2288
1289.26	44.887
1292.15	39.3528
1295.05	6.48413
1297.94	4.43115
1300.83	0
