Measurement: Raman, 532 nm, unoriented, Raman Data Processed
Mineral: Koritnigite
Rruff sample: R060654
Ideal chemistry: Zn^2+^(As^5+^O_3_OH)H_2_O
Locality: Jachymov, Czech Republic
Source: Michael Scott
Description: Reddish-pink spherical aggregates
Measured chemistry: (Zn_0.83_Co_0.13_Ni_0.03_Fe_0.01_)_Σ=1_(As_1.00_O_3_OH)·H_2_O ; OH estimated by stoichiometry and charge balance
Raman shift (cm-1)	intensity
129.237	0
132.13	243.724
135.022	620.706
137.915	1022.8
140.808	1192.06
143.7	868.585
146.593	721.923
149.486	799.981
152.378	1178.77
155.271	1708.78
158.164	2350.22
161.057	3282.29
163.949	4305.92
166.842	4964.28
169.735	5325.96
172.627	4955.97
175.52	3875.71
178.413	2756.53
181.305	2197.15
184.198	1789.93
187.091	1535.92
189.984	1357.9
192.876	1055.68
195.769	904.545
198.662	742.438
201.554	890.394
204.447	1023.76
207.34	1135.43
210.232	1159.66
213.125	1174.46
216.018	1203.38
218.911	1236.47
221.803	1306.26
224.696	1435.53
227.589	1626.23
230.481	1912.94
233.374	2026.42
236.267	2018.08
239.16	1857.87
242.052	1543.04
244.945	1279.77
247.838	932.276
250.73	695.838
253.623	528.361
256.516	380.875
259.408	304.215
262.301	278.433
265.194	270.424
268.086	194.735
270.979	243.552
273.872	93.325
276.765	150.201
279.657	170.863
282.55	175.943
285.443	103.452
288.335	5.816
291.228	32.766
294.121	13.3
297.013	135.416
299.906	266.104
302.799	493.462
305.692	792.147
308.584	919.169
311.477	967.518
314.37	1012.46
317.262	1227.14
320.155	1601.72
323.048	2103.65
325.94	2680.89
328.833	2942.17
331.726	2626.75
334.618	2139.4
337.511	1730.78
340.404	1521.96
343.297	1394.93
346.189	1223.35
349.082	1312.91
351.975	1332.77
354.867	1653.14
357.76	1899.7
360.653	2075.59
363.546	2455.01
366.438	2701.75
369.331	2981.35
372.224	2971.15
375.116	2769.71
378.009	2411.8
380.902	2177.89
383.794	2011.43
386.687	2064.94
389.58	2260.7
392.473	2350.6
395.365	2293.87
398.258	2087.32
401.151	1847.18
404.043	1518.56
406.936	1430.07
409.829	1399.39
412.721	1487.2
415.614	1622.04
418.507	1898.12
421.4	1993.53
424.292	2097.03
427.185	1993.44
430.078	1915.98
432.97	1785.48
435.863	1625.18
438.756	1637
441.648	1626.15
444.541	1816.59
447.434	1951.14
450.327	2143.66
453.219	2089.48
456.112	2267.97
459.005	2191.3
461.897	2105.86
464.79	1945.46
467.683	1739.38
470.575	1596.16
473.468	1476.77
476.361	1402.26
479.254	1199.21
482.146	1015.34
485.039	922.17
487.932	730.707
490.824	498.284
493.717	388.087
496.61	291.301
499.502	160.162
502.395	114.607
505.288	29.272
508.181	29.46
511.073	83.204
513.966	41.949
516.859	42.23
519.751	28.327
522.644	30.41
525.537	104.296
528.429	86.365
531.322	121.92
534.215	63.134
537.107	184.382
540	108.495
542.893	67.248
545.786	17.843
548.678	53.435
551.571	77.097
554.464	21.136
557.356	92.282
560.249	60.486
563.142	46.973
566.034	9.887
568.927	61.239
571.82	8
574.713	20.191
577.605	38.753
580.498	64.889
583.391	67.66
586.283	47.713
589.176	23.364
592.069	46.428
594.961	37.3
597.854	57.945
600.747	16.615
603.64	13.558
606.532	15.891
609.425	9.064
612.318	31.283
615.21	34.237
618.103	5.52
620.996	43.66
623.888	9.708
626.781	78.46
629.674	23.507
632.567	100.735
635.459	60.386
638.352	83.617
641.245	112.127
644.137	78.465
647.03	79.54
649.923	47.357
652.815	29.351
655.708	22.082
658.601	21.768
661.494	49.086
664.386	43.638
667.279	49.059
670.172	40.661
673.064	20.357
675.957	54.156
678.85	88.234
681.742	41.988
684.635	23.46
687.528	6.388
690.42	58.468
693.313	125.21
696.206	130.665
699.099	83.329
701.991	142.565
704.884	150.416
707.777	164.128
710.669	96.306
713.562	123.667
716.455	61.27
719.347	10.743
722.24	34.765
725.133	35.238
728.026	147.373
730.918	195.464
733.811	399.344
736.704	461.368
739.596	629.391
742.489	736.038
745.382	926.176
748.274	1037.53
751.167	1107.68
754.06	1060.96
756.953	1410.79
759.845	1537.27
762.738	1645.13
765.631	1683.81
768.523	1717.8
771.416	1668.6
774.309	1567.73
777.201	1555.1
780.094	1627.64
782.987	1939.58
785.88	2386.25
788.772	3080.8
791.665	3861.14
794.558	5039.26
797.45	6376.1
800.343	7932.27
803.236	9631.9
806.128	11465
809.021	13155.4
811.914	14036.7
814.807	14023.4
817.699	13120.6
820.592	12172.2
823.485	11225.8
826.377	10851.1
829.27	10737.2
832.163	10964.6
835.055	11121.3
837.948	11369.6
840.841	11268.2
843.734	11120.7
846.626	10587.5
849.519	9977.17
852.412	9230.35
855.304	8709.7
858.197	8313.27
861.09	8324.73
863.982	8345.32
866.875	8452.19
869.768	8703.74
872.661	8822.95
875.553	8999.43
878.446	9174.61
881.339	9336.39
884.231	9395.24
887.124	9392.62
890.017	8921.52
892.909	8380.49
895.802	7151.74
898.695	5805.29
901.588	4507.31
904.48	3454.99
907.373	2633.8
910.266	2102.94
913.158	1549.87
916.051	1216.35
918.944	904.683
921.836	731.009
924.729	549.312
927.622	486.684
930.515	338.297
933.407	281.005
936.3	98.746
939.193	49.199
942.085	39.858
944.978	112.427
947.871	93.798
950.763	97.838
953.656	117.282
956.549	99.352
959.442	58.886
962.334	58.934
965.227	49.747
968.12	20.176
971.012	98.792
973.905	127.581
976.798	100.211
979.69	49.175
982.583	58.379
985.476	102.38
988.369	126.785
991.261	115.801
994.154	105.911
997.047	89.198
999.939	105.785
1002.83	98.521
1005.73	33.372
1008.62	99.718
1011.51	5.694
1014.4	8.848
1017.29	89.4
1020.19	55.1
1023.08	22.755
1025.97	56.224
1028.87	28.009
1031.76	55.822
1034.65	16.815
1037.54	18.312
1040.44	27.44
1043.33	25.828
1046.22	93.051
1049.12	33.666
1052.01	18.173
1054.9	9.616
1057.79	38.257
1060.69	41.526
1063.58	5.56
1066.47	59.669
1069.36	10.932
1072.26	49.132
1075.15	0.92
1078.04	0.254
1080.93	33.268
1083.83	33.159
1086.72	57.614
1089.61	31.522
1092.51	95.15
1095.4	18.688
1098.29	82.253
1101.18	34.399
1104.08	45.039
1106.97	71.149
1109.86	77.464
1112.76	5.52
1115.65	108.845
1118.54	49.572
1121.43	30.367
1124.33	0.297
1127.22	21.572
1130.11	85.388
1133	32.135
1135.9	21.797
1138.79	55.204
1141.68	13.715
1144.57	17.502
1147.47	1.562
1150.36	27.296
1153.25	21.416
1156.14	15.187
1159.04	3.082
1161.93	18.255
1164.82	6.779
1167.72	50.895
1170.61	0.817
1173.5	41.396
1176.39	32.045
1179.29	29.232
1182.18	103.762
1185.07	77.194
1187.96	56.578
1190.86	13.412
1193.75	22.465
1196.64	33.486
1199.54	3.339
1202.43	10.297
1205.32	29.396
1208.21	24.158
1211.11	0.583
1214	35.863
1216.89	67.584
1219.78	30.53
1222.68	27.626
1225.57	71.419
1228.46	29.791
1231.36	81.806
1234.25	45.3
1237.14	23.462
1240.03	30.229
1242.93	46.696
1245.82	51.125
