Measurement: Raman, 780 nm, unoriented, Raman Data Processed
Mineral: Kornerupine
Rruff sample: R100155
Ideal chemistry: (Mg,Fe^2+^)_4_Al_6_(Si,Al,B)_5_O_21_(OH)
Locality: Sri Lanka
Source: William W. Pinch
Description: Colorless to pale yellow cut gemstone
Raman shift (cm-1)	intensity
147.495	0
150.388	0.098312
153.281	3.80437
156.173	5.95554
159.066	8.99464
161.959	15.8391
164.851	14.5361
167.744	8.84084
170.637	5.33223
173.53	6.75368
176.422	10.5484
179.315	10.1311
182.208	7.57651
185.1	9.13266
187.993	5.59306
190.886	5.83259
193.778	2.64307
196.671	0.146057
199.564	3.01662
202.457	0.895248
205.349	1.54527
208.242	0.056595
211.135	3.13885
214.027	4.69287
216.92	7.48498
219.813	10.5824
222.705	15.0354
225.598	17.2196
228.491	23.3564
231.383	27.0432
234.276	31.5659
237.169	32.5855
240.061	34.9001
242.954	35.3874
245.847	42.9205
248.74	50.5948
251.632	68.6578
254.525	95.3429
257.418	120.888
260.31	121.354
263.203	84.4523
266.096	46.6472
268.988	29.5872
271.881	16.5329
274.774	13.6097
277.667	7.18005
280.559	4.57959
283.452	4.93304
286.345	13.0803
289.237	20.5346
292.13	32.8901
295.023	37.0802
297.916	34.4899
300.808	27.0266
303.701	19.3397
306.594	13.5078
309.486	11.4518
312.379	9.3936
315.272	14.0466
318.164	15.9542
321.057	22.1395
323.95	29.5484
326.842	34.0459
329.735	36.443
332.628	34.2923
335.521	29.3562
338.413	18.7239
341.306	9.26497
344.199	2.86304
347.091	3.13603
349.984	2.8736
352.877	0.619797
355.769	8.08214
358.662	25.8264
361.555	42.2578
364.447	52.2721
367.34	49.3526
370.233	44.5264
373.126	42.4724
376.018	40.221
378.911	37.2734
381.804	40.4682
384.696	39.322
387.589	42.7616
390.482	45.5059
393.375	47.0127
396.267	42.9283
399.16	40.5829
402.053	31.7325
404.945	23.5642
407.838	14.3651
410.731	8.18921
413.623	5.22365
416.516	2.14754
419.409	0.793228
422.301	1.0305
425.194	0.213348
428.087	1.62756
430.98	1.30717
433.872	0.058617
436.765	0.949112
439.658	0.5364
442.55	0.264854
445.443	1.15179
448.336	2.48515
451.228	5.93673
454.121	6.52138
457.014	8.25856
459.907	10.1319
462.799	13.0003
465.692	17.8006
468.585	13.19
471.477	11.9311
474.37	11.4949
477.263	9.32023
480.156	7.4345
483.048	5.09074
485.941	6.0754
488.834	5.33206
491.726	2.57064
494.619	0.564804
497.512	0.567947
500.404	0.254044
503.297	0.50708
506.19	0.694962
509.082	0.331261
511.975	1.27473
514.868	3.83958
517.761	2.86797
520.653	3.70325
523.546	4.17926
526.439	2.15661
529.331	3.00363
532.224	3.73083
535.117	6.12272
538.01	6.0945
540.902	13.1764
543.795	8.08016
546.688	9.21113
549.58	8.30227
552.473	9.18867
555.366	6.74032
558.258	6.75814
561.151	7.51017
564.044	9.9314
566.936	11.5979
569.829	15.2718
572.722	13.7914
575.615	13.6976
578.507	11.8442
581.4	9.64079
584.293	9.4753
587.185	9.40614
590.078	6.12704
592.971	8.5719
595.863	8.2677
598.756	9.57537
601.649	10.8997
604.542	9.0138
607.434	11.5154
610.327	10.0865
613.22	11.1316
616.112	7.23202
619.005	4.5449
621.898	4.68244
624.79	2.64919
627.683	1.54426
630.576	0.592506
633.468	0.787476
636.361	0.989365
639.254	0.722488
642.146	0.743225
645.039	2.11844
647.932	1.60461
650.825	0.065392
653.717	0.011848
656.61	0.635925
659.503	2.79626
662.395	0.572502
665.288	2.00816
668.181	4.16898
671.073	1.35825
673.966	5.47773
676.859	4.92217
679.752	4.07777
682.644	4.79924
685.537	9.64842
688.43	12.8529
691.322	17.1891
694.215	25.078
697.108	32.021
700	38.5063
702.893	47.3834
705.786	48.3804
708.679	45.749
711.571	35.261
714.464	26.232
717.357	16.5705
720.249	9.84492
723.142	5.35779
726.035	1.3241
728.928	0.488953
731.82	0.074432
734.713	1.96298
737.606	5.15207
740.498	11.1186
743.391	18.7237
746.284	26.5212
749.176	34.2448
752.069	39.1448
754.962	37.693
757.855	34.2788
760.747	29.8331
763.64	20.8781
766.533	14.8986
769.425	6.87434
772.318	5.49062
775.211	2.25212
778.103	2.86607
780.996	2.74863
783.889	3.63741
786.782	6.52507
789.674	8.0519
792.567	10.3559
795.46	14.5658
798.352	14.2359
801.245	14.6166
804.138	9.60297
807.03	7.17181
809.923	3.38638
812.816	0.810486
815.708	1.9433
818.601	0.088318
821.494	0.204453
824.386	0.406754
827.279	1.19
830.172	0.265518
833.065	0.669159
835.957	0.866196
838.85	0.220535
841.743	3.17563
844.635	2.03055
847.528	3.92906
850.421	4.15941
853.313	6.26079
856.206	10.5509
859.099	8.97531
861.992	13.4569
864.884	17.215
867.777	21.1113
870.67	26.4597
873.562	33.3603
876.455	38.899
879.348	44.1228
882.24	44.5906
885.133	39.9366
888.026	31.7271
890.919	23.8284
893.811	16.3122
896.704	10.7608
899.597	5.50371
902.489	4.19669
905.382	3.20586
908.275	2.17743
911.168	1.46188
914.06	0.15184
916.953	0.856674
919.846	1.04016
922.738	0.239578
925.631	0.867569
928.524	0.632782
931.416	1.51958
934.309	1.75636
937.202	1.17146
940.095	4.4077
942.987	8.5489
945.88	11.8369
948.773	16.2603
951.665	23.8525
954.558	30.579
957.451	37.0985
960.343	45.1237
963.236	48.3176
966.129	50.8562
969.021	50.1879
971.914	48.6764
974.807	46.0133
977.699	41.2429
980.592	36.4341
983.485	29.7317
986.378	23.0012
989.27	19.4489
992.163	13.9981
995.056	15.5797
997.948	12.365
1000.84	11.6843
1003.73	12.0831
1006.63	8.03375
1009.52	10.4743
1012.41	8.57468
1015.3	6.31013
1018.2	4.15517
1021.09	6.33852
1023.98	6.25551
1026.88	5.44771
1029.77	5.1102
1032.66	5.69659
1035.55	7.35802
1038.45	6.67969
1041.34	6.78511
1044.23	5.48222
1047.12	6.05438
1050.02	4.86292
1052.91	6.7934
1055.8	4.65569
1058.69	3.54132
1061.59	5.01192
1064.48	2.49858
1067.37	2.90811
1070.27	3.41592
1073.16	0.426224
1076.05	1.05022
1078.94	0.391052
1081.84	0.907166
1084.73	1.09631
1087.62	0.130035
1090.52	1.60843
1093.41	0.503281
1096.3	0.204407
1099.19	0.95903
1102.09	3.39444
1104.98	3.39673
1107.87	7.64078
1110.76	6.53958
1113.66	6.9256
1116.55	10.814
1119.44	9.218
1122.33	8.03561
1125.23	10.2837
1128.12	8.71066
1131.01	7.386
1133.9	5.61153
1136.8	5.52502
1139.69	3.15367
1142.58	3.80585
1145.48	3.06357
1148.37	2.03813
1151.26	2.56982
1154.15	1.58092
1157.05	1.76907
1159.94	3.78815
1162.83	2.65033
1165.72	0.975906
1168.62	3.17105
1171.51	2.04817
1174.4	0.338867
1177.3	1.45976
1180.19	0.252075
1183.08	1.03171
1185.97	0.514969
1188.87	2.83234
1191.76	0.135727
1194.65	1.20563
1197.55	2.47224
1200.44	0.817001
1203.33	1.06392
1206.22	1.42748
1209.12	0.89061
1212.01	1.91327
1214.9	1.7606
1217.79	0.602188
1220.69	1.66023
1223.58	2.39864
1226.47	2.31157
1229.36	1.81268
1232.26	1.54921
1235.15	3.23761
1238.04	1.97736
1240.93	2.20268
1243.83	2.433
1246.72	0.81694
1249.61	3.96718
1252.51	0.960999
1255.4	4.49765
1258.29	2.44995
1261.18	0.890381
1264.08	0.771851
1266.97	2.40337
1269.86	0.720184
1272.76	3.16092
1275.65	1.00682
1278.54	1.09062
1281.43	2.12634
1284.33	1.5816
