Measurement: Raman, 532 nm, unoriented, Raman Data Processed
Mineral: Kornerupine
Rruff sample: R100155
Ideal chemistry: (Mg,Fe^2+^)_4_Al_6_(Si,Al,B)_5_O_21_(OH)
Locality: Sri Lanka
Source: William W. Pinch
Description: Colorless to pale yellow cut gemstone
Raman shift (cm-1)	intensity
172.513	0
175.406	3.70424
178.298	4.02072
181.191	1.51147
184.084	4.65634
186.976	7.56488
189.869	10.4991
192.762	6.72553
195.655	4.72926
198.547	1.04649
201.44	0.15744
204.333	0.387421
207.225	0.110367
210.118	4.42221
213.011	5.922
215.904	12.6842
218.796	13.4744
221.689	15.7707
224.582	21.2644
227.474	28.0375
230.367	30.1798
233.26	38.5631
236.152	35.9754
239.045	40.6177
241.938	40.3566
244.831	52.9832
247.723	63.8983
250.616	77.8866
253.509	100.915
256.401	123.482
259.294	146.377
262.187	122.098
265.079	80.9856
267.972	49.6037
270.865	30.9219
273.758	23.2028
276.65	10.6275
279.543	5.12424
282.436	3.02469
285.328	6.91663
288.221	19.7
291.114	32.4809
294.007	43.5985
296.899	44.6718
299.792	35.4963
302.685	21.7357
305.577	12.1939
308.47	11.3736
311.363	8.47848
314.255	11.9496
317.148	17.8192
320.041	26.5655
322.933	34.5629
325.826	42.5496
328.719	45.0067
331.612	46.4688
334.504	38.384
337.397	20.9008
340.29	12.8638
343.183	0.929565
346.075	4.72754
348.968	0.368988
351.861	4.92474
354.753	6.92624
357.646	23.9144
360.539	38.3896
363.431	54.3031
366.324	61.7312
369.217	57.7181
372.11	54.9008
375.002	55.183
377.895	57.4663
380.788	58.5661
383.68	60.8699
386.573	60.7675
389.466	65.2627
392.358	63.6941
395.251	62.593
398.144	58.3406
401.036	51.75
403.929	41.2755
406.822	24.9093
409.715	17.252
412.607	9.50018
415.5	7.59192
418.393	5.06921
421.285	0.884277
424.178	1.74829
427.071	0.353668
429.964	0.116927
432.856	2.45911
435.749	1.17969
438.642	1.12698
441.534	4.65152
444.427	3.14212
447.32	6.24954
450.212	9.43878
453.105	12.3713
455.998	12.1547
458.891	15.6771
461.783	19.0017
464.676	21.1655
467.569	20.2991
470.461	21.6054
473.354	16.648
476.247	22.8641
479.139	17.3428
482.032	14.43
484.925	9.49316
487.818	10.2191
490.71	7.14636
493.603	5.76614
496.496	0.825653
499.388	0.465546
502.281	0.637756
505.174	0.488953
508.067	0.481171
510.959	1.0921
513.852	2.52499
516.745	3.23782
519.637	3.60437
522.53	3.29355
525.423	4.53012
528.316	5.18149
531.208	7.60803
534.101	9.87558
536.994	9.98749
539.886	11.7335
542.779	13.3275
545.672	9.83728
548.564	11.9327
551.457	11.257
554.35	12.0294
557.242	10.7194
560.135	11.2666
563.028	11.355
565.921	16.1539
568.813	15.9595
571.706	20.972
574.599	18.2163
577.491	16.9843
580.384	15.9649
583.277	14.549
586.17	16.6099
589.062	15.9733
591.955	14.3522
594.848	15.7009
597.74	14.7982
600.633	18.4111
603.526	18.0523
606.418	16.5476
609.311	18.6899
612.204	17.7409
615.097	14.7506
617.989	11.6927
620.882	5.37088
623.775	4.47144
626.667	1.81796
629.56	1.49423
632.453	1.39121
635.346	2.81848
638.238	2.00967
641.131	0.258575
644.024	2.63791
646.916	0.303192
649.809	1.052
652.702	1.31926
655.594	6.79855
658.487	6.53693
661.38	8.88904
664.273	4.37894
667.165	5.51007
670.058	9.01056
672.951	12.554
675.843	13.0889
678.736	13.5161
681.629	18.0919
684.521	22.9761
687.414	27.9691
690.307	38.3294
693.199	47.3961
696.092	57.9127
698.985	66.9142
701.878	78.5445
704.77	81.7064
707.663	75.31
710.556	60.9723
713.448	45.8636
716.341	32.1314
719.234	16.61
722.127	9.21399
725.019	4.07101
727.912	1.17398
730.805	0.529755
733.697	2.94122
736.59	11.1146
739.483	14.5042
742.375	25.6726
745.268	33.7241
748.161	42.8737
751.054	52.2008
753.946	54.9941
756.839	53.544
759.732	45.0781
762.625	32.7903
765.517	25.8565
768.41	16.7039
771.303	8.28897
774.195	6.11093
777.088	6.40369
779.981	7.40564
782.873	10.2572
785.766	12.7099
788.659	14.3694
791.552	18.7343
794.444	24.0154
797.337	26.958
800.23	24.9525
803.122	19.5229
806.015	16.2812
808.908	9.86987
811.8	4.57684
814.693	2.56125
817.586	0.272949
820.479	0.598969
823.371	1.4848
826.264	1.15823
829.157	1.26623
832.049	1.41226
834.942	1.75092
837.835	0.311371
840.727	2.79529
843.62	1.08527
846.513	5.02841
849.405	4.66064
852.298	11.8293
855.191	15.0386
858.084	19.9817
860.976	21.7563
863.869	31.6336
866.762	38.7479
869.654	47.5709
872.547	58.7858
875.44	73.9591
878.333	85.6898
881.225	85.822
884.118	83.2243
887.011	64.3941
889.903	49.6308
892.796	35.7234
895.689	27.6095
898.582	18.6165
901.474	10.1092
904.367	7.24539
907.26	5.23019
910.152	0.218018
913.045	1.40085
915.938	0.322479
918.83	1.42813
921.723	0.464935
924.616	0.293243
927.509	2.69827
930.401	1.23978
933.294	4.42911
936.187	2.65787
939.079	3.61707
941.972	6.25925
944.865	11.4987
947.757	23.0926
950.65	36.1761
953.543	54.0404
956.436	67.5239
959.328	81.5172
962.221	89.2351
965.114	99.7349
968.006	98.0237
970.899	95.2557
973.792	86.7178
976.684	75.8342
979.577	66.0881
982.47	53.7696
985.362	43.8834
988.255	36.9876
991.148	30.6685
994.041	23.3834
996.933	23.2324
999.826	27.0121
1002.72	27.3132
1005.61	27.4275
1008.5	26.0285
1011.4	27.5216
1014.29	26.126
1017.18	26.7248
1020.08	26.2172
1022.97	26.1568
1025.86	23.3387
1028.75	26.6787
1031.65	28.1227
1034.54	22.9674
1037.43	24.0339
1040.32	21.0991
1043.22	17.491
1046.11	21.8729
1049	19.0093
1051.89	19.1048
1054.79	15.4401
1057.68	13.4954
1060.57	12.0635
1063.47	7.06848
1066.36	7.76288
1069.25	1.71024
1072.14	5.11191
1075.04	1.59631
1077.93	0.444244
1080.82	0.306854
1083.71	1.26395
1086.61	0.435942
1089.5	2.35479
1092.39	2.14557
1095.29	2.28506
1098.18	1.6583
1101.07	6.61075
1103.96	5.7569
1106.86	8.11603
1109.75	8.63791
1112.64	12.3235
1115.53	14.0808
1118.43	15.284
1121.32	15.6345
1124.21	17.5905
1127.11	14.9503
1130	13.9427
1132.89	13.479
1135.78	9.5112
1138.68	8.2691
1141.57	9.16537
1144.46	6.20026
1147.35	3.62588
1150.25	3.82443
1153.14	6.2981
1156.03	2.33539
1158.92	2.98193
1161.82	3.11151
1164.71	2.68234
1167.6	2.84842
1170.5	2.63953
1173.39	2.74692
1176.28	3.10232
1179.17	0.026672
1182.07	1.72119
1184.96	1.3446
1187.85	0.464752
1190.74	1.1333
1193.64	1.47979
1196.53	0.10556
1199.42	1.09326
1202.32	0.898926
1205.21	2.99695
1208.1	2.1683
1210.99	2.34915
1213.89	4.79272
1216.78	4.25525
1219.67	3.46628
1222.56	3.5961
1225.46	3.61221
1228.35	6.51871
1231.24	4.52338
1234.13	4.12695
1237.03	5.77118
1239.92	4.63904
1242.81	2.09488
1245.71	6.33112
1248.6	3.95737
1251.49	3.47299
1254.38	3.82077
1257.28	3.39966
1260.17	5.78259
1263.06	7.58743
1265.95	4.96344
1268.85	4.60928
1271.74	4.87155
1274.63	4.17664
1277.53	0.297913
1280.42	2.95239
1283.31	4.65137
1286.2	3.5621
1289.1	0.19281
1291.99	1.99753
1294.88	2.91232
1297.78	1.53613
1300.67	0.444122
