Measurement: Raman, 532 nm, unoriented, Raman Data Processed
Mineral: Kornerupine
Rruff sample: R050214
Ideal chemistry: (Mg,Fe^2+^)_4_Al_6_(Si,Al,B)_5_O_21_(OH)
Locality: Sri Lanka
Source: Jibamitra Ganguly
Description: Water-worn single crystal fragment
Measured chemistry: (Mg_3.63_[box]_0.21_Fe^2+^_0.14_Na_0.02_)_4_Al_6.00_(Si_2.44_Al_1.97_B_0.59_)_5_O_21_(OH) ;   B and Li not measured; B estimated by charge balance
Raman shift (cm-1)	intensity
147.261	0
150.636	2.85959
154.011	10.1983
157.386	7.22522
160.76	15.5322
164.135	10.8004
167.51	3.35342
170.885	1.04111
174.26	0.458099
177.634	2.21808
181.009	7.57324
184.384	6.95081
187.759	13.0554
191.134	9.63934
194.508	11.3496
197.883	13.1157
201.258	21.9959
204.633	33.1273
208.008	52.221
211.382	76.5181
214.757	101.662
218.132	112.033
221.507	117.506
224.882	114.572
228.257	98.1538
231.631	73.238
235.006	62.3718
238.381	63.5722
241.756	69.9811
245.131	78.7069
248.506	84.3107
251.88	93.1857
255.255	105.542
258.63	115.143
262.005	106.091
265.38	87.4853
268.754	70.8798
272.129	41.3375
275.504	17.1229
278.879	0.73407
282.254	1.26245
285.628	8.68646
289.003	40.0043
292.378	79.3444
295.753	95.5831
299.128	77.0374
302.503	51.0757
305.877	32.5166
309.252	37.8277
312.627	55.3175
316.002	74.2683
319.377	92.8895
322.752	112.615
326.126	119.751
329.501	120.525
332.876	96.429
336.251	64.1197
339.625	31.2197
343	12.4791
346.375	2.79422
349.75	10.231
353.125	6.81393
356.5	1.40747
359.875	17.0143
363.249	43.7933
366.624	70.5021
369.999	88.1577
373.374	101.985
376.748	118.057
380.123	139.597
383.498	159.367
386.873	185.305
390.248	221.148
393.623	261.113
396.997	290.42
400.372	291.042
403.747	250.249
407.122	187.919
410.497	127.305
413.872	88.8445
417.246	70.2571
420.621	61.4401
423.996	56.9188
427.371	59.0179
430.746	51.6479
434.12	40.7465
437.495	27.1287
440.87	19.4781
444.245	15.7317
447.62	16.5841
450.995	19.4256
454.369	27.5486
457.744	38.4874
461.119	48.6528
464.494	57.6543
467.869	58.9597
471.243	55.2845
474.618	48.5149
477.993	38.8733
481.368	23.6958
484.743	11.427
488.118	1.4924
491.492	4.63446
494.867	5.64557
498.242	2.70494
501.617	8.55737
504.991	27.2767
508.366	47.8053
511.741	70.7666
515.116	88.332
518.491	86.8316
521.866	62.6417
525.24	34.7841
528.615	19.1562
531.99	11.3196
535.365	13.1207
538.74	21.9516
542.115	28.3749
545.489	29.7318
548.864	17.5373
552.239	6.98299
555.614	0.94754
558.989	1.39909
562.363	2.34972
565.738	5.16252
569.113	5.86581
572.488	10.2919
575.863	8.96429
579.237	10.6865
582.612	13.3628
585.987	15.9366
589.362	16.4608
592.737	17.0185
596.112	18.9292
599.486	14.6367
602.861	12.3647
606.236	9.7513
609.611	8.23753
612.986	6.38431
616.361	2.1608
619.735	2.7961
623.11	0.211365
626.485	3.09935
629.86	1.49892
633.235	2.29985
636.609	9.79103
639.984	18.1054
643.359	27.1476
646.734	43.3718
650.109	55.5496
653.484	65.4404
656.858	70.6016
660.233	67.0212
663.608	56.8969
666.983	43.2295
670.357	27.5991
673.732	13.3346
677.107	2.07564
680.482	0.575745
683.857	7.21089
687.232	22.2618
690.606	53.5278
693.981	91.2845
697.356	141.661
700.731	194.292
704.106	229.062
707.481	210.952
710.855	161.614
714.23	97.2757
717.605	46.837
720.98	13.4909
724.355	4.55544
727.729	6.95236
731.104	11.0206
734.479	37.1368
737.854	80.3939
741.229	133.78
744.604	197.356
747.978	259.177
751.353	308.29
754.728	319.435
758.103	280.51
761.477	212.673
764.852	146.468
768.227	91.8677
771.602	62.7906
774.977	46.6515
778.352	47.4283
781.726	55.0629
785.101	69.4227
788.476	85.0691
791.851	100.635
795.226	107.468
798.601	103.106
801.975	83.3814
805.35	64.6969
808.725	53.0657
812.1	45.9879
815.475	25.8995
818.849	8.2787
822.224	3.41267
825.599	1.88918
828.974	3.84076
832.349	2.12994
835.723	1.84013
839.098	2.4196
842.473	7.16687
845.848	16.2174
849.223	29.6525
852.598	49.1802
855.972	75.1126
859.347	106.883
862.722	154.505
866.097	214.335
869.472	288.621
872.846	365.659
876.221	425.346
879.596	451.816
882.971	429.885
886.346	363.235
889.721	276.142
893.095	198.662
896.47	135.65
899.845	91.7242
903.22	58.5305
906.595	34.8993
909.97	16.7457
913.344	3.76151
916.719	1.91504
920.094	6.59238
923.469	8.31735
926.844	7.70044
930.218	2.55264
933.593	6.63623
936.968	24.4483
940.343	49.7203
943.718	90.2802
947.092	146.611
950.467	221.459
953.842	311.554
957.217	406.085
960.592	487.378
963.966	533.009
967.341	552.671
970.716	534.146
974.091	498.614
977.466	443.664
980.841	392.578
984.215	350.046
987.59	324.753
990.965	330.272
994.34	354.43
997.715	396.361
1001.09	449.95
1004.46	507.667
1007.84	553.622
1011.21	583.369
1014.59	585.215
1017.96	572.458
1021.34	549.579
1024.71	509.357
1028.09	466.465
1031.46	409.116
1034.84	340.435
1038.21	276.653
1041.59	205.022
1044.96	149.106
1048.34	105.478
1051.71	69.1185
1055.09	44.8392
1058.46	25.7802
1061.84	14.3755
1065.21	7.86243
1068.59	0.507202
1071.96	1.82658
1075.34	3.55553
1078.71	6.42044
1082.09	5.47049
1085.46	7.05711
1088.84	0.575806
1092.21	1.38396
1095.58	3.86733
1098.96	6.25307
1102.33	11.4977
1105.71	13.3697
1109.08	23.1694
1112.46	26.5556
1115.83	31.9197
1119.21	35.7018
1122.58	40.067
1125.96	39.1003
1129.33	38.2757
1132.71	36.1107
1136.08	34.8299
1139.46	28.5961
1142.83	22.3754
1146.21	18.6447
1149.58	16.2438
1152.96	13.6564
1156.33	12.3691
1159.71	12.7212
1163.08	12.017
1166.45	14.879
1169.83	11.5044
1173.2	9.64784
1176.58	10.3784
1179.95	8.63219
1183.33	8.3913
1186.7	5.45438
1190.08	4.45979
1193.45	0.205086
1196.83	0.511307
1200.2	1.93549
1203.58	4.64764
1206.95	0.134338
1210.33	2.99506
1213.7	4.3996
1217.08	1.48097
1220.45	1.99271
1223.83	1.07768
1227.2	1.03548
1230.58	1.57507
1233.95	1.86313
1237.33	2.92785
1240.7	3.16589
1244.08	2.98907
1247.45	2.59196
1250.83	1.89918
1254.2	2.40254
1257.58	2.70259
1260.95	2.20306
1264.33	0.706207
1267.7	0.269135
1271.08	1.39462
1274.45	2.73296
1277.82	2.8623
1281.2	1.33353
1284.57	0.387901
1287.95	0.167252
1291.32	0.198082
1294.7	2.19684
1298.07	0.081863
1301.45	1.62999
1304.82	0.685417
