Measurement: Raman, 532 nm, unoriented, Raman Data Processed
Mineral: Korobitsynite
Rruff sample: R110192
Ideal chemistry: (Na,[box])_8_Ti_4_(Si_4_O_12_)_2_(O,OH)_4_8H_2_O
Locality: Poudrette quarry, Mont Saint-Hilaire, Quebec, Canada
Source: Donald Doell
Description: Colorless bladed crystals
Raman shift (cm-1)	intensity
196.558	0
199.451	1.15009
202.343	9.03326
205.236	35.207
208.129	63.1138
211.021	94.5068
213.914	117.684
216.807	142.966
219.699	163.824
222.592	180.236
225.485	194.857
228.377	206.847
231.27	213.179
234.163	216.89
237.056	207.506
239.948	198.15
242.841	178.917
245.734	167.483
248.626	157.908
251.519	146.051
254.412	137.722
257.305	131.837
260.197	128.009
263.09	121.36
265.983	118.295
268.875	114.44
271.768	113.547
274.661	113.063
277.553	110.847
280.446	107.899
283.339	107.043
286.232	98.0847
289.124	100.609
292.017	94.5438
294.91	89.1377
297.802	82.318
300.695	78.527
303.588	73.7834
306.481	65.9631
309.373	65.108
312.266	54.6312
315.159	48.8584
318.051	39.5728
320.944	26.4819
323.837	15.4611
326.729	9.18323
329.622	1.30579
332.515	2.78857
335.408	3.3971
338.3	1.65717
341.193	1.04523
344.086	2.0874
346.978	2.52692
349.871	3.271
352.764	3.82233
355.656	6.51776
358.549	2.74237
361.442	0.780579
364.334	3.51038
367.227	0.84668
370.12	4.60968
373.012	5.24585
375.905	4.5846
378.798	5.6842
381.691	3.9469
384.583	2.14288
387.476	0.158569
390.369	1.99048
393.261	1.08069
396.154	2.60498
399.047	6.65491
401.94	3.98871
404.832	5.12683
407.725	5.90601
410.618	8.71252
413.51	11.6293
416.403	10.6774
419.296	9.07941
422.188	13.6029
425.081	14.579
427.974	23.8502
430.866	30.3748
433.759	36.2283
436.652	42.5637
439.545	48.4738
442.437	60.73
445.33	63.2022
448.223	67.1375
451.115	71.1692
454.008	69.0449
456.901	78.6598
459.793	89.9502
462.686	99.1078
465.579	95.9734
468.472	83.6967
471.364	76.5063
474.257	69.6014
477.15	67.7913
480.042	63.9126
482.935	63.085
485.828	55.8459
488.721	46.93
491.613	38.0763
494.506	38.3895
497.399	44.8183
500.291	55.7617
503.184	78.3124
506.077	95.8843
508.969	116.793
511.862	140.228
514.755	151.842
517.648	155.077
520.54	150.892
523.433	144.235
526.326	125.331
529.218	105.923
532.111	79.0353
535.004	59.8065
537.896	44.9414
540.789	36.0541
543.682	27.5812
546.575	21.9763
549.467	22.8285
552.36	21.3889
555.253	17.0263
558.145	13.7511
561.038	12.1381
563.931	13.0338
566.823	12.947
569.716	11.5349
572.609	6.73193
575.502	7.5625
578.394	11.6624
581.287	5.63226
584.18	7.86267
587.072	2.87958
589.965	1.19684
592.858	0.08783
595.75	2.4082
598.643	4.82434
601.536	5.14203
604.428	6.72186
607.321	3.39185
610.214	3.22034
613.107	1.27869
615.999	2.27661
618.892	4.27197
621.785	1.79694
624.677	1.8313
627.57	2.66437
630.463	2.20508
633.356	8.03412
636.248	15.4346
639.141	24.5227
642.034	33.5753
644.926	42.6598
647.819	52.0325
650.712	65.9717
653.604	78.6278
656.497	92.043
659.39	104.859
662.283	112.895
665.175	121.914
668.068	127.886
670.961	137.884
673.853	145.907
676.746	148.867
679.639	153.609
682.531	157.879
685.424	157.524
688.317	161.201
691.21	165.453
694.102	166.583
696.995	172.572
699.888	170.025
702.78	173.245
705.673	174.521
708.566	180.905
711.458	181.311
714.351	177.223
717.244	176.457
720.136	170.443
723.029	163.423
725.922	159.531
728.815	155.518
731.707	146.408
734.6	140.613
737.493	128.989
740.385	118.928
743.278	110.347
746.171	103.228
749.063	91.5663
751.956	87.1204
754.849	82.7827
757.742	73.1131
760.634	66.8262
763.527	58.3029
766.42	52.7897
769.312	46.0988
772.205	42.0968
775.098	40.4471
777.99	36.027
780.883	30.7749
783.776	29.9606
786.669	23.4653
789.561	17.165
792.454	16.4258
795.347	9.99451
798.239	7.79138
801.132	2.17761
804.025	1.50696
806.918	1.99609
809.81	3.87042
812.703	6.96845
815.596	7.28998
818.488	3.99664
821.381	1.89813
824.274	0.4552
827.166	4.8327
830.059	4.96265
832.952	0.694153
835.845	1.6709
838.737	1.74158
841.63	3.27155
844.523	8.84509
847.415	11.7856
850.308	16.3209
853.201	18.7687
856.093	31.8026
858.986	41.4988
861.879	62.2269
864.771	82.0015
867.664	107.331
870.557	146.432
873.45	188.71
876.342	224.455
879.235	241.951
882.128	238.179
885.02	216.491
887.913	180.648
890.806	144.592
893.698	110.06
896.591	90.8878
899.484	82.954
902.377	85.238
905.269	89.3015
908.162	99.6921
911.055	112.553
913.947	119.585
916.84	127.916
919.733	135.4
922.625	141.225
925.518	151.278
928.411	159.132
931.304	159.91
934.196	163.967
937.089	160.614
939.982	161.351
942.875	154.229
945.767	146.601
948.66	137.991
951.553	122.779
954.445	106.553
957.338	88.759
960.231	68.0146
963.123	49.4249
966.016	32.181
968.909	22.2544
971.802	6.52875
974.694	3.05359
977.587	0.824707
980.48	2.85413
983.372	6.04321
986.265	0.224731
989.158	2.51233
992.05	1.22382
994.943	4.86005
997.836	4.19428
1000.73	3.4267
1003.62	6.04077
1006.51	7.73065
1009.41	10.6919
1012.3	10.9474
1015.19	6.83362
1018.09	4.09546
1020.98	10.6583
1023.87	13.8616
1026.76	10.9472
1029.66	11.5489
1032.55	18.5198
1035.44	21.6151
1038.33	20.3741
1041.23	23.8099
1044.12	21.9048
1047.01	24.6894
1049.9	28.0964
1052.8	27.9329
1055.69	24.8955
1058.58	31.149
1061.47	26.2779
1064.37	28.5796
1067.26	25.5192
1070.15	25.0933
1073.05	26.7084
1075.94	31.8448
1078.83	33.129
1081.72	37.7216
1084.62	48.472
1087.51	47.1135
1090.4	41.5637
1093.3	37.0558
1096.19	31.7575
1099.08	31.3576
1101.97	27.7868
1104.87	25.7833
1107.76	19.4638
1110.65	22.3255
1113.54	19.3431
1116.44	18.9276
1119.33	13.3059
1122.22	11.9746
1125.12	8.50372
1128.01	6.284
1130.9	4.20593
1133.79	4.3288
1136.68	3.18512
1139.58	2.81769
1142.47	2.35541
1145.36	0.094604
1148.26	4.9173
1151.15	2.27234
1154.04	0.434631
1156.93	0.412415
1159.83	1.8576
1162.72	2.41949
1165.61	0.326355
1168.51	0.062744
1171.4	1.59131
1174.29	1.07812
1177.18	2.60406
1180.08	3.1889
1182.97	7.30579
1185.86	8.07117
1188.75	7.89954
1191.65	12.4302
1194.54	4.51849
1197.43	3.48688
1200.33	0.986084
1203.22	2.85126
1206.11	5.65906
1209	5.16394
1211.9	5.98779
1214.79	10.1501
1217.68	6.61969
1220.57	4.55493
1223.47	2.9444
1226.36	13.8417
1229.25	9.60126
1232.14	8.89648
1235.04	1.13306
1237.93	0.967407
1240.82	3.62958
1243.71	3.3349
1246.61	6.40283
1249.5	4.52307
1252.39	5.84589
1255.29	0.709045
1258.18	5.7804
1261.07	6.81592
1263.96	6.81726
1266.86	6.17242
1269.75	4.26623
1272.64	5.45038
1275.54	4.45007
1278.43	3.42963
1281.32	0.160583
1284.21	0.463379
1287.11	4.15088
1290	2.64807
1292.89	4.67773
1295.78	4.44385
1298.68	4.64069
1301.57	0.721924
