Measurement: Raman, 780 nm, unoriented, Raman Data Processed
Mineral: Korobitsynite
Rruff sample: R110192
Ideal chemistry: (Na,[box])_8_Ti_4_(Si_4_O_12_)_2_(O,OH)_4_8H_2_O
Locality: Poudrette quarry, Mont Saint-Hilaire, Quebec, Canada
Source: Donald Doell
Description: Colorless bladed crystals
Raman shift (cm-1)	intensity
92.5678	0
95.9426	22.0867
99.3174	19.9151
102.692	13.1811
106.067	20.7733
109.442	22.6607
112.817	28.0467
116.192	38.8775
119.566	41.5615
122.941	38.4631
126.316	23.4225
129.691	14.7595
133.066	0.287079
136.44	3.00937
139.815	4.16446
143.19	9.97601
146.565	8.21368
149.94	6.79523
153.315	2.06216
156.689	9.26089
160.064	15.7424
163.439	25.8133
166.814	34.4487
170.189	41.2946
173.563	45.9165
176.938	48.0331
180.313	53.5397
183.688	62.9113
187.063	67.4152
190.437	74.1146
193.812	82.2896
197.187	92.6108
200.562	101.944
203.937	114.459
207.311	129.372
210.686	151.92
214.061	170.809
217.436	194.466
220.811	206.562
224.186	218.416
227.56	223.542
230.935	229.669
234.31	225.262
237.685	216.299
241.06	203.803
244.435	183.721
247.809	164.445
251.184	146.136
254.559	131.752
257.934	126.465
261.309	120.247
264.683	118.546
268.058	111.955
271.433	106.663
274.808	101.281
278.183	100.802
281.558	104.702
284.932	107.501
288.307	105.459
291.682	100.459
295.057	89.8601
298.432	82.8601
301.806	75.0538
305.181	68.2261
308.556	59.8409
311.931	51.1222
315.306	39.6393
318.68	25.4138
322.055	12.9774
325.43	1.95551
328.805	3.11533
332.18	7.16824
335.555	10.4919
338.929	8.12236
342.304	4.95465
345.679	0.741592
349.054	4.70152
352.429	4.98866
355.803	6.46011
359.178	8.2111
362.553	5.67923
365.928	3.45235
369.303	2.14485
372.678	3.94435
376.052	2.60181
379.427	1.88428
382.802	4.93658
386.177	6.37891
389.552	7.90103
392.926	4.46314
396.301	2.76933
399.676	0.121658
403.051	0.377747
406.426	1.69418
409.8	0.967072
413.175	0.171951
416.55	1.64795
419.925	5.25362
423.3	8.71791
426.675	12.1325
430.049	16.2186
433.424	23.6657
436.799	28.3623
440.174	36.6011
443.549	43.2965
446.923	46.915
450.298	50.3926
453.673	54.5132
457.048	61.5697
460.423	73.7017
463.798	76.5229
467.172	72.0295
470.547	63.3027
473.922	57.2829
477.297	50.9223
480.672	48.057
484.046	40.7481
487.421	34.2272
490.796	27.543
494.171	23.6717
497.546	30.4355
500.921	39.9837
504.295	56.2604
507.67	76.1282
511.045	96.2391
514.42	114.1
517.795	119.598
521.169	113.712
524.544	99.5785
527.919	83.7795
531.294	64.6233
534.669	49.7375
538.044	37.9039
541.418	28.8626
544.793	22.8419
548.168	20.9675
551.543	19.5663
554.918	18.9933
558.293	16.9485
561.667	16.1315
565.042	15.5771
568.417	12.8567
571.792	12.3712
575.167	11.313
578.541	10.5816
581.916	7.61868
585.291	6.05371
588.666	3.89624
592.041	1.37746
595.415	1.04155
598.79	3.21742
602.165	4.68066
605.54	4.43405
608.915	4.1393
612.29	4.52855
615.664	5.34975
619.039	3.10646
622.414	1.28491
625.789	0.666122
629.164	2.94437
632.538	9.68541
635.913	15.8099
639.288	26.5458
642.663	39.1221
646.038	50.4453
649.413	64.7004
652.787	82.4523
656.162	94.8832
659.537	112.515
662.912	119.333
666.287	131.273
669.661	142.823
673.036	147.439
676.411	152.101
679.786	156.312
683.161	160.317
686.535	163.383
689.91	165.362
693.285	166.035
696.66	168.976
700.035	173.822
703.41	177.767
706.784	180.914
710.159	179.825
713.534	180.106
716.909	178.515
720.284	171.177
723.659	162.672
727.033	154.035
730.408	145.478
733.783	135.769
737.158	125.417
740.533	114.861
743.907	104.903
747.282	98.3209
750.657	87.7786
754.032	75.6846
757.407	66.5155
760.782	58.726
764.156	50.2295
767.531	46.7015
770.906	39.9907
774.281	35.2859
777.656	28.5884
781.03	25.5978
784.405	19.0721
787.78	14.8154
791.155	11.4014
794.53	10.9598
797.904	2.92908
801.279	1.34238
804.654	3.67632
808.029	3.3213
811.404	2.80904
814.779	4.89056
818.153	3.23328
821.528	2.61716
824.903	2.37058
828.278	3.47029
831.653	1.48628
835.028	2.73634
838.402	5.11263
841.777	6.1943
845.152	10.153
848.527	14.552
851.902	17.7321
855.276	24.3908
858.651	32.1376
862.026	44.469
865.401	61.2842
868.776	84.1097
872.15	109.011
875.525	133.27
878.9	144.779
882.275	134.513
885.65	112.49
889.024	84.7563
892.399	59.2021
895.774	43.2851
899.149	38.6817
902.524	38.6628
905.899	42.6752
909.273	49.6057
912.648	56.1841
916.023	59.3554
919.398	66.5307
922.773	70.6916
926.148	76.0494
929.522	80.1199
932.897	82.5778
936.272	79.1636
939.647	78.2185
943.022	74.2694
946.396	65.6848
949.771	58.444
953.146	49.7982
956.521	39.662
959.896	29.6501
963.27	16.9204
966.645	9.06506
970.02	4.11367
973.395	0.407425
976.77	2.20974
980.145	2.10505
983.519	1.72298
986.894	1.31854
990.269	1.21133
993.644	3.37871
997.019	5.09814
1000.39	6.31191
1003.77	7.01419
1007.14	8.03712
1010.52	7.71992
1013.89	9.62392
1017.27	9.00127
1020.64	8.71958
1024.02	9.87916
1027.39	10.478
1030.77	12.0113
1034.14	12.5349
1037.52	14.2294
1040.89	14.4913
1044.27	16.3483
1047.64	18.6484
1051.02	18.4719
1054.39	19.8325
1057.77	18.2786
1061.14	19.2175
1064.52	16.5711
1067.89	15.4418
1071.27	16.9621
1074.64	21.604
1078.01	25.2841
1081.39	32.1877
1084.76	53.7767
1088.14	45.0537
1091.51	22.4807
1094.89	18.191
1098.26	16.0522
1101.64	13.1901
1105.01	10.3427
1108.39	11.0699
1111.76	9.0789
1115.14	8.56883
1118.51	4.5136
1121.89	1.27004
1125.26	3.04385
1128.64	1.67561
1132.01	1.3018
1135.39	0.158806
1138.76	0.509491
1142.14	1.19569
1145.51	0.136871
1148.88	0.905251
1152.26	0.604858
1155.63	0.395256
1159.01	0.451897
1162.38	8.76379
1165.76	0.72831
1169.13	0.530884
1172.51	0.445183
1175.88	0.658356
1179.26	0.05349
1182.63	2.51664
1186.01	2.65441
1189.38	4.09096
1192.76	3.36672
1196.13	1.25284
1199.51	1.79363
1202.88	2.02239
1206.26	6.56202
1209.63	2.72326
1213.01	3.90801
1216.38	3.33515
1219.76	1.27757
1223.13	2.85822
1226.51	4.53903
1229.88	2.01488
1233.26	1.17391
1236.63	2.09181
1240.01	1.08113
1243.38	1.76045
1246.76	3.75645
1250.13	3.91136
1253.51	3.42603
1256.88	2.4547
1260.25	3.09584
1263.63	1.38957
1267	1.18303
1270.38	2.71046
1273.75	1.8625
1277.13	3.17622
1280.5	0.316864
1283.88	0.217072
