Measurement: Raman, 532 nm, unoriented, Raman Data Processed
Mineral: Kosmochlor
Rruff sample: R120015
Ideal chemistry: NaCrSi_2_O_6_
Locality: Synthetic
Source: George Harlow
Description: Green fragments. Sample was synthesized by Harlow (1997) and used in the Origlieri et al (2003) study
Measured chemistry: Na_1.00_(Cr_0.99_Fe^3+^_0.01_)Si_2.00_O_6_ ;after normalization to four total cations, using data of Harlow (1997).
Raman shift (cm-1)	intensity
108.813	0
112.187	2.57722
115.562	1.25095
118.937	2.14344
122.312	2.31185
125.687	3.75001
129.061	4.70637
132.436	6.90623
135.811	7.64611
139.186	5.24006
142.561	2.06553
145.936	1.05233
149.31	1.94247
152.685	1.47221
156.06	0.56958
159.435	0.692421
162.81	3.68486
166.185	6.89217
169.559	12.4178
172.934	17.3437
176.309	31.9494
179.684	33.4278
183.059	30.2094
186.433	49.1142
189.808	93.8506
193.183	163.232
196.558	143.519
199.933	244.196
203.308	534.644
206.682	251.711
210.057	54.0742
213.432	26.7695
216.807	19.1868
220.182	13.3663
223.556	11.1925
226.931	9.47988
230.306	8.17122
233.681	6.93288
237.056	6.55844
240.43	6.01276
243.805	7.28257
247.18	8.45536
250.555	12.5202
253.93	22.3131
257.305	27.4006
260.679	4.28618
264.054	0.162605
267.429	2.06839
270.804	2.49412
274.179	2.52785
277.553	1.30845
280.928	4.85643
284.303	12.4177
287.678	21.1284
291.053	29.8774
294.428	42.2214
297.802	50.768
301.177	32.0192
304.552	22.9469
307.927	26.2439
311.302	31.6363
314.676	46.8076
318.051	75.7156
321.426	115.116
324.801	112.005
328.176	155.432
331.55	255.641
334.925	465.736
338.3	781.966
341.675	627.062
345.05	229.632
348.425	99.0064
351.799	49.0494
355.174	20.8908
358.549	8.92539
361.924	1.04306
365.299	0.85186
368.673	1.85118
372.048	6.36254
375.423	9.24207
378.798	18.0512
382.173	21.2988
385.548	14.5356
388.922	11.4856
392.297	20.3525
395.672	44.4294
399.047	76.8584
402.422	132.294
405.796	220.37
409.171	292.864
412.546	237.424
415.921	278.599
419.296	231.967
422.671	92.3317
426.045	38.4509
429.42	18.4368
432.795	9.591
436.17	3.39671
439.545	1.42569
442.92	0.100624
446.294	1.01534
449.669	0.780731
453.044	0.747723
456.419	1.82033
459.793	1.9811
463.168	0.313004
466.543	0.155418
469.918	0.715931
473.293	2.39738
476.668	4.53276
480.042	9.17371
483.417	12.9277
486.792	12.634
490.167	8.62448
493.542	6.61019
496.916	8.53918
500.291	10.9473
503.666	18.2582
507.041	33.1607
510.416	59.6596
513.791	99.7769
517.165	167.863
520.54	260.054
523.915	229.796
527.29	104.226
530.665	55.8161
534.04	43.9333
537.414	56.0369
540.789	93.9096
544.164	164.423
547.539	259.536
550.914	408.278
554.288	439.307
557.663	230.734
561.038	154.175
564.413	137.488
567.788	81.8544
571.163	34.3142
574.537	17.9667
577.912	10.8018
581.287	5.91521
584.662	3.87917
588.037	0.922806
591.411	1.12244
594.786	0.334801
598.161	1.7487
601.536	1.84518
604.911	3.95614
608.285	8.81021
611.66	16.2095
615.035	17.3324
618.41	6.29158
621.785	2.57638
625.159	0.314941
628.534	0.356697
631.909	1.38973
635.284	0.851028
638.659	0.870045
642.034	0.415802
645.408	0.882149
648.783	1.92376
652.158	1.07044
655.533	3.75355
658.908	5.79036
662.283	7.80213
665.657	12.0776
669.032	19.732
672.407	30.8444
675.782	47.7729
679.157	69.4857
682.531	78.2321
685.906	48.3023
689.281	24.4373
692.656	13.2651
696.031	7.45067
699.405	4.55884
702.78	2.67105
706.155	1.39519
709.53	1.49444
712.905	1.48907
716.28	0.03606
719.654	1.27127
723.029	0.16156
726.404	0.747684
729.779	0.042534
733.154	0.991657
736.529	0.720203
739.903	1.13845
743.278	1.86416
746.653	2.82964
750.028	4.20741
753.403	6.25305
756.777	9.81856
760.152	12.924
763.527	17.1612
766.902	11.9686
770.277	4.7062
773.652	2.24501
777.026	2.26353
780.401	0.761734
783.776	0.838177
787.151	0.616711
790.526	1.36964
793.9	0.953953
797.275	0.605106
800.65	0.675404
804.025	0.741188
807.4	0.874134
810.774	1.98234
814.149	0.958721
817.524	1.73301
820.899	2.73298
824.274	3.66849
827.649	3.91159
831.023	3.76381
834.398	4.36205
837.773	5.46621
841.148	7.08368
844.523	9.78187
847.898	14.7759
851.272	21.205
854.647	34.888
858.022	52.3344
861.397	71.904
864.771	85.1571
868.146	72.8579
871.521	43.0614
874.896	22.3504
878.271	10.8367
881.646	6.70856
885.02	2.60134
888.395	1.59088
891.77	1.41075
895.145	1.50683
898.52	0.261391
901.894	0.424519
905.269	0.916557
908.644	0.184753
912.019	0.645622
915.394	0.228222
918.769	1.40926
922.143	1.35622
925.518	0.650135
928.893	4.66003
932.268	12.0365
935.643	14.0712
939.018	27.9652
942.392	50.8611
945.767	85.813
949.142	121.371
952.517	93.0456
955.892	47.6212
959.266	28.3906
962.641	21.873
966.016	23.3585
969.391	26.3322
972.766	18.358
976.14	11.006
979.515	13.8981
982.89	21.6929
986.265	37.3733
989.64	59.6978
993.015	66.9513
996.389	29.8085
999.764	10.6417
1003.14	3.41826
1006.51	1.4321
1009.89	1.05487
1013.26	0.105587
1016.64	1.36038
1020.01	0.801952
1023.39	4.21867
1026.76	8.55141
1030.14	16.155
1033.51	20.9172
1036.89	13.933
1040.26	6.92526
1043.64	7.98286
1047.01	16.9572
1050.39	33.5141
1053.76	67.199
1057.14	104.358
1060.51	44.2981
1063.89	14.3346
1067.26	5.83667
1070.63	2.07393
1074.01	1.06288
1077.38	0.663372
1080.76	0.224545
1084.13	0.401379
1087.51	0.26963
1090.88	0.019321
1094.26	0.41592
1097.63	0.078526
1101.01	0.503227
1104.38	0.789261
1107.76	0.611729
1111.13	0.925602
1114.51	1.59737
1117.88	0.931393
1121.26	1.38628
1124.63	0.413513
1128.01	1.76924
1131.38	2.04347
1134.76	2.01168
1138.13	1.67157
1141.51	1.42081
1144.88	1.25601
1148.26	0.982208
1151.63	0.308567
1155.01	1.39472
1158.38	1.01439
1161.76	0.933884
1165.13	0.900501
1168.51	1.473
1171.88	1.87097
1175.26	2.02062
1178.63	2.3673
1182	2.76423
1185.38	1.73405
1188.75	2.79696
1192.13	2.63607
1195.5	0.861595
1198.88	1.32544
1202.25	2.12226
1205.63	1.60991
1209	2.53204
1212.38	1.49927
1215.75	1.77583
1219.13	1.54903
1222.5	1.33395
1225.88	0.999393
1229.25	0.125877
1232.63	0.250324
1236	0.565891
1239.38	0.440914
1242.75	0.843664
1246.13	1.47704
1249.5	0.306107
1252.88	0.088545
1256.25	0.032364
1259.62	1.4219
1263	2.05487
1266.38	0.056648
1269.75	1.27921
1273.12	0.245979
1276.5	0.519232
1279.87	1.61914
1283.25	0.497339
1286.62	1.78116
1290	1.06527
1293.37	1.16948
1296.75	0.306217
1300.12	1.50566
