Measurement: Raman, 532 nm, unoriented, Raman Data Processed
Mineral: Kosnarite
Rruff sample: R060250
Ideal chemistry: KZr_2_(PO_4_)_3_
Locality: Jenipapo District, Itinga, Minas Gerais, Brazil
Source: William W. Pinch
Description: Tan to colorless fragment
Raman shift (cm-1)	intensity
170.041	0
172.934	34.1096
175.827	45.937
178.72	41.7386
181.612	24.885
184.505	17.0848
187.398	8.38379
190.29	17.097
193.183	22.385
196.076	11.2352
198.968	13.9434
201.861	17.5924
204.754	12.5701
207.647	13.4573
210.539	1.06287
213.432	3.84973
216.325	7.01453
219.217	7.93079
222.11	3.36072
225.003	4.88538
227.895	1.97339
230.788	0.190674
233.681	17.0442
236.573	12.1848
239.466	9.61487
242.359	4.81689
245.252	25.934
248.144	33.6426
251.037	55.0967
253.93	70.7765
256.822	94.309
259.715	116.849
262.608	140.17
265.5	140.485
268.393	87.9871
271.286	64.1877
274.179	48.2056
277.071	72.7655
279.964	89.8627
282.857	114.403
285.75	168.596
288.642	207.104
291.535	191.348
294.428	144.819
297.32	92.6812
300.213	53.1548
303.106	30.9653
305.998	27.5547
308.891	31.3145
311.784	35.4373
314.676	60.7268
317.569	62.656
320.462	50.0962
323.355	37.1457
326.247	3.22412
329.14	10.5315
332.033	0.019287
334.925	5.90918
337.818	14.2937
340.711	6.354
343.603	4.26147
346.496	0.029053
349.389	2.14551
352.281	1.30347
355.174	2.82983
358.067	4.04907
360.96	6.34424
363.852	12.7332
366.745	13.9766
369.638	6.04224
372.53	0.171143
375.423	2.31006
378.316	11.1924
381.209	1.52637
384.101	1.64648
386.994	15.9165
389.887	9.75464
392.779	8.948
395.672	0.661621
398.565	15.2798
401.457	16.3755
404.35	28.6655
407.243	34.623
410.135	37.831
413.028	47.2036
415.921	59.1467
418.814	78.1499
421.706	101.889
424.599	100.407
427.492	91.5769
430.384	118.071
433.277	176.901
436.17	209.326
439.062	194.22
441.955	115.287
444.848	57.5884
447.741	31.761
450.633	19.227
453.526	16.0195
456.419	2.25513
459.311	5.22485
462.204	8.94971
465.097	7.3396
467.99	7.31079
470.882	3.60693
473.775	9.24219
476.668	1.08228
479.56	5.83618
482.453	4.21314
485.346	15.1426
488.238	11.5818
491.131	15.23
494.024	4.76416
496.916	0.805908
499.809	7.16772
502.702	7.73511
505.595	7.9231
508.487	5.07788
511.38	6.60767
514.273	7.08936
517.165	2.79443
520.058	3.91846
522.951	3.95557
525.844	10.343
528.736	8.20386
531.629	16.6331
534.522	10.2783
537.414	2.48315
540.307	3.36133
543.2	2.47461
546.092	0.429199
548.985	1.33032
551.878	4.09717
554.771	4.09546
557.663	0.902344
560.556	9.45679
563.449	9.04883
566.341	5.66309
569.234	5.06934
572.127	6.98999
575.019	0.61377
577.912	10.4941
580.805	4.38403
583.698	19.0996
586.59	20.8391
589.483	21.7341
592.376	34.7105
595.268	37.5461
598.161	17.7402
601.054	16.001
603.946	0.550781
606.839	6.37964
609.732	11.8242
612.625	15.7295
615.517	19.658
618.41	21.3003
621.303	9.85181
624.195	12.7151
627.088	25.9861
629.981	27.7383
632.873	31.8169
635.766	49.509
638.659	43.7607
641.552	26.4238
644.444	16.4334
647.337	5.78906
650.23	19.3418
653.122	5.16064
656.015	17.3611
658.908	16.5649
661.8	0.494873
664.693	1.10059
667.586	0.657471
670.479	2.76807
673.371	5.94458
676.264	0.75293
679.157	1.90527
682.049	9.40967
684.942	14.645
687.835	9.47852
690.727	2.45459
693.62	5.98022
696.513	6.58057
699.405	4.44653
702.298	8.85156
705.191	8.8064
708.084	14.2185
710.976	19.0029
713.869	21.5979
716.762	7.18164
719.654	4.91455
722.547	5.78003
725.44	6.64111
728.332	15.623
731.225	5.31396
734.118	18.5171
737.011	7.59473
739.903	14.5137
742.796	0.101563
745.689	10.9531
748.581	10.1663
751.474	20.2004
754.367	4.8479
757.26	5.65503
760.152	7.78101
763.045	6.59985
765.938	8.33008
768.83	5.03149
771.723	9.09668
774.616	7.12695
777.508	9.09399
780.401	16.7891
783.294	1.75806
786.187	5.72949
789.079	2.95068
791.972	13.4514
794.865	14.1582
797.757	18.2419
800.65	1.26538
803.543	1.91162
806.435	9.03979
809.328	3.77515
812.221	2.09912
815.114	0.597412
818.006	6.55371
820.899	4.57373
823.792	13.6585
826.684	8.74683
829.577	3.63965
832.47	9.42651
835.362	4.75977
838.255	2.14282
841.148	8.93652
844.04	9.94409
846.933	10.4629
849.826	10.4714
852.719	7.19629
855.611	3.24634
858.504	12.8643
861.397	11.8494
864.289	9.61914
867.182	9.52197
870.075	10.6396
872.967	6.59839
875.86	20.8481
878.753	12.791
881.646	10.4463
884.538	9.81104
887.431	6.82104
890.324	14.5757
893.216	3.35742
896.109	4.42456
899.002	12.9314
901.894	11.6421
904.787	6.21436
907.68	3.81763
910.573	14.6065
913.465	5.61182
916.358	1.11475
919.251	10.0159
922.143	6.9895
925.036	7.74854
927.929	6.99658
930.822	12.0352
933.714	4.84839
936.607	0.323975
939.5	21.939
942.392	1.00781
945.285	3.90063
948.178	9.91162
951.07	4.69116
953.963	1.27783
956.856	13.311
959.749	4.11157
962.641	0.348145
965.534	9.36401
968.427	2.27563
971.319	4.44897
974.212	7.81445
977.105	0.916504
979.997	5.44311
982.89	6.73731
985.783	11.0718
988.676	15.4944
991.568	17.6267
994.461	19.832
997.354	14.2134
1000.25	35.2253
1003.14	62.8645
1006.03	85.8276
1008.92	147.429
1011.82	250.81
1014.71	414.651
1017.6	671.523
1020.5	1038.29
1023.39	1329.23
1026.28	1330.65
1029.17	992.389
1032.07	503.854
1034.96	231.216
1037.85	116.291
1040.74	55.1001
1043.64	17.1326
1046.53	9.14551
1049.42	21.396
1052.32	43.0884
1055.21	72.0342
1058.1	147.708
1060.99	254.022
1063.89	189.29
1066.78	95.9265
1069.67	49.791
1072.56	26.9507
1075.46	31.7227
1078.35	43.0154
1081.24	56.3447
1084.13	76.5417
1087.03	107.998
1089.92	93.3069
1092.81	49.4954
1095.7	23.6414
1098.6	1.04736
1101.49	5.76709
1104.38	3.03125
1107.28	3.90747
1110.17	4.54419
1113.06	3.20654
1115.95	3.80054
1118.85	15.3354
1121.74	7.13916
1124.63	2.81885
1127.53	2.96924
1130.42	14.9912
1133.31	11.0435
1136.2	16.6882
1139.1	10.0483
1141.99	12.4307
1144.88	13.6851
1147.77	9.6919
1150.67	11.8987
1153.56	27.7197
1156.45	18.5549
1159.35	16.9619
1162.24	6.59448
1165.13	15.9976
1168.02	12.9836
1170.92	11.9373
1173.81	8.06128
1176.7	9.75
1179.59	1.71094
1182.49	7.86231
1185.38	5.95337
1188.27	28.4397
1191.16	12.1843
1194.06	0.38208
1196.95	13.9807
1199.84	5.8042
1202.73	3.88452
1205.63	6.25171
1208.52	9.11523
1211.41	6.30078
1214.31	15.3044
1217.2	14.5698
1220.09	0.725342
1222.98	7.06348
1225.88	9.61621
1228.77	7.70972
1231.66	12.792
1234.56	11.1162
1237.45	12.1304
1240.34	4.55151
1243.23	11.5767
1246.13	10.8992
1249.02	11.7327
1251.91	16.1768
1254.8	11.9297
1257.7	13.2539
1260.59	16.5073
1263.48	15.0102
1266.38	12.6653
1269.27	13.6013
1272.16	9.48535
1275.05	5.62134
1277.95	4.71802
1280.84	3.97949
1283.73	1.83154
1286.62	11.3171
1289.52	1.39917
1292.41	6.51343
1295.3	14.0239
1298.19	16.1858
1301.09	9.23169
