Measurement: Raman, 532 nm, unoriented, Raman Data Processed
Mineral: Kottigite
Rruff sample: R110035
Ideal chemistry: Zn^2+^_3_(As^5+^O_4_)_2_8H_2_O
Locality: Ojuela mine, Mapimi, Durango, Mexico
Source: The University of Arizona Mineral Museum
Description: Spray of dark blue bladed crystals
Raman shift (cm-1)	intensity
177.755	0
180.648	0.054657
183.541	3.52847
186.433	9.8417
189.326	11.5701
192.219	23.1793
195.112	22.4539
198.004	47.275
200.897	63.6982
203.79	70.6403
206.682	81.3038
209.575	105.416
212.468	126.544
215.36	149.062
218.253	153.663
221.146	153.063
224.038	169.774
226.931	167.445
229.824	170.173
232.717	163.396
235.609	163.645
238.502	146.076
241.395	129.973
244.287	118.141
247.18	108.994
250.073	93.9793
252.965	83.0838
255.858	75.2923
258.751	66.8799
261.644	58.0896
264.536	52.8618
267.429	44.4804
270.322	40.6832
273.214	42.6655
276.107	43.4325
279	41.2193
281.892	37.0416
284.785	33.3463
287.678	34.6496
290.571	23.6026
293.463	28.1095
296.356	21.7012
299.249	19.2932
302.141	13.8603
305.034	11.5521
307.927	6.90506
310.82	1.56264
313.712	1.1761
316.605	1.18602
319.498	1.01285
322.39	1.74921
325.283	5.52445
328.176	1.66676
331.068	1.22357
333.961	2.17961
336.854	6.15639
339.747	3.84061
342.639	2.74335
345.532	3.9209
348.425	6.20189
351.317	8.53247
354.21	14.6132
357.103	12.3889
359.995	17.8432
362.888	23.1617
365.781	24.682
368.673	25.5388
371.566	29.7691
374.459	32.1179
377.352	32.5736
380.244	29.1869
383.137	29.0062
386.03	17.8549
388.922	22.574
391.815	6.92032
394.708	0.404526
397.601	5.66524
400.493	5.02576
403.386	4.79381
406.279	1.40317
409.171	3.12793
412.064	1.2469
414.957	9.66605
417.849	16.8927
420.742	25.9932
423.635	36.837
426.527	51.9115
429.42	68.7894
432.313	86.337
435.206	96.2447
438.098	109.121
440.991	121.533
443.884	127.148
446.776	129.271
449.669	134.569
452.562	119.481
455.454	112.423
458.347	103.034
461.24	93.3696
464.133	93.3632
467.025	102.641
469.918	117.757
472.811	136.462
475.703	142.448
478.596	126.578
481.489	89.5143
484.382	63.944
487.274	44.9656
490.167	28.7278
493.06	17.8253
495.952	13.0963
498.845	10.8744
501.738	5.07709
504.63	6.40292
507.523	16.2038
510.416	16.6608
513.308	21.9477
516.201	20.96
519.094	28.8527
521.987	27.8619
524.879	33.4539
527.772	48.961
530.665	52.056
533.557	56.7337
536.45	69.9606
539.343	69.9607
542.236	76.8552
545.128	77.8544
548.021	76.9221
550.914	76.272
553.806	69.0797
556.699	67.8135
559.592	54.1118
562.484	48.2801
565.377	38.5213
568.27	28.3139
571.163	23.3484
574.055	21.9074
576.948	9.86696
579.841	6.75613
582.733	3.27655
585.626	2.6898
588.519	1.01538
591.411	1.69984
594.304	3.14215
597.197	0.406128
600.09	0.390793
602.982	0.452957
605.875	2.15196
608.768	2.80193
611.66	8.59671
614.553	2.86574
617.446	1.23349
620.338	13.8761
623.231	6.84735
626.124	6.87619
629.016	8.13914
631.909	11.4713
634.802	19.5799
637.695	21.2238
640.587	24.6634
643.48	21.966
646.373	17.9878
649.265	19.6762
652.158	21.883
655.051	22.1688
657.943	24.7783
660.836	23.0338
663.729	22.9345
666.622	21.2802
669.514	24.0083
672.407	26.5265
675.3	27.3249
678.192	24.8333
681.085	18.2749
683.978	22.101
686.87	21.6692
689.763	16.7466
692.656	17.8323
695.549	15.3398
698.441	11.6
701.334	8.82172
704.227	5.26303
707.119	8.60344
710.012	5.29973
712.905	7.75595
715.798	4.69411
718.69	6.26524
721.583	1.44089
724.476	1.59177
727.368	0.821075
730.261	1.63466
733.154	6.78719
736.046	1.90037
738.939	1.89746
741.832	7.76929
744.725	6.06165
747.617	5.48254
750.51	1.75844
753.403	3.51672
756.295	6.25186
759.188	9.57977
762.081	16.0804
764.973	13.2825
767.866	25.6556
770.759	29.9521
773.652	44.4933
776.544	59.2174
779.437	77.0431
782.33	98.7251
785.222	125.455
788.115	146.887
791.008	162.458
793.9	175.249
796.793	170.308
799.686	157.983
802.578	158.278
805.471	150.723
808.364	154.404
811.257	160.746
814.149	161.504
817.042	178.362
819.935	193.375
822.827	223.052
825.72	245.038
828.613	283.087
831.505	309.146
834.398	338.767
837.291	352.018
840.184	354.048
843.076	342.736
845.969	329.166
848.862	312.663
851.754	312.208
854.647	323.41
857.54	345.817
860.433	336.603
863.325	278.928
866.218	228.796
869.111	190.094
872.003	166.032
874.896	151.641
877.789	145.648
880.681	128.594
883.574	106.978
886.467	88.3623
889.36	64.245
892.252	50.2596
895.145	31.7326
898.038	23.5515
900.93	17.6977
903.823	6.49106
906.716	5.31595
909.608	0.651703
912.501	0.488708
915.394	4.74161
918.287	1.25406
921.179	0.678299
924.072	4.33978
926.965	6.11441
929.857	4.94861
932.75	0.198547
935.643	1.90993
938.535	2.50673
941.428	1.8217
944.321	1.26556
947.213	0.335403
950.106	4.3297
952.999	8.84126
955.892	2.9595
958.784	8.25958
961.677	9.13846
964.57	12.265
967.462	15.9142
970.355	19.0587
973.248	15.8483
976.14	19.426
979.033	24.2568
981.926	19.8614
984.819	19.6811
987.711	18.7964
990.604	18.7932
993.497	16.0858
996.389	18.9014
999.282	15.2693
1002.17	18.1372
1005.07	17.2115
1007.96	17.0837
1010.85	14.098
1013.75	17.4123
1016.64	15.8756
1019.53	14.6322
1022.42	14.3066
1025.32	10.9496
1028.21	9.91773
1031.1	9.41821
1033.99	8.38515
1036.89	9.46164
1039.78	7.28671
1042.67	11.3659
1045.57	4.73996
1048.46	8.97086
1051.35	3.82222
1054.24	6.82524
1057.14	6.83189
1060.03	3.19858
1062.92	4.48173
1065.81	2.86595
1068.71	4.38647
1071.6	1.76268
1074.49	6.164
1077.38	3.80458
1080.28	5.24785
1083.17	5.04251
1086.06	6.62909
1088.96	4.53987
1091.85	3.3942
1094.74	5.00655
1097.63	1.61587
1100.53	1.25977
1103.42	11.2581
1106.31	9.78009
1109.2	14.9428
1112.1	17.3511
1114.99	15.7647
1117.88	10.7675
1120.78	6.2204
1123.67	0.548019
1126.56	5.15584
1129.45	4.09051
1132.35	3.10204
1135.24	5.07227
1138.13	1.47174
1141.02	1.92718
1143.92	2.60347
1146.81	1.85423
1149.7	0.594284
1152.6	4.70058
1155.49	4.6696
1158.38	2.40395
1161.27	4.44191
1164.17	0.825775
1167.06	0.658417
1169.95	1.87421
1172.84	2.86301
1175.74	5.18242
1178.63	1.43408
1181.52	6.68399
1184.41	7.32434
1187.31	8.01671
1190.2	9.77895
1193.09	6.52708
1195.99	3.26125
1198.88	1.37904
1201.77	1.31685
1204.66	5.92334
1207.56	3.55606
1210.45	5.51164
1213.34	6.517
1216.23	0.585007
1219.13	7.37036
1222.02	6.49503
1224.91	13.5757
1227.81	10.6103
1230.7	6.76237
1233.59	6.7446
1236.48	6.43491
1239.38	9.36658
1242.27	8.24458
1245.16	12.4015
1248.05	10.458
1250.95	14.9649
1253.84	6.29233
1256.73	13.9014
1259.62	6.92223
1262.52	10.5776
1265.41	6.82902
1268.3	5.45685
1271.2	3.92029
1274.09	4.21852
1276.98	2.90675
1279.87	1.63989
1282.77	4.30458
1285.66	6.38176
1288.55	3.41112
1291.44	5.2141
1294.34	0.287521
1297.23	5.83823
1300.12	2.90115
1303.02	0
