Measurement: Raman, 532 nm, unoriented, Raman Data Processed
Mineral: Kottigite
Rruff sample: R110032
Ideal chemistry: Zn^2+^_3_(As^5+^O_4_)_2_8H_2_O
Locality: 44 level, Tsumeb mine, Tsumeb, Namibia
Source: William W Pinch
Description: Bundles of gray acicular crystals associated with ludlockite
Raman shift (cm-1)	intensity
178.72	0
181.612	7.91943
184.505	5.07593
187.398	16.9304
190.29	30.3018
193.183	31.3248
196.076	31.4896
198.968	33.2562
201.861	15.4797
204.754	23.8507
207.647	29.8954
210.539	43.2929
213.432	48.5186
216.325	58.271
219.217	55.2223
222.11	49.3693
225.003	36.3391
227.895	33.0909
230.788	24.7008
233.681	29.8731
236.573	18.7619
239.466	19.6595
242.359	8.62996
245.252	8.29794
248.144	2.08443
251.037	0.091141
253.93	0.663239
256.822	1.0762
259.715	1.91867
262.608	5.08919
265.5	1.98482
268.393	5.29279
271.286	4.86118
274.179	8.1235
277.071	10.9896
279.964	12.7608
282.857	13.8076
285.75	14.4181
288.642	8.60243
291.535	7.01546
294.428	4.19571
297.32	6.44116
300.213	5.62399
303.106	5.18558
305.998	3.60606
308.891	4.7897
311.784	5.63986
314.676	0.121887
317.569	4.46248
320.462	0.812576
323.355	3.85378
326.247	0.895355
329.14	3.97209
332.033	1.47752
334.925	3.01224
337.818	8.67014
340.711	4.34193
343.603	0.572906
346.496	2.86552
349.389	4.27487
352.281	8.76782
355.174	13.1445
358.067	18.4227
360.96	20.5722
363.852	27.7202
366.745	32.3012
369.638	33.5334
372.53	36.2683
375.423	32.0737
378.316	29.5841
381.209	23.1426
384.101	17.5262
386.994	16.0101
389.887	9.37932
392.779	9.1852
395.672	2.25905
398.565	4.06737
401.457	2.16219
404.35	5.66415
407.243	11.937
410.135	18.648
413.028	24.4585
415.921	30.4048
418.814	41.6068
421.706	51.3261
424.599	63.4082
427.492	72.5234
430.384	73.7335
433.277	79.227
436.17	82.7241
439.062	79.329
441.955	81.0726
444.848	79.7435
447.741	74.7634
450.633	73.1001
453.526	60.8855
456.419	50.3235
459.311	43.381
462.204	29.3653
465.097	20.4853
467.99	15.7521
470.882	14.7838
473.775	11.2688
476.668	12.1708
479.56	5.62595
482.453	9.09282
485.346	4.49524
488.238	6.62721
491.131	0.488541
494.024	2.13203
496.916	0.388138
499.809	3.26721
502.702	1.79333
505.595	1.12666
508.487	0.269943
511.38	1.69975
514.273	1.74077
517.165	2.85365
520.058	4.53976
522.951	1.18224
525.844	9.584
528.736	12.1127
531.629	4.75735
534.522	9.01723
537.414	8.74673
540.307	16.0212
543.2	14.5557
546.092	14.2156
548.985	13.1449
551.878	10.5751
554.771	5.53569
557.663	8.72507
560.556	7.00316
563.449	2.89664
566.341	6.09218
569.234	2.25269
572.127	3.61182
575.019	0.531677
577.912	2.38997
580.805	2.73434
583.697	0.062347
586.59	5.02763
589.483	-0.430314
592.376	5.82791
595.268	0.605667
598.161	1.76555
601.054	4.44827
603.946	1.88977
606.839	0.356232
609.732	2.86598
612.625	3.50012
615.517	6.86787
618.41	4.46256
621.303	8.64551
624.195	6.75473
627.088	5.72461
629.981	6.26827
632.873	9.22345
635.766	8.48331
638.659	7.84688
641.552	9.80681
644.444	8.6898
647.337	9.37019
650.23	8.48865
653.122	7.18477
656.015	7.91472
658.908	4.39203
661.8	8.68054
664.693	6.20662
667.586	7.6741
670.479	7.97731
673.371	7.07857
676.264	10.3871
679.157	4.38741
682.049	7.33714
684.942	10.5627
687.835	6.99709
690.727	10.5827
693.62	8.49353
696.513	9.87231
699.405	5.64465
702.298	4.30341
705.191	5.13838
708.084	8.19022
710.976	4.98006
713.869	1.84277
716.762	2.55617
719.654	2.11169
722.547	0.594894
725.44	0.26918
728.332	2.84404
731.225	3.26192
734.118	4.34027
737.011	0.224762
739.903	5.64026
742.796	0.342468
745.689	2.48743
748.581	0.713959
751.474	1.54147
754.367	4.19624
757.26	8.06215
760.152	8.9718
763.045	17.7372
765.938	24.8013
768.83	33.0031
771.723	42.0341
774.616	55.0451
777.508	79.6193
780.401	108.189
783.294	134.234
786.187	173.137
789.079	207.36
791.972	220.524
794.865	225.521
797.757	210.833
800.65	202.154
803.543	183.935
806.435	164.809
809.328	143.918
812.221	132.134
815.114	113.641
818.006	99.0923
820.899	99.1907
823.792	92.9297
826.684	93.9593
829.577	93.7906
832.47	100.477
835.362	113.998
838.255	123.387
841.148	133.598
844.04	149.558
846.933	160.054
849.826	163.395
852.719	160.759
855.611	144.654
858.504	123.254
861.397	96.1535
864.289	78.5519
867.182	65.0714
870.075	53.2136
872.967	49.6227
875.86	42.461
878.753	31.6755
881.646	22.5017
884.538	18.8234
887.431	16.7577
890.324	8.19205
893.216	5.62534
896.109	4.78229
899.002	4.18292
901.894	1.72008
904.787	0.165588
907.68	2.7128
910.573	0.322632
913.465	1.12413
916.358	0.316559
919.251	3.49351
922.143	0.243881
925.036	3.12448
927.929	0.449677
930.822	2.20226
933.714	2.72972
936.607	2.09058
939.5	1.82252
942.392	5.89755
945.285	4.82834
948.178	5.3667
951.07	2.54527
953.963	4.13301
956.856	2.21138
959.749	5.42574
962.641	6.57188
965.534	4.73112
968.427	6.80888
971.319	5.75307
974.212	7.76096
977.105	5.24995
979.997	2.77255
982.89	7.44446
985.783	5.6767
988.676	3.57034
991.568	10.9907
994.461	6.4118
997.354	10.0095
1000.25	6.34871
1003.14	8.95003
1006.03	3.1006
1008.92	1.81667
1011.82	4.88387
1014.71	1.2879
1017.6	5.3168
1020.5	7.74263
1023.39	5.25627
1026.28	2.7108
1029.17	4.97266
1032.07	0.633926
1034.96	6.28449
1037.85	4.23953
1040.74	1.20433
1043.64	2.23267
1046.53	0.706619
1049.42	1.0811
1052.32	2.80211
1055.21	2.69737
1058.1	3.28343
1060.99	1.21532
1063.89	3.60135
1066.78	0.646988
1069.67	4.23274
1072.56	2.12129
1075.46	0.945969
1078.35	5.18135
1081.24	3.78261
1084.13	1.22877
1087.03	3.87723
1089.92	0.451202
1092.81	4.20543
1095.7	4.57461
1098.6	3.48193
1101.49	0.928452
1104.38	2.43225
1107.28	3.94754
1110.17	11.1482
1113.06	8.63725
1115.95	6.51443
1118.85	0.422134
1121.74	5.17157
1124.63	4.19525
1127.53	5.77939
1130.42	0.526321
1133.31	3.99803
1136.2	4.32135
1139.1	4.93631
1141.99	3.99577
1144.88	4.32735
1147.77	0.72937
1150.67	3.43597
1153.56	1.45209
1156.45	2.5634
1159.35	0.675156
1162.24	2.66214
1165.13	1.46426
1168.02	0.562668
1170.92	1.54523
1173.81	1.31897
1176.7	2.97598
1179.59	3.90683
1182.49	6.87167
1185.38	5.15184
1188.27	5.8446
1191.16	8.065
1194.06	1.09145
1196.95	8.23222
1199.84	0.430954
1202.73	7.26686
1205.63	1.25894
1208.52	2.92413
1211.41	4.26028
1214.31	6.08624
1217.2	4.71999
1220.09	6.01315
1222.98	3.75934
1225.88	7.41107
1228.77	4.82369
1231.66	5.45956
1234.56	3.87619
1237.45	4.7411
1240.34	1.79881
1243.23	5.78653
1246.13	2.24054
1249.02	2.65759
1251.91	4.84186
1254.8	6.6889
1257.7	1.75168
1260.59	6.11966
1263.48	4.83926
1266.38	5.76534
1269.27	4.09146
1272.16	4.50877
1275.05	0.237885
1277.95	2.58849
1280.84	5.16472
1283.73	6.1765
1286.62	2.58345
1289.52	5.75197
1292.41	5.20131
1295.3	4.34921
1298.19	3.44109
1301.09	1.52055
