Measurement: Raman, 532 nm, unoriented, Raman Data Processed
Mineral: Kovdorskite
Rruff sample: R060579
Ideal chemistry: Mg_2_PO_4_(OH)3H_2_O
Locality: Kovdor Massif, Kola Peninsula, Murmanskaja Oblast', Northern Region, Russia
Source: Michael Scott
Description: Pale blue prismatic crystals
Measured chemistry: (Mg_1.98_Fe_0.02_)_Σ=2_P_1.00_O_4_(OH)·3H_2_O; H_2_O by difference; (OH) by charge balance
Raman shift (cm-1)	intensity
90.4922	0
93.867	6.87007
97.2418	15.5194
100.617	21.4881
103.992	25.7857
107.366	38.2702
110.741	59.1384
114.116	60.0105
117.491	36.3373
120.865	21.4966
124.24	8.29762
127.615	7.00146
130.99	7.25496
134.365	3.5068
137.74	52.2836
141.114	135.806
144.489	231.777
147.864	332.251
151.239	571.093
154.614	943.696
157.988	1391.85
161.363	1387.12
164.738	761.788
168.113	402.964
171.488	254.744
174.863	190.542
178.237	158.831
181.612	171.606
184.987	191.036
188.362	199.183
191.737	245.43
195.112	323.759
198.486	453.942
201.861	546.534
205.236	368.703
208.611	247.099
211.986	276.596
215.36	371.314
218.735	513.421
222.11	578.982
225.485	485.594
228.86	513.552
232.234	350.906
235.609	79.0403
238.984	2.27826
242.359	36.6365
245.734	28.1866
249.109	20.447
252.483	138.496
255.858	313.38
259.233	216.471
262.608	34.2165
265.983	0.637726
269.358	32.3443
272.732	67.3561
276.107	104.312
279.482	113.732
282.857	105.057
286.232	136.24
289.606	200.809
292.981	217.753
296.356	268.193
299.731	413.19
303.106	579.356
306.481	461.672
309.855	215.799
313.23	137.282
316.605	157.947
319.98	197.091
323.355	187.862
326.729	182.029
330.104	239.121
333.479	364.55
336.854	556.519
340.229	812.146
343.603	1139.6
346.978	1248.77
350.353	875.256
353.728	477.476
357.103	277.613
360.478	179.816
363.852	150.351
367.227	170.977
370.602	220.512
373.977	284.823
377.352	295.355
380.726	211.714
384.101	99.8345
387.476	28.291
390.851	9.23422
394.226	29.839
397.601	23.9719
400.975	11.6453
404.35	20.9063
407.725	67.4677
411.1	109.541
414.475	94.1485
417.849	58.813
421.224	53.4576
424.599	80.103
427.974	134.488
431.349	214.921
434.724	327.858
438.098	474.88
441.473	629.105
444.848	754.819
448.223	851.112
451.598	899.746
454.972	903.075
458.347	811.55
461.722	642.933
465.097	477.348
468.472	367.27
471.846	298.786
475.221	230.875
478.596	173.013
481.971	147.307
485.346	135.383
488.721	121.144
492.095	110.916
495.47	95.9787
498.845	67.2186
502.22	42.6655
505.595	11.8065
508.969	6.51697
512.344	11.7391
515.719	1.38214
519.094	33.5815
522.469	90.386
525.844	159.601
529.218	248.355
532.593	336.68
535.968	404.523
539.343	421.906
542.718	394.331
546.092	350.295
549.467	318.48
552.842	305.006
556.217	304.993
559.592	319.021
562.967	327.694
566.341	320.658
569.716	300.976
573.091	275.688
576.466	223.895
579.841	158.231
583.216	84.3721
586.59	29.5985
589.965	5.02832
593.34	7.02637
596.715	3.5885
600.09	0.227966
603.464	13.3027
606.839	19.7014
610.214	33.2318
613.589	42.2024
616.964	45.9601
620.338	44.0712
623.713	33.2475
627.088	22.9781
630.463	8.17798
633.838	2.59308
637.212	0.377899
640.587	1.29553
643.962	1.39191
647.337	5.5311
650.712	7.17776
654.087	9.51947
657.461	16.6262
660.836	20.229
664.211	23.4598
667.586	28.3771
670.961	29.7677
674.335	34.0371
677.71	32.8121
681.085	35.092
684.46	33.3786
687.835	27.3814
691.21	27.815
694.584	22.4637
697.959	17.4983
701.334	12.011
704.709	7.68199
708.084	3.62366
711.458	4.18959
714.833	5.52567
718.208	2.32513
721.583	6.36761
724.958	7.9924
728.332	5.36114
731.707	4.17603
735.082	11.3849
738.457	14.6379
741.832	19.3498
745.207	24.0332
748.581	29.6894
751.956	33.7459
755.331	38.305
758.706	47.7083
762.081	47.7084
765.456	50.0244
768.83	51.1577
772.205	48.5619
775.58	47.9344
778.955	41.993
782.33	40.0739
785.704	34.4171
789.079	31.087
792.454	22.9848
795.829	21.0969
799.204	13.715
802.578	11.0406
805.953	4.00357
809.328	4.23914
812.703	1.73123
816.078	6.03763
819.453	5.46756
822.827	4.71942
826.202	7.2778
829.577	3.1691
832.952	3.319
836.327	8.38711
839.702	22.8489
843.076	30.1504
846.451	48.7864
849.826	60.1491
853.201	79.7451
856.576	93.5222
859.95	109.268
863.325	123.416
866.7	133.44
870.075	139.108
873.45	136.435
876.824	127.944
880.199	115.533
883.574	99.2963
886.949	72.3565
890.324	53.302
893.698	35.8602
897.073	22.0103
900.448	10.7099
903.823	8.33038
907.198	8.1301
910.573	15.8025
913.947	26.6902
917.322	47.257
920.697	79.8611
924.072	119.117
927.447	186.808
930.822	268.067
934.196	374.534
937.571	523.17
940.946	713.031
944.321	949.702
947.696	1260.11
951.07	1653.86
954.445	2154.36
957.82	2749.75
961.195	3374.16
964.57	3693.55
967.944	3209.95
971.319	2132.16
974.694	1210.23
978.069	662.194
981.444	361.358
984.819	195.156
988.193	99.0644
991.568	39.8384
994.943	12.9771
998.318	12.5829
1001.69	9.09317
1005.07	8.61459
1008.44	1.18472
1011.82	22.958
1015.19	68.6776
1018.57	102.09
1021.94	67.7044
1025.32	27.0297
1028.69	13.5277
1032.07	3.89792
1035.44	3.55087
1038.82	3.78003
1042.19	26.4675
1045.57	75.8004
1048.94	143.58
1052.32	257.343
1055.69	368.84
1059.07	337.685
1062.44	200.081
1065.81	116.024
1069.19	86.8701
1072.56	97.3739
1075.94	133.679
1079.31	185.007
1082.69	233.591
1086.06	257.308
1089.44	296.33
1092.81	303.036
1096.19	213.734
1099.56	131.213
1102.94	81.8014
1106.31	52.1863
1109.69	27.444
1113.06	15.3681
1116.44	8.23825
1119.81	2.71829
1123.19	1.00751
1126.56	1.14084
1129.94	2.59067
1133.31	1.84387
1136.68	0.619568
1140.06	1.74585
1143.43	4.73869
1146.81	2.08844
1150.18	4.80151
1153.56	8.31708
1156.93	6.89139
1160.31	8.50595
1163.68	5.9109
1167.06	2.58098
1170.43	4.19267
1173.81	3.38254
1177.18	6.20207
1180.56	4.6248
1183.93	4.31143
1187.31	2.9996
1190.68	0.723892
1194.06	1.08392
1197.43	2.55931
1200.81	3.73186
1204.18	3.30926
1207.56	2.22203
1210.93	5.24721
1214.31	2.21338
1217.68	0.76474
1221.06	2.60585
1224.43	0.176956
1227.81	1.06583
1231.18	4.03816
1234.56	3.65405
1237.93	3.78403
1241.31	1.29001
1244.68	2.18712
1248.05	2.11772
1251.43	0.391052
1254.8	1.74962
1258.18	3.54834
1261.55	2.22847
1264.93	2.14037
1268.3	1.59279
1271.68	2.77742
1275.05	2.09535
1278.43	1.47205
1281.8	0.216736
1285.18	3.8304
1288.55	2.18945
1291.93	1.83705
1295.3	0.077164
1298.68	5.99629
1302.05	2.45451
