Measurement: Raman, 532 nm, unoriented, Raman Data Processed
Mineral: Kovdorskite
Rruff sample: R050505
Ideal chemistry: Mg_2_PO_4_(OH)3H_2_O
Locality: Kovdor Massif, Kola Peninsula, Russia
Source: Bob Downs
Description: Colorless prismatic crystals, slightly pink in color when viewed in bulk. This sample was used in the structural study by Morrison et al (2012)
Measured chemistry: Mg_2.00_P_1.00_O_4_(OH)Â·2.67H_2_O ; trace amounts of Mn; H_2_O estimated by difference
Raman shift (cm-1)	intensity
126.121	0
129.495	37.2299
132.87	181.688
136.245	214.956
139.62	82.9636
142.995	125.973
146.369	173.619
149.744	244.748
153.119	356.847
156.494	561.239
159.869	662.358
163.244	336.341
166.618	116.859
169.993	43.0521
173.368	5.0145
176.743	7.05997
180.118	9.21329
183.493	2.03513
186.867	5.88275
190.242	15.2071
193.617	39.6304
196.992	82.3431
200.367	127.3
203.741	99.0065
207.116	72.4778
210.491	102.942
213.866	164.301
217.241	219.268
220.615	263.329
223.99	278.928
227.365	361.138
230.74	319.103
234.115	116.052
237.489	40.5468
240.864	7.37918
244.239	1.47424
247.614	1.52118
250.989	20.8369
254.364	64.2736
257.738	55.2668
261.113	1.60113
264.488	6.09439
267.863	7.75058
271.238	6.20166
274.613	15.2711
277.987	21.3848
281.362	25.4047
284.737	31.7429
288.112	45.8945
291.487	58.9862
294.861	86.0258
298.236	135.561
301.611	204.401
304.986	198.238
308.361	106.91
311.736	74.621
315.11	79.2182
318.485	94.8617
321.86	93.6046
325.235	85.8995
328.61	119.753
331.984	174.805
335.359	235.417
338.734	332.76
342.109	471.102
345.484	549.405
348.858	420.786
352.233	236.849
355.608	150.567
358.983	111.137
362.358	98.9522
365.733	115.28
369.107	156.218
372.482	209.627
375.857	241.982
379.232	185.694
382.607	101.208
385.981	40.419
389.356	9.50089
392.731	5.03281
396.106	8.14514
399.481	10.863
402.856	6.94775
406.23	30.0001
409.605	50.0774
412.98	40.8737
416.355	20.2828
419.73	10.479
423.104	20.2753
426.479	33.1058
429.854	60.4306
433.229	101.88
436.604	148.846
439.978	204.889
443.353	258.524
446.728	312.622
450.103	358.292
453.478	374.373
456.853	338.142
460.227	261.641
463.602	189.304
466.977	139.548
470.352	114.528
473.727	92.3426
477.101	74.7151
480.476	59.1793
483.851	46.0043
487.226	32.8714
490.601	25.1768
493.976	11.6527
497.35	2.52136
500.725	4.30432
504.1	2.44308
507.475	0.321564
510.85	10.2808
514.224	23.3884
517.599	48.5989
520.974	83.432
524.349	133.179
527.724	189.334
531.098	246.967
534.473	274.407
537.848	282.658
541.223	253.518
544.598	206.308
547.973	172.118
551.347	140.486
554.722	122.566
558.097	103.956
561.472	92.9841
564.847	80.581
568.221	74.7096
571.596	73.9287
574.971	66.9527
578.346	54.6271
581.721	31.1534
585.096	12.1761
588.47	1.87109
591.845	2.39859
595.22	1.85608
598.595	1.16519
601.97	1.37888
605.344	1.29449
608.719	3.59784
612.094	7.59973
615.469	11.6524
618.844	12.1204
622.218	8.66818
625.593	4.58917
628.968	2.54868
632.343	2.7662
635.718	1.36762
639.093	8.64105
642.467	1.07819
645.842	1.68323
649.217	2.74823
652.592	3.14261
655.967	6.08429
659.341	4.02664
662.716	9.41495
666.091	8.75803
669.466	12.0966
672.841	10.294
676.216	8.29074
679.59	9.56873
682.965	11.2937
686.34	10.2972
689.715	4.00391
693.09	5.11163
696.465	2.1926
699.839	4.49771
703.214	5.17096
706.589	0.972748
709.964	2.28796
713.339	1.68039
716.713	1.39792
720.088	1.64893
723.463	1.16333
726.838	1.4932
730.213	1.67868
733.587	5.97818
736.962	1.91715
740.337	4.64917
743.712	6.42422
747.087	5.19589
750.462	4.60004
753.836	6.14249
757.211	10.3431
760.586	12.7525
763.961	12.71
767.336	14.0629
770.71	16.1635
774.085	12.2674
777.46	12.2087
780.835	10.8976
784.21	9.83594
787.585	7.7081
790.959	3.87805
794.334	6.55212
797.709	1.42975
801.084	3.18195
804.459	2.23367
807.833	3.68106
811.208	3.30939
814.583	0.259888
817.958	3.16989
821.333	2.1785
824.707	5.07413
828.082	1.01102
831.457	4.39078
834.832	1.41052
838.207	7.47067
841.582	13.7341
844.956	18.4577
848.331	20.2443
851.706	24.7766
855.081	32.8264
858.456	35.8474
861.83	36.2209
865.205	41.7193
868.58	44.7235
871.955	43.8888
875.33	37.9947
878.705	36.1101
882.079	28.5726
885.454	20.2718
888.829	16.4113
892.204	6.52005
895.579	2.96103
898.953	1.03253
902.328	1.72266
905.703	0.287994
909.078	0.962524
912.453	4.88004
915.827	13.009
919.202	23.0686
922.577	39.0966
925.952	58.8178
929.327	88.8617
932.702	126.762
936.076	179.777
939.451	252.934
942.826	344.585
946.201	479.677
949.576	647.806
952.951	878.045
956.325	1163.84
959.7	1476.21
963.075	1681.96
966.45	1515.73
969.825	1039.03
973.199	607.194
976.574	348.879
979.949	201.124
983.324	116.327
986.699	70.1154
990.073	38.4863
993.448	17.9118
996.823	10.1488
1000.2	3.35727
1003.57	1.31015
1006.95	3.534
1010.32	2.88296
1013.7	2.88107
1017.07	3.45352
1020.45	2.4165
1023.82	4.83871
1027.2	4.99808
1030.57	7.08151
1033.95	4.8396
1037.32	8.21835
1040.7	16.5357
1044.07	39.6317
1047.44	65.3959
1050.82	113.2
1054.19	165.192
1057.57	165.491
1060.94	96.2975
1064.32	54.1404
1067.69	33.1045
1071.07	25.9274
1074.44	28.8252
1077.82	37.7221
1081.19	48.572
1084.57	60.3615
1087.94	63.9768
1091.32	66.7741
1094.69	49.3845
1098.07	31.0354
1101.44	20.3056
1104.82	14.2385
1108.19	14.268
1111.57	15.0229
1114.94	12.7181
1118.32	3.7691
1121.69	3.15927
1125.07	0.361542
1128.44	2.36462
1131.82	1.7291
1135.19	0.365112
1138.57	1.92062
1141.94	1.14175
1145.32	2.47717
1148.69	1.9697
1152.07	1.92911
1155.44	2.69785
1158.81	2.37241
1162.19	3.86115
1165.56	4.20206
1168.94	5.78122
1172.31	2.55362
1175.69	6.80762
1179.06	5.65317
1182.44	9.83853
1185.81	10.5666
1189.19	8.8237
1192.56	10.3268
1195.94	0.923309
1199.31	0.505646
1202.69	1.54379
1206.06	1.89008
1209.44	5.04935
1212.81	3.71506
1216.19	3.42248
1219.56	6.08157
1222.94	7.53345
1226.31	6.75119
1229.68	10.3661
1233.06	9.07394
1236.43	5.18256
1239.81	4.66818
1243.18	7.37399
1246.56	4.19074
1249.93	2.59647
1253.31	6.6037
1256.68	5.75537
1260.06	3.06757
1263.43	2.28668
1266.81	5.60272
1270.18	2.41882
1273.56	3.73047
1276.93	1.60364
1280.31	4.74573
1283.68	5.32617
1287.06	4.22327
1290.43	1.77551
1293.81	6.21771
1297.18	0.228027
1300.56	3.22125
