Measurement: Raman, 780 nm, unoriented, Raman Data Processed
Mineral: Kovdorskite
Rruff sample: R060579
Ideal chemistry: Mg_2_PO_4_(OH)3H_2_O
Locality: Kovdor Massif, Kola Peninsula, Murmanskaja Oblast', Northern Region, Russia
Source: Michael Scott
Description: Pale blue prismatic crystals
Measured chemistry: (Mg_1.98_Fe_0.02_)_Σ=2_P_1.00_O_4_(OH)·3H_2_O; H_2_O by difference; (OH) by charge balance
Raman shift (cm-1)	intensity
91.5332	0
94.908	19.7646
98.2828	17.4723
101.658	12.7607
105.032	1.07873
108.407	3.06845
111.782	9.06941
115.157	38.6373
118.532	90.9492
121.907	100.568
125.281	46.2592
128.656	58.2363
132.031	167.242
135.406	200.002
138.781	54.6388
142.155	46.1864
145.53	53.1427
148.905	82.0991
152.28	125.981
155.655	222.714
159.03	282.865
162.404	165.911
165.779	52.8098
169.154	8.70982
172.529	2.81986
175.904	3.8858
179.278	4.90677
182.653	17.3386
186.028	21.3652
189.403	36.1601
192.778	72.1799
196.153	130.749
199.527	205.644
202.902	178.55
206.277	111.735
209.652	117.692
213.027	150.944
216.401	198.249
219.776	263.048
223.151	274.23
226.526	359.853
229.901	357.653
233.275	162.4
236.65	65.9925
240.025	28.8455
243.4	7.57779
246.775	5.72012
250.15	15.6813
253.524	44.4532
256.899	43.7529
260.274	4.47469
263.649	11.2196
267.024	7.47249
270.399	2.82227
273.773	10.9794
277.148	21.1365
280.523	19.8537
283.898	22.2351
287.273	27.4098
290.647	39.0839
294.022	61.4198
297.397	111.228
300.772	187.825
304.147	204.6
307.522	124.875
310.896	78.3389
314.271	67.0662
317.646	75.9954
321.021	80.3372
324.396	88.5619
327.77	112.147
331.145	155.297
334.52	224.025
337.895	337.106
341.27	508.326
344.644	661.078
348.019	557.911
351.394	335.709
354.769	205.501
358.144	144.383
361.519	123.073
364.893	132.772
368.268	171.994
371.643	234.767
375.018	285.065
378.393	241.757
381.767	149.072
385.142	70.6121
388.517	25.0095
391.892	3.05156
395.267	6.66391
398.642	6.84296
402.016	2.09628
405.391	11.4024
408.766	31.6357
412.141	35.4832
415.516	16.2369
418.89	7.414
422.265	9.32794
425.64	20.954
429.015	40.2329
432.39	71.5248
435.765	109.06
439.139	157.086
442.514	200.626
445.889	234.047
449.264	270.817
452.639	296.15
456.014	295.712
459.388	254.733
462.763	195.647
466.138	154.637
469.513	129.32
472.887	104.689
476.262	75.728
479.637	46.9718
483.012	32.3968
486.387	15.6539
489.762	7.99655
493.136	2.02174
496.511	2.66057
499.886	3.10951
503.261	3.53322
506.636	2.29393
510.01	9.80249
513.385	24.1427
516.76	44.3318
520.135	71.2035
523.51	106.383
526.885	150.368
530.259	198.88
533.634	232.64
537.009	240.351
540.384	219.097
543.759	180.639
547.134	143.625
550.508	111.229
553.883	90.7304
557.258	74.2492
560.633	69.0895
564.008	66.3109
567.382	69.4194
570.757	74.2804
574.132	81.3645
577.507	72.6662
580.882	46.9032
584.256	27.5882
587.631	11.4717
591.006	7.94507
594.381	3.20861
597.756	3.11625
601.131	2.96124
604.505	5.1953
607.88	12.689
611.255	12.1438
614.63	12.7081
618.005	14.1662
621.38	11.1725
624.754	7.57684
628.129	1.85755
631.504	0.648277
634.879	1.135
638.254	1.91548
641.628	2.44688
645.003	0.762848
648.378	0.405884
651.753	0.470947
655.128	3.5954
658.503	4.45378
661.877	6.39711
665.252	6.55489
668.627	7.41958
672.002	9.76654
675.377	8.66731
678.751	9.48523
682.126	9.49348
685.501	9.1636
688.876	9.96096
692.251	7.47782
695.625	5.36876
699	5.11232
702.375	2.78755
705.75	1.2014
709.125	1.75799
712.5	1.21933
715.874	0.097195
719.249	2.17458
722.624	2.33025
725.999	1.03167
729.374	1.69099
732.749	2.58301
736.123	2.69963
739.498	3.6778
742.873	7.20427
746.248	7.57256
749.623	8.05794
752.997	10.9576
756.372	12.1021
759.747	15.1129
763.122	15.4858
766.497	16.8505
769.871	16.3635
773.246	15.77
776.621	15.6406
779.996	14.6796
783.371	14.4252
786.745	11.9041
790.12	10.3666
793.495	7.86994
796.87	7.63508
800.245	5.9692
803.62	3.9719
806.994	1.43236
810.369	0.206604
813.744	0.755188
817.119	2.26134
820.494	0.145767
823.869	2.14307
827.243	1.31892
830.618	0.52243
833.993	0.815842
837.368	1.92474
840.743	7.53979
844.117	9.87548
847.492	17.6949
850.867	21.5028
854.242	29.376
857.617	36.7598
860.991	45.2279
864.366	50.3909
867.741	54.549
871.116	54.5408
874.491	54.2491
877.866	47.4228
881.24	39.9475
884.615	31.4102
887.99	25.6422
891.365	16.5534
894.74	9.87269
898.115	6.73989
901.489	4.25102
904.864	1.81294
908.239	2.9688
911.614	3.42178
914.989	10.3661
918.363	19.742
921.738	32.0994
925.113	47.1081
928.488	72.6595
931.863	108.183
935.237	153.296
938.612	212.601
941.987	296.639
945.362	401.74
948.737	546.717
952.112	727.73
955.486	944.302
958.861	1194.2
962.236	1424.51
965.611	1397.47
968.986	1033.23
972.361	618.827
975.735	347.586
979.11	197.787
982.485	114.861
985.86	67.9133
989.235	40.2237
992.609	21.3438
995.984	10.8462
999.359	3.95374
1002.73	0.930374
1006.11	3.19497
1009.48	4.99042
1012.86	1.9268
1016.23	1.56437
1019.61	2.75796
1022.98	1.98725
1026.36	5.99929
1029.73	6.4764
1033.11	3.75752
1036.48	1.60723
1039.86	6.74665
1043.23	17.3331
1046.61	32.4948
1049.98	54.4501
1053.36	83.393
1056.73	95.0842
1060.11	68.1573
1063.48	40.7241
1066.86	30.404
1070.23	30.0469
1073.61	37.4887
1076.98	50.4415
1080.36	69.2378
1083.73	78.1197
1087.1	88.4838
1090.48	102.819
1093.85	79.6467
1097.23	50.3084
1100.6	31.2354
1103.98	19.8078
1107.35	12.4952
1110.73	7.07424
1114.1	4.44139
1117.48	1.99156
1120.85	0.376854
1124.23	0.192383
1127.6	1.24535
1130.98	1.26685
1134.35	1.50718
1137.73	2.43897
1141.1	1.84974
1144.48	1.37511
1147.85	2.14104
1151.23	3.17401
1154.6	2.51289
1157.97	1.35412
1161.35	1.80132
1164.72	0.18576
1168.1	1.96646
1171.47	1.80226
1174.85	3.60846
1178.22	2.4745
1181.6	1.53222
1184.97	1.04737
1188.35	1.17417
1191.72	0.760612
1195.1	0.978458
1198.47	1.31625
1201.85	0.188232
1205.22	1.7644
1208.6	3.38277
1211.97	1.76071
1215.35	2.83481
1218.72	1.26873
1222.1	2.23724
1225.47	1.90246
1228.85	0.76421
1232.22	0.41713
1235.6	0.707771
1238.97	2.04676
1242.35	1.84931
1245.72	2.39664
1249.1	2.13514
1252.47	1.40762
1255.85	2.37388
1259.22	2.7491
1262.6	1.98519
1265.97	3.03092
1269.34	2.61018
1272.72	1.98927
1276.09	2.01545
1279.47	2.34392
1282.84	3.67237
