Measurement: Raman, 780 nm, unoriented, Raman Data Processed
Mineral: Kovdorskite
Rruff sample: R050505
Ideal chemistry: Mg_2_PO_4_(OH)3H_2_O
Locality: Kovdor Massif, Kola Peninsula, Russia
Source: Bob Downs
Description: Colorless prismatic crystals, slightly pink in color when viewed in bulk. This sample was used in the structural study by Morrison et al (2012)
Measured chemistry: Mg_2.00_P_1.00_O_4_(OH)Â·2.67H_2_O ; trace amounts of Mn; H_2_O estimated by difference
Raman shift (cm-1)	intensity
105.876	0
109.251	0.483948
112.626	8.94281
116.001	19.7443
119.376	45.4305
122.75	45.8756
126.125	38.543
129.5	81.1435
132.875	209.905
136.25	122.811
139.624	34.8188
142.999	59.3857
146.374	83.0192
149.749	131.08
153.124	215.464
156.499	388.932
159.873	425.337
163.248	178.077
166.623	56.6608
169.998	13.6349
173.373	4.4046
176.747	4.51746
180.122	1.93745
183.497	6.46104
186.872	6.61267
190.247	15.4741
193.621	33.5849
196.996	67.2159
200.371	96.6865
203.746	73.8831
207.121	60.9443
210.495	70.6835
213.87	102.187
217.245	133.051
220.62	154.003
223.995	155.371
227.37	191.757
230.744	149.156
234.119	55.6183
237.494	31.1662
240.869	10.5392
244.244	1.61327
247.619	5.63351
250.993	18.3427
254.368	38.8741
257.743	26.3148
261.118	1.66176
264.493	6.41919
267.867	2.2563
271.242	1.24583
274.617	2.65062
277.992	3.37767
281.367	4.18639
284.741	8.9521
288.116	13.0456
291.491	24.0662
294.866	30.9103
298.241	59.7867
301.616	93.8484
304.99	83.9536
308.365	42.6398
311.74	29.442
315.115	35.594
318.49	46.8921
321.865	48.5712
325.239	47.3517
328.614	61.6223
331.989	79.5106
335.364	103.725
338.739	150.205
342.113	213.941
345.488	246.531
348.863	178.602
352.238	95.5218
355.613	65.3653
358.987	46.7412
362.362	34.6581
365.737	45.5708
369.112	59.6632
372.487	81.8579
375.861	93.5249
379.236	64.8226
382.611	31.1206
385.986	10.9895
389.361	2.96881
392.736	3.45348
396.11	3.0265
399.485	2.7645
402.86	6.56519
406.235	19.6501
409.61	27.0317
412.985	22.298
416.359	18.74
419.734	14.7674
423.109	20.5802
426.484	31.3252
429.859	47.8703
433.233	78.4472
436.608	107.849
439.983	142.054
443.358	170.431
446.733	201.653
450.108	223.265
453.482	231.58
456.857	210.61
460.232	165.736
463.607	116.957
466.982	83.9966
470.356	70.262
473.731	55.4097
477.106	42.552
480.481	34.598
483.856	26.123
487.231	18.0364
490.605	11.9755
493.98	5.76114
497.355	1.51167
500.73	5.65846
504.104	0.751312
507.479	0.34584
510.854	5.34486
514.229	10.7359
517.604	23.0865
520.979	42.468
524.354	63.9339
527.728	92.0128
531.103	125.234
534.478	142.476
537.853	145.614
541.227	133.113
544.602	110.257
547.977	90.6316
551.352	73.9647
554.727	68.6518
558.102	55.4157
561.476	50.3727
564.851	40.5136
568.226	40.9246
571.601	43.2522
574.976	40.786
578.351	26.8395
581.725	18.0906
585.1	6.43376
588.475	0.475525
591.85	0.947556
595.225	0.023666
598.599	0.281937
601.974	0.948257
605.349	0.140137
608.724	2.83333
612.099	2.31789
615.473	5.49075
618.848	4.55957
622.223	4.37026
625.598	1.78883
628.973	4.27043
632.347	2.78302
635.722	5.44037
639.097	8.32921
642.472	5.72423
645.847	2.77888
649.222	3.28488
652.596	4.14467
655.971	2.1846
659.346	1.6176
662.721	5.57788
666.096	1.79611
669.471	5.55577
672.845	0.778313
676.22	5.93835
679.595	6.26965
682.97	2.22601
686.345	6.90812
689.719	4.54157
693.094	2.39698
696.469	2.15644
699.844	3.19167
703.219	3.10642
706.593	3.14839
709.968	1.00798
713.343	0.996979
716.718	2.94897
720.093	1.07446
723.468	0.176926
726.842	1.54417
730.217	2.5294
733.592	2.39987
736.967	2.10181
740.342	3.11081
743.716	0.734497
747.091	0.787567
750.466	2.04236
753.841	4.12724
757.216	5.48573
760.591	3.55699
763.965	3.63005
767.34	5.36298
770.715	2.99754
774.09	5.77861
777.465	4.85934
780.84	3.50412
784.214	3.90988
787.589	4.02921
790.964	0.076004
794.339	0.349167
797.714	1.04564
801.088	1.02963
804.463	2.29182
807.838	1.7144
811.213	2.12865
814.588	2.83624
817.962	3.08093
821.337	4.17036
824.712	2.68086
828.087	3.31808
831.462	4.33563
834.837	6.04556
838.211	10.0792
841.586	11.3706
844.961	14.849
848.336	12.5166
851.711	15.888
855.085	19.0659
858.46	25.5157
861.835	25.4664
865.21	29.3939
868.585	31.888
871.96	31.0487
875.334	27.6211
878.709	23.2967
882.084	21.4918
885.459	17.219
888.834	11.0029
892.208	6.67281
895.583	5.42354
898.958	0.028976
902.333	0.956039
905.708	1.65376
909.082	1.53868
912.457	1.38599
915.832	6.74338
919.207	9.38771
922.582	15.975
925.957	26.9505
929.331	37.9517
932.706	57.6838
936.081	76.8606
939.456	108.368
942.831	148.459
946.205	206.167
949.58	283.663
952.955	378.776
956.33	493.241
959.705	633.42
963.08	711.116
966.454	638.331
969.829	439.62
973.204	256.518
976.579	142.192
979.954	82.4034
983.328	52.0992
986.703	27.1053
990.078	15.4993
993.453	6.91117
996.828	4.89694
1000.2	1.24079
1003.58	1.91808
1006.95	0.256416
1010.33	1.54448
1013.7	0.580063
1017.08	3.22961
1020.45	0.838051
1023.83	4.09945
1027.2	1.06564
1030.58	5.34103
1033.95	8.36617
1037.33	7.83037
1040.7	12.5371
1044.08	21.0393
1047.45	31.6288
1050.83	50.5577
1054.2	76.0213
1057.57	76.4646
1060.95	44.5882
1064.32	23.7533
1067.7	11.8083
1071.07	12.8829
1074.45	13.8006
1077.82	17.6563
1081.2	26.8881
1084.57	27.6967
1087.95	28.9813
1091.32	28.2635
1094.7	23.8554
1098.07	11.679
1101.45	6.63083
1104.82	3.2595
1108.2	7.92334
1111.57	6.492
1114.95	0.697304
1118.32	2.91089
1121.7	0.524178
1125.07	1.00141
1128.45	2.34634
1131.82	1.10625
1135.19	2.91567
1138.57	2.53921
1141.94	0.408089
1145.32	1.16631
1148.69	1.91756
1152.07	1.15333
1155.44	1.64774
1158.82	1.41404
1162.19	2.43292
1165.57	1.12675
1168.94	4.48013
1172.32	3.7942
1175.69	3.23678
1179.07	7.23806
1182.44	6.10341
1185.82	7.19391
1189.19	3.70111
1192.57	4.26433
1195.94	4.2513
1199.32	5.9229
1202.69	3.70506
1206.07	6.71429
1209.44	4.48177
1212.82	4.8539
1216.19	4.07298
1219.57	4.52177
1222.94	6.02202
1226.32	4.61157
1229.69	6.70399
1233.07	2.13239
1236.44	4.00108
1239.81	2.48596
1243.19	3.30736
1246.56	2.13263
1249.94	5.4628
1253.31	3.74004
1256.69	4.5845
1260.06	0.048477
1263.44	3.65935
1266.81	2.77199
1270.19	3.51091
1273.56	2.72108
1276.94	1.27463
1280.31	5.92998
1283.69	1.71091
