Measurement: Raman, 532 nm, unoriented, Raman Data Processed
Mineral: Kozoite-(La)
Rruff sample: R060995
Ideal chemistry: LaCO_3_(OH)
Locality: Mitsukoshi, Hizen-cho, Karatsu City, Saga Prefecture, Japan
Source: Marcus Origlieri
Description: Pink spheres, radially zoned with kozoite-(Nd). Surface of spheres are reported to be kozoite-(Nd). Kozoite-(La) are distinguished from kozoite-(Nd) by being closer to white.
Raman shift (cm-1)	intensity
83.4352	0
86.8101	56.6267
90.1849	131.818
93.5597	197.768
96.9345	363.643
100.309	266.632
103.684	96.5494
107.059	37.5672
110.434	91.6264
113.809	8.293
117.183	286.129
120.558	635.862
123.933	1066.59
127.308	1441.25
130.683	1533.89
134.058	1512.09
137.432	1530.25
140.807	1665.12
144.182	1972.84
147.557	1968.95
150.931	1970.61
154.306	1859.03
157.681	1834.67
161.056	1708.16
164.431	1532.1
167.806	1266.33
171.18	1029.41
174.555	991.698
177.93	970.028
181.305	992.285
184.68	1139.93
188.054	1357.29
191.429	1596.46
194.804	1803.67
198.179	1784.02
201.554	1681.8
204.929	1421.27
208.303	1167.3
211.678	1136.8
215.053	1243.12
218.428	1435.35
221.803	1780.13
225.178	2072.34
228.552	2307.36
231.927	2440.36
235.302	2439.81
238.677	2399.67
242.052	2449.7
245.426	2541.53
248.801	2501.7
252.176	2437.81
255.551	2145.41
258.926	1771.14
262.3	1359.54
265.675	1010.07
269.05	671.582
272.425	406.331
275.8	252.086
279.175	129.819
282.549	48.4141
285.924	1.72314
289.299	21.5532
292.674	80.0812
296.049	70.0006
299.423	56.0695
302.798	32.1352
306.173	36.0642
309.548	13.2986
312.923	1.99658
316.298	52.1243
319.672	98.5447
323.047	96.0676
326.422	166.746
329.797	136.708
333.172	175.449
336.546	200.78
339.921	276.693
343.296	340.078
346.671	360.327
350.046	481.121
353.421	507.654
356.795	622.347
360.17	746.285
363.545	905.664
366.92	1044.84
370.295	1236.26
373.669	1433.67
377.044	1535.11
380.419	1508.74
383.794	1399.28
387.169	1287.03
390.543	1109.22
393.918	901.228
397.293	696.904
400.668	536.766
404.043	453.779
407.418	342.52
410.792	269.599
414.167	204.653
417.542	152.196
420.917	124.406
424.292	65.945
427.666	59.7809
431.041	46.3036
434.416	30.15
437.791	32.2221
441.166	5.86536
444.541	32.0842
447.915	22.7739
451.29	7.30859
454.665	23.2324
458.04	8.80762
461.415	21.6847
464.789	28.5813
468.164	7.21179
471.539	8.76428
474.914	24.926
478.289	6.46619
481.663	3.8335
485.038	7.8446
488.413	16.385
491.788	10.5852
495.163	19.3358
498.538	33.1191
501.912	10.1029
505.287	4.31433
508.662	1.3761
512.037	21.2025
515.412	39.7032
518.786	12.2321
522.161	25.3953
525.536	26.4434
528.911	29.5537
532.286	10.005
535.66	5.39624
539.035	34.415
542.41	6.66699
545.785	12.6915
549.16	18.7057
552.534	9.62585
555.909	20.177
559.284	24.2659
562.659	15.3153
566.034	0.898315
569.409	6.60657
572.783	4.64575
576.158	2.8147
579.533	12.1083
582.908	10.605
586.283	5.14233
589.658	24.0317
593.032	19.4254
596.407	6.20117
599.782	34.9902
603.157	64.7808
606.532	1.52405
609.906	39.5497
613.281	25.828
616.656	59.244
620.031	47.5596
623.406	9.3418
626.78	16.2054
630.155	10.2175
633.53	18.3011
636.905	21.2737
640.28	11.4907
643.654	10.2004
647.029	15.2899
650.404	29.5651
653.779	37.8948
657.154	28.2345
660.529	13.3468
663.903	35.124
667.278	52.0087
670.653	47.273
674.028	71.5156
677.403	71.4918
680.778	91.6841
684.152	134.333
687.527	236.448
690.902	491.242
694.277	885.963
697.652	1445.75
701.026	2235.37
704.401	2000.36
707.776	911.668
711.151	591.05
714.526	691.732
717.9	1038.64
721.275	1445.34
724.65	1937.34
728.025	1851.22
731.4	1121.84
734.775	553.165
738.149	349.103
741.524	243.093
744.899	200.472
748.274	128.754
751.649	45.9633
755.024	55.2239
758.398	39.6823
761.773	3.22705
765.148	14.2896
768.523	16.3833
771.898	14.9999
775.272	21.4062
778.647	1.40894
782.022	15.9983
785.397	8.75671
788.772	40.6313
792.146	41.2703
795.521	28.2205
798.896	32.4872
802.271	0.133423
805.646	25.1556
809.02	27.7537
812.395	32.1511
815.77	27.7946
819.145	36.8907
822.52	9.64587
825.895	28.9605
829.269	65.5565
832.644	35.3414
836.019	54.0316
839.394	90.0847
842.769	45.8522
846.144	59.1825
849.518	76.0113
852.893	95.3424
856.268	120.717
859.643	69.7398
863.018	63.077
866.392	27.4673
869.767	22.5429
873.142	40.5931
876.517	33.2546
879.892	33.7999
883.266	13.9818
886.641	9.58508
890.016	19.8867
893.391	24.3451
896.766	43.8702
900.14	21.4374
903.515	13.6339
906.89	26.6219
910.265	3.97534
913.64	2.58789
917.015	7.26697
920.389	12.5736
923.764	40.9465
927.139	18.1749
930.514	28.312
933.889	28.088
937.264	10.9224
940.638	6.17322
944.013	6.46753
947.388	8.62781
950.763	0.251709
954.138	39.8304
957.512	14.9821
960.887	8.1759
964.262	20.1291
967.637	30.6971
971.012	2.03357
974.386	38.9088
977.761	43.5521
981.136	80.9258
984.511	72.376
987.886	46.3723
991.261	59.1152
994.635	42.7881
998.01	54.2112
1001.38	39.3206
1004.76	32.6381
1008.13	36.4713
1011.51	30.8439
1014.88	22.8624
1018.26	9.78723
1021.63	2.67664
1025.01	14.7247
1028.38	4.95349
1031.76	2.29834
1035.13	22.8729
1038.51	41.0593
1041.88	15.9995
1045.26	65.7877
1048.63	102.546
1052.01	185.928
1055.38	330.393
1058.76	495.764
1062.13	737.629
1065.51	1114.7
1068.88	1784.95
1072.26	2911.12
1075.63	4805.93
1079.01	7661.61
1082.38	11533.1
1085.76	15414.5
1089.13	14483
1092.51	8084.37
1095.88	3033.61
1099.26	1107.28
1102.63	491.086
1106	304.404
1109.38	169.636
1112.75	87.7244
1116.13	65.9066
1119.5	39.9104
1122.88	42.8506
1126.25	2.03711
1129.63	16.0574
1133	36.6426
1136.38	23.5878
1139.75	19.5519
1143.13	14.0779
1146.5	1.44128
1149.88	8.71692
1153.25	4.02698
1156.63	35.8265
1160	16.0127
1163.38	7.68372
1166.75	11.0173
1170.13	8.13513
1173.5	19.7611
1176.88	56.7969
1180.25	18.5266
1183.62	8.82434
1187	18.4481
1190.38	26.326
1193.75	38.3392
1197.12	46.2622
1200.5	41.2195
1203.87	7.25354
1207.25	19.733
1210.62	17.9214
1214	43.2423
1217.37	10.0063
1220.75	5.4541
1224.12	30.7181
1227.5	0.115723
1230.87	30.2872
1234.25	36.3569
1237.62	33.7316
1241	49.8052
1244.37	41.3079
1247.75	28.8304
1251.12	34.6155
1254.5	28.9939
1257.87	37.2011
1261.25	32.3833
1264.62	17.5339
1267.99	36.096
1271.37	37.567
1274.74	34.6583
1278.12	25.3069
1281.49	30.2211
1284.87	26.5952
1288.24	14.9298
1291.62	12.8997
1294.99	13.9879
1298.37	20.8611
