Measurement: Raman, 532 nm, unoriented, Raman Data Processed
Mineral: Kozoite-(Nd)
Rruff sample: R060996
Ideal chemistry: NdCO_3_(OH)
Locality: Mitsukoshi, Hizen-cho, Karatsu City, Saga Prefecture, Japan
Source: Marcus Origlieri
Description: Pink sphere, radially zoned with kozoite-(La). The kozoite-(Nd) is distinguished from kozoite-(La) by being pinker in color.
Raman shift (cm-1)	intensity
128.754	0
132.129	1.74609
135.504	121.599
138.879	665.915
142.253	1327.47
145.628	1750.34
149.003	1777.84
152.378	1521.29
155.753	1115.29
159.127	694.157
162.502	581.989
165.877	292.551
169.252	120.664
172.627	40.0117
176.002	149.59
179.376	398.271
182.751	780.941
186.126	1399.41
189.501	1973.37
192.876	2589.26
196.25	2967.43
199.625	2978.28
203	2566.09
206.375	2239.59
209.75	2136.41
213.125	2493.32
216.499	3230.54
219.874	4256.25
223.249	5168.35
226.624	5741.15
229.999	5790.08
233.374	5492.17
236.748	5354.57
240.123	5519.67
243.498	6130.96
246.873	6530.34
250.248	6747.84
253.622	6540.86
256.997	5759.01
260.372	4624.71
263.747	3432.84
267.122	2442.05
270.496	1634.58
273.871	1083.76
277.246	762.657
280.621	445.387
283.996	232.362
287.37	112.744
290.745	18.0689
294.12	98.436
297.495	144.208
300.87	124.946
304.245	65.0674
307.619	31.7695
310.994	67.0747
314.369	87.7446
317.744	124.261
321.119	193.343
324.493	311.621
327.868	413.393
331.243	426.643
334.618	536.984
337.993	531.404
341.368	716.369
344.742	854.111
348.117	1039.4
351.492	1417.39
354.867	1600.62
358.242	1840.86
361.616	2035.08
364.991	2274.09
368.366	2475.61
371.741	2586.25
375.116	2626.08
378.49	2405.47
381.865	2198.34
385.24	1879.71
388.615	1647.12
391.99	1366.97
395.365	1184.11
398.739	992.103
402.114	733.675
405.489	567.914
408.864	443.895
412.239	263.862
415.613	254.407
418.988	95.8633
422.363	88.7817
425.738	82.2788
429.113	14.8389
432.488	72.0688
435.862	1.74902
439.237	7.96777
442.612	3.31006
445.987	8.6748
449.362	72.1289
452.736	39.9888
456.111	26.4102
459.486	35.1255
462.861	42.1968
466.236	25.4858
469.611	41.0083
472.985	30.166
476.36	52.1846
479.735	17.5615
483.11	76.4985
486.485	22.9585
489.859	65.6235
493.234	7.75928
496.609	7.55078
499.984	9.72266
503.359	8.68604
506.733	24.1611
510.108	77.2344
513.483	26.2358
516.858	125.156
520.233	63.3384
523.607	61.5772
526.982	110.558
530.357	118.088
533.732	36.4351
537.107	25.4477
540.482	39.729
543.856	51.5029
547.231	55.8032
550.606	54.9785
553.981	31.7759
557.356	26.3223
560.731	40.6821
564.105	52.6035
567.48	62.6728
570.855	32.6514
574.23	0.630371
577.605	4.4165
580.979	54.7661
584.354	75.8687
587.729	17.1343
591.104	42.728
594.479	0.640625
597.854	55.1694
601.228	67.2041
604.603	55.6152
607.978	156.644
611.353	117.922
614.728	130.689
618.102	167.769
621.477	166.269
624.852	175.361
628.227	144.633
631.602	135.886
634.976	136.267
638.351	9.37695
641.726	75.3823
645.101	44.0645
648.476	47.6284
651.851	120.683
655.225	25.1787
658.6	74.0591
661.975	56.8442
665.35	44.521
668.725	52.832
672.099	86.7568
675.474	18.3438
678.849	54.398
682.224	107.983
685.599	343.312
688.973	581.514
692.348	1148.26
695.723	2025.68
699.098	3159.36
702.473	4079.05
705.848	1633.12
709.222	769.536
712.597	751.653
715.972	1176.7
719.347	1822.82
722.722	2773.83
726.096	3753.01
729.471	3136.36
732.846	1242.14
736.221	510.92
739.596	272.085
742.971	221.53
746.345	129.242
749.72	73.5947
753.095	78.4902
756.47	75.4326
759.845	4.5332
763.22	13.3574
766.594	74.2822
769.969	69.0928
773.344	32.5791
776.719	30.3809
780.093	10.043
783.468	89.0938
786.843	139.994
790.218	91.8203
793.593	199.529
796.968	169.31
800.342	176.96
803.717	271.14
807.092	179.56
810.467	236.009
813.842	256.065
817.216	296.421
820.591	393.187
823.966	319.023
827.341	293.956
830.716	303.834
834.091	262.711
837.465	219.259
840.84	268.851
844.215	236.099
847.59	183.531
850.965	247.863
854.34	230.907
857.714	147.004
861.089	122.53
864.464	147.043
867.839	82.3438
871.214	6.50098
874.588	62.3281
877.963	44.6611
881.338	52.8496
884.713	0.004883
888.088	102.186
891.462	50.9775
894.837	128.867
898.212	101.203
901.587	1.64746
904.962	61.6201
908.337	46.874
911.711	31.7412
915.086	19.1494
918.461	45.8223
921.836	47.374
925.211	68.7676
928.585	64.5039
931.96	65.0371
935.335	55.331
938.71	105.457
942.085	28.4531
945.46	120.213
948.834	1.68457
952.209	16.0342
955.584	5.88965
958.959	56.208
962.334	12.3965
965.708	70.7188
969.083	25.7598
972.458	56.4453
975.833	29.6943
979.208	84.6016
982.582	88.3809
985.957	55.79
989.332	8.05469
992.707	65.0664
996.082	66.7822
999.457	72.8447
1002.83	71.4053
1006.21	71.1523
1009.58	20.7842
1012.96	20.8555
1016.33	7.74023
1019.71	62.5898
1023.08	91.4141
1026.45	105.161
1029.83	19.5293
1033.2	55.9727
1036.58	23.5303
1039.95	11.4775
1043.33	78.1084
1046.7	88.71
1050.08	206.124
1053.45	319.002
1056.83	516.585
1060.2	742.151
1063.58	1024.98
1066.95	1583.17
1070.33	2756.18
1073.7	4999.22
1077.08	8787.36
1080.45	14984.3
1083.83	22375.3
1087.2	19935.5
1090.58	8176.66
1093.95	3000.83
1097.33	1149.24
1100.7	493.558
1104.08	276.738
1107.45	176.322
1110.83	106.163
1114.2	98.8643
1117.58	76.334
1120.95	15.9707
1124.33	22.6963
1127.7	31.9863
1131.07	30.8604
1134.45	57.8018
1137.82	12.6582
1141.2	116.753
1144.57	8.54102
1147.95	24.252
1151.32	55.7725
1154.7	107.969
1158.07	34.1914
1161.45	74.0684
1164.82	19.7773
1168.2	8.26465
1171.57	80.7803
1174.95	43.8174
1178.32	88.5625
1181.7	97.8613
1185.07	92.0898
1188.45	104.21
1191.82	82.9023
1195.2	48.6055
1198.57	11.0244
1201.94	79.9482
1205.32	91.0635
1208.69	33.2236
1212.07	89.4443
1215.44	52.3945
1218.82	93.1914
1222.19	36.8506
1225.57	83.5596
1228.94	81.2588
1232.32	82.5947
1235.69	98.7695
1239.07	117.664
1242.44	132.568
1245.82	151.806
1249.19	122.111
1252.57	80.6035
1255.94	39.5127
1259.32	57.3262
1262.69	59.0205
1266.07	19.3799
1269.44	173.599
1272.82	47.2764
1276.19	159.101
1279.57	90.625
1282.94	88.2314
1286.32	295.188
1289.69	81.4746
1293.07	39.6328
1296.44	31.8164
1299.82	90.585
