Measurement: Raman, 780 nm, unoriented, Raman Data Processed
Mineral: Krasnoite
Rruff sample: R120056
Ideal chemistry: Ca_3_Al_7.7_Si_3_P_4_O_23.5_(OH)_12.1_F_2_8H_2_O
Locality: Horn√≠ Slavkov, Czech Republic
Source: Bob Jenkins
Description: Aggregate of colorless thin hexagonal plates on quartz
Raman shift (cm-1)	intensity
103.174	0
106.549	6.57675
109.924	1.0083
113.299	3.65552
116.674	10.0899
120.048	22.0769
123.423	38.7041
126.798	58.4856
130.173	84.2152
133.548	116.269
136.923	158.221
140.297	210.851
143.672	259.502
147.047	264.752
150.422	223.996
153.797	170.041
157.171	115.837
160.546	78.4735
163.921	53.3595
167.296	38.9107
170.671	31.6883
174.046	29.7835
177.42	34.3467
180.795	36.3342
184.17	44.2612
187.545	57.7153
190.92	64.3784
194.294	52.9577
197.669	37.2915
201.044	27.8032
204.419	21.6938
207.794	17.2818
211.168	11.3848
214.543	8.44504
217.918	2.48653
221.293	1.33829
224.668	0.856293
228.042	1.57774
231.417	1.88979
234.792	1.39078
238.167	1.2065
241.542	1.68202
244.917	6.35606
248.291	10.3344
251.666	14.2553
255.041	17.8062
258.416	27.6724
261.791	34.3444
265.166	42.292
268.54	42.1021
271.915	44.9082
275.29	41.9828
278.665	34.3621
282.04	26.4523
285.414	16.6392
288.789	7.4827
292.164	4.92313
295.539	4.73721
298.914	1.9059
302.288	1.2319
305.663	0.06456
309.038	0.461349
312.413	0.699783
315.788	1.99615
319.163	1.10402
322.537	2.72476
325.912	3.00928
329.287	3.59042
332.662	2.44257
336.037	4.72427
339.411	9.09918
342.786	11.9602
346.161	14.3572
349.536	18.2234
352.911	20.7944
356.286	28.404
359.66	37.063
363.035	39.8303
366.41	35.404
369.785	28.1524
373.16	19.1735
376.534	16.368
379.909	15.7329
383.284	12.6021
386.659	13.733
390.034	11.7426
393.409	11.8501
396.783	6.83124
400.158	5.02322
403.533	2.61493
406.908	0.518661
410.283	1.04619
413.658	1.20429
417.032	1.71416
420.407	0.57164
423.782	0.12645
427.157	1.226
430.532	1.0898
433.906	1.55016
437.281	2.08931
440.656	1.25133
444.031	2.0135
447.406	3.22057
450.781	3.80615
454.155	9.25746
457.53	12.8673
460.905	14.9003
464.28	15.1222
467.654	16.0312
471.029	13.1679
474.404	10.253
477.779	11.3126
481.154	10.7426
484.529	16.7558
487.903	21.3523
491.278	30.6186
494.653	43.761
498.028	61.6568
501.403	81.1799
504.777	98.6237
508.152	101.391
511.527	102.95
514.902	93.4017
518.277	79.8451
521.652	64.0342
525.026	48.2506
528.401	36.9481
531.776	27.2125
535.151	20.3938
538.526	12.9317
541.9	7.20293
545.275	6.14055
548.65	2.62987
552.025	2.85884
555.4	1.04808
558.775	1.28824
562.149	1.07526
565.524	1.07739
568.899	0.454437
572.274	0.377014
575.649	0.662506
579.024	1.21274
582.398	0.185791
585.773	3.52356
589.148	4.48883
592.523	4.98517
595.898	5.80136
599.272	7.50333
602.647	16.305
606.022	23.3972
609.397	33.1027
612.772	46.3424
616.146	62.5689
619.521	65.4981
622.896	58.3499
626.271	52.3759
629.646	47.4761
633.021	46.0683
636.395	46.3654
639.77	39.5173
643.145	33.2092
646.52	28.4015
649.895	20.3358
653.269	15.2436
656.644	10.8488
660.019	9.34607
663.394	6.78479
666.769	3.39552
670.144	1.44496
673.518	1.25954
676.893	0.346481
680.268	0.582687
683.643	3.78868
687.018	6.21184
690.393	6.91397
693.767	12.8484
697.142	14.2148
700.517	14.8213
703.892	17.6202
707.266	21.2767
710.641	18.9618
714.016	16.4662
717.391	11.97
720.766	9.7269
724.141	5.17024
727.515	2.9176
730.89	4.16433
734.265	1.25349
737.64	0.074944
741.015	0.630798
744.389	2.59038
747.764	0.945038
751.139	1.44825
754.514	1.36977
757.889	0.5457
761.264	0.823952
764.638	0.275177
768.013	0.454903
771.388	1.12443
774.763	2.0109
778.138	3.68257
781.513	3.97098
784.887	2.15277
788.262	4.9663
791.637	4.64362
795.012	6.60122
798.387	6.60764
801.761	5.40552
805.136	4.69238
808.511	4.23425
811.886	4.69929
815.261	3.83476
818.635	5.90733
822.01	5.28315
825.385	4.19981
828.76	7.31522
832.135	4.73585
835.51	5.44427
838.884	5.33511
842.259	6.05234
845.634	4.86073
849.009	5.89822
852.384	4.51124
855.759	5.11348
859.133	4.17847
862.508	5.34537
865.883	3.83743
869.258	4.97086
872.633	4.73573
876.007	4.00246
879.382	4.45982
882.757	2.62717
886.132	3.61395
889.507	1.91568
892.881	1.47646
896.256	1.16957
899.631	0.38575
903.006	2.4148
906.381	1.52318
909.756	2.01463
913.13	0.012009
916.505	1.39829
919.88	0.958183
923.255	0.217926
926.63	2.51266
930.005	0.489517
933.379	0.671005
936.754	0.254532
940.129	1.16835
943.504	0.623428
946.879	2.36824
950.253	5.94517
953.628	12.3619
957.003	18.2361
960.378	26.4402
963.753	40.2584
967.127	29.8969
970.502	12.6348
973.877	5.56744
977.252	8.97081
980.627	9.6257
984.001	12.247
987.376	15.6474
990.751	22.5549
994.126	28.7362
997.501	44.3654
1000.88	61.6767
1004.25	80.6713
1007.62	96.5595
1011	95.1034
1014.38	81.1572
1017.75	64.321
1021.12	53.4467
1024.5	61.9688
1027.87	75.5865
1031.25	91.9921
1034.62	80.3812
1038	55.1908
1041.37	35.7856
1044.75	26.8725
1048.12	23.4773
1051.5	19.9989
1054.87	15.2772
1058.25	12.5494
1061.62	9.68318
1065	7.60399
1068.37	4.22708
1071.75	3.92612
1075.12	3.18231
1078.5	7.37825
1081.87	8.06604
1085.25	10.6825
1088.62	17.2893
1092	20.2195
1095.37	20.7552
1098.74	11.5587
1102.12	3.99684
1105.49	1.52842
1108.87	2.93483
1112.24	0.281364
1115.62	0.883438
1118.99	2.06405
1122.37	1.3172
1125.74	1.6152
1129.12	0.203827
1132.49	1.30889
1135.87	0.412621
1139.24	0.140526
1142.62	1.61496
1145.99	2.71993
1149.37	3.83482
1152.74	1.33626
1156.12	1.10241
1159.49	6.05138
1162.87	4.18207
1166.24	3.39681
1169.62	7.71136
1172.99	7.79435
1176.37	7.63779
1179.74	9.34581
1183.12	9.7984
1186.49	11.9973
1189.87	10.8662
1193.24	12.5072
1196.62	10.7162
1199.99	10.131
1203.37	5.69798
1206.74	4.92088
1210.11	6.47215
1213.49	6.51293
1216.86	3.68398
1220.24	3.53337
1223.61	4.05054
1226.99	4.75535
1230.36	3.04158
1233.74	2.25293
1237.11	0.544296
1240.49	2.46735
1243.86	0.978851
1247.24	0.009079
1250.61	0.83226
1253.99	1.18503
1257.36	1.60072
1260.74	2.24147
1264.11	1.22098
1267.49	2.08682
1270.86	1.88841
1274.24	3.68761
1277.61	3.93419
1280.98	3.17758
1284.36	0.353912
