Measurement: Raman, 532 nm, unoriented, Raman Data Processed
Mineral: Krasnovite
Rruff sample: R080115
Ideal chemistry: Ba(Al,Mg)(PO_4_,CO_3_)(OH)_2_H_2_O
Locality: Cerro Sapo Carbonatite dyke, Cochabamba, Bolivia
Source: William W. Pinch
Description: Pastel blue, vitreous massive, associated with blue sodalite and white ankerite
Raman shift (cm-1)	intensity
141.047	0
144.422	0.008774
147.797	4.24725
151.172	5.67892
154.547	16.3799
157.921	17.1325
161.296	22.9338
164.671	24.026
168.046	23.1885
171.421	24.6894
174.796	19.8895
178.17	17.6687
181.545	12.2383
184.92	9.52548
188.295	6.64221
191.67	2.90393
195.044	4.32477
198.419	4.37532
201.794	6.68544
205.169	7.09625
208.544	9.9512
211.918	12.6468
215.293	13.3122
218.668	18.1812
222.043	19.0593
225.418	21.1924
228.792	24.616
232.167	27.1327
235.542	30.0307
238.917	30.5068
242.292	33.973
245.667	35.5722
249.041	36.7409
252.416	41.8173
255.791	44.1659
259.166	48.7066
262.541	49.7095
265.916	47.1862
269.29	44.5353
272.665	38.6245
276.04	32.9345
279.415	26.2191
282.79	21.1885
286.164	15.0863
289.539	9.87485
292.914	4.25922
296.289	2.31033
299.664	2.22705
303.038	1.7052
306.413	0.150543
309.788	1.06581
313.163	3.33579
316.538	4.32834
319.913	0.718216
323.287	3.95094
326.662	11.2287
330.037	20.9187
333.412	32.3217
336.787	45.9042
340.161	59.6892
343.536	69.7917
346.911	77.5962
350.286	75.0326
353.661	70.6401
357.036	65.1285
360.41	60.1895
363.785	56.1622
367.16	50.3294
370.535	45.6023
373.91	44.7462
377.284	48.5244
380.659	54.8939
384.034	63.2824
387.409	75.964
390.784	91.695
394.159	108.973
397.533	129.327
400.908	156.265
404.283	177.134
407.658	178.867
411.033	165.387
414.407	139.975
417.782	111.709
421.157	86.1187
424.532	63.2094
427.907	42.5835
431.281	28.1549
434.656	16.0267
438.031	10.0067
441.406	2.10959
444.781	1.30763
448.156	2.51741
451.53	1.612
454.905	2.90617
458.28	3.75177
461.655	0.558167
465.03	2.65543
468.404	5.57069
471.779	8.05188
475.154	11.7405
478.529	20.8135
481.904	30.5587
485.279	39.7749
488.653	40.5446
492.028	36.1497
495.403	31.2723
498.778	23.8855
502.153	17.949
505.527	11.6205
508.902	7.11682
512.277	4.91777
515.652	2.25137
519.027	4.95932
522.402	7.79738
525.776	14.7462
529.151	25.7339
532.526	40.7062
535.901	57.4699
539.276	78.2866
542.65	96.673
546.025	109.06
549.4	114.777
552.775	109.882
556.15	101.152
559.525	94.4535
562.899	79.3976
566.274	70.4865
569.649	66.6376
573.024	65.4139
576.399	69.0141
579.774	80.5645
583.148	93.9985
586.523	106.99
589.898	117.368
593.273	119.43
596.648	107.302
600.022	82.9298
603.397	60.7434
606.772	44.1683
610.147	33.5022
613.522	23.9468
616.896	18.9297
620.271	11.6715
623.646	7.08905
627.021	3.33198
630.396	1.98918
633.77	2.12639
637.145	1.29747
640.52	0.999741
643.895	1.5334
647.27	0.352509
650.645	1.76733
654.019	1.40393
657.394	0.086853
660.769	0.179306
664.144	2.29265
667.519	3.09813
670.894	3.58258
674.268	5.00594
677.643	5.21758
681.018	7.5182
684.393	6.55598
687.768	7.47949
691.142	8.70882
694.517	9.92799
697.892	11.5398
701.267	13.2057
704.642	14.8188
708.016	14.581
711.391	13.9679
714.766	16.1634
718.141	17.2132
721.516	18.5255
724.891	17.852
728.265	16.2518
731.64	13.0899
735.015	10.3649
738.39	6.83679
741.765	5.67551
745.139	4.64832
748.514	4.02673
751.889	3.53276
755.264	1.38774
758.639	1.40466
762.014	2.12972
765.388	1.84753
768.763	0.570435
772.138	0.541351
775.513	1.99234
778.888	0.088699
782.263	0.583633
785.637	1.48486
789.012	1.50815
792.387	1.74185
795.762	2.3161
799.136	0.802429
802.511	1.66084
805.886	2.14728
809.261	2.99809
812.636	3.94479
816.011	3.6044
819.385	4.34528
822.76	5.76135
826.135	3.01923
829.51	4.13915
832.885	2.20378
836.26	2.61452
839.634	2.30537
843.009	2.15709
846.384	1.65389
849.759	0.092697
853.134	0.155457
856.508	0.273514
859.883	0.613007
863.258	0.586624
866.633	0.262039
870.008	0.200195
873.383	1.25124
876.757	0.712769
880.132	0.881943
883.507	0.236893
886.882	1.71071
890.257	3.4129
893.631	3.93297
897.006	6.15312
900.381	9.56624
903.756	13.387
907.131	17.1797
910.505	24.152
913.88	30.4389
917.255	42.402
920.63	56.0044
924.005	77.3939
927.38	108.855
930.754	154.43
934.129	218.525
937.504	303.824
940.879	407.025
944.254	520.767
947.629	612.82
951.003	630.654
954.378	555.143
957.753	420.212
961.128	298.087
964.503	209.882
967.877	152.698
971.252	115.145
974.627	92.8388
978.002	74.8849
981.377	61.9202
984.751	59.0678
988.126	59.8839
991.501	30.2677
994.876	13.2917
998.251	6.42656
1001.63	2.72984
1005	0.769226
1008.38	3.22128
1011.75	3.14041
1015.12	1.15854
1018.5	1.11285
1021.87	5.57411
1025.25	13.58
1028.62	26.4564
1032	43.1416
1035.37	65.7394
1038.75	96.8033
1042.12	134.997
1045.5	175.805
1048.87	214.599
1052.25	235.777
1055.62	226.817
1059	191.87
1062.37	147.876
1065.75	120.5
1069.12	103.967
1072.5	101.189
1075.87	102.633
1079.25	105.978
1082.62	98.7955
1086	82.5203
1089.37	54.7634
1092.75	34.9594
1096.12	23.0157
1099.49	16.3602
1102.87	12.5283
1106.24	10.094
1109.62	9.80838
1112.99	9.90976
1116.37	9.88884
1119.74	8.39401
1123.12	7.91965
1126.49	6.73514
1129.87	6.01251
1133.24	3.67836
1136.62	3.31793
1139.99	6.06964
1143.37	1.90619
1146.74	0.704437
1150.12	1.36629
1153.49	1.77933
1156.87	1.48906
1160.24	2.19643
1163.62	0.352936
1166.99	1.10211
1170.37	1.31516
1173.74	2.61127
1177.12	2.18633
1180.49	3.43813
1183.87	3.24014
1187.24	5.42751
1190.62	5.19498
1193.99	5.04042
1197.37	5.15927
1200.74	6.24079
1204.12	6.38702
1207.49	6.58462
1210.86	6.97664
1214.24	5.1045
1217.61	4.85346
1220.99	3.27506
1224.36	4.0231
1227.74	3.25163
1231.11	3.5719
1234.49	4.44409
1237.86	2.20357
1241.24	3.52714
1244.61	2.35503
1247.99	3.802
1251.36	2.51411
1254.74	2.53764
1258.11	1.33685
1261.49	2.3057
1264.86	2.24867
1268.24	0.935455
1271.61	1.25052
1274.99	1.39888
1278.36	1.26768
1281.73	1.37018
1285.11	1.36295
1288.48	1.2919
1291.86	1.58435
1295.23	1.97018
1298.61	0.229828
1301.98	0.468063
