Measurement: Raman, 780 nm, unoriented, Raman Data Processed
Mineral: Krasnovite
Rruff sample: R080115
Ideal chemistry: Ba(Al,Mg)(PO_4_,CO_3_)(OH)_2_H_2_O
Locality: Cerro Sapo Carbonatite dyke, Cochabamba, Bolivia
Source: William W. Pinch
Description: Pastel blue, vitreous massive, associated with blue sodalite and white ankerite
Raman shift (cm-1)	intensity
140.735	0
143.628	0.099335
146.52	5.02319
149.413	12.7079
152.306	18.3825
155.199	27.919
158.091	37.1523
160.984	46.1363
163.877	52.4001
166.769	55.7034
169.662	57.7415
172.555	53.9513
175.447	50.6622
178.34	46.5933
181.233	42.2755
184.126	32.6746
187.018	28.3242
189.911	19.8221
192.804	13.733
195.696	9.18185
198.589	6.32224
201.482	1.28378
204.375	0.235382
207.267	1.11066
210.16	2.21979
213.053	0.488617
215.945	0.603363
218.838	3.57718
221.731	5.11148
224.623	7.13409
227.516	9.2984
230.409	11.2047
233.302	10.5768
236.194	14.9629
239.087	17.2792
241.98	18.6951
244.872	19.2318
247.765	21.6067
250.658	19.7899
253.55	20.5516
256.443	19.3124
259.336	18.2354
262.228	16.3272
265.121	15.3184
268.014	11.7342
270.907	12.1917
273.799	11.7546
276.692	8.59924
279.585	7.00693
282.477	6.04611
285.37	6.71432
288.263	4.11353
291.156	3.69693
294.048	1.68127
296.941	2.74512
299.834	0.037354
302.726	0.712189
305.619	1.98315
308.512	1.73944
311.404	1.37451
314.297	1.23788
317.19	1.3183
320.082	5.42856
322.975	5.19986
325.868	7.76721
328.761	8.32532
331.653	8.52042
334.546	12.7441
337.439	17.0519
340.331	20.274
343.224	21.3687
346.117	21.7847
349.01	24.2193
351.902	21.2752
354.795	21.1836
357.688	20.5403
360.58	16.0828
363.473	15.6744
366.366	12.7855
369.258	11.4061
372.151	8.97031
375.044	7.48431
377.937	7.94696
380.829	6.91446
383.722	7.01022
386.615	7.91696
389.507	8.04483
392.4	9.42142
395.293	11.8333
398.185	11.7019
401.078	13.6082
403.971	15.0106
406.863	12.2786
409.756	13.157
412.649	9.17505
415.542	7.64368
418.434	7.21161
421.327	5.47919
424.22	3.53769
427.112	3.60751
430.005	0.040466
432.898	1.49722
435.791	0.586548
438.683	1.49713
441.576	0.55423
444.469	0.49411
447.361	0.319824
450.254	1.2074
453.147	0.662933
456.039	0.48996
458.932	1.9231
461.825	2.98514
464.717	4.22003
467.61	5.75082
470.503	6.41385
473.396	8.70877
476.288	10.0394
479.181	8.52091
482.074	9.33423
484.966	12.8553
487.859	14.0977
490.752	14.4123
493.644	15.7767
496.537	16.4614
499.43	16.2075
502.323	15.6379
505.215	15.3934
508.108	18.4179
511.001	17.2218
513.893	17.228
516.786	18.0165
519.679	15.1136
522.572	16.68
525.464	11.9253
528.357	12.9
531.25	10.0676
534.142	6.73077
537.035	5.47769
539.928	3.76279
542.82	3.54236
545.713	3.20236
548.606	2.01505
551.499	2.23425
554.391	2.21008
557.284	3.84701
560.177	2.89902
563.069	1.73929
565.962	5.22342
568.855	4.80209
571.747	3.01532
574.64	4.84561
577.533	5.82733
580.426	5.11017
583.318	4.58661
586.211	6.32846
589.104	7.67465
591.996	10.0731
594.889	9.22039
597.782	9.26622
600.674	7.17123
603.567	5.5499
606.46	4.03212
609.352	2.85037
612.245	1.96783
615.138	1.53049
618.03	1.24777
620.923	0.606354
623.816	1.12947
626.709	0.382858
629.601	0.260635
632.494	0.034439
635.387	0.094376
638.279	0.594727
641.172	0.068176
644.065	0.789841
646.957	0.076508
649.85	2.37412
652.743	0.287521
655.636	0.325607
658.528	2.52426
661.421	0.154465
664.314	0.9086
667.206	1.22286
670.099	1.26051
672.992	2.62302
675.885	0.589081
678.777	1.84137
681.67	1.19246
684.563	1.819
687.455	2.03105
690.348	0.731598
693.241	2.23984
696.133	3.06508
699.026	2.60967
701.919	1.68164
704.812	1.8896
707.704	3.44827
710.597	1.82375
713.49	3.37982
716.382	4.4774
719.275	3.7968
722.168	4.57008
725.06	3.11578
727.953	2.00264
730.846	2.84242
733.739	3.79855
736.631	2.80237
739.524	2.04669
742.417	2.74982
745.309	1.82729
748.202	2.40442
751.095	1.96112
753.987	1.55083
756.88	0.556366
759.773	1.43974
762.665	0.410187
765.558	0.595367
768.451	0.315292
771.344	0.882767
774.236	1.46025
777.129	0.024368
780.022	1.29979
782.914	0.948288
785.807	1.26299
788.7	1.38422
791.592	0.205109
794.485	0.096008
797.378	1.83191
800.271	0.199982
803.163	0.650253
806.056	2.24674
808.949	1.15332
811.841	1.12836
814.734	1.57382
817.627	2.2346
820.519	1.80237
823.412	1.87767
826.305	1.37117
829.198	1.56222
832.09	2.41179
834.983	1.95576
837.876	0.811569
840.768	2.39533
843.661	0.96637
846.554	1.22771
849.447	2.39537
852.339	1.96556
855.232	2.18471
858.125	2.08846
861.017	0.50119
863.91	2.49135
866.803	1.46248
869.695	2.34541
872.588	0.825607
875.481	1.42165
878.374	1.35435
881.266	0.665985
884.159	1.50919
887.052	0.140625
889.944	0.910583
892.837	0.303513
895.73	0.179214
898.622	0.300537
901.515	1.3782
904.408	0.195419
907.301	1.55395
910.193	0.237411
913.086	1.28799
915.979	2.75351
918.871	1.70868
921.764	4.77379
924.657	5.98331
927.549	7.04457
930.442	10.4024
933.335	12.1375
936.227	16.7025
939.12	20.1021
942.013	26.6559
944.906	31.6441
947.798	35.3899
950.691	35.5543
953.584	32.5086
956.476	26.484
959.369	19.4983
962.262	15.377
965.154	11.4027
968.047	8.99512
970.94	7.76515
973.833	4.92333
976.725	4.35625
979.618	2.6024
982.511	3.01797
985.403	1.63124
988.296	2.10515
991.189	1.4595
994.082	0.993729
996.974	0.121994
999.867	1.02295
1002.76	0.557617
1005.65	1.19624
1008.54	0.857574
1011.44	0.176147
1014.33	0.097656
1017.22	0.069229
1020.12	1.1028
1023.01	1.42146
1025.9	1.53505
1028.79	1.83121
1031.69	2.11095
1034.58	3.58711
1037.47	3.27258
1040.37	5.78465
1043.26	5.75827
1046.15	6.76067
1049.04	7.76089
1051.94	8.36404
1054.83	7.69083
1057.72	7.43709
1060.61	8.33403
1063.51	6.935
1066.4	6.01975
1069.29	6.25592
1072.18	6.05786
1075.08	6.49051
1077.97	6.80695
1080.86	7.27541
1083.76	7.92371
1086.65	5.92983
1089.54	4.64531
1092.43	2.11201
1095.33	3.95425
1098.22	3.104
1101.11	1.96773
1104	1.04512
1106.9	1.95677
1109.79	2.23642
1112.68	1.81802
1115.58	1.14674
1118.47	1.60169
1121.36	0.707428
1124.25	0.636002
1127.15	0.68074
1130.04	0.914383
1132.93	1.21625
1135.82	1.16441
1138.72	0.407898
1141.61	1.54283
1144.5	1.66911
1147.39	0.6465
1150.29	0.455093
1153.18	1.80177
1156.07	1.01761
1158.96	0.898163
1161.86	1.95267
1164.75	2.56274
1167.64	1.38943
1170.54	2.79038
1173.43	1.69913
1176.32	2.08549
1179.21	2.61539
1182.11	1.94373
1185	0.796524
1187.89	2.19754
1190.79	2.21651
1193.68	1.67555
1196.57	1.0665
1199.46	1.25584
1202.36	1.59628
1205.25	1.81503
1208.14	0.324829
1211.03	1.77104
1213.93	1.21419
1216.82	2.21109
1219.71	1.03847
1222.61	0.947266
1225.5	0.671906
1228.39	0.823959
1231.28	0.887985
1234.18	1.26614
1237.07	0.740448
1239.96	1.1864
1242.85	0.159546
1245.75	0.989548
1248.64	0.015076
1251.53	0.747864
1254.42	0.157745
1257.32	1.46123
1260.21	1.19719
1263.1	0.428619
1265.99	0.228683
1268.89	0.810959
1271.78	0.271667
1274.67	0.757736
1277.57	1.11415
1280.46	0.563782
1283.35	0.600586
1286.24	0
