Measurement: Raman, 532 nm, unoriented, Raman Data Processed
Mineral: Krausite
Rruff sample: R110211
Ideal chemistry: KFe^3+^(SO_4_)_2_H_2_O
Locality: Mina Alcaparrosa, Cerritos Bayos, Calama, Atacama, II Region, Chile
Source: Gunnar Farber
Description: Aggregates of colorless bladed crystals associated with pertlikite R110209 and coquimbite R110210
Raman shift (cm-1)	intensity
179.202	0
182.094	41.2419
184.987	128.65
187.88	181.41
190.773	218.62
193.665	286.012
196.558	335.574
199.451	344.118
202.343	321.625
205.236	283.761
208.129	239.713
211.021	178.537
213.914	130.326
216.807	90.3185
219.699	51.8451
222.592	23.7697
225.485	1.04871
228.377	12.1076
231.27	14.6183
234.163	16.2659
237.056	8.31525
239.948	14.6811
242.841	36.301
245.734	67.6712
248.626	102.058
251.519	139.22
254.412	194.901
257.305	272.228
260.197	348.426
263.09	357.64
265.983	281.22
268.875	213.822
271.768	180.734
274.661	199.537
277.553	247.997
280.446	320.239
283.339	409.979
286.232	519.564
289.124	635.608
292.017	729.617
294.91	763.797
297.802	757.424
300.695	752.537
303.588	779.056
306.481	835.344
309.373	923.539
312.266	1010.72
315.159	1063.55
318.051	1021.03
320.944	868.295
323.837	677.226
326.729	483.85
329.622	344.333
332.515	241.677
335.408	176.149
338.3	120.488
341.193	88.5861
344.086	60.741
346.978	35.9146
349.871	24.8253
352.764	14.6823
355.656	7.07767
358.549	2.80145
361.442	3.18838
364.334	2.00946
367.227	6.59796
370.12	5.57538
373.012	5.077
375.905	3.53925
378.798	3.23087
381.691	1.77234
384.583	3.15707
387.476	11.7675
390.369	22.3868
393.261	32.6801
396.154	48.3762
399.047	74.8889
401.94	99.8529
404.832	134.612
407.725	176.506
410.618	223.956
413.51	280.593
416.403	326.374
419.296	360.129
422.188	363.218
425.081	346.815
427.974	315.282
430.866	262.913
433.759	186.039
436.652	113.943
439.545	91.3041
442.437	106.231
445.33	139.455
448.223	189.045
451.115	261.798
454.008	365.718
456.901	467.979
459.793	497.592
462.686	417.909
465.579	368.261
468.472	378.892
471.364	410.431
474.257	408
477.15	333.475
480.042	233.188
482.935	155.272
485.828	107.147
488.721	80.7737
491.613	62.8401
494.506	42.8886
497.399	30.1509
500.291	21.4143
503.184	13.3784
506.077	8.09976
508.969	6.61868
511.862	2.80045
514.755	0.741913
517.648	2.69367
520.54	3.67142
523.433	3.01407
526.326	0.75058
529.218	1.5444
532.111	3.8219
535.004	0.141479
537.896	1.43582
540.789	1.38214
543.682	0.985413
546.575	1.77341
549.467	2.25983
552.36	3.5914
555.253	2.26291
558.145	3.5119
561.038	4.33197
563.931	7.05392
566.823	7.59097
569.716	9.64444
572.609	14.4482
575.502	15.8408
578.394	17.1233
581.287	21.6802
584.18	31.9031
587.072	38.1319
589.965	48.6653
592.858	48.9676
595.75	52.8166
598.643	66.2328
601.536	91.2163
604.428	113.524
607.321	131.32
610.214	113.595
613.107	78.9202
615.999	54.0067
618.892	44.9412
621.785	51.3926
624.677	86.8555
627.57	146.287
630.463	219.994
633.356	323.814
636.248	442.231
639.141	506.897
642.034	348.433
644.926	153.674
647.819	68.0797
650.712	34.6252
653.604	18.775
656.497	10.0432
659.39	8.99911
662.283	10.8268
665.175	12.3424
668.068	18.3438
670.961	25.3058
673.853	35.2191
676.746	43.4016
679.639	37.2762
682.531	26.4157
685.424	13.3756
688.317	7.33408
691.21	5.21704
694.102	1.11838
696.995	0.081085
699.888	1.47513
702.78	2.75571
705.673	2.0972
708.566	0.985291
711.458	2.37778
714.351	1.03479
717.244	0.252533
720.136	0.37912
723.029	0.657867
725.922	1.02679
728.815	4.68112
731.707	4.50238
734.6	7.55234
737.493	4.92377
740.385	6.63467
743.278	3.83075
746.171	6.17435
749.063	7.45001
751.956	6.67508
754.849	9.56097
757.742	8.30286
760.634	5.05301
763.527	4.70599
766.42	9.27338
769.312	5.32425
772.205	6.04791
775.098	5.22879
777.99	4.54629
780.883	4.86948
783.776	5.32684
786.669	5.41892
789.561	2.61822
792.454	2.97671
795.347	5.29504
798.239	3.82568
801.132	4.04938
804.025	6.7446
806.918	9.44681
809.81	10.9992
812.703	12.133
815.596	10.6216
818.488	5.03744
821.381	4.90442
824.274	6.711
827.166	3.04449
830.059	6.18979
832.952	4.95416
835.845	5.12112
838.737	5.42215
841.63	7.34525
844.523	7.81195
847.415	10.068
850.308	12.05
853.201	16.2344
856.093	18.7206
858.986	18.4487
861.879	15.0202
864.771	10.5044
867.664	5.74414
870.557	5.4079
873.45	2.36264
876.342	1.40292
879.235	4.02039
882.128	4.19162
885.02	1.30765
887.913	1.53159
890.806	2.6225
893.698	2.52899
896.591	1.98642
899.484	6.0083
902.377	9.98572
905.269	12.386
908.162	16.3385
911.055	24.6723
913.947	32.7129
916.84	40.1417
919.733	55.6126
922.625	72.9999
925.518	96.7162
928.411	129.364
931.304	173.522
934.196	243.029
937.089	343.397
939.982	491.51
942.875	700.235
945.767	965.321
948.66	1260.75
951.553	1538.17
954.445	1674.08
957.338	1573.68
960.231	1275.15
963.123	918.165
966.016	629.748
968.909	417.94
971.802	270.95
974.694	176.44
977.587	113.014
980.48	69.7405
983.372	38.6847
986.265	15.3425
989.158	5.88257
992.05	5.58456
994.943	7.00894
997.836	5.93823
1000.73	5.75983
1003.62	27.168
1006.51	73.934
1009.41	138.921
1012.3	229.65
1015.19	349.353
1018.09	462.208
1020.98	435
1023.87	339.039
1026.76	312.923
1029.66	196.079
1032.55	55.5727
1035.44	9.14902
1038.33	1.78024
1041.23	8.0524
1044.12	27.3578
1047.01	54.5961
1049.9	88.0822
1052.8	130.644
1055.69	196.041
1058.58	301.775
1061.47	493.784
1064.37	847.562
1067.26	1470.67
1070.15	2331.7
1073.05	3497.82
1075.94	4790.13
1078.83	4532.73
1081.72	2654.8
1084.62	1327.56
1087.51	716.883
1090.4	427.892
1093.3	264.496
1096.19	171.296
1099.08	108.6
1101.97	70.967
1104.87	41.3932
1107.76	20.9737
1110.65	10.7038
1113.54	3.05481
1116.44	1.69263
1119.33	3.48721
1122.22	6.98761
1125.12	2.14371
1128.01	1.87308
1130.9	14.2002
1133.79	31.173
1136.68	57.7419
1139.58	85.2686
1142.47	111.948
1145.36	128.458
1148.26	123.617
1151.15	105.987
1154.04	78.7212
1156.93	60.4917
1159.83	45.573
1162.72	32.7113
1165.61	28.1595
1168.51	21.1467
1171.4	16.8619
1174.29	14.5716
1177.18	12.7155
1180.08	3.00092
1182.97	0.049072
1185.86	1.37418
1188.75	1.88806
1191.65	1.94278
1194.54	2.80801
1197.43	1.14749
1200.33	0.307007
1203.22	2.99634
1206.11	5.56079
1209	8.03943
1211.9	13.2731
1214.79	16.5938
1217.68	22.3205
1220.57	30.3178
1223.47	28.9469
1226.36	32.5783
1229.25	30.066
1232.14	26.4198
1235.04	19.7615
1237.93	20.257
1240.82	22.9621
1243.71	30.1531
1246.61	36.4654
1249.5	55.5459
1252.39	90.9944
1255.29	153.119
1258.18	261.645
1261.07	408.622
1263.96	603.746
1266.86	763.331
1269.75	673.551
1272.64	426.258
1275.54	243.905
1278.43	145.042
1281.32	83.9936
1284.21	53.7335
1287.11	31.8826
1290	18.1857
1292.89	6.30017
1295.78	2.93677
1298.68	0.004517
1301.57	1.68704
