Measurement: Raman, 532 nm, unoriented, Raman Data Processed
Mineral: Krautite
Rruff sample: R060967
Ideal chemistry: Mn^2+^(As^5+^O_3_OH)H_2_O
Locality: Jachymov, Bohemia, Czech Republic
Source: Michael Scott
Description: Pink spheroidal aggregates and crusts found with other secondary arsenic minerals, quartz and mica
Raman shift (cm-1)	intensity
162.984	0
165.877	55.1611
168.77	33.7734
171.663	97.9258
174.555	103.707
177.448	196.794
180.341	327.467
183.233	397.519
186.126	312.418
189.019	299.964
191.911	198.613
194.804	80.5449
197.697	134.488
200.589	19.9355
203.482	124.885
206.375	141.291
209.268	68.3613
212.16	43.127
215.053	116.598
217.946	144.443
220.838	86.2031
223.731	31.0801
226.624	13.2598
229.517	174.772
232.409	127.092
235.302	83.5469
238.195	20.6309
241.087	83.6797
243.98	112.275
246.873	27.3809
249.765	81.8672
252.658	26.6309
255.551	108.93
258.443	90.4824
261.336	23.1445
264.229	14.709
267.122	18.7773
270.014	11.9395
272.907	53.0137
275.8	158.836
278.692	155.195
281.585	353.668
284.478	335.244
287.37	416.029
290.263	518.482
293.156	460.594
296.049	557.43
298.941	694.078
301.834	913.26
304.727	1013.61
307.619	1335.29
310.512	1368.91
313.405	1319.61
316.298	1260.93
319.19	1193.46
322.083	1336.25
324.976	1398.04
327.868	1333.88
330.761	1235.57
333.654	1065.72
336.546	1087.97
339.439	962.949
342.332	810.744
345.224	646.811
348.117	715.4
351.01	751.42
353.903	855.094
356.795	958.322
359.688	1045.48
362.581	1372.28
365.473	1434.63
368.366	1622.22
371.259	1627.07
374.151	1318.32
377.044	1174.64
379.937	781.133
382.83	532.465
385.722	303.117
388.615	349.272
391.508	274.631
394.4	24.7715
397.293	83.3164
400.186	234.523
403.079	253.074
405.971	265.838
408.864	538.91
411.757	756.549
414.649	734.516
417.542	793.658
420.435	919.68
423.327	886.019
426.22	737.316
429.113	537.994
432.005	447.443
434.898	486.518
437.791	274.742
440.683	263.236
443.576	185.094
446.469	166.338
449.362	153.004
452.254	82.6016
455.147	183.727
458.04	33.1465
460.932	9.00586
463.825	103.088
466.718	104.443
469.611	12.375
472.503	46.4902
475.396	75.8144
478.289	75.6309
481.181	44.5664
484.074	111.162
486.967	141.197
489.859	211.463
492.752	54.2754
495.645	160.887
498.538	194.195
501.43	201.717
504.323	351.935
507.216	363.652
510.108	371.951
513.001	361.225
515.894	402.172
518.786	417.975
521.679	528.104
524.572	420.715
527.465	498.945
530.357	328.023
533.25	316.66
536.143	47.918
539.035	31.0352
541.928	221.9
544.821	226.184
547.713	105.199
550.606	245.943
553.499	116.279
556.391	13.7422
559.284	4.41992
562.177	40.75
565.07	210.402
567.962	184.469
570.855	66.6387
573.748	5.08984
576.64	10.3516
579.533	11.0957
582.426	32.543
585.318	126.728
588.211	34.8223
591.104	79.9316
593.997	153.627
596.889	34.0449
599.782	24.2617
602.675	129.369
605.567	311.934
608.46	453.861
611.353	497.42
614.245	423.945
617.138	537.541
620.031	671.42
622.924	702.607
625.816	726.857
628.709	794.168
631.602	593.551
634.494	468.961
637.387	543.131
640.28	502.318
643.172	390.096
646.065	502.977
648.958	595.527
651.851	552.959
654.743	592.598
657.636	542.416
660.529	614.492
663.421	327.539
666.314	393.877
669.207	384.477
672.099	364.637
674.992	200.809
677.885	288.856
680.778	242.557
683.67	510.67
686.563	380.441
689.456	472.922
692.348	441.158
695.241	526.061
698.134	405.56
701.026	359.435
703.919	314.82
706.812	399.477
709.705	418.397
712.597	368.766
715.49	471.674
718.383	513.357
721.275	499.887
724.168	452.391
727.061	329.076
729.953	330.326
732.846	318.166
735.739	198.459
738.631	133.121
741.524	48.0879
744.417	123.533
747.31	168.207
750.202	90.5449
753.095	156.318
755.988	75.5371
758.88	77.5312
761.773	217.531
764.666	163.826
767.558	92.6016
770.451	11.0625
773.344	41.8125
776.237	150.055
779.129	34.0801
782.022	222.639
784.915	323.203
787.807	494.545
790.7	793.93
793.593	1261.83
796.486	1436.8
799.378	1686.17
802.271	1953.74
805.164	2313.64
808.056	2693.01
810.949	2915.57
813.842	3331.24
816.734	3665.24
819.627	3611.98
822.52	4268.97
825.413	5022.29
828.305	6012.93
831.198	6934.3
834.091	8050.27
836.983	9488.3
839.876	11280.7
842.769	13273
845.661	15603.1
848.554	18185.8
851.447	20857.5
854.34	23591
857.232	26377.4
860.125	28282.3
863.018	28989.2
865.91	28443.9
868.803	26546.7
871.696	24225.3
874.588	21557.7
877.481	18730.3
880.374	16045.1
883.266	13390.8
886.159	11155.5
889.052	9163.05
891.944	7519.03
894.837	6155.61
897.73	4847.05
900.623	3733.07
903.515	2770.19
906.408	2189.55
909.301	1624.72
912.193	1218.34
915.086	801.258
917.979	476.523
920.871	395.695
923.764	273.826
926.657	238.551
929.55	194.625
932.442	24.6992
935.335	49.5176
938.228	192.143
941.12	92.0156
944.013	156.205
946.906	192.357
949.798	197.084
952.691	126.49
955.584	155.065
958.477	35.002
961.369	93.1562
964.262	225.06
967.155	50.3496
970.047	84.0176
972.94	267.371
975.833	265.516
978.726	435.367
981.618	334.375
984.511	329.894
987.404	330.978
990.296	352.231
993.189	345.086
996.082	442.201
998.974	440.195
1001.87	543.885
1004.76	549.143
1007.65	498.584
1010.54	451.861
1013.44	302.393
1016.33	269.143
1019.22	441.67
1022.12	470.305
1025.01	590.506
1027.9	490.394
1030.79	448.584
1033.69	487.512
1036.58	459.338
1039.47	494.086
1042.37	441.981
1045.26	283.156
1048.15	361.199
1051.04	284.299
1053.94	512.211
1056.83	706.893
1059.72	441.287
1062.61	255.309
1065.51	114.953
1068.4	136.197
1071.29	280.188
1074.18	274.078
1077.08	157.519
1079.97	28.4082
1082.86	163.842
1085.76	181.473
1088.65	271.033
1091.54	114.211
1094.43	283.422
1097.33	309.291
1100.22	260.152
1103.11	219.049
1106	208.986
1108.9	259.529
1111.79	117.211
1114.68	79.1289
1117.58	75.3984
1120.47	1.21289
1123.36	107.731
1126.25	114.332
1129.15	207.934
1132.04	298.234
1134.93	185.762
1137.82	22.3867
1140.72	145.447
1143.61	154.867
1146.5	53.0898
1149.39	73.7832
1152.29	10.9219
1155.18	69.541
1158.07	12.2871
1160.97	42.4219
1163.86	46.457
1166.75	60.4023
1169.64	101.672
1172.54	122.809
1175.43	172.625
1178.32	80.457
1181.21	178.453
1184.11	206.285
1187	195.84
1189.89	122.25
1192.79	22.6562
1195.68	14.5078
1198.57	46.3477
1201.46	47.8008
1204.36	22.7539
1207.25	172.5
1210.14	241.41
1213.03	10.2227
1215.93	239.902
1218.82	111.91
1221.71	127.242
1224.61	150.949
1227.5	40.7891
1230.39	133.812
1233.28	143.254
1236.18	395.457
1239.07	223.07
1241.96	266.316
1244.85	240.059
1247.75	402.961
1250.64	173.219
1253.53	138.797
1256.42	241.566
1259.32	163.359
1262.21	90.7773
1265.1	22.7109
1267.99	43.3047
1270.89	423.137
1273.78	564.82
1276.67	357.008
1279.57	228.312
1282.46	235.629
