Measurement: Raman, 785 nm, unoriented, Raman Data Processed
Mineral: Krautite
Rruff sample: R060967
Ideal chemistry: Mn^2+^(As^5+^O_3_OH)H_2_O
Locality: Jachymov, Bohemia, Czech Republic
Source: Michael Scott
Description: Pink spheroidal aggregates and crusts found with other secondary arsenic minerals, quartz and mica
Raman shift (cm-1)	intensity
176.971	0
179.864	1.54688
182.757	105.416
185.649	57.4863
188.542	167.273
191.435	17.1699
194.328	241.668
197.22	276.305
200.113	331.816
203.006	427.955
205.898	252.371
208.791	46.4375
211.684	168.984
214.577	250.019
217.469	409.652
220.362	469.316
223.255	563.644
226.147	444.391
229.04	492.238
231.933	553.461
234.825	652.262
237.718	624.156
240.611	553.019
243.504	318.492
246.396	248.406
249.289	135.383
252.182	225.211
255.074	146.797
257.967	310.32
260.86	211.481
263.752	178.363
266.645	89.6641
269.538	13.6875
272.43	37.6484
275.323	37.9414
278.216	201.992
281.109	292.527
284.001	295.719
286.894	582.191
289.787	186.75
292.679	14.9492
295.572	157.297
298.465	159.512
301.358	460.438
304.25	730.199
307.143	861.965
310.036	740.824
312.928	681.734
315.821	710.703
318.714	830.703
321.606	961.473
324.499	1465.76
327.392	1646.89
330.284	1854.1
333.177	1361.61
336.07	1131.04
338.962	827.961
341.855	678
344.748	628.606
347.641	743.461
350.533	788.996
353.426	835.242
356.319	705.231
359.211	509.57
362.104	626.844
364.997	920.207
367.889	1115.28
370.782	1609.16
373.675	1629.46
376.568	1443.94
379.46	872.172
382.353	549.621
385.246	181.344
388.138	130.832
391.031	168.019
393.924	253.453
396.817	262.938
399.709	230.191
402.602	30.7617
405.495	161.191
408.387	32.7109
411.28	208.934
414.173	613.109
417.065	869.949
419.958	994.109
422.851	825.086
425.743	835.574
428.636	700.519
431.529	523.84
434.422	441.371
437.314	395.867
440.207	517.672
443.1	441.633
445.992	720.949
448.885	594.996
451.778	391.191
454.671	284.379
457.563	405.207
460.456	356.121
463.349	512.062
466.241	299.461
469.134	204.668
472.027	71.082
474.919	104.832
477.812	6.24219
480.705	49.2305
483.597	45.6641
486.49	159.059
489.383	242.254
492.276	173.266
495.168	114.18
498.061	76
500.954	106.312
503.846	232.535
506.739	122.613
509.632	287.91
512.524	187.816
515.417	117.793
518.31	299.258
521.202	284.062
524.095	148.629
526.988	342.559
529.881	111.691
532.773	220.418
535.666	250.215
538.559	398.852
541.451	109.742
544.344	119.637
547.237	15.6602
550.13	109.824
553.022	125.262
555.915	179.769
558.808	216.766
561.7	226.043
564.593	258.481
567.486	164.481
570.378	54.3789
573.271	62.2539
576.164	52.4414
579.057	192.18
581.949	139.211
584.842	38.4062
587.735	49.1406
590.627	182.828
593.52	44.4883
596.413	90.7305
599.305	231.809
602.198	207.664
605.091	290.398
607.984	220.394
610.876	237.367
613.769	296.504
616.662	383.465
619.554	298.312
622.447	416.402
625.34	509.766
628.232	366.113
631.125	330.664
634.018	354.711
636.91	239.07
639.803	332.758
642.696	264.883
645.589	235.394
648.481	290.918
651.374	128.434
654.267	261.848
657.159	257.051
660.052	324.184
662.945	262.164
665.837	126.32
668.73	89.6094
671.623	208.484
674.515	217.894
677.408	229.481
680.301	150.828
683.194	128.805
686.086	65.8672
688.979	203.902
691.872	249.082
694.764	227.305
697.657	327.344
700.55	197.734
703.442	207.363
706.335	251.551
709.228	233.363
712.121	214.461
715.013	413.426
717.906	403.203
720.799	434.469
723.691	479.648
726.584	251.363
729.477	210.703
732.37	236.602
735.262	1.44922
738.155	6.16016
741.048	135.883
743.94	53.8379
746.833	123.004
749.726	138.769
752.618	37.6367
755.511	5.51953
758.404	1.46875
761.297	26.3164
764.189	71.8008
767.082	65.7695
769.975	64.3516
772.867	52.7148
775.76	83.0586
778.653	9.32617
781.545	140.959
784.438	279.416
787.331	630.82
790.223	849.436
793.116	1125.41
796.009	1376.33
798.902	1613.31
801.794	1842.23
804.687	2028
807.58	2368.96
810.472	2461.41
813.365	2567.99
816.258	2397.78
819.15	2144.42
822.043	1714.09
824.936	1734.44
827.829	1647.99
830.721	1772.12
833.614	1867.68
836.507	2206.59
839.399	2496.19
842.292	2785.38
845.185	3362.25
848.077	4166.01
850.97	4677.91
853.863	5831.28
856.755	7264.4
859.648	8966.6
862.541	10815.6
865.434	12355.3
868.326	13147.5
871.219	12952.3
874.112	12261.5
877.004	11007.7
879.897	9656.35
882.79	8451.34
885.683	7073.84
888.575	5805.79
891.468	4716.7
894.361	3605.91
897.253	2662.11
900.146	2051.8
903.039	1558.39
905.931	1153.59
908.824	897.666
911.717	671.324
914.61	525.66
917.502	203.84
920.395	159.242
923.288	44.5059
926.18	2.13281
929.073	18.8906
931.966	63.7793
934.858	26.3555
937.751	82.9648
940.644	60.2168
943.536	42.4375
946.429	151.184
949.322	0.466797
952.215	45.543
955.107	11.8516
958	94.1445
960.893	84.5098
963.785	180.119
966.678	157.469
969.571	267.315
972.463	184.873
975.356	354.801
978.249	340.088
981.141	338.082
984.034	266.065
986.927	189.822
989.82	297.221
992.712	309.731
995.605	199.232
998.498	303.356
1001.39	331.217
1004.28	291.4
1007.18	116.369
1010.07	207.498
1012.96	195.264
1015.85	211.25
1018.75	133.551
1021.64	151.346
1024.53	179.731
1027.42	66.6992
1030.32	178.99
1033.21	203.082
1036.1	189.914
1038.99	233.291
1041.89	238.379
1044.78	192.31
1047.67	191.615
1050.57	158.4
1053.46	144.266
1056.35	67.1016
1059.24	85.666
1062.14	56.1758
1065.03	166.85
1067.92	130.414
1070.82	72.6836
1073.71	170.838
1076.6	24.4336
1079.49	172.957
1082.39	37.8633
1085.28	44.1562
1088.17	160.158
1091.06	78.8496
1093.96	108.834
1096.85	145.254
1099.74	97.6797
1102.63	34.3828
1105.53	60.8965
1108.42	25.168
1111.31	45.1094
1114.21	100.598
1117.1	16.5742
1119.99	87.3594
1122.88	182.143
1125.78	151.977
1128.67	95.3477
1131.56	50.0977
1134.45	135.441
1137.35	113.481
1140.24	104.283
1143.13	149.004
1146.03	61.4688
1148.92	61.9961
1151.81	67.8926
1154.7	98
1157.6	44.9668
1160.49	2.32812
1163.38	117.654
1166.27	161.826
1169.17	50.0918
1172.06	223.555
1174.95	52.0605
1177.85	35.2402
1180.74	35.2598
1183.63	30.207
1186.52	144.133
1189.42	74.7519
1192.31	130.685
1195.2	67.7207
1198.09	142.185
1200.99	133.875
1203.88	48.6504
1206.77	55.6406
1209.66	197.103
1212.56	114.324
1215.45	190.012
1218.34	183.256
1221.23	206.203
1224.13	189.731
1227.02	199.266
1229.91	170.414
1232.81	122.219
1235.7	25.6113
1238.59	129.039
1241.48	112.648
1244.38	133.172
1247.27	160.051
1250.16	104.971
1253.06	2.77734
1255.95	36.9199
1258.84	80.7148
