Measurement: Raman, 780 nm, unoriented, Raman Data Processed
Mineral: Krausite
Rruff sample: R110211
Ideal chemistry: KFe^3+^(SO_4_)_2_H_2_O
Locality: Mina Alcaparrosa, Cerritos Bayos, Calama, Atacama, II Region, Chile
Source: Gunnar Farber
Description: Aggregates of colorless bladed crystals associated with pertlikite R110209 and coquimbite R110210
Raman shift (cm-1)	intensity
123.423	0
126.798	4.47182
130.173	25.8179
133.548	47.9718
136.923	49.5426
140.297	51.8313
143.672	55.2326
147.047	66.3025
150.422	74.6107
153.797	65.5372
157.171	40.5865
160.546	19.6647
163.921	5.37312
167.296	1.58118
170.671	1.95868
174.046	11.5626
177.42	34.2544
180.795	66.8839
184.17	98.7174
187.545	120.13
190.92	136.034
194.294	157.037
197.669	161.103
201.044	138.498
204.419	107.149
207.794	76.2848
211.168	53.4177
214.543	38.9654
217.918	23.5948
221.293	11.4141
224.668	3.0986
228.042	2.79828
231.417	3.01963
234.792	2.35278
238.167	2.15762
241.542	10.9327
244.917	17.8174
248.291	24.0362
251.666	35.5449
255.041	55.0478
258.416	82.0611
261.791	96.3902
265.166	74.8713
268.54	49.5839
271.915	40.4585
275.29	45.8775
278.665	61.2361
282.04	82.5843
285.414	111.551
288.789	144.344
292.164	166.944
295.539	171.41
298.914	163.905
302.288	161.692
305.663	172.174
309.038	192.426
312.413	217.557
315.788	228.895
319.163	206.862
322.537	157.201
325.912	105.388
329.287	69.8759
332.662	45.3191
336.037	29.257
339.411	19.4964
342.786	12.2684
346.161	6.57697
349.536	3.92493
352.911	2.6875
356.286	1.75292
359.66	0.295158
363.035	0.398705
366.41	1.62695
369.785	1.4784
373.16	1.19556
376.534	0.839287
379.909	1.39377
383.284	0.471161
386.659	1.691
390.034	4.4683
393.409	6.93891
396.783	11.4061
400.158	17.0244
403.533	24.5887
406.908	34.1299
410.283	45.9824
413.658	59.9115
417.032	72.0243
420.407	82.4665
423.782	83.2526
427.157	80.0382
430.532	70.4284
433.906	47.6462
437.281	29.3529
440.656	27.3126
444.031	33.4477
447.406	43.7641
450.781	63.1489
454.155	92.066
457.53	118.929
460.905	107.938
464.28	90.7397
467.654	99.0375
471.029	112.815
474.404	112.252
477.779	83.4
481.154	52.8346
484.529	36.2316
487.903	26.5215
491.278	19.7752
494.653	14.5097
498.028	8.86354
501.403	6.17077
504.777	4.48061
508.152	2.49125
511.527	2.27674
514.902	0.014309
518.277	0.178082
521.652	0.41885
525.026	0.9725
528.401	1.88818
531.776	0.088982
535.151	1.52356
538.526	1.23778
541.9	0.223789
545.275	0.395844
548.65	0.498959
552.025	0.619038
555.4	0.05883
558.775	0.765018
562.149	1.51957
565.524	2.36064
568.899	2.61457
572.274	3.26395
575.649	3.77264
579.024	5.00781
582.398	7.31616
585.773	8.41768
589.148	11.5159
592.523	10.938
595.898	10.6853
599.272	13.5301
602.647	18.3661
606.022	23.6974
609.397	20.1705
612.772	13.5256
616.146	9.02567
619.521	8.13969
622.896	12.8829
626.271	22.635
629.646	35.2373
633.021	55.8308
636.395	85.0269
639.77	86.4228
643.145	36.3276
646.52	13.2753
649.895	6.59792
653.269	3.10739
656.644	2.36914
660.019	2.13904
663.394	2.24965
666.769	4.89764
670.144	6.84131
673.518	11.0171
676.893	12.7839
680.268	9.48305
683.643	4.61062
687.018	1.79758
690.393	1.06059
693.767	0.28429
697.142	0.330189
700.517	0.66692
703.892	0.149239
707.266	0.790848
710.641	0.36272
714.016	0.0303
717.391	0.46711
720.766	0.25182
724.141	0.431213
727.515	0.278076
730.89	0.537586
734.265	0.201393
737.64	0.465813
741.015	0.305534
744.389	1.35011
747.764	0.867161
751.139	0.676891
754.514	0.958897
757.889	1.41191
761.264	1.11674
764.638	0.898354
768.013	0.744492
771.388	0.484703
774.763	0.920216
778.138	1.58496
781.513	1.32241
784.887	0.954384
788.262	1.34546
791.637	0.98587
795.012	1.80468
798.387	1.61126
801.761	1.81446
805.136	2.56274
808.511	1.89938
811.886	2.97778
815.261	1.68201
818.635	1.20436
822.01	1.09061
825.385	1.52593
828.76	1.20298
832.135	1.1171
835.51	1.41852
838.884	2.22612
842.259	2.21197
845.634	2.05959
849.009	3.40212
852.384	3.51133
855.759	3.95971
859.133	3.66613
862.508	3.14489
865.883	1.58652
869.258	0.79945
872.633	0.10313
876.007	0.353897
879.382	0.478687
882.757	0.337543
886.132	0.127003
889.507	0.297657
892.881	0.60722
896.256	0.001221
899.631	1.64502
903.006	0.910824
906.381	2.77332
909.756	3.99429
913.13	5.29089
916.505	7.29536
919.88	10.3594
923.255	13.8519
926.63	19.8548
930.005	28.5786
933.379	41.9768
936.754	63.4719
940.129	96.2378
943.504	143.599
946.879	204.568
950.253	273.127
953.628	321.529
957.003	308.401
960.378	235.189
963.753	155.338
967.127	96.2828
970.502	57.4538
973.877	34.9074
977.252	18.6252
980.627	11.0964
984.001	4.12613
987.376	0.258621
990.751	1.24887
994.126	1.24002
997.501	1.04612
1000.88	6.6899
1004.25	15.7205
1007.62	34.5612
1011	63.1605
1014.38	93.7128
1017.75	121.205
1021.12	112.666
1024.5	113.228
1027.87	121.052
1031.25	41.3389
1034.62	9.98905
1038	2.04243
1041.37	0.1768
1044.75	0.991287
1048.12	3.86179
1051.5	9.48817
1054.87	16.8147
1058.25	31.9195
1061.62	62.6367
1065	120.104
1068.37	210.778
1071.75	361.078
1075.12	562.181
1078.5	508.622
1081.87	244.748
1085.25	109.683
1088.62	56.9065
1092	30.458
1095.37	16.9354
1098.74	9.49529
1102.12	4.54375
1105.49	2.4876
1108.87	0.843925
1112.24	0.036251
1115.62	0.045822
1118.99	0.649509
1122.37	0.558704
1125.74	0.013103
1129.12	2.17658
1132.49	4.08527
1135.87	7.61751
1139.24	12.2288
1142.62	15.9031
1145.99	16.8917
1149.37	15.0649
1152.74	11.8185
1156.12	8.17761
1159.49	7.12183
1162.87	5.10685
1166.24	5.05695
1169.62	4.22728
1172.99	3.43233
1176.37	2.15657
1179.74	1.18409
1183.12	0.682037
1186.49	0.043163
1189.87	0.231216
1193.24	0.32222
1196.62	0.241592
1199.99	0.059135
1203.37	0.593327
1206.74	0.681278
1210.11	0.748596
1213.49	1.64524
1216.86	2.4601
1220.24	3.01207
1223.61	3.20491
1226.99	2.62721
1230.36	2.17078
1233.74	1.8556
1237.11	0.308022
1240.49	0.914108
1243.86	0.29232
1247.24	1.47632
1250.61	4.88294
1253.99	13.2829
1257.36	27.689
1260.74	49.8169
1264.11	84.0495
1267.49	99.1959
1270.86	64.5134
1274.24	28.7995
1277.61	11.9526
1280.98	3.40399
1284.36	0.364349
