Measurement: Raman, 532 nm, unoriented, Raman Data Processed
Mineral: Krennerite
Rruff sample: R060138
Ideal chemistry: Au_3_AgTe_8_
Locality: Strong mine, Cripple Creek, Colorado, USA
Source: University of Arizona Mineral Museum
Description: Gray metallic prismatic crystal, striated parallel to [001]
Measured chemistry: (Au_0.87_Ag_0.13_)_Î£=1_Te_2.00_
Raman shift (cm-1)	intensity
120.155	0
123.53	1.86085
126.905	23.4475
130.279	45.0869
133.654	64.8684
137.029	87.9194
140.404	106.742
143.779	112.303
147.154	106.437
150.528	94.6117
153.903	82.6368
157.278	62.9291
160.653	53.5043
164.028	51.7359
167.402	44.8923
170.777	39.9275
174.152	35.0371
177.527	33.5244
180.902	28.8774
184.277	24.6993
187.651	18.4053
191.026	16.0907
194.401	12.1321
197.776	8.73163
201.151	5.74797
204.525	5.15784
207.9	2.49513
211.275	1.31879
214.65	0.815552
218.025	1.03839
221.4	0.25119
224.774	1.08856
228.149	0.57605
231.524	1.7487
234.899	2.32596
238.274	3.08882
241.649	4.08731
245.023	3.27815
248.398	1.87271
251.773	2.18501
255.148	3.30844
258.523	2.28311
261.897	1.73068
265.272	0.185303
268.647	0.477783
272.022	0.71225
275.397	1.21353
278.772	1.55283
282.146	0.12088
285.521	0.44989
288.896	1.33408
292.271	0.8284
295.646	1.50526
299.02	0.197083
302.395	1.88869
305.77	3.38292
309.145	3.6351
312.52	3.05029
315.895	3.25609
319.269	3.91126
322.644	2.9098
326.019	3.93799
329.394	4.23045
332.769	3.16859
336.144	2.24724
339.518	3.08305
342.893	2.37115
346.268	1.42238
349.643	2.85918
353.018	2.76961
356.392	1.51135
359.767	0.935654
363.142	1.27838
366.517	1.02731
369.892	0.91362
373.267	2.57877
376.641	3.02043
380.016	2.43556
383.391	2.47243
386.766	2.05777
390.141	2.84575
393.515	3.62741
396.89	2.08687
400.265	3.01872
403.64	2.7196
407.015	1.80661
410.39	0.722778
413.764	2.58505
417.139	0.767119
420.514	1.4511
423.889	1.26703
427.264	1.75183
430.639	0.653976
434.013	0.804993
437.388	0.368408
440.763	1.62813
444.138	1.51741
447.513	2.12837
450.887	0.547562
454.262	2.01938
457.637	1.07538
461.012	0.871368
464.387	1.85791
467.762	1.52209
471.136	1.72835
474.511	0.852463
477.886	0.012482
481.261	1.53456
484.636	2.10609
488.01	1.28999
491.385	2.08431
494.76	2.02174
498.135	0.430908
501.51	1.18484
504.885	1.66881
508.259	2.30795
511.634	3.06374
515.009	3.45302
518.384	2.19031
521.759	0.278259
525.134	0.723785
528.508	1.58514
531.883	0.610809
535.258	1.52219
538.633	0.267731
542.008	0.685394
545.382	1.53308
548.757	1.61975
552.132	0.167923
555.507	0.257813
558.882	1.50723
562.256	0.773087
565.631	0.080017
569.006	1.40662
572.381	1.66603
575.756	1.95758
579.131	1.21907
582.505	1.02953
585.88	1.44644
589.255	0.034668
592.63	1.28145
596.005	2.16907
599.38	1.51948
602.754	0.184952
606.129	1.97304
609.504	2.13005
612.879	0.592697
616.254	1.05661
619.629	1.80299
623.003	2.40985
626.378	2.29935
629.753	3.50703
633.128	4.58481
636.503	4.49736
639.877	3.92984
643.252	3.26505
646.627	3.17784
650.002	3.09842
653.377	2.98729
656.751	2.30362
660.126	1.87875
663.501	0.421021
666.876	1.41101
670.251	0.879288
673.626	0.387756
677	1.40341
680.375	1.31128
683.75	0.994675
687.125	1.65292
690.5	0.898727
693.875	2.1599
697.249	0.847763
700.624	0.120346
703.999	1.9431
707.374	0.153076
710.749	0.808792
714.124	0.483536
717.498	1.23567
720.873	1.67857
724.248	0.564651
727.623	0.515961
730.998	0.268936
734.372	1.20738
737.747	1.95369
741.122	1.20508
744.497	1.79987
747.872	0.104065
751.246	0.842789
754.621	0.231064
757.996	1.12013
761.371	2.53334
764.746	1.17006
768.121	0.920685
771.495	1.00294
774.87	1.37735
778.245	0.906067
781.62	0.806335
784.995	0.959549
788.37	1.5107
791.744	1.76242
795.119	2.04326
798.494	0.03653
801.869	0.694839
805.244	2.07216
808.619	0.477707
811.993	0.524063
815.368	1.86162
818.743	1.67722
822.118	0.120209
825.493	0.847534
828.867	2.01512
832.242	1.57672
835.617	2.85596
838.992	1.38611
842.367	2.45758
845.741	1.97348
849.116	0.580963
852.491	2.14067
855.866	3.24899
859.241	3.21178
862.616	1.9633
865.99	1.76332
869.365	1.38356
872.74	1.60724
876.115	0.501831
879.49	1.4947
882.865	0.524033
886.239	1.81621
889.614	1.7477
892.989	1.2821
896.364	0.87381
899.739	2.53835
903.113	2.15309
906.488	1.60295
909.863	0.225067
913.238	1.79976
916.613	1.25444
919.987	1.04555
923.362	0.143234
926.737	1.31828
930.112	2.06718
933.487	0.549622
936.862	0.793747
940.236	0.740387
943.611	0.042877
946.986	1.06813
950.361	0.844254
953.736	1.38559
957.111	0.425842
960.485	1.98424
963.86	2.04929
967.235	2.42165
970.61	1.16119
973.985	3.09654
977.36	0.297043
980.734	1.99652
984.109	4.01776
987.484	3.19405
990.859	1.34457
994.234	1.96033
997.608	2.54811
1000.98	3.71889
1004.36	1.31476
1007.73	0.599258
1011.11	1.64578
1014.48	0.407135
1017.86	0.737656
1021.23	1.27008
1024.61	1.19099
1027.98	2.37064
1031.36	1.91168
1034.73	1.87382
1038.11	2.34315
1041.48	1.14757
1044.86	0.689957
1048.23	0.176483
1051.61	0.691864
1054.98	1.04941
1058.36	0.188354
1061.73	0.589783
1065.11	0.825073
1068.48	1.85275
1071.85	1.65474
1075.23	1.66711
1078.6	0.655289
1081.98	1.32516
1085.35	2.28497
1088.73	2.18083
1092.1	2.77197
1095.48	2.72395
1098.85	2.76457
1102.23	0.058853
1105.6	0.748184
1108.98	1.42615
1112.35	0.320328
1115.73	1.9659
1119.1	0.819397
1122.48	0.824539
1125.85	1.25787
1129.23	2.11656
1132.6	1.94582
1135.98	2.57043
1139.35	3.02245
1142.73	1.38516
1146.1	1.3808
1149.47	0.753113
1152.85	0.732269
1156.22	0.956924
1159.6	0.169907
1162.97	0.7798
1166.35	0.991684
1169.72	1.34668
1173.1	0.635788
1176.47	0.44635
1179.85	0.025589
1183.22	1.78488
1186.6	2.51543
1189.97	2.73899
1193.35	1.80028
1196.72	0.742691
1200.1	2.258
1203.47	2.27382
1206.85	1.57999
1210.22	0.099243
1213.6	1.52295
1216.97	1.60655
1220.35	1.48761
1223.72	0.660034
1227.1	0.649673
1230.47	1.83981
1233.85	2.01263
1237.22	2.40703
1240.6	1.01918
1243.97	1.56534
1247.35	1.24206
1250.72	2.22511
1254.1	2.71374
1257.47	1.84439
1260.84	1.14195
1264.22	1.18477
1267.59	1.80391
1270.97	2.22916
1274.34	1.24751
1277.72	2.3739
1281.09	0.397964
1284.47	1.05705
1287.84	0.330811
1291.22	2.31458
1294.59	2.40466
1297.97	0.632355
1301.34	0.42157
