Measurement: Raman, 780 nm, unoriented, Raman Data Processed
Mineral: Kristiansenite
Rruff sample: R090022
Ideal chemistry: Ca_2_ScSn(Si_2_O_7_)(Si_2_O_6_OH)
Locality: Heftetjern, TÃ¸rdal, Telemark, Norway
Source: William W. Pinch
Description: Pale tan colored, tapering prismatic crystals, associated with albite and quartz
Raman shift (cm-1)	intensity
102.501	0
105.876	14.3081
109.251	2.36505
112.626	46.1605
116.001	85.8507
119.376	129.11
122.75	155.546
126.125	72.5497
129.5	18.627
132.875	3.51288
136.25	3.14983
139.624	4.33214
142.999	16.9504
146.374	52.1979
149.749	93.9385
153.124	201.908
156.499	295.308
159.873	200.605
163.248	177.512
166.623	204.81
169.998	256.692
173.373	402.868
176.747	598.386
180.122	470.587
183.497	323.678
186.872	327.414
190.247	350.849
193.621	329.471
196.996	344.942
200.371	251.388
203.746	133.328
207.121	99.3506
210.495	103.843
213.87	90.6025
217.245	112.186
220.62	157.948
223.995	228.712
227.37	245.359
230.744	208.412
234.119	144.52
237.494	70.1049
240.869	27.6808
244.244	10.767
247.619	5.68066
250.993	7.62094
254.368	1.8356
257.743	4.77029
261.118	1.49832
264.493	3.22378
267.867	6.71271
271.242	2.56644
274.617	27.004
277.992	58.3573
281.367	85.5981
284.741	112.715
288.116	143.947
291.491	171.695
294.866	170.051
298.241	120.002
301.616	66.5268
304.99	52.1609
308.365	40.7107
311.74	34.6704
315.115	34.3089
318.49	47.2561
321.865	75.1279
325.239	111.604
328.614	155.787
331.989	207.329
335.364	253.225
338.739	290.689
342.113	325.765
345.488	329.832
348.863	303.928
352.238	306.252
355.613	340.418
358.987	387.709
362.362	456.484
365.737	528.441
369.112	520.69
372.487	373.064
375.861	232.353
379.236	143.691
382.611	80.8171
385.986	37.1609
389.361	12.0465
392.736	8.19093
396.11	16.3812
399.485	13.7922
402.86	4.07422
406.235	32.2744
409.61	73.683
412.985	131.787
416.359	199.529
419.734	278.421
423.109	378.257
426.484	466.501
429.859	422.171
433.233	317.241
436.608	251.604
439.983	216.271
443.358	209.188
446.733	216.713
450.108	231.5
453.482	246.614
456.857	264.66
460.232	265.28
463.607	224.429
466.982	176.549
470.356	167.55
473.731	173.757
477.106	158.2
480.481	127.35
483.856	127.796
487.231	165.938
490.605	181.149
493.98	80.6123
497.355	5.49139
500.73	19.2615
504.104	21.9999
507.479	0.105957
510.854	39.3872
514.229	111.279
517.604	189.97
520.979	246.475
524.354	311.519
527.728	386.952
531.103	482.085
534.478	620.705
537.853	782.726
541.227	869.302
544.602	843.187
547.977	654.338
551.352	462.2
554.727	357.198
558.102	292.494
561.476	230.53
564.851	192.69
568.226	168.132
571.601	159.02
574.976	183.07
578.351	242.958
581.725	337.623
585.1	496.162
588.475	710.601
591.85	789.569
595.225	581.533
598.599	350.823
601.974	216.547
605.349	142.91
608.724	101.85
612.099	67.4902
615.473	41.5569
618.848	25.3491
622.223	12.5046
625.598	2.60663
628.973	1.4562
632.347	4.14082
635.722	8.35062
639.097	6.49524
642.472	3.14848
645.847	1.96969
649.222	0.930977
652.596	2.29337
655.971	4.17428
659.346	7.0572
662.721	11.0704
666.096	12.4858
669.471	15.8323
672.845	19.5278
676.22	21.9305
679.595	27.0309
682.97	28.536
686.345	34.5022
689.719	38.9031
693.094	45.5338
696.469	49.5935
699.844	60.3776
703.219	75.1213
706.593	87.7797
709.968	104.632
713.343	126.926
716.718	161.75
720.093	207.134
723.468	263.543
726.842	342.43
730.217	431.681
733.592	450.397
736.967	327.607
740.342	190.661
743.716	114.612
747.091	75.7386
750.466	50.2562
753.841	35.4465
757.216	24.1137
760.591	19.4432
763.965	16.423
767.34	11.9734
770.715	10.8055
774.09	9.42716
777.465	6.28077
780.84	3.65347
784.214	2.84289
787.589	0.627045
790.964	0.843811
794.339	1.14317
797.714	0.961555
801.088	1.45779
804.463	0.780472
807.838	1.71481
811.213	1.74947
814.588	5.02472
817.962	8.16192
821.337	14.0701
824.712	22.9705
828.087	33.9743
831.462	52.4231
834.837	75.7802
838.211	79.442
841.586	62.6707
844.961	41.4956
848.336	27.0692
851.711	17.1406
855.085	4.93878
858.46	0.930252
861.835	1.42111
865.21	2.60135
868.585	4.45608
871.96	7.97482
875.334	16.7573
878.709	25.5639
882.084	32.4791
885.459	40.8935
888.834	44.5671
892.208	47.2805
895.583	51.1808
898.958	57.1457
902.333	58.4725
905.708	64.8611
909.082	64.584
912.457	70.0061
915.832	75.075
919.207	74.2165
922.582	62.5731
925.957	50.8273
929.331	41.6646
932.706	34.8014
936.081	26.885
939.456	21.3482
942.831	10.8682
946.205	1.00168
949.58	1.04096
952.955	2.83337
956.33	1.035
959.705	1.15301
963.08	3.53314
966.454	9.68744
969.829	19.5692
973.204	27.5797
976.579	37.1411
979.954	43.449
983.328	42.3639
986.703	42.9645
990.078	38.3968
993.453	38.6504
996.828	37.9293
1000.2	33.8469
1003.58	29.4553
1006.95	30.8776
1010.33	38.1675
1013.7	40.3062
1017.08	38.1537
1020.45	25.5264
1023.83	25.7686
1027.2	37.7375
1030.58	56.5378
1033.95	60.8211
1037.33	64.4406
1040.7	59.2906
1044.08	58.5892
1047.45	54.3579
1050.83	49.4423
1054.2	41.3511
1057.57	35.7567
1060.95	29.0373
1064.32	24.9918
1067.7	21.2698
1071.07	15.8503
1074.45	13.8584
1077.82	10.0274
1081.2	7.15095
1084.57	1.36659
1087.95	1.03664
1091.32	2.03465
1094.7	2.2157
1098.07	0.749054
1101.45	2.39316
1104.82	0.694641
1108.2	5.12318
1111.57	7.18079
1114.95	5.75058
1118.32	12.0435
1121.7	16.9098
1125.07	19.347
1128.45	24.7999
1131.82	30.6972
1135.19	37.9457
1138.57	43.6016
1141.94	53.7333
1145.32	59.2261
1148.69	65.5978
1152.07	63.9621
1155.44	67.0951
1158.82	60.663
1162.19	54.1338
1165.57	50.7728
1168.94	42.4367
1172.32	38.5109
1175.69	34.2954
1179.07	25.6654
1182.44	24.4866
1185.82	20.5147
1189.19	16.3943
1192.57	15.8934
1195.94	11.7757
1199.32	12.9412
1202.69	10.0718
1206.07	8.27449
1209.44	7.02808
1212.82	6.90064
1216.19	3.14392
1219.57	0.24942
1222.94	1.43033
1226.32	3.00324
1229.69	2.57637
1233.07	0.211243
1236.44	0.150742
1239.81	1.19089
1243.19	2.03688
1246.56	2.60709
1249.94	0.167908
1253.31	3.72414
1256.69	5.11932
1260.06	6.5163
1263.44	6.05496
1266.81	6.67429
1270.19	0.003235
1273.56	0
