Measurement: Raman, 532 nm, unoriented, Raman Data Processed
Mineral: Kristiansenite
Rruff sample: R090022
Ideal chemistry: Ca_2_ScSn(Si_2_O_7_)(Si_2_O_6_OH)
Locality: Heftetjern, TÃ¸rdal, Telemark, Norway
Source: William W. Pinch
Description: Pale tan colored, tapering prismatic crystals, associated with albite and quartz
Raman shift (cm-1)	intensity
144.923	0
148.298	36.6982
151.673	400.707
155.048	1115.69
158.422	1074.29
161.797	715.192
165.172	984.722
168.547	1574.7
171.922	2620.62
175.297	4216.35
178.671	4834.05
182.046	3227.19
185.421	2744.44
188.796	3045.26
192.171	3233.53
195.545	3310.55
198.92	3117.39
202.295	1617.6
205.67	592.632
209.045	407.377
212.419	407.423
215.794	484.447
219.169	759.091
222.544	1203.16
225.919	1645.02
229.293	1575.72
232.668	1191.37
236.043	657.14
239.418	235.474
242.793	67.1643
246.168	44.0391
249.542	105.928
252.917	256.878
256.292	398.352
259.667	356.153
263.042	70.6333
266.416	147.807
269.791	201.175
273.166	64.8069
276.541	207.71
279.916	550.957
283.291	857.877
286.665	1174.82
290.04	1384.89
293.415	1453.89
296.79	1138.76
300.165	622.797
303.539	326.531
306.914	263.892
310.289	293.286
313.664	359.738
317.039	502.348
320.414	821.14
323.788	1219.51
327.163	1637.5
330.538	2123.55
333.913	2650.59
337.288	3192.67
340.662	3709.13
344.037	3992.86
347.412	3745.33
350.787	3429.26
354.162	3560.69
357.536	4027.82
360.911	4787.28
364.286	5680.32
367.661	6055.83
371.036	5101.5
374.411	3444.5
377.785	2209.55
381.16	1359.7
384.535	746.102
387.91	310.49
391.285	39.3384
394.659	128.488
398.034	168.487
401.409	80.5784
404.784	108.294
408.159	431.401
411.534	843.476
414.908	1335.68
418.283	1853.73
421.658	2431.81
425.033	3080.96
428.408	3264.29
431.783	2785.73
435.157	2373.63
438.532	2207.38
441.907	2199.23
445.282	2366.33
448.657	2553.69
452.031	2611.74
455.406	2574.34
458.781	2469.78
462.156	2136.63
465.531	1665.42
468.906	1355.9
472.28	1304.44
475.655	1292.63
479.03	1218.47
482.405	1246.98
485.779	1633.62
489.154	2100.42
492.529	1561.43
495.904	402.746
499.279	126.755
502.654	265.103
506.028	120.185
509.403	239.716
512.778	803.696
516.153	1513.63
519.528	2173.23
522.903	2818.26
526.277	3793.16
529.652	5030.57
533.027	6634.47
536.402	8475.22
539.777	9630.45
543.151	9433.42
546.526	7864.94
549.901	5783.43
553.276	4366.56
556.651	3481.2
560.025	2781.58
563.4	2199.2
566.775	1870.65
570.15	1723.36
573.525	1885.77
576.9	2520.96
580.274	3586.25
583.649	5062.54
587.024	6968.05
590.399	8264.53
593.774	7187.11
597.148	4802.53
600.523	3001.64
603.898	1968.45
607.273	1374.53
610.648	991.848
614.023	663.967
617.397	403.421
620.772	212.093
624.147	93.4788
627.522	8.14404
630.897	54.8179
634.271	69.5303
637.646	73.5088
641.021	49.6614
644.396	28.2251
647.771	10.0647
651.145	25.007
654.52	56.6964
657.895	86.8097
661.27	124.652
664.645	156.787
668.02	186.099
671.394	218.442
674.769	257.094
678.144	281.039
681.519	322.562
684.894	377.214
688.269	423.442
691.643	466.681
695.018	526.897
698.393	620.915
701.768	736.829
705.143	869.912
708.517	1009.51
711.892	1222.7
715.267	1546.13
718.642	1988.43
722.017	2519.68
725.391	3172.49
728.766	3915.08
732.141	4256.49
735.516	3501.66
738.891	2194.39
742.266	1296.92
745.64	828.571
749.015	542.778
752.39	364.691
755.765	250.527
759.14	200.274
762.514	153.177
765.889	127.168
769.264	97.8992
772.639	80.8577
776.014	42.1023
779.389	27.3572
782.763	18.0308
786.138	5.91772
789.513	1.68628
792.888	7.50806
796.263	4.99316
799.637	19.3843
803.012	14.4795
806.387	49.26
809.762	78.4026
813.137	103.659
816.511	134.294
819.886	190.032
823.261	270.66
826.636	375.754
830.011	510.684
833.386	640.165
836.76	704.602
840.135	614.408
843.51	444.391
846.885	289.226
850.26	170.625
853.635	85.3232
857.009	24.2131
860.384	31.8814
863.759	40.9087
867.134	10.293
870.509	21.9253
873.883	70.9595
877.258	127.978
880.633	196.308
884.008	258.247
887.383	285.559
890.757	314.669
894.132	343.364
897.507	403.878
900.882	446.609
904.257	517.265
907.631	532.001
911.006	592.97
914.381	644.174
917.756	648.417
921.131	573.667
924.506	433.734
927.88	333.906
931.255	258.558
934.63	194.43
938.005	146.946
941.38	79.739
944.755	16.1033
948.129	19.2212
951.504	26.8601
954.879	20.6419
958.254	83.853
961.629	174.819
965.003	250.276
968.378	325.773
971.753	429.767
975.128	541.689
978.503	635.826
981.877	664.451
985.252	664.173
988.627	657.713
992.002	636.72
995.377	618.646
998.751	583.516
1002.13	561.955
1005.5	538.574
1008.88	513.876
1012.25	489.212
1015.63	421.982
1019	307.836
1022.38	238.651
1025.75	290.259
1029.12	453.789
1032.5	571.38
1035.88	616.925
1039.25	601.605
1042.62	591.205
1046	585.815
1049.37	555.634
1052.75	504.979
1056.12	436.322
1059.5	390.234
1062.87	351.186
1066.25	311.246
1069.62	290.57
1073	246.23
1076.37	203.773
1079.75	148.635
1083.12	102.977
1086.5	49.9304
1089.87	3.58984
1093.25	34.4619
1096.62	36.1802
1100	26.386
1103.37	18.6299
1106.75	7.99707
1110.12	14.4241
1113.49	24.7903
1116.87	54.7046
1120.24	71.5852
1123.62	91.6379
1126.99	97.05
1130.37	115.564
1133.74	136.665
1137.12	145.819
1140.49	152.39
1143.87	162.877
1147.24	173.372
1150.62	164.577
1153.99	162.405
1157.37	140.387
1160.74	132.61
1164.12	133.518
1167.49	112.891
1170.87	115.594
1174.24	104.162
1177.62	103.332
1180.99	106.399
1184.37	103.81
1187.74	114.466
1191.12	102.247
1194.49	115.386
1197.87	126.366
1201.24	124.728
1204.62	130.45
1207.99	127.578
1211.37	137.138
1214.74	138.911
1218.12	129.552
1221.49	134.452
1224.86	119.85
1228.24	108.598
1231.61	98.5039
1234.99	84.365
1238.36	70.8198
1241.74	65.5237
1245.11	52.2315
1248.49	31.5044
1251.86	24.1352
1255.24	8.35962
1258.61	4.26807
1261.99	6.00366
1265.36	1.6145
1268.74	7.58472
1272.11	6.05786
1275.49	5.78784
1278.86	3.30591
1282.24	12.407
1285.61	14.771
1288.99	16.364
1292.36	2.96338
1295.73	22.102
1299.11	18.5225
1302.48	4.37231
