Measurement: Raman, 532 nm, unoriented, Raman Data Processed
Mineral: Krohnkite
Rruff sample: R050604
Ideal chemistry: Na_2_Cu(SO_4_)_2_2H_2_O
Locality: Chuquicamata, Chile
Source: University of Arizona Mineral Museum
Description: Green elongated prismatic crystals with orange natrojarosite and minor colorless leightonite
Measured chemistry: Na_2.00_Cu_1.00_(S_1.00_O_4_)_2_Â·2H_2_O
Raman shift (cm-1)	intensity
149.934	0
152.826	0.31824
155.719	10.087
158.612	17.8916
161.504	24.839
164.397	19.3414
167.29	20.7458
170.183	29.884
173.075	37.7539
175.968	48.4743
178.861	57.3688
181.753	50.3476
184.646	36.0284
187.539	9.78892
190.431	1.94376
193.324	3.02548
196.217	0.685307
199.109	0.185924
202.002	5.38589
204.895	14.7888
207.788	24.8904
210.68	45.3173
213.573	53.5502
216.466	59.401
219.358	53.0257
222.251	45.4572
225.144	30.3553
228.036	20.4084
230.929	12.1662
233.822	2.84799
236.715	1.16103
239.607	0.829846
242.5	8.41155
245.393	22.68
248.286	41.0104
251.178	60.5222
254.071	88.0962
256.964	129.821
259.856	182.683
262.749	237.307
265.642	283.06
268.534	262.51
271.427	214.515
274.32	170.32
277.212	153.051
280.105	154.06
282.998	174.088
285.891	217.179
288.783	268.243
291.676	334.886
294.569	415.45
297.461	474.364
300.354	472.119
303.247	377.696
306.14	248.886
309.032	151.843
311.925	91.6028
314.818	52.6869
317.71	38.9795
320.603	28.9819
323.496	13.1316
326.389	2.92747
329.281	0.838541
332.174	0.779851
335.067	5.95464
337.959	0.546656
340.852	1.20793
343.745	0.295823
346.637	0.033212
349.53	1.3947
352.423	0.877656
355.315	1.60467
358.208	1.40585
361.101	0.469808
363.994	0.594843
366.886	1.64383
369.779	0.410883
372.672	2.91079
375.565	0.087383
378.457	2.32136
381.35	5.4383
384.243	11.7573
387.135	16.862
390.028	16.971
392.921	18.473
395.813	20.0501
398.706	24.3576
401.599	36.348
404.491	40.9811
407.384	51.2516
410.277	66.1579
413.17	91.599
416.062	118.325
418.955	148.936
421.848	196.152
424.74	236.241
427.633	267.968
430.526	286.177
433.418	281.42
436.311	278.33
439.204	310.774
442.097	358.843
444.989	382.772
447.882	373.867
450.775	417.533
453.667	515.182
456.56	672.754
459.453	909.896
462.346	1098.88
465.238	995.141
468.131	577.299
471.024	290.284
473.916	151.093
476.809	82.1255
479.702	46.9423
482.594	29.1126
485.487	15.7114
488.38	3.40221
491.273	0.676138
494.165	2.75788
497.058	0.412055
499.951	0.295844
502.843	0.225673
505.736	1.69369
508.629	0.279831
511.522	1.24351
514.414	0.365917
517.307	1.60872
520.2	1.9188
523.092	3.38808
525.985	3.69413
528.878	17.4357
531.77	20.5662
534.663	21.7255
537.556	28.1923
540.448	31.5063
543.341	33.3716
546.234	35.5958
549.127	37.197
552.019	41.2328
554.912	40.7955
557.805	42.3829
560.697	40.4671
563.59	37.7353
566.483	35.6655
569.376	26.5852
572.268	21.4446
575.161	14.8964
578.054	11.2695
580.946	7.71693
583.839	0.599732
586.732	1.60398
589.625	1.15782
592.517	1.46874
595.41	9.75276
598.303	24.6277
601.195	44.9467
604.088	72.7549
606.981	117.601
609.874	158.423
612.766	183.6
615.659	140.723
618.552	92.3626
621.444	63.373
624.337	38.3484
627.23	36.5661
630.122	38.4729
633.015	53.686
635.908	78.2758
638.801	83.7233
641.693	114.119
644.586	147.354
647.479	190.553
650.371	260.388
653.264	324.741
656.157	338.568
659.049	224.138
661.942	101.983
664.835	47.5684
667.727	16.6991
670.62	10.6071
673.513	2.58387
676.406	2.05658
679.298	1.61178
682.191	0.401398
685.084	0.996171
687.976	2.85855
690.869	0.87407
693.762	1.39537
696.654	3.75009
699.547	7.05279
702.44	6.20951
705.333	6.32297
708.225	18.1619
711.118	18.1528
714.011	18.2263
716.904	18.1092
719.796	26.1007
722.689	37.7744
725.582	36.4113
728.474	41.9569
731.367	42.9663
734.26	51.1643
737.152	51.4348
740.045	54.0759
742.938	52.2371
745.831	50.3103
748.723	49.1662
751.616	44.487
754.509	44.2744
757.401	33.3696
760.294	35.2904
763.187	31.2951
766.08	25.3718
768.972	24.0894
771.865	18.6992
774.758	8.87598
777.65	10.0308
780.543	7.95367
783.436	1.88444
786.328	3.26778
789.221	0.071918
792.114	0.456916
795.006	2.4941
797.899	0.886577
800.792	1.0198
803.685	0.520339
806.577	0.317991
809.47	3.77157
812.363	3.10643
815.255	8.13245
818.148	14.4512
821.041	10.7159
823.933	11.122
826.826	14.8618
829.719	11.2263
832.612	14.2121
835.504	18.198
838.397	17.1226
841.29	17.7004
844.182	21.9994
847.075	18.5332
849.968	17.0148
852.861	30.4161
855.753	23.9435
858.646	29.3774
861.539	28.7578
864.431	28.6744
867.324	28.8887
870.217	20.8138
873.11	20.7683
876.002	20.0137
878.895	17.9758
881.788	22.3066
884.68	18.0588
887.573	15.0496
890.466	13.6627
893.358	7.49458
896.251	6.73866
899.144	4.62526
902.037	5.70144
904.929	3.42813
907.822	0.765599
910.715	1.45549
913.607	3.63494
916.5	1.51929
919.393	0.71879
922.285	1.69047
925.178	1.00423
928.071	1.95003
930.964	0.008448
933.856	1.03903
936.749	2.07935
939.642	3.27318
942.534	3.10148
945.427	3.19658
948.32	0.805411
951.212	6.55558
954.105	7.12772
956.998	10.9905
959.891	20.3012
962.783	37.3362
965.676	51.1517
968.569	71.6745
971.461	104.073
974.354	157.853
977.247	285.62
980.139	602.041
983.032	1219.37
985.925	2081.04
988.818	3690.26
991.71	5622.08
994.603	3277.14
997.496	1010.45
1000.39	447.64
1003.28	242.647
1006.17	121.84
1009.07	64.8035
1011.96	40.4775
1014.85	26.6093
1017.75	20.2994
1020.64	20.1198
1023.53	29.2891
1026.42	51.627
1029.32	85.7606
1032.21	153.441
1035.1	267.165
1037.99	461.502
1040.89	741.405
1043.78	1075.04
1046.67	1337.71
1049.56	1231.96
1052.46	726.245
1055.35	350.963
1058.24	180.998
1061.13	99.3984
1064.03	51.0718
1066.92	23.067
1069.81	11.7457
1072.71	2.47735
1075.6	3.52168
1078.49	0.502111
1081.38	2.27413
1084.28	0.014333
1087.17	0.073145
1090.06	2.27554
1092.95	2.28785
1095.85	2.04811
1098.74	7.90987
1101.63	4.09841
1104.53	10.2169
1107.42	18.9565
1110.31	28.0772
1113.2	35.2755
1116.1	48.6848
1118.99	66.4728
1121.88	86.6958
1124.78	121.099
1127.67	193.383
1130.56	301.93
1133.45	456.651
1136.35	614.013
1139.24	634.745
1142.13	441.316
1145.02	245.315
1147.92	144.413
1150.81	113.456
1153.7	118.802
1156.59	159.969
1159.49	242.824
1162.38	343.033
1165.27	341.838
1168.16	198.511
1171.06	100.567
1173.95	51.0406
1176.84	40.5895
1179.74	28.0789
1182.63	18.9945
1185.52	13.9301
1188.41	7.81004
1191.31	7.72065
1194.2	1.241
1197.09	0.531403
1199.98	0.570199
1202.88	1.885
1205.77	1.02542
1208.66	0.467182
1211.56	0.336293
1214.45	2.55786
1217.34	0.827389
1220.23	1.74025
1223.13	6.86261
1226.02	10.122
1228.91	6.97641
1231.81	2.37714
1234.7	6.51172
1237.59	3.16241
1240.48	7.85198
1243.38	5.64074
1246.27	8.64446
1249.16	3.83419
1252.05	10.785
1254.95	6.23661
1257.84	4.88095
1260.73	0.882777
1263.62	5.28479
1266.52	2.17042
1269.41	4.59646
1272.3	2.83529
1275.19	4.63446
1278.09	3.62805
1280.98	2.45807
1283.87	0.779507
1286.77	8.18216
1289.66	7.99735
1292.55	10.2903
1295.44	0.12841
1298.34	4.46026
1301.23	0.035143
