Measurement: Raman, 780 nm, unoriented, Raman Data Processed
Mineral: Krohnkite
Rruff sample: R060111
Ideal chemistry: Na_2_Cu(SO_4_)_2_2H_2_O
Locality: Chuquicamata, Chile
Source: University of Arizona Mineral Museum
Description: Green bladed crystals
Measured chemistry: Na_2.00_Cu_1.00_(S_1.00_O_4_)_2_Â·2H_2_O; H_2_O estimated by difference
Raman shift (cm-1)	intensity
145.058	0
147.951	0.408278
150.844	0.464573
153.736	1.17604
156.629	0.954641
159.522	0.203442
162.414	0.915104
165.307	0.631115
168.2	1.2097
171.093	1.07237
173.985	0.491639
176.878	0.635012
179.771	0.783529
182.663	1.07337
185.556	0.788692
188.449	0.523497
191.341	0.634933
194.234	0.219453
197.127	0.307271
200.019	0.770762
202.912	1.43029
205.805	0.640606
208.697	1.11914
211.59	1.13765
214.483	1.66558
217.376	0.982075
220.268	1.69175
223.161	2.77192
226.054	1.82145
228.946	1.35226
231.839	1.83365
234.732	1.94968
237.625	1.94239
240.517	1.8377
243.41	2.95315
246.303	3.20505
249.195	2.5013
252.088	2.12902
254.981	2.0335
257.873	1.86576
260.766	1.11536
263.659	2.19224
266.551	1.5943
269.444	0.506415
272.337	1.19992
275.23	1.46449
278.122	0.972043
281.015	1.31343
283.908	2.22393
286.8	2.04517
289.693	1.62942
292.586	1.93798
295.478	1.24332
298.371	1.09254
301.264	0.799832
304.157	0.45027
307.049	0.551538
309.942	0.541994
312.835	0.017642
315.727	0.097726
318.62	0.048339
321.513	0.063513
324.406	0.118696
327.298	0.229327
330.191	0.395544
333.084	0.583196
335.976	0.19852
338.869	0.031332
341.762	0.079286
344.654	0.278088
347.547	0.637776
350.44	0.363977
353.332	0.245008
356.225	0.114124
359.118	0.481989
362.01	0.362604
364.903	0.116281
367.796	0.296599
370.689	0.77422
373.581	0.653626
376.474	0.846856
379.367	0.136837
382.259	0.545364
385.152	0.950792
388.045	0.573191
390.938	0.530552
393.83	0.306494
396.723	0.613096
399.616	0.554862
402.508	0.32055
405.401	0.271195
408.294	0.968129
411.186	0.711114
414.079	0.89166
416.972	0.841624
419.865	1.76331
422.757	0.883825
425.65	2.11549
428.543	2.1811
431.435	3.10137
434.328	3.65316
437.221	4.57957
440.113	4.62015
443.006	5.52399
445.899	4.85497
448.791	4.34799
451.684	4.29529
454.577	5.28267
457.47	5.42742
460.362	5.43145
463.255	5.2815
466.148	3.64141
469.04	2.24748
471.933	1.47656
474.826	1.2201
477.719	0.779801
480.611	0.667452
483.504	0.906858
486.397	0.254707
489.289	0.072267
492.182	0.46531
495.075	0.684584
497.967	0.44284
500.86	0.766133
503.753	0.086804
506.645	0.436592
509.538	0.465062
512.431	0.397679
515.323	0.057181
518.216	0.686068
521.109	0.084844
524.002	0.213529
526.894	0.533504
529.787	0.17264
532.68	0.523601
535.572	0.504019
538.465	0.12426
541.358	0.833781
544.25	0.589972
547.143	0.539154
550.036	0.583583
552.929	0.012393
555.821	0.322715
558.714	0.360434
561.607	0.870193
564.499	0.904716
567.392	0.006948
570.285	0.417126
573.178	0.419297
576.07	0.046823
578.963	0.047297
581.856	0.474511
584.748	0.201949
587.641	0.268232
590.534	0.267311
593.426	0.766212
596.319	0.871091
599.212	0.975131
602.105	0.988166
604.997	1.51364
607.89	1.04497
610.783	1.77839
613.675	0.742337
616.568	0.71455
619.461	0.77699
622.353	1.00496
625.246	0.921998
628.139	1.18593
631.031	0.784659
633.924	0.83821
636.817	1.19877
639.71	1.09769
642.602	1.19124
645.495	1.53855
648.388	1.66383
651.28	1.5363
654.173	1.50171
657.066	1.28787
659.958	0.87964
662.851	0.776774
665.744	0.741005
668.636	0.661657
671.529	0.153457
674.422	0.283064
677.315	0.409164
680.207	0.170117
683.1	0.340882
685.993	0.45117
688.885	0.404919
691.778	0.566729
694.671	0.59439
697.563	0.856857
700.456	1.01016
703.349	0.694499
706.242	0.449419
709.134	0.41709
712.027	0.628049
714.92	0.516885
717.812	0.121486
720.705	0.279178
723.598	0.659002
726.49	0.50152
729.383	0.031817
732.276	0.356321
735.169	0.493922
738.061	0.356211
740.954	0.527995
743.847	0.745114
746.739	0.537321
749.632	0.368685
752.525	0.412679
755.418	0.320101
758.31	0.364463
761.203	0.339216
764.096	0.500787
766.988	0.078212
769.881	0.857985
772.774	0.413272
775.666	0.054676
778.559	0.132362
781.452	0.475039
784.345	0.50575
787.237	0.120126
790.13	0.159506
793.023	0.636179
795.915	0.579106
798.808	0.71556
801.701	0.406931
804.593	0.254708
807.486	0.637846
810.379	0.065219
813.271	0.78104
816.164	0.69563
819.057	0.31426
821.949	0.869465
824.842	0.695645
827.735	0.53687
830.628	0.5807
833.52	0.870617
836.413	1.50174
839.306	1.17869
842.198	0.711497
845.091	1.01261
847.984	0.520369
850.876	0.93692
853.769	0.675303
856.662	1.11268
859.555	1.17049
862.447	0.869843
865.34	0.774267
868.233	1.03652
871.125	1.29227
874.018	0.730392
876.911	1.0618
879.803	1.01503
882.696	1.25472
885.589	0.341167
888.482	0.719973
891.374	0.497472
894.267	0.620446
897.16	0.974617
900.052	0.473145
902.945	0.586473
905.838	0.22446
908.731	0.210183
911.623	0.068145
914.516	0.579179
917.409	0.018537
920.301	0.414999
923.194	0.102589
926.087	0.605199
928.979	0.613595
931.872	0.574317
934.765	0.007408
937.658	0.301917
940.55	0.005032
943.443	0.280655
946.336	0.034327
949.228	0.162893
952.121	0.483831
955.014	0.42266
957.906	0.050568
960.799	0.991429
963.692	1.3615
966.584	1.31191
969.477	1.67422
972.37	2.13911
975.263	4.83911
978.155	9.04334
981.048	15.0697
983.941	24.1025
986.833	38.889
989.726	50.6157
992.619	33.3163
995.511	13.4045
998.404	5.82349
1001.3	3.92469
1004.19	3.15615
1007.08	1.39641
1009.98	0.917017
1012.87	0.985973
1015.76	0.124866
1018.65	0.883911
1021.55	0.989659
1024.44	1.19284
1027.33	1.86501
1030.22	2.88517
1033.12	4.42355
1036.01	7.18715
1038.9	10.2483
1041.8	13.1022
1044.69	15.2092
1047.58	11.9397
1050.47	8.46631
1053.37	4.90907
1056.26	2.97199
1059.15	2.24615
1062.04	0.889342
1064.94	0.728417
1067.83	0.454531
1070.72	0.385853
1073.61	0.544708
1076.51	0.204308
1079.4	0.261421
1082.29	0.510214
1085.18	0.100876
1088.08	0.640152
1090.97	0.33914
1093.86	0.09024
1096.76	0.110476
1099.65	0.185928
1102.54	0.041499
1105.43	0.532022
1108.33	0.637575
1111.22	1.36945
1114.11	1.35962
1117.01	1.59145
1119.9	1.94013
1122.79	1.79111
1125.68	2.12319
1128.58	3.31817
1131.47	4.12626
1134.36	4.80013
1137.25	4.42349
1140.15	3.6292
1143.04	2.6639
1145.93	1.30658
1148.82	2.4049
1151.72	2.88126
1154.61	3.34257
1157.5	5.23538
1160.39	5.65049
1163.29	4.49373
1166.18	3.53301
1169.07	1.77998
1171.97	1.8885
1174.86	1.79468
1177.75	1.58129
1180.64	0.675354
1183.54	0.322248
1186.43	0.896698
1189.32	0.560675
1192.21	0.080209
1195.11	0.068145
1198	0.605381
1200.89	0.339561
1203.79	0.223669
1206.68	0.073182
1209.57	0.422588
1212.46	0.267953
1215.36	0.416746
1218.25	0.8866
1221.14	0.540812
1224.04	0.486977
1226.93	0.141657
1229.82	0.27441
1232.71	0.510101
1235.61	0.01568
1238.5	0.743399
1241.39	1.0061
1244.28	0.355075
1247.18	0.485981
1250.07	0.609223
1252.96	0.340108
1255.85	0.15908
1258.75	0.765306
1261.64	0.500294
1264.53	0.525837
1267.42	0.416271
1270.32	0.51748
1273.21	0.308483
1276.1	0.77923
1279	0.597486
1281.89	0.087076
1284.78	1.1028
