Measurement: Raman, 532 nm, unoriented, Raman Data Processed
Mineral: Krutaite
Rruff sample: R060381
Ideal chemistry: CuSe_2_
Locality: El Dragon mine, Potosi, Bolivia
Source: Michael Scott
Description: Grey metallic octahedra
Measured chemistry: (Cu_0.67_Ni_0.32_Fe_0.01_)_Î£=1_Se_2.00_
Raman shift (cm-1)	intensity
130.252	0
133.627	24.8355
137.001	119.836
140.376	149.449
143.751	230.575
147.126	157.199
150.501	86.1829
153.875	20.9188
157.25	2.74014
160.625	3.68131
164	11.1802
167.375	30.8973
170.75	29.8568
174.124	0.253021
177.499	4.90198
180.874	25.3158
184.249	23.1086
187.624	23.1488
190.998	65.0024
194.373	78.9133
197.748	29.8336
201.123	71.2913
204.498	68.3791
207.873	49.6725
211.247	86.7333
214.622	144.077
217.997	237.091
221.372	370.41
224.747	620.631
228.121	909.342
231.496	1573.85
234.871	1931.45
238.246	1649.9
241.621	702.863
244.995	336.371
248.37	159.836
251.745	117.527
255.12	137.739
258.495	87.8587
261.87	87.7647
265.244	58.1551
268.619	51.0663
271.994	55.0131
275.369	58.8556
278.744	9.91589
282.118	38.1183
285.493	12.3831
288.868	9.69003
292.243	6.82526
295.618	14.9085
298.993	3.21555
302.367	1.22317
305.742	7.64554
309.117	53.1843
312.492	28.3059
315.867	8.03375
319.241	29.9222
322.616	22.6283
325.991	38.3803
329.366	37.877
332.741	44.73
336.115	28.7677
339.49	26.9054
342.865	22.9552
346.24	5.91919
349.615	31.1197
352.99	34.8143
356.364	13.2525
359.739	36.0413
363.114	39.0102
366.489	24.1949
369.864	8.35788
373.238	21.0131
376.613	17.4927
379.988	22.1603
383.363	23.1318
386.738	15.0335
390.113	8.07696
393.487	7.71756
396.862	0.975189
400.237	11.4242
403.612	20.2352
406.987	26.2847
410.361	20.9604
413.736	17.0356
417.111	30.4479
420.486	4.82703
423.861	35.5109
427.236	38.861
430.61	78.8156
433.985	60.0285
437.36	109.217
440.735	111.943
444.11	121.533
447.484	104.252
450.859	115.074
454.234	82.4205
457.609	107.406
460.984	94.6321
464.358	95.4647
467.733	36.8931
471.108	72.8729
474.483	31.6119
477.858	32.6879
481.233	35.1256
484.607	21.7122
487.982	40.1089
491.357	23.4223
494.732	15.674
498.107	0.86441
501.481	54.4191
504.856	12.7094
508.231	7.58669
511.606	6.63843
514.981	18.7587
518.356	8.49707
521.73	0.284592
525.105	5.57739
528.48	39.9999
531.855	19.2173
535.23	18.5359
538.604	24.8744
541.979	6.38957
545.354	38.49
548.729	11.6551
552.104	19.9695
555.479	7.35101
558.853	35.5188
562.228	26.9299
565.603	19.575
568.978	9.46811
572.353	3.76028
575.727	19.802
579.102	1.57956
582.477	24.3963
585.852	21.0469
589.227	27.2948
592.601	8.80426
595.976	14.307
599.351	8.74089
602.726	31.0785
606.101	11.52
609.476	1.35144
612.85	12.4258
616.225	21.1464
619.6	20.0074
622.975	2.98132
626.35	6.13368
629.725	19.719
633.099	23.8827
636.474	44.2926
639.849	5.6512
643.224	22.7743
646.599	28.1616
649.973	8.68596
653.348	18.9996
656.723	39.1787
660.098	33.7153
663.473	16.5133
666.847	4.81737
670.222	39.0945
673.597	29.5724
676.972	32.0805
680.347	61.9286
683.721	22.9625
687.096	13.2643
690.471	16.9111
693.846	20.4084
697.221	9.12007
700.596	29.5013
703.97	31.3014
707.345	25.5818
710.72	1.82021
714.095	13.7693
717.47	27.9439
720.845	24.2703
724.219	8.50597
727.594	15.3894
730.969	4.08582
734.344	16.1234
737.719	25.3943
741.093	34.3199
744.468	29.3979
747.843	0.643417
751.218	6.98779
754.593	16.0616
757.967	30.564
761.342	6.48119
764.717	22.7866
768.092	28.2901
771.467	21.4631
774.842	8.45059
778.216	25.6915
781.591	0.54512
784.966	35.1516
788.341	28.5251
791.716	48.9256
795.091	17.6817
798.465	33.1192
801.84	2.7848
805.215	24.3516
808.59	12.6542
811.965	15.3864
815.339	9.94496
818.714	9.34076
822.089	16.8399
825.464	12.2786
828.839	2.23344
832.213	31.887
835.588	14.0135
838.963	35.4403
842.338	18.8265
845.713	18.7599
849.087	5.43021
852.462	29.8532
855.837	1.46947
859.212	9.73213
862.587	12.9106
865.962	26.9289
869.336	0.705215
872.711	20.2625
876.086	7.26077
879.461	5.44379
882.836	27.0713
886.21	21.5697
889.585	5.31201
892.96	16.7601
896.335	20.3236
899.71	25.236
903.085	21.2244
906.459	34.7971
909.834	17.8975
913.209	25.8284
916.584	29.5278
919.959	30.1305
923.333	21.4334
926.708	22.6853
930.083	58.2756
933.458	9.93892
936.833	14.4257
940.207	4.56131
943.582	27.7422
946.957	16.4819
950.332	26.9976
953.707	17.3609
957.082	36.0355
960.456	12.1993
963.831	45.4094
967.206	38.4725
970.581	51.7791
973.956	56.3058
977.331	67.3406
980.705	45.8852
984.08	53.8285
987.455	24.8655
990.83	32.1881
994.205	36.9944
997.579	6.41205
1000.95	1.12645
1004.33	27.2731
1007.7	16.9614
1011.08	25.5684
1014.45	28.1919
1017.83	9.46045
1021.2	4.17276
1024.58	20.6361
1027.95	21.6353
1031.33	35.1929
1034.7	10.2682
1038.08	36.2103
1041.45	21.8346
1044.83	36.8996
1048.2	35.4605
1051.58	17.9905
1054.95	15.2226
1058.33	4.79858
1061.7	6.09697
1065.08	18.8909
1068.45	12.6994
1071.83	28.7546
1075.2	6.29739
1078.58	21.9959
1081.95	4.4715
1085.33	23.7404
1088.7	37.9398
1092.07	29.2133
1095.45	5.03619
1098.82	40.6343
1102.2	8.44447
1105.57	3.72711
1108.95	30.9152
1112.32	30.8749
1115.7	2.899
1119.07	4.41219
1122.45	2.51608
1125.82	35.445
1129.2	24.634
1132.57	17.03
1135.95	17.7431
1139.32	28.1101
1142.7	10.5342
1146.07	21.2447
1149.45	10.5472
1152.82	27.3625
1156.2	4.86916
1159.57	15.7461
1162.94	19.4733
1166.32	22.699
1169.69	22.6263
1173.07	0.35022
1176.44	19.4855
1179.82	17.7051
1183.19	17.1158
1186.57	14.4232
1189.94	13.3273
1193.32	25.3237
1196.69	32.9028
1200.07	18.5612
1203.44	36.7596
1206.82	9.42734
1210.19	15.7187
1213.57	8.35667
1216.94	25.8028
1220.32	42.2799
1223.69	26.3491
1227.07	15.0992
1230.44	2.22308
1233.82	33.2203
1237.19	13.519
1240.57	1.4561
1243.94	70.8038
1247.32	12.6602
1250.69	38.294
1254.07	5.6127
1257.44	31.5149
1260.82	10.4863
1264.19	50.8359
1267.57	11.8718
1270.94	29.8658
1274.31	45.7387
1277.69	38.9712
1281.06	11.3121
1284.44	6.1228
1287.81	36.6683
1291.19	8.15736
1294.56	33.7954
1297.94	3.08824
