Measurement: Raman, 780 nm, unoriented, Raman Data Processed
Mineral: Krutaite
Rruff sample: R060381
Ideal chemistry: CuSe_2_
Locality: El Dragon mine, Potosi, Bolivia
Source: Michael Scott
Description: Grey metallic octahedra
Measured chemistry: (Cu_0.67_Ni_0.32_Fe_0.01_)_Î£=1_Se_2.00_
Raman shift (cm-1)	intensity
100.721	0
104.096	27.6788
107.471	34.3475
110.845	29.6962
114.22	25.0785
117.595	4.63684
120.97	37.8275
124.345	47.9578
127.719	60.9055
131.094	174.96
134.469	366.345
137.844	489.573
141.219	863.827
144.594	718.749
147.968	313.416
151.343	102.062
154.718	34.5156
158.093	21.2584
161.468	14.7366
164.842	23.5678
168.217	17.0498
171.592	35.9741
174.967	51.8402
178.342	124.568
181.716	148.463
185.091	136.97
188.466	155.604
191.841	198.548
195.216	236.24
198.591	270.866
201.965	356.503
205.34	418.886
208.715	511.686
212.09	610.186
215.465	795.178
218.839	1370.33
222.214	2271.28
225.589	3322.58
228.964	5479.37
232.339	10842.5
235.714	11566.6
239.088	8099.79
242.463	2892.65
245.838	1485.55
249.213	881.325
252.588	691.565
255.962	567.219
259.337	503.545
262.712	473.371
266.087	335.202
269.462	215.855
272.837	214.635
276.211	167.368
279.586	143.849
282.961	93.9419
286.336	46.97
289.711	43.3309
293.085	44.4661
296.46	13.8947
299.835	9.8006
303.21	13.8596
306.585	13.9493
309.959	3.35748
313.334	8.17981
316.709	20.6389
320.084	2.50055
323.459	7.40179
326.834	15.0477
330.208	39.853
333.583	20.4971
336.958	20.5666
340.333	1.68903
343.708	32.5048
347.082	21.4841
350.457	57.2531
353.832	31.0513
357.207	37.081
360.582	46.6772
363.957	31.6652
367.331	30.8768
370.706	20.5928
374.081	8.57886
377.456	15.8528
380.831	26.0273
384.205	9.23346
387.58	24.4439
390.955	2.63245
394.33	9.62482
397.705	23.9156
401.08	14.9853
404.454	9.0658
407.829	1.81146
411.204	19.4731
414.579	37.2147
417.954	33.0089
421.329	55.3238
424.703	75.2055
428.078	108.325
431.453	137.71
434.828	260.354
438.202	339.858
441.577	354.502
444.952	336.222
448.327	294.136
451.702	333.732
455.077	318.807
458.451	296.883
461.826	261.376
465.201	180.209
468.576	167.577
471.951	99.3408
475.325	56.783
478.7	53.7565
482.075	65.4188
485.45	21.0034
488.825	15.6024
492.2	11.5319
495.574	0.316772
498.949	1.45019
502.324	12.3929
505.699	26.1967
509.074	0.333069
512.448	13.8313
515.823	16.0811
519.198	22.3835
522.573	18.7291
525.948	8.97699
529.323	27.6617
532.697	14.8509
536.072	23.219
539.447	0.170349
542.822	23.1716
546.197	6.23224
549.572	21.0691
552.946	20.6126
556.321	1.99335
559.696	18.0172
563.071	20.7743
566.446	19.7073
569.82	10.1905
573.195	7.53961
576.57	7.70337
579.945	39.8196
583.32	20.207
586.694	37.0588
590.069	20.9191
593.444	39.3849
596.819	10.0156
600.194	39.4781
603.568	30.8475
606.943	40.9064
610.318	27.6673
613.693	5.53748
617.068	23.4459
620.443	10.5245
623.817	31.6657
627.192	17.218
630.567	19.1807
633.942	14.818
637.317	32.1212
640.692	9.0351
644.066	47.6951
647.441	3.65912
650.816	9.21216
654.191	13.6666
657.566	7.80408
660.94	27.7289
664.315	23.3831
667.69	0.005859
671.065	18.1554
674.44	34.2888
677.814	25.7105
681.189	29.9274
684.564	31.942
687.939	10.1531
691.314	20.2556
694.689	34.0547
698.063	18.0619
701.438	17.238
704.813	28.9095
708.188	29.6705
711.563	9.32391
714.938	11.4442
718.312	34.0098
721.687	19.0821
725.062	3.56097
728.437	20.5884
731.812	1.41943
735.186	3.23016
738.561	22.9835
741.936	21.1235
745.311	23.4678
748.686	23.658
752.061	24.4477
755.435	11.2248
758.81	6.63409
762.185	9.34314
765.56	26.9655
768.935	36.1498
772.309	31.4602
775.684	6.07709
779.059	12.2117
782.434	40.3712
785.809	27.26
789.183	33.9593
792.558	43.2902
795.933	30.9739
799.308	26.833
802.683	21.0799
806.058	30.2487
809.432	24.3734
812.807	17.5344
816.182	23.486
819.557	14.616
822.932	23.7675
826.307	16.9185
829.681	13.5313
833.056	16.3445
836.431	9.33081
839.806	15.1914
843.181	15.012
846.555	14.7293
849.93	11.0923
853.305	29.7536
856.68	17.8155
860.055	0.561462
863.429	19.5646
866.804	2.19043
870.179	35.4495
873.554	5.02161
876.929	14.7377
880.303	18.3664
883.678	6.2876
887.053	28.663
890.428	28.6568
893.803	4.88061
897.178	16.297
900.552	9.69537
903.927	12.3117
907.302	17.9546
910.677	22.0165
914.052	16.4776
917.427	21.4544
920.801	9.76617
924.176	2.54889
927.551	18.1413
930.926	3.59747
934.301	20.527
937.675	25.1522
941.05	8.01904
944.425	20.0791
947.8	19.5492
951.175	8.44476
954.549	18.697
957.924	9.41974
961.299	30.87
964.674	40.7703
968.049	64.7572
971.423	102.354
974.798	154.897
978.173	143.935
981.548	101.646
984.923	48.2606
988.298	43.5405
991.672	26.131
995.047	6.73511
998.422	23.5089
1001.8	14.136
1005.17	18.6412
1008.55	47.7584
1011.92	30.6052
1015.3	7.45441
1018.67	9.95691
1022.05	13.8295
1025.42	26.1195
1028.8	3.58167
1032.17	34.0433
1035.55	8.11859
1038.92	20.3851
1042.3	13.4616
1045.67	21.3394
1049.04	26.4784
1052.42	16.3278
1055.79	12.1746
1059.17	3.16321
1062.54	33.8722
1065.92	31.421
1069.29	8.60669
1072.67	22.303
1076.04	51.5162
1079.42	56.5468
1082.79	33.8018
1086.17	19.5384
1089.54	22.6865
1092.92	25.9039
1096.29	28.3569
1099.67	8.41144
1103.04	11.9442
1106.42	34.6439
1109.79	21.0904
1113.17	23.6644
1116.54	21.5619
1119.91	9.29724
1123.29	19.4837
1126.66	21.9492
1130.04	1.45276
1133.41	30.6091
1136.79	29.1735
1140.16	14.4587
1143.54	8.10962
1146.91	21.1719
1150.29	9.84143
1153.66	18.8885
1157.04	10.4968
1160.41	12.9382
1163.79	4.66718
1167.16	1.10754
1170.54	16.4142
1173.91	14.2148
1177.29	1.40326
1180.66	18.1874
1184.04	21.8532
1187.41	3.67017
1190.79	20.5891
1194.16	43.9127
1197.54	27.9968
1200.91	42.3474
1204.29	67.7501
1207.66	51.1807
1211.04	65.4286
1214.41	77.6968
1217.79	104.115
1221.16	87.3799
1224.54	124.624
1227.91	133.65
1231.28	112.886
1234.66	146.301
1238.03	163.213
1241.41	139.738
1244.78	124.963
1248.16	130.817
1251.53	103.517
1254.91	77.1649
1258.28	81.2153
1261.66	50.0814
1265.03	48.8584
1268.41	54.1119
1271.78	15.2913
1275.16	24.3059
1278.53	10.8153
1281.91	37.2096
1285.28	10.3699
