Measurement: Raman, 780 nm, unoriented, Raman Data Processed
Mineral: Kryzhanovskite
Rruff sample: R130691
Ideal chemistry: (Fe^3+^,Mn^2+^)_3_(PO_4_)_2_(OH,H_2_O)_3_
Locality: Rapid Creek, Dawson Mining District, Yukon Territory, Canada
Source: Rob Lavinsky
Description: Euhedral reddish brown crystals
Measured chemistry: (Fe^3+^_1.69_Mg_1.18_Mn_0.09_)_Σ=2.96_(PO_4_)_2_(OH)_1.61_·1.35H_2_O
Raman shift (cm-1)	intensity
90.7175	0
94.0923	25.5259
97.4671	11.4076
100.842	8.36618
104.217	12.8285
107.591	9.19598
110.966	2.83609
114.341	1.57632
117.716	3.22211
121.091	15.6812
124.466	26.2103
127.84	39.0191
131.215	50.5497
134.59	54.0047
137.965	58.3085
141.34	59.7521
144.714	53.2031
148.089	49.4699
151.464	50.7976
154.839	48.9071
158.214	51.6391
161.589	48.9524
164.963	48.5711
168.338	48.5168
171.713	50.879
175.088	57.0055
178.463	61.029
181.838	65.4756
185.212	68.6908
188.587	71.6846
191.962	77.6765
195.337	84.8318
198.712	78.1101
202.086	60.517
205.461	38.9588
208.836	20.193
212.211	12.118
215.586	4.56278
218.96	0.727264
222.335	1.00974
225.71	1.25693
229.085	1.4823
232.46	1.63492
235.834	1.74478
239.209	3.54108
242.584	7.84051
245.959	17.6581
249.334	25.6987
252.709	34.8992
256.083	45.1606
259.458	57.5496
262.833	69.1864
266.208	80.7427
269.583	95.7605
272.957	111.222
276.332	127.025
279.707	145.873
283.082	162.699
286.457	178.855
289.832	190.467
293.206	187.55
296.581	177.391
299.956	157.732
303.331	138.085
306.706	115.477
310.08	95.3643
313.455	77.0276
316.83	61.0821
320.205	49.0845
323.58	37.1339
326.954	27.1543
330.329	19.0047
333.704	13.1102
337.079	7.67567
340.454	3.87453
343.829	0.502274
347.203	0.123138
350.578	1.24994
353.953	0.492905
357.328	0.19577
360.703	0.779053
364.077	0.949799
367.452	0.699539
370.827	1.77472
374.202	0.741135
377.577	0.772995
380.952	3.02821
384.326	3.33621
387.701	5.08907
391.076	5.13721
394.451	4.54535
397.826	6.28497
401.2	7.4355
404.575	10.2271
407.95	10.7495
411.325	16.1574
414.7	23.2785
418.075	30.6278
421.449	38.4567
424.824	44.1599
428.199	48.4765
431.574	52.1067
434.949	47.5941
438.323	34.7019
441.698	21.1821
445.073	14.079
448.448	8.12897
451.823	6.76277
455.197	7.89654
458.572	9.41554
461.947	11.6814
465.322	13.7118
468.697	14.231
472.072	14.2038
475.446	14.9507
478.821	15.7017
482.196	16.7383
485.571	14.0952
488.946	11.8915
492.32	11.2506
495.695	7.54828
499.07	5.16417
502.445	2.10288
505.82	0.685745
509.195	3.06961
512.569	3.44971
515.944	3.42304
519.319	0.929672
522.694	5.94385
526.068	14.9835
529.443	24.1171
532.818	35.6049
536.193	47.4134
539.568	57.1255
542.943	62.3442
546.317	64.8693
549.692	68.0124
553.067	67.6216
556.442	65.0555
559.817	59.4091
563.192	50.4687
566.566	48.6653
569.941	44.7853
573.316	41.419
576.691	43.2166
580.066	49.8912
583.44	56.6747
586.815	68.5585
590.19	81.4539
593.565	93.543
596.94	105.33
600.314	111.6
603.689	112.663
607.064	109.047
610.439	102.702
613.814	92.8281
617.188	82.3045
620.563	70.2456
623.938	59.0013
627.313	49.1683
630.688	38.4511
634.063	32.1377
637.437	23.0757
640.812	15.9845
644.187	8.7114
647.562	5.82992
650.937	2.53514
654.312	0.37368
657.686	0.504753
661.061	1.8783
664.436	2.56075
667.811	1.82727
671.186	0.542053
674.56	0.377396
677.935	1.6448
681.31	3.032
684.685	3.46857
688.06	4.24335
691.434	4.62108
694.809	6.11267
698.184	7.42124
701.559	7.78558
704.934	8.78861
708.308	9.60785
711.683	10.3525
715.058	8.75723
718.433	9.19851
721.808	8.39237
725.183	5.30286
728.557	5.74433
731.932	4.80299
735.307	3.06905
738.682	3.39446
742.057	3.09766
745.432	2.64952
748.806	2.30003
752.181	2.68183
755.556	1.43015
758.931	0.813744
762.306	0.907837
765.68	1.58461
769.055	1.2941
772.43	0.805954
775.805	0.127174
779.18	0.590195
782.554	1.20047
785.929	0.994804
789.304	1.79076
792.679	0.654938
796.054	1.44484
799.428	1.81328
802.803	1.74786
806.178	2.80316
809.553	4.12685
812.928	4.15497
816.303	3.96455
819.677	4.4025
823.052	6.24908
826.427	7.84331
829.802	10.0395
833.177	10.7785
836.552	11.5468
839.926	11.7195
843.301	11.2128
846.676	11.8502
850.051	10.4389
853.426	9.33801
856.8	7.46784
860.175	6.2701
863.55	5.34095
866.925	4.03382
870.3	3.17833
873.674	1.84959
877.049	0.723099
880.424	1.16444
883.799	0.598442
887.174	1.21072
890.548	0.379913
893.923	1.78363
897.298	0.745132
900.673	0.130386
904.048	0.523544
907.423	0.190506
910.797	0.084976
914.172	1.36327
917.547	3.90582
920.922	4.96347
924.297	9.60238
927.671	12.2942
931.046	17.6887
934.421	25.6246
937.796	31.7691
941.171	41.5248
944.545	52.2766
947.92	63.6781
951.295	77.965
954.67	91.1629
958.045	105.519
961.42	117.834
964.794	122.676
968.169	124.22
971.544	115.679
974.919	104.965
978.294	94.7864
981.668	83.8623
985.043	73.7076
988.418	67.7127
991.793	59.7688
995.168	54.7311
998.543	47.4174
1001.92	40.6803
1005.29	36.24
1008.67	31.9057
1012.04	24.8652
1015.42	21.2146
1018.79	17.48
1022.17	15.0879
1025.54	12.7606
1028.92	11.4739
1032.29	9.12719
1035.67	8.63595
1039.04	6.84381
1042.41	6.53046
1045.79	5.0352
1049.16	4.23135
1052.54	4.86769
1055.91	4.52853
1059.29	4.85393
1062.66	4.08887
1066.04	3.66039
1069.41	2.87463
1072.79	2.09174
1076.16	1.41644
1079.54	0.401924
1082.91	0.898468
1086.29	2.23257
1089.66	1.43156
1093.04	1.64272
1096.41	0.945831
1099.79	0.738884
1103.16	1.99497
1106.54	3.84904
1109.91	4.93414
1113.29	4.22118
1116.66	5.9387
1120.04	6.64629
1123.41	7.47294
1126.79	7.71457
1130.16	7.60797
1133.54	7.38407
1136.91	6.26694
1140.29	6.26354
1143.66	4.50206
1147.03	3.23322
1150.41	1.75513
1153.78	0.710724
1157.16	0.773067
1160.53	0.36961
1163.91	1.02021
1167.28	1.76344
1170.66	1.11923
1174.03	2.95663
1177.41	3.27569
1180.78	2.96261
1184.16	3.06882
1187.53	3.01678
1190.91	3.65893
1194.28	3.52528
1197.66	3.70671
1201.03	3.97757
1204.41	4.39233
1207.78	3.10475
1211.16	2.87743
1214.53	2.77839
1217.91	1.76426
1221.28	2.02349
1224.65	3.03428
1228.03	2.08192
1231.4	1.85
1234.78	1.62212
1238.15	2.90938
1241.53	2.33064
1244.9	1.88694
1248.28	3.05505
1251.65	1.89247
1255.03	1.31553
1258.4	1.4121
1261.78	0.802155
1265.15	0.395836
1268.53	0.98
1271.9	0.867805
1275.28	1.58046
1278.65	0.664551
1282.03	0.060913
