Measurement: Raman, 532 nm, unoriented, Raman Data Processed
Mineral: Kryzhanovskite
Rruff sample: R090055
Ideal chemistry: (Fe^3+^,Mn^2+^)_3_(PO_4_)_2_(OH,H_2_O)_3_
Locality: Rapid Creek, Big Fish River - Blow River area, Yukon Territory, Canada
Source: Royal Ontario Museum
Description: Deep red-brown cleavage plate, ideal formula = Fe^3+^_2_Mg(PO_4_)_2_(OH)_2_(H_2_O)
Measured chemistry: (Fe^+3^_2.01_Mn^+2^_0.18_Mg_0.77_□_0.04_)_Σ=3.00_(PO_4_)(OH)_2_·H_2_O
Raman shift (cm-1)	intensity
119.559	0
122.934	0.259888
126.308	10.2041
129.683	35.4881
133.058	48.8025
136.433	84.6772
139.808	149.026
143.183	189.435
146.557	203.975
149.932	231.797
153.307	277.353
156.682	300.071
160.057	307.207
163.431	300.8
166.806	297.811
170.181	293.504
173.556	288.339
176.931	281.344
180.305	283.516
183.68	292.211
187.055	320.592
190.43	356.389
193.805	413.381
197.179	478.124
200.554	505.942
203.929	391.688
207.304	241.859
210.679	143.973
214.054	77.2186
217.428	44.4375
220.803	15.6443
224.178	1.11682
227.553	7.12274
230.928	7.04807
234.303	11.6583
237.677	2.22076
241.052	13.7995
244.427	30.5813
247.802	49.9132
251.177	74.0112
254.551	84.7883
257.926	91.6982
261.301	92.3652
264.676	81.8865
268.051	71.9323
271.425	68.3012
274.8	72.4119
278.175	78.7402
281.55	88.0725
284.925	94.4937
288.3	107.784
291.674	122.219
295.049	138.923
298.424	144.708
301.799	141.216
305.174	130.807
308.548	119.495
311.923	99.3079
315.298	76.7084
318.673	68.6988
322.048	59.9601
325.423	49.5134
328.797	43.8791
332.172	41.8847
335.547	35.8336
338.922	31.3156
342.297	27.4129
345.671	21.5955
349.046	17.9677
352.421	12.6848
355.796	13.5147
359.171	2.92154
362.546	7.41669
365.92	8.76679
369.295	5.50082
372.67	7.17963
376.045	0.720673
379.42	1.71252
382.794	3.41788
386.169	4.20932
389.544	1.17603
392.919	7.26126
396.294	13.7801
399.668	21.4062
403.043	30.9948
406.418	37.4582
409.793	49.1178
413.168	55.9427
416.543	61.4435
419.917	57.0251
423.292	49.9838
426.667	41.1504
430.042	38.295
433.417	25.7423
436.791	24.9049
440.166	16.1504
443.541	1.50589
446.916	7.83862
450.291	7.50839
453.666	0.700348
457.04	0.208099
460.415	14.1663
463.79	18.7105
467.165	29.874
470.54	41.4668
473.914	52.4196
477.289	63.5744
480.664	74.1561
484.039	84.5945
487.414	87.3622
490.788	90.2249
494.163	71.1581
497.538	57.4418
500.913	44.1287
504.288	26.6074
507.663	8.14789
511.037	1.95651
514.412	0.519745
517.787	3.59878
521.162	9.75113
524.537	20.0869
527.912	33.3184
531.286	50.6157
534.661	64.3846
538.036	72.3093
541.411	73.2909
544.786	74.07
548.16	67.0165
551.535	63.783
554.91	49.468
558.285	39.8886
561.66	30.0135
565.034	22.1293
568.409	20.7253
571.784	31.1318
575.159	46.0326
578.534	69.2222
581.909	104.497
585.283	150.195
588.658	206.856
592.033	267.12
595.408	335.319
598.783	397.88
602.157	437.632
605.532	446.073
608.907	421.127
612.282	367.233
615.657	310.481
619.032	252.81
622.406	206.893
625.781	170.004
629.156	132.869
632.531	104.249
635.906	80.9246
639.28	57.5998
642.655	41.9845
646.03	20.6403
649.405	10.2056
652.78	3.85928
656.154	3.10944
659.529	6.2775
662.904	5.51469
666.279	4.41582
669.654	3.05066
673.029	0.812759
676.403	2.43762
679.778	5.52141
683.153	4.60785
686.528	9.72659
689.903	10.8545
693.278	13.2675
696.652	16.8592
700.027	19.2028
703.402	17.3892
706.777	22.6208
710.152	26.2051
713.526	24.6265
716.901	24.0928
720.276	23.4789
723.651	20.1478
727.026	17.9427
730.4	19.415
733.775	15.2017
737.15	12.6818
740.525	14.7866
743.9	12.4038
747.274	11.3331
750.649	9.80418
754.024	13.3532
757.399	7.09917
760.774	9.73152
764.149	7.53661
767.523	6.7382
770.898	8.23286
774.273	6.12674
777.648	5.79009
781.023	8.6225
784.398	3.47987
787.772	2.80241
791.147	3.95754
794.522	6.54109
797.897	6.00443
801.271	5.44742
804.646	9.97592
808.021	7.86832
811.396	10.1603
814.771	11.028
818.146	11.8188
821.52	9.34468
824.895	15.7463
828.27	15.3865
831.645	17.3765
835.02	20.517
838.394	17.1731
841.769	19.7126
845.144	20.5589
848.519	17.4157
851.894	19.8476
855.269	18.7912
858.643	13.0945
862.018	10.8649
865.393	5.28081
868.768	6.92996
872.143	3.71513
875.518	2.92542
878.892	2.75679
882.267	0.101242
885.642	2.55463
889.017	0.978577
892.392	0.090805
895.766	2.21277
899.141	0.69986
902.516	0.450333
905.891	0.617307
909.266	0.368103
912.64	3.05029
916.015	5.74466
919.39	2.37369
922.765	11.2796
926.14	19.1762
929.515	26.783
932.889	37.4477
936.264	47.52
939.639	64.3771
943.014	81.8033
946.389	94.0979
949.764	105.369
953.138	116.412
956.513	123.887
959.888	133.907
963.263	133.516
966.638	135.346
970.012	127.259
973.387	118.578
976.762	105.821
980.137	92.5003
983.512	75.9996
986.886	65.5431
990.261	52.4042
993.636	44.7212
997.011	31.1369
1000.39	23.3941
1003.76	16.2133
1007.13	8.4454
1010.51	1.47525
1013.88	0.277924
1017.26	2.79486
1020.63	0.960724
1024.01	2.29938
1027.38	1.25851
1030.76	7.1442
1034.13	5.79108
1037.51	6.08041
1040.88	10.7769
1044.26	14.4369
1047.63	15.9162
1051.01	17.0136
1054.38	18.7469
1057.76	16.8391
1061.13	19.7835
1064.51	15.5857
1067.88	12.3668
1071.26	13.7974
1074.63	10.5136
1078.01	9.09515
1081.38	5.95352
1084.76	8.22018
1088.13	8.17261
1091.51	12.2662
1094.88	13.253
1098.26	10.7698
1101.63	12.574
1105.01	15.8475
1108.38	20.2403
1111.76	25.223
1115.13	32.7812
1118.5	35.387
1121.88	39.6092
1125.25	41.0112
1128.63	42.9661
1132	47.4712
1135.38	44.5358
1138.75	43.2654
1142.13	40.0007
1145.5	30.742
1148.88	22.9918
1152.25	14.4772
1155.63	6.28334
1159	3.12511
1162.38	1.47603
1165.75	1.27423
1169.13	2.43546
1172.5	2.43077
1175.88	0.786789
1179.25	6.16867
1182.63	10.5
1186	12.0576
1189.38	15.6658
1192.75	18.2657
1196.12	19.2413
1199.5	23.4637
1202.88	18.8208
1206.25	19.5826
1209.62	21.7341
1213	18.8655
1216.37	21.4072
1219.75	17.4681
1223.12	17.2069
1226.5	13.6033
1229.87	8.70601
1233.25	6.14125
1236.62	7.40506
1240	6.94907
1243.37	6.17989
1246.75	8.31602
1250.12	7.96835
1253.5	6.82449
1256.87	6.50915
1260.25	6.0296
1263.62	8.19208
1267	5.48045
1270.37	4.31133
1273.75	2.64317
1277.12	5.77435
1280.49	4.4883
1283.87	2.96202
1287.24	0.198914
1290.62	0.093735
1293.99	4.57005
1297.37	2.65518
1300.74	0.869431
1304.12	0
