Measurement: Raman, 780 nm, unoriented, Raman Data Processed
Mineral: Kryzhanovskite
Rruff sample: R140111
Ideal chemistry: (Fe^3+^,Mn^2+^)_3_(PO_4_)_2_(OH,H_2_O)_3_
Locality: Hagendorf, Waidhaus, Vohenstrauß, Oberpfälzer Wald, Upper Palatinate, Bavaria, Germany
Source: Rock Currier
Description: Deep red vitreous, almost black, blocky crystals and massive. Golden-brown, bronze on cleavage surfaces. To be called kryzhanovskite
Measured chemistry: (Fe^3+^_1.90_Mg_0.01_Mn_0.96_)_Σ=2.87_(PO_4_)_2_(OH)_1.62_·1.36H_2_O
Raman shift (cm-1)	intensity
90.2353	0
93.6102	7.01041
96.985	4.76674
100.36	1.83536
103.735	3.29913
107.109	9.61298
110.484	8.54596
113.859	10.0377
117.234	10.5666
120.609	5.8781
123.984	3.18247
127.358	0.322998
130.733	1.66432
134.108	2.01526
137.483	4.76686
140.858	2.03098
144.232	6.81316
147.607	10.7573
150.982	14.3671
154.357	19.9592
157.732	27.3783
161.107	38.3122
164.481	44.9403
167.856	45.5757
171.231	36.3353
174.606	33.0817
177.981	31.1871
181.355	25.669
184.73	18.5971
188.105	12.2562
191.48	3.10727
194.855	0.607208
198.229	2.13747
201.604	1.31422
204.979	0.477997
208.354	2.34666
211.729	4.77434
215.103	10.2575
218.478	14.0638
221.853	19.3622
225.228	22.8749
228.603	21.7218
231.978	22.0307
235.352	20.1883
238.727	19.8812
242.102	18.5935
245.477	18.1731
248.852	16.2539
252.226	17.1729
255.601	18.5262
258.976	18.8493
262.351	19.4415
265.726	20.9026
269.101	19.8422
272.475	18.8695
275.85	18.8025
279.225	17.3046
282.6	18.7308
285.975	21.516
289.349	22.6903
292.724	24.289
296.099	23.4494
299.474	21.5228
302.849	17.2502
306.224	13.4079
309.598	12.086
312.973	9.28043
316.348	8.25658
319.723	7.49677
323.098	5.02683
326.472	6.25466
329.847	5.91295
333.222	4.27719
336.597	1.90097
339.972	0.667625
343.346	1.3495
346.721	1.30683
350.096	0.306046
353.471	0.040092
356.846	3.06108
360.221	5.50025
363.595	8.98161
366.97	12.5999
370.345	14.4356
373.72	15.881
377.095	16.8092
380.469	18.4272
383.844	18.0856
387.219	19.1755
390.594	19.097
393.969	18.6679
397.344	19.4604
400.718	20.1769
404.093	21.1779
407.468	24.8083
410.843	27.3194
414.217	29.5853
417.592	29.2409
420.967	25.1864
424.342	17.4395
427.717	9.96056
431.092	4.00472
434.466	0.922668
437.841	0.601654
441.216	2.67875
444.591	4.16944
447.966	5.94944
451.341	8.12194
454.715	7.98381
458.09	8.53162
461.465	8.64835
464.84	5.53497
468.215	6.54637
471.589	5.20763
474.964	6.53645
478.339	6.7054
481.714	6.00507
485.089	4.14323
488.463	3.73447
491.838	2.57517
495.213	0.585464
498.588	0.180489
501.963	0.763184
505.337	1.31268
508.712	0.355568
512.087	0.265366
515.462	1.647
518.837	3.70088
522.212	5.86811
525.586	7.71976
528.961	10.411
532.336	12.8148
535.711	15.0329
539.086	18.3223
542.461	21.1329
545.835	24.09
549.21	27.1065
552.585	29.5227
555.96	32.7776
559.335	35.7815
562.709	38.356
566.084	41.1972
569.459	39.0229
572.834	40.6654
576.209	42.6961
579.583	44.7115
582.958	49.4764
586.333	53.2509
589.708	53.6954
593.083	48.3544
596.457	38.1008
599.832	31.0294
603.207	26.6108
606.582	22.9779
609.957	18.1265
613.332	12.1133
616.706	8.93641
620.081	6.12012
623.456	4.55086
626.831	2.34397
630.206	1.61774
633.58	1.23062
636.955	0.240856
640.33	0.317142
643.705	0.632259
647.08	1.24986
650.455	0.260525
653.829	0.01165
657.204	0.929001
660.579	0.863796
663.954	0.698353
667.329	1.45282
670.703	2.2222
674.078	2.24938
677.453	1.92617
680.828	1.95947
684.203	2.33942
687.577	2.32809
690.952	2.58409
694.327	2.19631
697.702	2.10992
701.077	0.79306
704.452	1.30809
707.826	0.825668
711.201	0.681213
714.576	0.694424
717.951	0.72662
721.326	0.250721
724.7	0.845955
728.075	1.13631
731.45	0.641182
734.825	1.24467
738.2	1.89374
741.574	2.52631
744.949	3.26999
748.324	3.32397
751.699	3.57436
755.074	3.17915
758.449	3.54521
761.823	2.45682
765.198	2.71529
768.573	1.47363
771.948	0.959072
775.323	0.708313
778.697	1.34965
782.072	0.202843
785.447	0.480114
788.822	0.269142
792.197	0.2813
795.572	0.348629
798.946	0.387627
802.321	0.312813
805.696	0.485744
809.071	0.569351
812.446	0.790775
815.82	1.12794
819.195	1.92609
822.57	2.16127
825.945	2.0927
829.32	1.71999
832.694	2.54946
836.069	2.78808
839.444	2.55178
842.819	3.16362
846.194	3.17646
849.569	3.43811
852.943	3.82905
856.318	3.93981
859.693	3.21959
863.068	2.70095
866.443	2.6059
869.817	1.9323
873.192	1.86846
876.567	2.10254
879.942	0.852428
883.317	0.866215
886.692	0.31377
890.066	0.612564
893.441	0.845299
896.816	0.203857
900.191	0.005829
903.566	0.505016
906.94	0.387074
910.315	0.21167
913.69	0.252522
917.065	0.10944
920.44	1.27885
923.814	3.18356
927.189	5.26978
930.564	8.30036
933.939	12.0719
937.314	18.3082
940.689	27.0702
944.063	40.4476
947.438	60.4083
950.813	89.3311
954.188	131.196
957.563	181.003
960.937	229.747
964.312	267.241
967.687	280.524
971.062	254.812
974.437	183.594
977.812	111.276
981.186	70.4573
984.561	50.1505
987.936	39.6575
991.311	33.1446
994.686	29.6413
998.06	28.5565
1001.43	26.7037
1004.81	26.2431
1008.18	22.9428
1011.56	18.7237
1014.93	13.0559
1018.31	7.28108
1021.68	3.2522
1025.06	1.35972
1028.43	1.20338
1031.81	0.950558
1035.18	1.90569
1038.56	3.11729
1041.93	4.74137
1045.31	6.39609
1048.68	6.62111
1052.06	5.80914
1055.43	6.3989
1058.81	7.77059
1062.18	7.09276
1065.56	3.5204
1068.93	0.742638
1072.31	0.910652
1075.68	1.03753
1079.06	0.186546
1082.43	1.54067
1085.81	3.65465
1089.18	6.49871
1092.56	6.78091
1095.93	7.31029
1099.31	6.01271
1102.68	6.44105
1106.05	6.63713
1109.43	4.85032
1112.8	3.96817
1116.18	2.42035
1119.55	2.79244
1122.93	1.97534
1126.3	2.09059
1129.68	0.954632
1133.05	0.260685
1136.43	0.200188
1139.8	0.8062
1143.18	0.1217
1146.55	0.377319
1149.93	0.251938
1153.3	0.926117
1156.68	0.597818
1160.05	0.999891
1163.43	1.15671
1166.8	1.76564
1170.18	2.08955
1173.55	2.32394
1176.93	3.0471
1180.3	2.74729
1183.67	3.55668
1187.05	3.45154
1190.42	3.26076
1193.8	3.76695
1197.17	3.03652
1200.55	2.74281
1203.92	2.84929
1207.3	2.95668
1210.67	2.1657
1214.05	1.89203
1217.42	1.71365
1220.8	1.69389
1224.17	2.27115
1227.55	1.66535
1230.92	1.49676
1234.3	0.917263
1237.67	1.51783
1241.05	1.51363
1244.42	0.525766
1247.8	1.07151
1251.17	0.83046
1254.55	1.41906
1257.92	0.729593
1261.3	0.889313
1264.67	0.695375
1268.05	0.720867
1271.42	0.069929
1274.8	0.424732
1278.17	0.207718
