Measurement: Raman, 532 nm, unoriented, Raman Data Processed
Mineral: Kryzhanovskite
Rruff sample: R130691
Ideal chemistry: (Fe^3+^,Mn^2+^)_3_(PO_4_)_2_(OH,H_2_O)_3_
Locality: Rapid Creek, Dawson Mining District, Yukon Territory, Canada
Source: Rob Lavinsky
Description: Euhedral reddish brown crystals
Measured chemistry: (Fe^3+^_1.69_Mg_1.18_Mn_0.09_)_Σ=2.96_(PO_4_)_2_(OH)_1.61_·1.35H_2_O
Raman shift (cm-1)	intensity
203.141	0
206.034	4.65657
208.927	8.37628
211.819	7.73715
214.712	0.086197
217.605	0.231949
220.497	5.48126
223.39	11.4296
226.283	8.66826
229.175	17.961
232.068	12.5344
234.961	13.3204
237.854	16.0674
240.746	17.8797
243.639	20.883
246.532	24.122
249.424	29.4808
252.317	32.4423
255.21	33.6037
258.103	37.3619
260.995	39.4231
263.888	42.2579
266.781	44.6589
269.673	46.2478
272.566	45.173
275.459	47.8123
278.351	46.2252
281.244	48.1144
284.137	49.51
287.029	52.0865
289.922	52.817
292.815	51.6779
295.708	51.0126
298.6	46.9187
301.493	43.7352
304.386	39.2091
307.278	36.2049
310.171	31.634
313.064	26.1652
315.957	21.5613
318.849	17.7457
321.742	13.7471
324.635	10.4956
327.527	7.84447
330.42	4.00528
333.313	2.06444
336.205	0.888702
339.098	0.618286
341.991	0.895691
344.884	2.03644
347.776	0.49263
350.669	0.697952
353.562	0.974915
356.454	2.61096
359.347	4.64513
362.24	8.21056
365.132	10.9019
368.025	12.9616
370.918	15.6462
373.81	18.558
376.703	18.1895
379.596	20.3613
382.489	19.8832
385.381	19.8235
388.274	19.3816
391.167	20.8554
394.059	17.7626
396.952	17.8194
399.845	15.7101
402.738	14.083
405.63	11.6614
408.523	12.2169
411.416	11.0719
414.308	12.2469
417.201	12.8179
420.094	13.3116
422.986	14.5839
425.879	14.0869
428.772	13.3862
431.664	12.4123
434.557	9.27197
437.45	7.17917
440.343	2.21603
443.235	2.0168
446.128	1.71971
449.021	0.115616
451.913	1.1472
454.806	0.036438
457.699	2.1442
460.591	3.08072
463.484	5.5011
466.377	6.57816
469.27	8.47842
472.162	10.3316
475.055	11.2937
477.948	13.2345
480.84	14.3573
483.733	14.6298
486.626	14.633
489.519	14.8269
492.411	13.288
495.304	11.5775
498.197	11.8926
501.089	8.34181
503.982	6.23944
506.875	2.63432
509.767	0.649567
512.66	0.960007
515.553	3.11401
518.446	3.28223
521.338	0.098877
524.231	3.62303
527.124	10.9992
530.016	18.4573
532.909	26.3316
535.802	34.1659
538.694	39.2686
541.587	44.3309
544.48	45.31
547.372	46.9355
550.265	48.6046
553.158	47.2135
556.051	45.1091
558.943	44.1749
561.836	42.105
564.729	38.8043
567.621	39.4417
570.514	40.0907
573.407	39.66
576.299	40.7797
579.192	43.685
582.085	52.0416
584.978	59.5263
587.87	69.4971
590.763	80.5304
593.656	93.3367
596.548	103.083
599.441	112.789
602.334	117.371
605.226	117.968
608.119	113.416
611.012	105.356
613.905	95.3057
616.797	83.5259
619.69	74.0332
622.583	63.2407
625.475	53.3013
628.368	43.7122
631.261	36.2332
634.154	28.9953
637.046	22.0648
639.939	16.4423
642.832	10.3343
645.724	7.24745
648.617	4.11704
651.51	1.18404
654.402	0.760948
657.295	0.769791
660.188	1.711
663.081	1.9088
665.973	1.47041
668.866	0.227692
671.759	0.206001
674.651	0.745041
677.544	0.463234
680.437	1.6332
683.329	3.67274
686.222	3.17957
689.115	3.96763
692.008	4.96591
694.9	5.64304
697.793	6.36777
700.686	6.6197
703.578	7.19244
706.471	7.94948
709.364	8.27099
712.256	7.58257
715.149	8.81268
718.042	7.80176
720.934	6.44238
723.827	6.03369
726.72	6.05932
729.613	4.13612
732.505	4.92123
735.398	4.29748
738.291	3.35893
741.183	2.95885
744.076	1.89983
746.969	2.98657
749.861	3.23079
752.754	1.64946
755.647	2.61759
758.54	2.22855
761.432	0.794464
764.325	1.10847
767.218	1.44045
770.11	1.24212
773.003	1.2497
775.896	1.29591
778.788	1.32803
781.681	0.497475
784.574	0.105492
787.467	1.02765
790.359	0.849953
793.252	1.20618
796.145	1.26178
799.037	1.18034
801.93	1.02103
804.823	2.69334
807.716	2.39459
810.608	2.68481
813.501	2.78233
816.394	1.91678
819.286	4.05776
822.179	4.06002
825.072	5.48959
827.964	6.74509
830.857	8.43517
833.75	9.2382
836.643	9.87943
839.535	11.2491
842.428	11.3482
845.321	11.5605
848.213	9.75201
851.106	8.91843
853.999	9.6868
856.891	7.93784
859.784	7.01389
862.677	5.30545
865.569	4.675
868.462	3.30846
871.355	2.70441
874.248	1.90815
877.14	0.011147
880.033	0.208786
882.926	0.424973
885.818	0.36335
888.711	0.571922
891.604	1.29177
894.496	1.31184
897.389	0.749176
900.282	1.20301
903.175	0.493034
906.067	0.484116
908.96	0.145943
911.853	0.631584
914.745	0.366806
917.638	1.5656
920.531	2.53498
923.423	4.55864
926.316	7.36865
929.209	11.5481
932.102	15.2135
934.994	19.6596
937.887	26.0374
940.78	29.7283
943.672	38.074
946.565	45.6518
949.458	53.533
952.351	61.9967
955.243	68.8806
958.136	74.2867
961.029	83.3327
963.921	86.8152
966.814	88.8554
969.707	86.9943
972.599	84.2389
975.492	76.3716
978.385	70.7232
981.278	62.2511
984.17	57.2759
987.063	53.4433
989.956	48.6217
992.848	45.5373
995.741	40.7631
998.634	36.5446
1001.53	34.5914
1004.42	30.2222
1007.31	26.9844
1010.21	23.9119
1013.1	21.513
1015.99	18.2389
1018.88	16.9645
1021.77	14.4429
1024.67	15.9295
1027.56	12.7732
1030.45	11.761
1033.35	10.05
1036.24	9.15384
1039.13	8.80666
1042.02	9.12378
1044.92	6.58513
1047.81	6.6629
1050.7	5.52702
1053.6	5.00467
1056.49	3.43691
1059.38	4.09802
1062.27	4.95618
1065.17	3.60017
1068.06	4.17209
1070.95	2.02121
1073.84	2.71876
1076.74	0.66613
1079.63	5.16701
1082.52	0.561356
1085.41	1.20734
1088.31	1.17741
1091.2	2.1059
1094.09	0.737762
1096.99	0.871628
1099.88	0.563232
1102.77	0.140686
1105.66	2.04783
1108.56	3.03085
1111.45	3.34554
1114.34	5.26314
1117.23	6.86176
1120.13	7.26976
1123.02	7.91315
1125.91	7.76848
1128.81	8.42173
1131.7	6.50662
1134.59	8.05767
1137.48	7.19873
1140.38	5.79578
1143.27	5.42871
1146.16	4.76433
1149.05	2.43738
1151.95	1.47151
1154.84	1.36545
1157.73	0.11908
1160.62	0.403
1163.52	2.37658
1166.41	0.039345
1169.3	0.323631
1172.2	1.1129
1175.09	1.58377
1177.98	1.74101
1180.87	3.49478
1183.77	1.86955
1186.66	2.83144
1189.55	4.04858
1192.44	2.56036
1195.34	3.41448
1198.23	4.02622
1201.12	3.97106
1204.02	3.97378
1206.91	3.65163
1209.8	3.64799
1212.69	3.62107
1215.59	3.52086
1218.48	3.22148
1221.37	7.92839
1224.26	3.04871
1227.16	3.09793
1230.05	3.34515
1232.94	2.19241
1235.84	1.92341
1238.73	2.88125
1241.62	1.86512
1244.51	2.27516
1247.41	2.16256
1250.3	2.81551
1253.19	2.58273
1256.08	2.28819
1258.98	3.01053
1261.87	1.99149
1264.76	2.01757
1267.65	1.88624
1270.55	2.34866
1273.44	1.73151
1276.33	1.61163
1279.23	1.32474
1282.12	0.871315
1285.01	0.619301
1287.9	0.983803
1290.8	0.792122
1293.69	1.62813
1296.58	0.272133
1299.47	0.143921
