Measurement: Raman, 532 nm, unoriented, Raman Data Processed
Mineral: Ktenasite
Rruff sample: R070081
Ideal chemistry: (Cu,Zn)_5_(SO_4_)_2_(OH)_6_6H_2_O
Locality: Amot, Modum, Norway
Source: Bob Jenkins
Description: Radial aggregates of bluish green tabular crystals, associated with colorless tabular gypsum crystals.
Raman shift (cm-1)	intensity
158.377	0
161.751	10.0337
165.126	15.7329
168.501	50.5945
171.876	57.3657
175.251	34.4869
178.625	48.0618
182	16.6386
185.375	17.7642
188.75	37.1821
192.125	4.98541
195.5	33.4437
198.874	14.9675
202.249	46.7479
205.624	39.1426
208.999	60.1284
212.374	71.0567
215.749	83.9913
219.123	111.2
222.498	116.003
225.873	169.748
229.248	174.044
232.623	221.217
235.997	247.66
239.372	263.409
242.747	319.927
246.122	324.163
249.497	317.77
252.871	265.489
256.246	251.946
259.621	231.655
262.996	188.301
266.371	140.147
269.746	125.798
273.12	99.8217
276.495	62.1469
279.87	44.1407
283.245	18.7349
286.62	25.8403
289.995	39.2762
293.369	2.19788
296.744	5.14978
300.119	12.686
303.494	5.74475
306.869	42.7466
310.243	14.2255
313.618	44.6558
316.993	9.32867
320.368	53.3823
323.743	30.1812
327.118	16.0126
330.492	22.1229
333.867	9.87207
337.242	5.58612
340.617	4.32873
343.992	24.8161
347.366	15.7554
350.741	3.94043
354.116	35.9505
357.491	16.6655
360.866	2.49933
364.24	19.1848
367.615	20.2808
370.99	1.42596
374.365	7.98663
377.74	7.28113
381.115	11.3399
384.489	60.5319
387.864	75.4062
391.239	65.5779
394.614	120.198
397.989	128.067
401.363	209.236
404.738	205.467
408.113	284.68
411.488	280.756
414.863	240.892
418.238	223.101
421.612	197.61
424.987	212.625
428.362	215.557
431.737	247.981
435.112	286.904
438.486	336.241
441.861	401.002
445.236	468.383
448.611	486.282
451.986	497.113
455.361	469.338
458.735	436.927
462.11	385.693
465.485	334.085
468.86	322.646
472.235	252.226
475.61	246.265
478.984	246.832
482.359	256.007
485.734	252.798
489.109	259.133
492.484	222.801
495.858	218.102
499.233	158.386
502.608	154.719
505.983	115.403
509.358	121.876
512.732	74.0132
516.107	39.2621
519.482	10.6475
522.857	21.0715
526.232	13.4985
529.607	21.3108
532.981	10.0013
536.356	6.96332
539.731	3.21808
543.106	2.31427
546.481	10.9123
549.856	4.84656
553.23	5.57989
556.605	8.89734
559.98	10.0244
563.355	14.3357
566.73	30.6232
570.104	10.7153
573.479	55.3452
576.854	36.9477
580.229	69.832
583.604	79.8122
586.979	154.5
590.353	150.838
593.728	225.688
597.103	277.56
600.478	347.788
603.852	403.425
607.227	380.703
610.602	405.869
613.977	377.354
617.352	354.216
620.727	352.442
624.101	301.708
627.476	254.478
630.851	157.381
634.226	135.957
637.601	73.3823
640.976	86.8297
644.35	37.2473
647.725	32.1429
651.1	35.3196
654.475	11.7216
657.85	14.2216
661.224	12.836
664.599	17.226
667.974	7.43628
671.349	0.375732
674.724	25.677
678.098	12.0187
681.473	42.9114
684.848	42.9859
688.223	13.0309
691.598	39.2004
694.973	3.39038
698.347	32.1062
701.722	32.1345
705.097	49.0179
708.472	34.3972
711.847	37.2249
715.221	34.1801
718.596	60.8016
721.971	33.2119
725.346	72.1796
728.721	33.611
732.096	36.3963
735.471	38.8331
738.845	33.3426
742.22	5.99493
745.595	2.91467
748.97	46.6956
752.345	14.1652
755.719	10.2511
759.094	28.6649
762.469	29.6824
765.844	9.72687
769.219	29.1298
772.593	4.57623
775.968	14.6666
779.343	20.7841
782.718	39.7057
786.093	3.39655
789.467	41.6719
792.842	36.5951
796.217	31.5919
799.592	15.0195
802.967	19.9945
806.342	21.5593
809.716	17.2595
813.091	24.5257
816.466	0.638245
819.841	27.9215
823.216	45.4744
826.591	46.9077
829.965	13.6418
833.34	22.9454
836.715	36.009
840.09	44.7264
843.465	37.7894
846.839	16.1437
850.214	8.74963
853.589	3.55408
856.964	10.3144
860.339	7.22864
863.713	7.38696
867.088	7.71277
870.463	35.8353
873.838	37.2615
877.213	10.6442
880.588	32.807
883.962	49.1025
887.337	17.6266
890.712	0.466187
894.087	21.3825
897.462	12.2695
900.837	26.3192
904.211	32.2245
907.586	30.1246
910.961	53.8956
914.336	9.90601
917.711	3.18243
921.085	31.1102
924.46	14.8794
927.835	3.85535
931.21	43.2223
934.585	5.36102
937.96	0.671875
941.334	23.4155
944.709	25.8777
948.084	16.775
951.459	18.3016
954.834	32.8664
958.208	70.9303
961.583	82.1398
964.958	146.182
968.333	224.541
971.708	431.126
975.082	768.382
978.457	1232.71
981.832	1752.88
985.207	1923.28
988.582	1875.99
991.957	2015.87
995.331	2064.26
998.706	1672.42
1002.08	1047.82
1005.46	448.457
1008.83	216.494
1012.21	122.572
1015.58	92.3009
1018.96	57.5011
1022.33	36.2594
1025.7	6.75
1029.08	10.4951
1032.45	18.8524
1035.83	6.59827
1039.2	14.1868
1042.58	7.25549
1045.95	4.01636
1049.33	1.38245
1052.7	44.6913
1056.08	12.5618
1059.45	11.1237
1062.83	21.5623
1066.2	21.9697
1069.58	33.8239
1072.95	23.3259
1076.33	63.4403
1079.7	36.0778
1083.08	102.465
1086.45	132.15
1089.83	131.918
1093.2	178.943
1096.58	202.156
1099.95	246.46
1103.33	293.109
1106.7	383.389
1110.08	462.605
1113.45	539.206
1116.83	465.365
1120.2	416.256
1123.57	329.407
1126.95	269.188
1130.32	226.31
1133.7	200.832
1137.07	144.114
1140.45	96.1462
1143.82	87.9249
1147.2	90.6276
1150.57	95.7044
1153.95	47.8589
1157.32	44.2821
1160.7	29.9163
1164.07	9.01916
1167.45	12.6237
1170.82	14.4568
1174.2	32.8253
1177.57	14.7723
1180.95	23.8441
1184.32	26.3309
1187.7	47.2012
1191.07	14.3923
1194.45	42.5453
1197.82	39.1631
1201.19	4.46381
1204.57	1.24469
1207.94	26.3601
1211.32	25.8412
1214.69	10.0571
1218.07	71.9666
1221.44	17.9598
1224.82	24.7386
1228.19	22.0356
1231.57	12.9864
1234.94	21.8317
1238.32	23.0262
1241.69	16.4273
1245.07	35.6285
1248.44	64.2274
1251.82	3.51312
1255.19	50.9728
1258.57	52.1928
1261.94	0.682068
1265.32	38.8822
1268.69	42.5648
1272.07	31.2392
1275.44	48.1202
1278.82	26.8585
1282.19	13.1653
1285.57	53.2818
1288.94	42.3632
1292.32	20.9092
1295.69	44.7955
1299.07	23.8193
1302.44	28.2133
1305.82	54.925
1309.19	33.6091
1312.56	10.1697
1315.94	4.172
