Measurement: Raman, 532 nm, unoriented, Raman Data Processed
Mineral: Ktenasite
Rruff sample: R090002
Ideal chemistry: (Cu,Zn)_5_(SO_4_)_2_(OH)_6_6H_2_O
Locality: Oh mine, Gila County, Arizona, USA
Source: Michael Scott
Description: Radial aggregates of bluish green tabular crystals associated with serpierite, R060475
Raman shift (cm-1)	intensity
122.828	0
126.202	18.9605
129.577	27.3042
132.952	18.9709
136.327	1.2179
139.702	6.46301
143.076	5.73068
146.451	11.1405
149.826	20.029
153.201	14.6883
156.576	21.7938
159.951	27.7978
163.325	23.2474
166.7	29.6147
170.075	32.6791
173.45	21.0268
176.825	10.3259
180.199	15.6782
183.574	8.06775
186.949	4.21991
190.324	3.31201
193.699	7.09579
197.073	3.1778
200.448	8.63867
203.823	16.352
207.198	34.9074
210.573	51.6116
213.948	80.5007
217.322	108.653
220.697	171.525
224.072	239.136
227.447	275.27
230.822	232.132
234.196	239.649
237.571	255.205
240.946	260.639
244.321	256.299
247.696	253.06
251.071	238.997
254.445	222.226
257.82	204.358
261.195	168.654
264.57	141.342
267.945	107.115
271.32	82.5921
274.694	66.74
278.069	56.7548
281.444	59.2093
284.819	58.5805
288.193	74.5811
291.568	89.3159
294.943	71.5556
298.318	55.9544
301.693	35.4099
305.068	20.8199
308.442	4.06003
311.817	3.43515
315.192	0.226898
318.567	6.96851
321.942	6.07355
325.317	7.50034
328.691	1.41812
332.066	0.13266
335.441	2.30026
338.816	0.569458
342.191	2.89557
345.565	5.06165
348.94	3.68262
352.315	8.57184
355.69	15.7816
359.065	8.52216
362.44	16.0391
365.814	22.9379
369.189	16.2919
372.564	24.7836
375.939	39.0552
379.314	46.1664
382.688	63.6295
386.063	81.9586
389.438	98.7875
392.813	127.624
396.188	146.494
399.562	164.794
402.937	171.132
406.312	186.87
409.687	187.745
413.062	182.092
416.437	147.355
419.811	115.914
423.186	97.1747
426.561	95.2398
429.936	103.257
433.311	116.762
436.685	142.916
440.06	177.25
443.435	220.196
446.81	245.547
450.185	254.544
453.56	234.177
456.934	185.078
460.309	147.183
463.684	116.095
467.059	106.493
470.434	99.9928
473.808	103.744
477.183	125.642
480.558	140.324
483.933	155.286
487.308	145.192
490.683	109.168
494.057	82.3571
497.432	65.9404
500.807	47.7028
504.182	36.0073
507.557	33.4318
510.931	25.4901
514.306	10.9557
517.681	7.76269
521.056	2.69104
524.431	3.49829
527.806	8.28967
531.18	6.47778
534.555	4.61206
537.93	1.67487
541.305	3.90027
544.68	4.11145
548.054	4.25983
551.429	3.35199
554.804	4.62097
558.179	6.97229
561.554	12.2216
564.928	8.79785
568.303	17.1799
571.678	21.0143
575.053	27.2646
578.428	32.6804
581.803	44.9699
585.177	58.1394
588.552	73.767
591.927	102.223
595.302	149.092
598.677	202.631
602.052	265.33
605.426	309.344
608.801	290.05
612.176	256.26
615.551	198.577
618.926	173.352
622.3	137.314
625.675	101.516
629.05	70.6945
632.425	33.4835
635.8	21.0856
639.174	12.3323
642.549	8.07806
645.924	7.32501
649.299	3.0094
652.674	5.43378
656.048	10.2499
659.423	9.20203
662.798	15.0294
666.173	6.51971
669.548	9.97803
672.923	15.7161
676.297	17.9326
679.672	20.5715
683.047	23.1233
686.422	30.4654
689.797	24.5039
693.172	37.6685
696.546	36.0983
699.921	33.9001
703.296	36.472
706.671	37.9908
710.046	28.8432
713.42	29.3876
716.795	22.4575
720.17	30.3218
723.545	25.4666
726.92	23.7703
730.294	20.5856
733.669	14.3507
737.044	8.74182
740.419	10.0115
743.794	4.21808
747.169	7.92926
750.543	1.91132
753.918	7.80652
757.293	1.53784
760.668	5.95599
764.043	1.15503
767.418	1.75098
770.792	1.61456
774.167	7.95453
777.542	5.95837
780.917	2.56665
784.292	2.22266
787.666	2.7807
791.041	3.8172
794.416	9.76666
797.791	15.5391
801.166	8.16614
804.54	15.9194
807.915	14.3623
811.29	17.1484
814.665	15.4893
818.04	17.2372
821.415	18.1354
824.789	16.5225
828.164	12.5428
831.539	15.3096
834.914	11.0818
838.289	11.2925
841.663	15.7893
845.038	12.8774
848.413	5.98285
851.788	7.44604
855.163	9.82221
858.538	7.48859
861.912	2.25897
865.287	11.6926
868.662	2.26862
872.037	5.3205
875.412	0.04071
878.786	1.28339
882.161	2.74329
885.536	2.21497
888.911	7.49036
892.286	4.19098
895.66	11.0881
899.035	8.76233
902.41	3.61353
905.785	0.666748
909.16	10.0479
912.535	7.15045
915.909	0.247559
919.284	6.68158
922.659	5.76648
926.034	1.8363
929.409	4.23944
932.784	1.53613
936.158	2.39661
939.533	3.33228
942.908	0.083008
946.283	7.01215
949.658	8.7381
953.032	14.7405
956.407	28.5736
959.782	38.4178
963.157	54.7936
966.532	107.689
969.907	258.335
973.281	522.258
976.656	922.818
980.031	1750.43
983.406	2198.89
986.781	1022.91
990.155	318.848
993.53	185.698
996.905	145.147
1000.28	88.2155
1003.65	44.1643
1007.03	17.9966
1010.4	10.1882
1013.78	3.177
1017.15	2.70758
1020.53	0.102539
1023.9	2.24615
1027.28	2.46118
1030.65	0.77887
1034.03	0.28833
1037.4	4.54181
1040.78	1.05994
1044.15	10.1114
1047.53	4.8775
1050.9	18.5503
1054.28	12.1117
1057.65	22.3173
1061.03	20.5184
1064.4	29.9885
1067.78	27.1647
1071.15	27.2712
1074.53	29.025
1077.9	40.3015
1081.28	45.1052
1084.65	58.0933
1088.03	68.7788
1091.4	81.8085
1094.78	98.5101
1098.15	113.498
1101.52	147.892
1104.9	202.734
1108.27	278.287
1111.65	372.022
1115.02	392.834
1118.4	292.102
1121.77	203.893
1125.15	137.698
1128.52	92.9808
1131.9	71.8472
1135.27	50.9417
1138.65	39.9553
1142.02	24.9293
1145.4	10.3385
1148.77	11.5974
1152.15	1.92615
1155.52	3.02527
1158.9	3.48395
1162.27	4.81989
1165.65	3.8125
1169.02	1.38086
1172.4	4.76392
1175.77	2.78033
1179.14	5.21509
1182.52	1.23505
1185.89	3.05859
1189.27	1.47467
1192.64	3.65033
1196.02	4.97406
1199.39	7.73578
1202.77	1.99182
1206.14	7.24152
1209.52	3.76056
1212.89	4.75586
1216.27	7.69208
1219.64	12.0327
1223.02	2.95709
1226.39	6.55542
1229.77	5.43018
1233.14	6.69995
1236.52	4.63324
1239.89	2.42334
1243.27	3.7677
1246.64	2.76978
1250.02	6.1662
1253.39	0.851135
1256.77	4.16284
1260.14	3.84369
1263.52	4.42865
1266.89	1.25568
1270.27	8.65033
1273.64	8.5473
1277.02	9.56165
1280.39	2.46997
1283.76	3.6889
1287.14	7.00305
1290.51	6.7334
1293.89	2.46155
1297.26	3.42352
1300.64	0.032715
