Measurement: Raman, 532 nm, unoriented, Raman Data Processed
Mineral: Kuksite
Rruff sample: R110039
Ideal chemistry: Pb_3_Zn_3_Te^6+^O_6_(PO_4_)_2_
Locality: Blue Bell claims, Baker, San Bernardino County, California, USA
Source: Brent Thorne
Description: Pale-green short-primatic hexagonal crystals, associated with colorless elongated tabular hemimorphite and yellow to brown-yellow andradite.
Raman shift (cm-1)	intensity
195.594	0
198.486	0.811493
201.379	2.64667
204.272	5.71841
207.164	11.3859
210.057	15.0239
212.95	15.9561
215.843	15.9467
218.735	17.3181
221.628	18.657
224.521	22.875
227.413	23.1565
230.306	25.6001
233.199	26.7747
236.091	27.3022
238.984	23.416
241.877	22.6666
244.769	23.1859
247.662	25.341
250.555	24.7354
253.448	18.969
256.34	21.5206
259.233	21.2855
262.126	16.6842
265.018	18.1569
267.911	18.509
270.804	21.3742
273.697	22.3926
276.589	25.8345
279.482	27.95
282.375	27.8257
285.267	23.6143
288.16	14.3911
291.053	8.01254
293.945	0.84494
296.838	0.138885
299.731	2.78506
302.623	0.950928
305.516	1.58151
308.409	12.0057
311.302	18.531
314.194	30.9259
317.087	43.6576
319.98	58.4933
322.872	71.0066
325.765	73.5521
328.658	70.4977
331.55	60.8683
334.443	51.5448
337.336	44.0297
340.229	40.5059
343.121	36.5086
346.014	35.0424
348.907	33.8314
351.799	35.6344
354.692	32.9707
357.585	25.9369
360.478	22.0045
363.37	15.8632
366.263	10.6822
369.156	5.80444
372.048	3.42877
374.941	1.28427
377.834	2.53491
380.726	0.197937
383.619	1.59586
386.512	0.737549
389.404	2.25324
392.297	2.73663
395.19	7.52069
398.083	9.21143
400.975	12.622
403.868	15.9418
406.761	22.3457
409.653	23.5158
412.546	27.3858
415.439	32.3029
418.332	34.6776
421.224	38.7602
424.117	42.215
427.01	49.2456
429.902	54.1664
432.795	55.2078
435.688	56.3048
438.58	54.96
441.473	50.8263
444.366	46.5741
447.259	42.2046
450.151	39.7919
453.044	36.908
455.937	33.9513
458.829	33.1238
461.722	33.5126
464.615	32.7469
467.507	27.9756
470.4	25.2766
473.293	20.2719
476.185	14.8773
479.078	7.47553
481.971	2.11847
484.864	0.19339
487.756	0.819305
490.649	2.93527
493.542	0.905273
496.434	0.782593
499.327	5.01959
502.22	5.17139
505.113	8.47702
508.005	10.2008
510.898	17.3551
513.791	20.8643
516.683	28.1862
519.576	36.9461
522.469	46.6395
525.361	53.688
528.254	60.4086
531.147	58.2925
534.04	52.6562
536.932	47.4227
539.825	42.6204
542.718	37.498
545.61	32.8249
548.503	28.0551
551.396	26.9711
554.288	23.3758
557.181	16.337
560.074	15.9185
562.967	10.948
565.859	9.68649
568.752	8.51947
571.645	7.92044
574.537	8.54669
577.43	9.8555
580.323	10.1354
583.216	11.9498
586.108	12.6621
589.001	16.8036
591.894	24.0368
594.786	29.1151
597.679	35.7286
600.572	37.021
603.464	34.6553
606.357	26.6984
609.25	16.8782
612.142	8.2937
615.035	1.19403
617.928	0.785431
620.821	0.238708
623.713	2.45483
626.606	1.60062
629.499	1.80484
632.391	0.400879
635.284	0.499268
638.177	0.643402
641.069	0.709808
643.962	0.511536
646.855	0.894684
649.747	0.762207
652.64	0.731323
655.533	5.67532
658.426	6.92029
661.318	11.1826
664.211	13.3625
667.104	16.3769
669.996	20.61
672.889	27.0783
675.782	32.1165
678.674	38.7527
681.567	45.3198
684.46	52.3795
687.353	60.2488
690.245	71.7075
693.138	82.4703
696.031	93.7842
698.923	105.746
701.816	117.934
704.709	128.41
707.601	145.271
710.494	167.152
713.387	191.353
716.28	231.976
719.172	285.69
722.065	361.356
724.958	448.161
727.85	524.989
730.743	567.348
733.636	544.34
736.529	463.61
739.421	361.063
742.314	262.832
745.207	181.053
748.099	124.64
750.992	82.2815
753.885	58.4172
756.777	36.4203
759.67	22.5485
762.563	12.2369
765.456	7.75452
768.348	3.47022
771.241	2.0564
774.134	1.01208
777.026	3.81802
779.919	2.91486
782.812	0.954285
785.704	0.975067
788.597	3.7435
791.49	11.2459
794.383	17.9695
797.275	25.6092
800.168	34.9564
803.061	51.3659
805.953	65.3717
808.846	86.1135
811.739	107.033
814.631	132.681
817.524	161.056
820.417	190.098
823.309	212.8
826.202	223.397
829.095	225.91
831.988	214.707
834.88	188.587
837.773	157.963
840.666	132.285
843.558	114.7
846.451	106.189
849.344	96.4202
852.236	91.7152
855.129	82.8466
858.022	74.4506
860.915	60.4543
863.807	48.3214
866.7	36.2026
869.593	25.6015
872.485	19.9034
875.378	15.0659
878.271	10.9709
881.163	6.09625
884.056	5.01953
886.949	2.39447
889.842	3.00049
892.734	0.6875
895.627	0.29657
898.52	2.39502
901.412	1.34833
904.305	0.410248
907.198	0.048065
910.091	0.581482
912.983	0.721924
915.876	1.46704
918.769	1.92895
921.661	4.69528
924.554	10.3829
927.447	15.3531
930.339	23.4966
933.232	36.5268
936.125	51.8769
939.018	77.9216
941.91	106.167
944.803	139.693
947.696	170.811
950.588	201.018
953.481	224.3
956.374	216.552
959.266	174.497
962.159	114.842
965.052	67.2598
967.944	39.789
970.837	23.7891
973.73	17.3216
976.623	12.7089
979.515	11.8446
982.408	12.8938
985.301	10.6363
988.193	9.58234
991.086	9.13946
993.979	7.70834
996.871	5.07291
999.764	3.34644
1002.66	1.80701
1005.55	1.78162
1008.44	2.66257
1011.34	1.21188
1014.23	0.273071
1017.12	0.120972
1020.01	2.23981
1022.91	1.40863
1025.8	1.20352
1028.69	0.906433
1031.58	2.0325
1034.48	3.07895
1037.37	4.62497
1040.26	6.36233
1043.15	8.92001
1046.05	13.428
1048.94	18.5607
1051.83	23.8516
1054.73	27.5489
1057.62	30.7609
1060.51	29.7477
1063.4	30.7342
1066.3	30.8035
1069.19	30.9715
1072.08	30.0892
1074.97	26.69
1077.87	21.57
1080.76	13.7718
1083.65	7.69543
1086.55	4.46735
1089.44	3.27411
1092.33	0.272919
1095.22	2.01996
1098.12	0.489899
1101.01	0.564331
1103.9	0.082581
1106.79	0.863098
1109.69	0.457733
1112.58	1.09048
1115.47	0.589722
1118.37	0.783325
1121.26	1.52777
1124.15	1.64831
1127.04	0.017212
1129.94	0.219269
1132.83	0.35022
1135.72	0.712372
1138.61	2.40772
1141.51	1.32214
1144.4	1.6554
1147.29	3.3378
1150.18	2.76965
1153.08	4.5965
1155.97	3.17938
1158.86	2.49344
1161.76	1.64902
1164.65	2.27972
1167.54	1.41064
1170.43	0.933289
1173.33	1.51111
1176.22	3.6203
1179.11	2.49374
1182	3.89123
1184.9	1.45252
1187.79	2.55399
1190.68	0.56131
1193.58	2.60733
1196.47	1.71362
1199.36	1.99023
1202.25	2.65286
1205.15	2.54208
1208.04	1.86899
1210.93	3.22354
1213.82	3.62683
1216.72	2.92273
1219.61	2.20914
1222.5	1.62824
1225.39	2.37302
1228.29	2.81155
1231.18	1.82193
1234.07	1.78964
1236.97	0.508759
1239.86	0.269104
1242.75	0.461212
1245.64	0.19458
1248.54	0.083374
1251.43	0.294586
1254.32	0.83316
1257.21	2.06949
1260.11	1.79691
1263	2.02954
1265.89	1.86453
1268.79	0.753937
1271.68	1.08591
1274.57	0.466797
1277.46	1.54715
1280.36	0.154907
1283.25	0.63913
1286.14	1.92248
1289.03	0.183258
1291.93	2.65897
1294.82	1.13434
1297.71	1.33533
1300.61	0.60321
