Measurement: Raman, 780 nm, unoriented, Raman Data Processed
Mineral: Kuksite
Rruff sample: R110039
Ideal chemistry: Pb_3_Zn_3_Te^6+^O_6_(PO_4_)_2_
Locality: Blue Bell claims, Baker, San Bernardino County, California, USA
Source: Brent Thorne
Description: Pale-green short-primatic hexagonal crystals, associated with colorless elongated tabular hemimorphite and yellow to brown-yellow andradite.
Raman shift (cm-1)	intensity
217.918	0
220.811	1.70264
223.703	0.213928
226.596	1.3959
229.489	0.868317
232.382	1.05344
235.274	1.77881
238.167	2.9812
241.06	3.56467
243.952	2.72748
246.845	3.62408
249.738	4.24878
252.631	2.05795
255.523	0.291565
258.416	0.826965
261.309	2.84409
264.201	2.96677
267.094	3.01498
269.987	1.74875
272.879	4.52948
275.772	2.90448
278.665	5.77481
281.558	6.20148
284.45	5.17532
287.343	3.02957
290.236	3.31204
293.128	0.286377
296.021	0.292297
298.914	0.484924
301.806	0.243103
304.699	2.9216
307.592	6.59171
310.485	10.6363
313.377	15.1144
316.27	22.076
319.163	27.1307
322.055	33.5175
324.948	34.445
327.841	34.1354
330.733	31.9871
333.626	26.9785
336.519	25.837
339.411	24.8299
342.304	24.4646
345.197	22.5617
348.09	22.2704
350.982	20.4506
353.875	18.6409
356.768	14.2678
359.66	11.2527
362.553	7.27737
365.446	5.37492
368.339	3.37332
371.231	2.33989
374.124	0.943665
377.017	1.67779
379.909	0.628815
382.802	0.806168
385.695	1.15913
388.587	0.930878
391.48	1.02069
394.373	1.09186
397.265	2.57187
400.158	3.24612
403.051	2.76506
405.944	4.48546
408.836	7.38425
411.729	7.61014
414.622	10.383
417.514	10.5429
420.407	13.3199
423.3	15.4924
426.192	17.6148
429.085	19.4646
431.978	19.2006
434.871	19.4313
437.763	17.2545
440.656	16.4155
443.549	15.2026
446.441	14.1136
449.334	12.0505
452.227	10.8884
455.12	9.26091
458.012	8.89626
460.905	10.6601
463.798	7.6586
466.69	7.12373
469.583	6.09444
472.476	5.31873
475.368	4.02705
478.261	2.35153
481.154	0.524857
484.046	0.615677
486.939	1.22938
489.832	0.416641
492.725	0.834137
495.617	2.32066
498.51	1.25549
501.403	2.11809
504.295	3.82495
507.188	4.58359
510.081	7.31299
512.973	9.64247
515.866	12.4052
518.759	12.6021
521.652	14.2161
524.544	15.6998
527.437	18.9241
530.33	16.4381
533.222	14.4822
536.115	14.3224
539.008	13.7069
541.9	11.7753
544.793	8.97638
547.686	6.17403
550.579	5.64862
553.471	4.75851
556.364	3.59799
559.257	3.07988
562.149	1.83072
565.042	0.209686
567.935	0.382339
570.827	0.284058
573.72	0.587708
576.613	2.05354
579.506	1.0578
582.398	1.94047
585.291	3.44051
588.184	4.70531
591.076	6.09999
593.969	8.38973
596.862	9.88754
599.755	10.3399
602.647	9.03859
605.54	6.16528
608.433	2.62089
611.325	1.78418
614.218	0.059204
617.111	1.54454
620.003	1.2231
622.896	0.619858
625.789	0.179581
628.682	0.392441
631.574	0.117386
634.467	0.673447
637.36	0.814133
640.252	0.601105
643.145	1.87697
646.038	1.58545
648.93	2.33237
651.823	3.11763
654.716	2.67941
657.609	6.11826
660.501	5.42273
663.394	4.11392
666.287	6.77345
669.179	8.48053
672.072	10.4336
674.965	11.808
677.857	12.4551
680.75	15.8512
683.643	19.7848
686.535	21.3276
689.428	24.1578
692.321	29.8275
695.214	33.8687
698.106	38.0821
700.999	45.3073
703.892	51.1972
706.784	60.1901
709.677	71.6701
712.57	85.6104
715.462	103.293
718.355	126.437
721.248	149.234
724.141	166.221
727.033	169.004
729.926	159.041
732.819	135.346
735.711	105.561
738.604	79.1587
741.497	56.4233
744.389	41.8162
747.282	29.3247
750.175	22.8666
753.068	13.7525
755.96	10.1411
758.853	5.94617
761.746	3.90082
764.638	1.52798
767.531	0.172577
770.424	0.806732
773.317	2.17914
776.209	2.25397
779.102	0.402664
781.995	0.475525
784.887	0.243149
787.78	1.58414
790.673	4.28273
793.565	6.75255
796.458	9.29558
799.351	11.5356
802.244	13.4899
805.136	20.7548
808.029	24.7321
810.922	30.3361
813.814	36.9882
816.707	45.7556
819.6	52.943
822.492	58.677
825.385	60.2181
828.278	58.6444
831.17	54.5796
834.063	46.7381
836.956	38.7818
839.849	32.97
842.741	28.3748
845.634	26.3604
848.527	24.9207
851.419	24.4111
854.312	21.618
857.205	18.6345
860.097	16.0466
862.99	12.5656
865.883	8.5368
868.776	7.69281
871.668	5.12657
874.561	4.4953
877.454	3.52058
880.346	1.39918
883.239	2.52344
886.132	2.63008
889.024	0.524216
891.917	0.086136
894.81	1.23846
897.703	0.352036
900.595	0.361801
903.488	0.104675
906.381	0.986374
909.273	0.714554
912.166	1.89294
915.059	0.703644
917.952	2.75198
920.844	4.78406
923.737	5.2616
926.63	6.7041
929.522	9.99881
932.415	15.0761
935.308	19.444
938.2	27.5079
941.093	35.7606
943.986	44.7461
946.879	53.4348
949.771	62.6482
952.664	67.2791
955.557	62.9546
958.449	49.2602
961.342	34.7614
964.235	22.1971
967.127	14.9132
970.02	10.5977
972.913	7.35597
975.806	4.48181
978.698	4.59831
981.591	4.98242
984.484	4.00317
987.376	2.80206
990.269	2.37028
993.162	2.24896
996.054	1.15579
998.947	1.63295
1001.84	1.79939
1004.73	0.320908
1007.62	0.65416
1010.52	0.537338
1013.41	0.320694
1016.3	0.806137
1019.2	1.44394
1022.09	0.6203
1024.98	0.961411
1027.87	0.963852
1030.77	3.33293
1033.66	2.24948
1036.55	3.38864
1039.44	1.84357
1042.34	3.01668
1045.23	4.78302
1048.12	6.71371
1051.02	6.91986
1053.91	6.49352
1056.8	8.31352
1059.69	8.53587
1062.59	9.11604
1065.48	7.74577
1068.37	8.47319
1071.27	8.4736
1074.16	7.04048
1077.05	5.39352
1079.94	3.85811
1082.84	2.89011
1085.73	1.94927
1088.62	3.18021
1091.51	1.06024
1094.41	1.50731
1097.3	0.819016
1100.19	0.646881
1103.08	1.19574
1105.98	1.37645
1108.87	2.35309
1111.76	0.542465
1114.65	0.607468
1117.55	0.916931
1120.44	0.290237
1123.33	0.846298
1126.23	0.00061
1129.12	1.19917
1132.01	0.012024
1134.9	0.070816
1137.8	1.46877
1140.69	1.49458
1143.58	1.31792
1146.47	1.50563
1149.37	1.9511
1152.26	1.88422
1155.15	1.08943
1158.05	1.70683
1160.94	0.698341
1163.83	2.38889
1166.72	1.43395
1169.62	1.07912
1172.51	1.24654
1175.4	1.76999
1178.3	3.12565
1181.19	3.99431
1184.08	1.3325
1186.97	2.70311
1189.87	2.18868
1192.76	2.40271
1195.65	2.36282
1198.54	1.48622
1201.44	2.00865
1204.33	1.92448
1207.22	2.23886
1210.11	1.34554
1213.01	1.0475
1215.9	1.44988
1218.79	1.53656
1221.68	1.72758
1224.58	3.06089
1227.47	2.10539
1230.36	0.538834
1233.26	0.110252
1236.15	0.058273
1239.04	1.37039
1241.93	0.502304
1244.83	1.58534
1247.72	0.414001
1250.61	0.812202
1253.51	0.64035
1256.4	1.10904
1259.29	1.8551
1262.18	3.14203
1265.08	2.71641
1267.97	3.31503
1270.86	0.074615
1273.75	1.7504
1276.65	0.776978
1279.54	1.01497
1282.43	0.260605
1285.32	0
