Measurement: Raman, 532 nm, unoriented, Raman Data Processed
Mineral: Kulanite
Rruff sample: R060240
Ideal chemistry: BaFe^2+^_2_Al_2_(PO_4_)_3_(OH)_3_
Locality: Big Fish River, Yukon Territory, Canada
Source: Rock Currier
Description: Dark green tabular crystals
Measured chemistry: (Ba_0.97_Sr_0.03_)_Σ=1_(Fe^2+^_1.06_Mn_0.54_Mg_0.35_Ca_0.03_Ti_0.01_[box]_0.01_)_Σ=2_(Al_1.67_Fe^3+^_0.33_)_Σ=2_(P_1.00_O_4_)_3_((OH)_2.68_F_0.32_)_Σ=3_; OH estimated by difference and charge balance
Raman shift (cm-1)	intensity
135.951	0
139.326	17.0419
142.7	13.113
146.075	8.85728
149.45	7.25725
152.825	22.1305
156.2	28.658
159.574	21.7002
162.949	11.5268
166.324	7.87129
169.699	13.1106
173.074	6.13657
176.448	1.38052
179.823	3.11095
183.198	1.79433
186.573	3.9519
189.948	13.6005
193.323	29.1508
196.697	48.1486
200.072	74.7815
203.447	110.975
206.822	159.142
210.197	221
213.571	240.28
216.946	172.717
220.321	102.382
223.696	57.0932
227.071	31.7296
230.446	21.3893
233.82	14.3244
237.195	6.30357
240.57	1.96107
243.945	2.14575
247.32	2.42773
250.695	2.77785
254.069	0.698288
257.444	5.77087
260.819	6.33543
264.194	15.7062
267.568	28.7394
270.943	46.9715
274.318	66.0336
277.693	84.7142
281.068	81.9657
284.443	57.7892
287.817	31.0725
291.192	17.4109
294.567	10.1767
297.942	6.40254
301.317	9.90328
304.692	22.7865
308.066	38.6759
311.441	58.0039
314.816	84.4511
318.191	95.9736
321.566	78.3509
324.94	44.3345
328.315	33.621
331.69	28.7477
335.065	39.7475
338.44	56.6813
341.815	70.7247
345.189	62.1251
348.564	42.6442
351.939	24.6842
355.314	17.9323
358.689	11.639
362.063	6.22059
365.438	2.21307
368.813	1.79962
372.188	2.01769
375.563	2.65476
378.938	1.73026
382.312	1.08375
385.687	2.78588
389.062	2.62734
392.437	12.136
395.812	17.2165
399.186	22.3064
402.561	21.4255
405.936	29.1112
409.311	41.3038
412.686	64.0076
416.06	83.6475
419.435	107.135
422.81	115.073
426.185	127.352
429.56	139.329
432.935	168.38
436.309	199.223
439.684	225.056
443.059	242.151
446.434	260.361
449.809	308.264
453.183	360.05
456.558	396.92
459.933	362.998
463.308	288.238
466.683	213.161
470.058	155.754
473.432	115.608
476.807	94.0476
480.182	79.7254
483.557	77.6543
486.932	84.7376
490.306	88.0665
493.681	74.3353
497.056	39.8274
500.431	5.23187
503.806	5.80777
507.18	5.05759
510.555	0.384628
513.93	6.49341
517.305	14.8806
520.68	14.0033
524.055	12.831
527.429	10.4137
530.804	5.68361
534.179	7.50688
537.554	19.6659
540.929	45.0589
544.303	75.9567
547.678	102.383
551.053	120.246
554.428	130.556
557.803	120.248
561.178	96.7565
564.552	108.019
567.927	115.284
571.302	88.6811
574.677	65.8835
578.052	77.5004
581.427	125.483
584.801	172.98
588.176	148.983
591.551	50.3732
594.926	2.65486
598.301	6.15203
601.675	2.12264
605.05	25.0723
608.425	54.756
611.8	95.9961
615.175	136.23
618.549	155.205
621.924	146.112
625.299	119.829
628.674	85.5333
632.049	52.3623
635.423	29.3916
638.798	16.269
642.173	11.3448
645.548	8.69004
648.923	9.74916
652.298	10.5951
655.672	13.1613
659.047	13.4662
662.422	16.2089
665.797	16.8704
669.172	17.5724
672.546	10.2175
675.921	4.75813
679.296	2.47376
682.671	0.467403
686.046	1.98606
689.42	1.47001
692.795	1.72093
696.17	1.06279
699.545	1.86048
702.92	2.3103
706.295	0.563339
709.669	2.46162
713.044	4.68143
716.419	5.45711
719.794	7.74918
723.169	6.33165
726.543	6.82299
729.918	10.4819
733.293	7.86467
736.668	8.5587
740.043	6.28849
743.418	7.60413
746.792	5.38937
750.167	6.05841
753.542	4.2965
756.917	4.55506
760.292	3.53943
763.667	3.61383
767.041	1.86933
770.416	3.42222
773.791	0.616589
777.166	4.61237
780.541	4.68647
783.915	4.18609
787.29	4.74384
790.665	2.7208
794.04	2.63461
797.415	3.09086
800.789	6.22418
804.164	4.51089
807.539	4.30909
810.914	4.5555
814.289	7.58657
817.663	6.82034
821.038	5.54128
824.413	5.93872
827.788	8.49251
831.163	8.43112
834.538	10.2243
837.912	10.1858
841.287	9.62343
844.662	9.47638
848.037	9.12738
851.412	8.52521
854.787	9.44992
858.161	10.1353
861.536	7.55027
864.911	8.79074
868.286	6.93883
871.661	6.71679
875.035	4.50387
878.41	4.4398
881.785	0.570274
885.16	2.83468
888.535	0.476273
891.909	0.663513
895.284	0.880943
898.659	0.324104
902.034	1.07136
905.409	1.32207
908.784	1.98375
912.158	0.659569
915.533	2.17461
918.908	1.24522
922.283	3.93573
925.658	6.71212
929.033	8.86463
932.407	7.19436
935.782	11.5601
939.157	16.218
942.532	21.4711
945.907	27.0114
949.281	34.408
952.656	44.1364
956.031	62.2178
959.406	86.0793
962.781	109.317
966.155	122.402
969.53	100.203
972.905	76.8088
976.28	55.0477
979.655	44.0827
983.029	38.4317
986.404	40.8377
989.779	61.5979
993.154	93.3785
996.529	138.425
999.904	203.572
1003.28	310.58
1006.65	502.522
1010.03	846.883
1013.4	1246.14
1016.78	1534.23
1020.15	1743.27
1023.53	1525.61
1026.9	914.606
1030.28	497.29
1033.65	288.327
1037.03	188.542
1040.4	134.358
1043.78	95.0723
1047.15	63.6026
1050.53	41.0263
1053.9	18.2757
1057.28	6.44888
1060.65	2.75632
1064.03	3.67298
1067.4	8.56963
1070.78	3.49569
1074.15	2.80197
1077.52	4.05109
1080.9	10.7247
1084.27	18.4323
1087.65	24.0157
1091.02	28.64
1094.4	32.6027
1097.77	44.7706
1101.15	55.2321
1104.52	69.8534
1107.9	76.9742
1111.27	81.9954
1114.65	77.4198
1118.02	69.136
1121.4	54.7186
1124.77	37.1202
1128.15	32.9797
1131.52	31.5074
1134.9	42.9188
1138.27	58.2727
1141.65	71.9427
1145.02	69.3577
1148.4	60.3154
1151.77	53.4903
1155.14	38.4852
1158.52	25.8227
1161.89	17.8812
1165.27	12.031
1168.64	9.51712
1172.02	6.23299
1175.39	5.84762
1178.77	0.890781
1182.14	0.465561
1185.52	0.619934
1188.89	1.28194
1192.27	0.55035
1195.64	1.2531
1199.02	2.82003
1202.39	0.372208
1205.77	0.55685
1209.14	0.152527
1212.52	0.129959
1215.89	2.50684
1219.27	4.17144
1222.64	3.97858
1226.02	3.66805
1229.39	5.30805
1232.77	6.80962
1236.14	6.43521
1239.52	9.47638
1242.89	7.64747
1246.27	9.72885
1249.64	7.7336
1253.02	7.06687
1256.39	5.75445
1259.76	6.70229
1263.14	4.66922
1266.51	2.55895
1269.89	7.33845
1273.26	5.19431
1276.64	1.97213
1280.01	1.62546
1283.39	3.52225
1286.76	3.94758
1290.14	3.71727
1293.51	2.46427
1296.89	3.075
1300.26	4.79945
1303.64	0.385807
