Measurement: Raman, 780 nm, unoriented, Raman Data Processed
Mineral: Kulanite
Rruff sample: R060240
Ideal chemistry: BaFe^2+^_2_Al_2_(PO_4_)_3_(OH)_3_
Locality: Big Fish River, Yukon Territory, Canada
Source: Rock Currier
Description: Dark green tabular crystals
Measured chemistry: (Ba_0.97_Sr_0.03_)_Σ=1_(Fe^2+^_1.06_Mn_0.54_Mg_0.35_Ca_0.03_Ti_0.01_[box]_0.01_)_Σ=2_(Al_1.67_Fe^3+^_0.33_)_Σ=2_(P_1.00_O_4_)_3_((OH)_2.68_F_0.32_)_Σ=3_; OH estimated by difference and charge balance
Raman shift (cm-1)	intensity
101.469	0
104.844	2.34796
108.219	2.05521
111.594	5.44171
114.969	14.4346
118.344	20.3372
121.718	33.5676
125.093	44.6414
128.468	46.0848
131.843	45.7662
135.218	43.1287
138.593	27.4873
141.967	7.63795
145.342	9.17868
148.717	14.1538
152.092	17.9671
155.466	13.8623
158.841	12.4599
162.216	12.9492
165.591	8.74519
168.966	3.90082
172.341	10.6181
175.715	9.83379
179.09	11.3332
182.465	14.5317
185.84	10.8185
189.215	20.1574
192.589	17.7305
195.964	17.0933
199.339	21.474
202.714	28.4718
206.089	30.9034
209.464	29.2104
212.838	21.6615
216.213	7.38322
219.588	6.37279
222.963	2.33562
226.338	0.281921
229.713	2.39047
233.087	1.84624
236.462	1.33437
239.837	1.0883
243.212	1.08229
246.587	0.88147
249.961	0.097488
253.336	1.8183
256.711	7.60904
260.086	4.14323
263.461	6.12878
266.836	10.1371
270.21	7.35638
273.585	11.6301
276.96	15.3015
280.335	10.684
283.71	6.02222
287.084	2.6851
290.459	6.25313
293.834	5.17358
297.209	3.67998
300.584	10.5821
303.959	17.6293
307.333	19.6758
310.708	26.9852
314.083	30.4242
317.458	29.0526
320.833	20.9134
324.207	17.6901
327.582	12.0019
330.957	14.9047
334.332	14.6365
337.707	12.4341
341.082	14.9436
344.456	12.2189
347.831	9.71074
351.206	2.2545
354.581	0.132477
357.955	0.630997
361.33	0.520668
364.705	2.16357
368.08	1.60894
371.455	2.53752
374.83	2.14205
378.204	1.42792
381.579	1.46765
384.954	4.88359
388.329	0.399612
391.704	4.54864
395.079	0.328857
398.453	3.7467
401.828	0.944908
405.203	5.66573
408.578	5.82828
411.953	15.3974
415.327	15.2167
418.702	24.9688
422.077	24.0628
425.452	35.4382
428.827	36.6951
432.202	44.8276
435.576	55.2221
438.951	62.9612
442.326	70.1967
445.701	74.7642
449.076	89.1946
452.45	89.9503
455.825	89.7629
459.2	74.9055
462.575	58.0159
465.95	43.1072
469.325	31.0328
472.699	25.4335
476.074	28.138
479.449	29.3123
482.824	28.6717
486.199	29.1461
489.573	19.0606
492.948	19.3854
496.323	10.9216
499.698	-0.300246
503.073	0.633835
506.447	1.76682
509.822	0.975052
513.197	1.94083
516.572	3.63042
519.947	1.30908
523.322	0.167976
526.696	6.14172
530.071	5.91217
533.446	9.72899
536.821	21.4781
540.196	26.8894
543.57	36.419
546.945	34.8851
550.32	41.4031
553.695	40.9208
557.07	29.2011
560.444	19.0174
563.819	22.4691
567.194	22.2998
570.569	14.6082
573.944	21.68
577.319	25.2071
580.693	31.9591
584.068	34.0596
587.443	12.7079
590.818	0.677071
594.193	0.82309
597.567	3.35217
600.942	8.68678
604.317	16.1115
607.692	26.4599
611.067	30.5899
614.442	33.9722
617.816	34.4162
621.191	26.4439
624.566	26.1384
627.941	16.8122
631.316	14.4136
634.691	10.0801
638.065	9.96184
641.44	9.76283
644.815	9.86486
648.19	9.80155
651.565	9.18823
654.939	7.59231
658.314	10.0228
661.689	8.56804
665.064	11.4439
668.439	3.26149
671.813	1.08131
675.188	3.4351
678.563	1.31182
681.938	5.25436
685.313	0.511162
688.688	2.66407
692.062	5.49393
695.437	2.40634
698.812	0.410416
702.187	0.44101
705.562	3.37302
708.937	4.55455
712.311	7.17982
715.686	7.5303
719.061	4.27566
722.436	3.10696
725.811	11.0553
729.185	3.64381
732.56	3.9716
735.935	1.63062
739.31	3.44527
742.685	1.14629
746.059	6.1548
749.434	2.1516
752.809	6.35671
756.184	0.570946
759.559	3.41505
762.933	0.773827
766.308	2.26484
769.683	3.18607
773.058	3.60764
776.433	0.727592
779.808	2.86912
783.182	7.81929
786.557	6.53465
789.932	1.9156
793.307	5.50745
796.682	4.42477
800.057	8.90133
803.431	5.55391
806.806	3.42621
810.181	4.18068
813.556	3.35999
816.931	5.24828
820.305	2.8895
823.68	9.2122
827.055	4.21394
830.43	1.71128
833.805	5.42782
837.179	6.05901
840.554	7.88728
843.929	5.28619
847.304	3.72173
850.679	7.7512
854.053	2.60043
857.428	8.39266
860.803	4.77797
864.178	2.45359
867.553	8.18483
870.928	7.0133
874.302	3.58669
877.677	4.51685
881.052	4.19727
884.427	8.22026
887.802	2.29097
891.177	4.42632
894.551	0.901115
897.926	2.90266
901.301	0.800995
904.676	1.41087
908.051	4.55714
911.425	0.852165
914.8	0.714821
918.175	2.80407
921.55	4.39295
924.925	0.834549
928.299	0.031815
931.674	2.4529
935.049	1.17487
938.424	4.88393
941.799	2.06512
945.174	7.74349
948.548	11.5027
951.923	13.2694
955.298	17.574
958.673	20.0951
962.048	22.9752
965.423	17.3389
968.797	9.98481
972.172	9.22707
975.547	6.44112
978.922	8.70534
982.297	5.15217
985.671	10.0676
989.046	24.6937
992.421	38.8365
995.796	57.3497
999.171	95.9211
1002.54	150.869
1005.92	219.927
1009.29	312.115
1012.67	358.42
1016.04	378.424
1019.42	345.058
1022.79	228.97
1026.17	125.521
1029.54	73.0057
1032.92	42.394
1036.29	23.3434
1039.67	20.7499
1043.04	8.07011
1046.42	2.6497
1049.79	0.150558
1053.17	1.22587
1056.54	1.17603
1059.92	1.55817
1063.29	0.607796
1066.67	3.93098
1070.04	6.34612
1073.42	3.30878
1076.79	2.59042
1080.17	6.46801
1083.54	9.61224
1086.92	14.8241
1090.29	8.52942
1093.67	7.79982
1097.04	13.6542
1100.41	16.1282
1103.79	15.514
1107.16	24.7878
1110.54	21.4227
1113.91	19.3913
1117.29	15.9795
1120.66	11.8168
1124.04	12.4126
1127.41	18.4247
1130.79	22.4026
1134.16	23.7243
1137.54	26.6948
1140.91	29.194
1144.29	30.0003
1147.66	25.1853
1151.04	20.9669
1154.41	22.7465
1157.79	19.3995
1161.16	16.9135
1164.54	8.88841
1167.91	11.984
1171.29	14.0141
1174.66	8.77044
1178.04	11.923
1181.41	5.14584
1184.79	4.83326
1188.16	8.95913
1191.54	3.10648
1194.91	5.52734
1198.29	3.88898
1201.66	0.224358
1205.03	1.14882
1208.41	4.03285
1211.78	2.27295
1215.16	3.02548
1218.53	1.42945
1221.91	3.02767
1225.28	3.75591
1228.66	2.20515
1232.03	6.67131
1235.41	5.45357
1238.78	7.77084
1242.16	13.4916
1245.53	6.6744
1248.91	1.60635
1252.28	11.6576
1255.66	8.72231
1259.03	3.11214
1262.41	1.2018
1265.78	5.98027
1269.16	5.15765
1272.53	7.36419
1275.91	2.9037
1279.28	0.762321
1282.65	2.89014
