Measurement: Raman, 532 nm, unoriented, Raman Data Processed
Mineral: Kunatite
Rruff sample: R120055
Ideal chemistry: CuFe^3+^_2_(PO_4_)_2_(OH)_2_4H_2_O
Locality: Krasno, Horni Slakov, Bohemia, Czech Republic
Source: William W Pinch
Description: Spherical aggregates of pale green acicular crystals on quartz, associated with triplite
Raman shift (cm-1)	intensity
167.464	0
170.357	2.11218
173.25	4.46659
176.143	12.372
179.035	30.4242
181.928	63.8913
184.821	93.4878
187.713	113.378
190.606	109.771
193.499	83.4087
196.392	46.1669
199.284	24.2635
202.177	11.3771
205.07	0.25061
207.962	3.47554
210.855	3.10757
213.748	1.66748
216.64	10.8906
219.533	19.2069
222.426	38.4073
225.319	57.2855
228.211	81.2147
231.104	108.23
233.997	147.096
236.889	192.086
239.782	219.861
242.675	230.399
245.567	226.589
248.46	204.756
251.353	180.805
254.245	142.49
257.138	95.5473
260.031	58.6745
262.924	36.0182
265.816	26.9973
268.709	25.0395
271.602	28.6747
274.494	39.8728
277.387	50.6808
280.28	63.4947
283.173	77.7346
286.065	95.9332
288.958	113.894
291.851	122.554
294.743	126.668
297.636	131.899
300.529	136.783
303.421	139.156
306.314	145.545
309.207	144.713
312.099	139.111
314.992	125.533
317.885	104.024
320.778	78.7995
323.67	57.0774
326.563	35.7529
329.456	23.3574
332.348	14.2383
335.241	11.993
338.134	9.36629
341.027	9.43127
343.919	9.31639
346.812	10.6203
349.705	8.01982
352.597	7.66876
355.49	6.35045
358.383	2.34601
361.276	1.21565
364.168	0.543167
367.061	1.48941
369.954	4.33955
372.846	4.7748
375.739	2.2798
378.632	3.00836
381.524	2.95546
384.417	1.57327
387.31	1.46452
390.202	3.817
393.095	9.57384
395.988	15.7537
398.881	25.3995
401.773	31.6087
404.666	40.5155
407.559	50.9916
410.451	60.0566
413.344	69.0288
416.237	81.0646
419.13	93.4671
422.022	107.524
424.915	120.811
427.808	128.149
430.7	127.074
433.593	116.522
436.486	104.462
439.378	95.6281
442.271	90.3531
445.164	86.4935
448.057	90.3274
450.949	90.6138
453.842	81.4377
456.735	73.4754
459.627	59.9948
462.52	50.6043
465.413	39.1816
468.305	34.1198
471.198	28.2215
474.091	22.2955
476.983	17.0179
479.876	16.6221
482.769	12.7216
485.662	9.36926
488.554	9.76332
491.447	12.0212
494.34	12.274
497.232	12.285
500.125	12.0801
503.018	14.12
505.911	13.8076
508.803	16.5308
511.696	15.6802
514.589	15.9023
517.481	13.0554
520.374	11.272
523.267	7.24765
526.159	3.75555
529.052	0.190536
531.945	3.29117
534.837	4.4686
537.73	1.57469
540.623	2.32446
543.516	8.85812
546.408	10.3358
549.301	18.7548
552.194	20.8522
555.086	19.4849
557.979	20.3371
560.872	26.8584
563.764	30.6588
566.657	42.3201
569.55	51.7712
572.443	49.2907
575.335	44.5022
578.228	34.4795
581.121	26.8752
584.013	21.2439
586.906	18.1274
589.799	20.6152
592.692	18.4992
595.584	18.2275
598.477	16.0732
601.37	13.5179
604.262	11.2679
607.155	6.46626
610.048	5.94748
612.94	5.56184
615.833	5.16324
618.726	1.16321
621.619	0.34108
624.511	2.017
627.404	0.515671
630.297	2.22085
633.189	0.108109
636.082	0.065399
638.975	2.37745
641.867	0.579681
644.76	2.94821
647.653	4.05277
650.545	2.89683
653.438	4.01147
656.331	6.01164
659.224	6.59203
662.116	7.95019
665.009	8.54137
667.902	12.1767
670.794	10.0628
673.687	11.6097
676.58	12.5585
679.472	13.9628
682.365	15.496
685.258	12.1239
688.151	9.88455
691.043	12.3222
693.936	10.1743
696.829	8.94644
699.721	6.40179
702.614	6.69982
705.507	6.11575
708.399	5.36854
711.292	7.40268
714.185	6.602
717.078	5.63251
719.97	6.16699
722.863	3.5468
725.756	5.29207
728.648	3.67778
731.541	2.53524
734.434	1.27476
737.327	0.403343
740.219	0.153198
743.112	1.25189
746.005	0.275986
748.897	0.67276
751.79	0.3349
754.683	0.07225
757.575	3.4462
760.468	2.69031
763.361	6.31653
766.254	8.19463
769.146	11.9923
772.039	12.0035
774.932	11.8299
777.824	11.9081
780.717	11.0908
783.61	9.68658
786.502	7.06581
789.395	7.05776
792.288	4.41661
795.181	2.77112
798.073	1.86501
800.966	5.03725
803.859	7.22902
806.751	12.8859
809.644	20.1893
812.537	25.4613
815.429	32.5262
818.322	40.991
821.215	47.7375
824.107	52.8058
827	59.1443
829.893	58.6785
832.786	65.0257
835.678	66.9428
838.571	71.054
841.464	72.2909
844.356	74.4152
847.249	69.8469
850.142	64.0846
853.034	53.5051
855.927	41.1636
858.82	28.4276
861.713	18.8452
864.605	12.6798
867.498	5.24556
870.391	1.82166
873.283	1.42915
876.176	1.53291
879.069	0.236115
881.962	2.30308
884.854	6.67038
887.747	11.1203
890.64	17.1379
893.532	15.1406
896.425	16.5101
899.318	12.6697
902.21	10.3364
905.103	7.72481
907.996	4.73602
910.889	4.44167
913.781	9.52261
916.674	17.7835
919.567	31.6333
922.459	41.0871
925.352	52.3243
928.245	56.3342
931.137	53.0445
934.03	44.9422
936.923	37.6799
939.816	25.3553
942.708	14.1328
945.601	7.88037
948.494	0.699661
951.386	3.29858
954.279	1.90749
957.172	0.157104
960.064	8.47615
962.957	22.0271
965.85	45.228
968.742	63.6468
971.635	70.2277
974.528	59.6718
977.421	50.7242
980.313	46.0371
983.206	42.4113
986.099	43.7186
988.991	46.0725
991.884	50.0389
994.777	48.7958
997.669	43.9827
1000.56	40.0459
1003.46	33.2266
1006.35	29.7086
1009.24	26.2838
1012.13	22.0341
1015.03	20.3334
1017.92	17.9806
1020.81	20.9359
1023.7	25.392
1026.6	28.8055
1029.49	33.0135
1032.38	35.9616
1035.28	35.3947
1038.17	35.2008
1041.06	33.1595
1043.95	29.392
1046.85	20.2679
1049.74	16.9726
1052.63	11.5036
1055.52	6.72034
1058.42	3.96649
1061.31	3.84703
1064.2	0.420273
1067.09	2.27447
1069.99	0.320786
1072.88	0.26001
1075.77	1.14915
1078.66	0.692047
1081.56	2.68346
1084.45	2.17519
1087.34	1.67907
1090.24	3.68387
1093.13	3.71562
1096.02	2.88374
1098.91	3.68668
1101.81	4.02633
1104.7	4.95854
1107.59	8.53557
1110.48	8.62677
1113.38	8.48569
1116.27	12.2832
1119.16	12.988
1122.06	15.9058
1124.95	16.1269
1127.84	17.5735
1130.73	16.2606
1133.63	15.9635
1136.52	10.8204
1139.41	5.49244
1142.3	4.65138
1145.2	2.92708
1148.09	4.30187
1150.98	1.7746
1153.88	1.99481
1156.77	2.01716
1159.66	1.06337
1162.55	0.334564
1165.45	0.506714
1168.34	0.154816
1171.23	2.62601
1174.12	0.792679
1177.02	2.06032
1179.91	1.72042
1182.8	0.985687
1185.69	2.43529
1188.59	3.32013
1191.48	4.07708
1194.37	1.66087
1197.27	3.09477
1200.16	3.55208
1203.05	2.36733
1205.94	4.4763
1208.84	3.59776
1211.73	1.7347
1214.62	3.69498
1217.52	0.857903
1220.41	1.4922
1223.3	2.60998
1226.19	2.72321
1229.09	2.95316
1231.98	1.92135
1234.87	4.11775
1237.76	3.53203
1240.66	4.51846
1243.55	1.87275
1246.44	2.21156
1249.33	4.04195
1252.23	3.29236
1255.12	2.86364
1258.01	0.111374
1260.9	0.428291
1263.8	0.265274
1266.69	2.46719
1269.58	0.119446
1272.48	1.96571
1275.37	2.86533
1278.26	4.27365
1281.15	3.1248
1284.05	3.56873
1286.94	2.21467
1289.83	2.48177
1292.72	1.80932
1295.62	5.06802
1298.51	2.75088
1301.4	0.839378
