Measurement: Raman, 780 nm, unoriented, Raman Data Processed
Mineral: Kupletskite
Rruff sample: R110176
Ideal chemistry: K_2_NaMn^2+^_7_Ti_2_(Si_4_O_12_)_2_O_2_(OH)_4_F
Locality: Mont St-Hilaire, Quebec, Canada
Source: Donald Doell
Description: Dark brown micaceous associated with orthoclase and aegirine
Raman shift (cm-1)	intensity
145.119	0
148.011	0.903198
150.904	2.7019
153.797	11.9167
156.689	10.7192
159.582	21.8704
162.475	31.6287
165.367	37.8801
168.26	44.9024
171.153	45.5671
174.046	38.2922
176.938	28.5413
179.831	17.7623
182.724	7.44775
185.616	2.42651
188.509	0.734985
191.402	2.91986
194.294	2.70166
197.187	0.720093
200.08	3.3913
202.972	11.0134
205.865	11.3217
208.758	13.6457
211.651	15.2954
214.543	23.3935
217.436	21.776
220.329	25.633
223.221	35.202
226.114	40.6895
229.007	48.4024
231.899	58.7059
234.792	72.3986
237.685	85.8213
240.578	94.9713
243.47	104.799
246.363	105.567
249.256	101.861
252.148	99.8971
255.041	91.0405
257.934	83.5343
260.827	84.3052
263.719	69.8766
266.612	53.7383
269.505	39.8024
272.397	24.3796
275.29	19.9243
278.183	10.849
281.075	11.6597
283.968	6.23956
286.861	3.55493
289.753	4.59015
292.646	5.55243
295.539	3.18573
298.432	2.61212
301.324	0.653198
304.217	0.744141
307.11	1.3075
310.002	0.912476
312.895	2.599
315.788	0.477661
318.68	3.29352
321.573	2.66687
324.466	6.19421
327.359	5.22931
330.251	6.67664
333.144	4.64154
336.037	8.43317
338.929	12.3619
341.822	16.1766
344.715	16.0388
347.608	20.9741
350.5	18.9448
353.393	21.8615
356.286	21.5432
359.178	24.4369
362.071	25.5829
364.964	24.6464
367.856	22.5176
370.749	22.2075
373.642	17.5547
376.534	12.7347
379.427	16.2496
382.32	13.4937
385.213	16.3379
388.105	19.7678
390.998	15.1694
393.891	19.4565
396.783	20.9694
399.676	19.8491
402.569	17.3546
405.462	19.0713
408.354	13.7855
411.247	14.6167
414.14	13.145
417.032	13.3488
419.925	13.4131
422.818	14.5231
425.71	11.7115
428.603	9.64691
431.496	4.69113
434.389	4.33249
437.281	4.94101
440.174	0.50824
443.067	1.22305
445.959	1.03183
448.852	0.760132
451.745	0.288788
454.637	2.24643
457.53	1.90332
460.423	9.11475
463.315	7.5802
466.208	10.1397
469.101	11.6506
471.994	13.8413
474.886	13.8297
477.779	11.7879
480.672	10.354
483.564	12.9047
486.457	11.1905
489.35	13.5438
492.243	12.181
495.135	12.5921
498.028	9.11795
500.921	8.77628
503.813	11.6549
506.706	7.87988
509.599	9.00378
512.491	6.27316
515.384	5.32864
518.277	2.3869
521.169	0.432739
524.062	1.81384
526.955	0.393555
529.848	3.14148
532.74	0.813416
535.633	2.86798
538.526	5.15024
541.418	5.84735
544.311	6.54199
547.204	10.6163
550.096	18.3872
552.989	24.7153
555.882	28.5616
558.775	29.6299
561.667	27.6267
564.56	22.4279
567.453	16.5944
570.345	12.3915
573.238	4.78598
576.131	5.45169
579.024	3.28101
581.916	1.6001
584.809	1.45425
587.702	0.350281
590.594	0.484253
593.487	3.45911
596.38	1.1564
599.272	1.10388
602.165	1.1626
605.058	0.283752
607.951	0.889435
610.843	2.17188
613.736	0.915741
616.629	1.63657
619.521	0.11972
622.414	3.33203
625.307	3.45023
628.199	4.49216
631.092	8.84448
633.985	8.81787
636.878	16.2314
639.77	20.2877
642.663	29.9615
645.556	39.1032
648.448	55.1349
651.341	76.8303
654.234	92.8099
657.126	91.4379
660.019	73.567
662.912	48.7865
665.804	36.1348
668.697	28.7839
671.59	26.6132
674.483	26.4085
677.375	29.0488
680.268	35.4702
683.161	43.3875
686.053	47.4655
688.946	49.7474
691.839	54.9364
694.731	52.9569
697.624	54.8858
700.517	57.1408
703.41	54.6765
706.302	57.0565
709.195	54.9616
712.088	54.2796
714.98	49.346
717.873	43.0638
720.766	39.4228
723.659	30.5519
726.551	26.8092
729.444	20.7581
732.337	18.0901
735.229	13.2209
738.122	5.00668
741.015	5.30685
743.907	0.395752
746.8	2.50156
749.693	0.975006
752.586	1.09491
755.478	1.54172
758.371	0.159729
761.264	0.948883
764.156	1.99316
767.049	3.15344
769.942	0.493958
772.834	2.58221
775.727	1.465
778.62	3.65833
781.513	3.89307
784.405	7.28009
787.298	4.30719
790.191	5.30017
793.083	5.49442
795.976	5.89062
798.869	0.585358
801.761	3.03445
804.654	1.85431
807.547	0.683594
810.439	0.191956
813.332	0.121643
816.225	0.24942
819.118	2.49072
822.01	1.86896
824.903	0.611206
827.796	1.85889
830.688	1.58633
833.581	1.3006
836.474	0.662384
839.366	0.919189
842.259	0.685303
845.152	3.38556
848.045	4.58923
850.937	2.98447
853.83	4.53403
856.723	3.39569
859.615	7.69971
862.508	5.84369
865.401	6.92798
868.293	7.2785
871.186	8.41733
874.079	10.8316
876.972	12.4703
879.864	17.2479
882.757	17.9044
885.65	22.9008
888.542	24.7198
891.435	30.0609
894.328	32.3251
897.221	38.2743
900.113	41.4891
903.006	46.7274
905.899	52.4165
908.791	58.6843
911.684	63.516
914.577	71.1082
917.469	73.3677
920.362	71.2661
923.255	73.5991
926.148	73.2124
929.04	73.9019
931.933	73.35
934.826	70.6337
937.718	66.0167
940.611	57.3924
943.504	47.2749
946.396	40.0957
949.289	35.6726
952.182	26.5897
955.074	23.677
957.967	15.0233
960.86	16.4452
963.753	14.1758
966.645	5.41937
969.538	5.28189
972.431	1.46655
975.323	0.662384
978.216	0.549835
981.109	2.08432
984.001	0.804199
986.894	1.2139
989.787	0.133759
992.68	0.633423
995.572	1.724
998.465	0.868774
1001.36	2.841
1004.25	2.80304
1007.14	3.9566
1010.04	2.4621
1012.93	6.03345
1015.82	7.96356
1018.71	5.50366
1021.61	8.91269
1024.5	9.1326
1027.39	12.3308
1030.29	14.2309
1033.18	13.3331
1036.07	17.5816
1038.96	15.8572
1041.86	11.961
1044.75	11.0808
1047.64	10.4435
1050.53	7.17303
1053.43	5.15186
1056.32	3.80704
1059.21	6.20944
1062.1	4.18967
1065	3.12918
1067.89	4.32828
1070.78	7.2721
1073.67	3.47376
1076.57	4.64163
1079.46	3.63959
1082.35	5.18805
1085.25	6.40088
1088.14	6.87561
1091.03	6.10968
1093.92	5.10654
1096.82	2.92899
1099.71	2.48935
1102.6	1.70868
1105.49	0.232819
1108.39	4.51898
1111.28	0.700378
1114.17	0.90036
1117.07	0.871216
1119.96	0.314026
1122.85	1.97049
1125.74	0.942505
1128.64	3.52423
1131.53	2.50943
1134.42	1.41605
1137.32	2.57849
1140.21	1.36014
1143.1	1.02884
1145.99	2.6424
1148.88	2.58569
1151.78	3.0412
1154.67	0.608612
1157.56	4.78613
1160.46	1.48853
1163.35	1.81131
1166.24	3.00552
1169.13	2.79871
1172.03	2.64053
1174.92	4.2077
1177.81	5.09045
1180.7	5.00827
1183.6	3.07669
1186.49	3.59711
1189.38	2.73196
1192.28	4.42123
1195.17	1.73575
1198.06	4.00812
1200.95	3.27649
1203.85	3.43088
1206.74	3.89114
1209.63	1.9975
1212.53	2.28207
1215.42	1.11969
1218.31	1.70032
1221.2	2.65717
1224.1	2.07004
1226.99	4.19049
1229.88	0.901306
1232.77	0.834076
1235.67	2.57346
1238.56	3.14041
1241.45	0.210327
1244.34	0.48996
1247.24	1.90112
1250.13	0.416382
1253.02	1.72403
1255.91	2.94028
1258.81	2.18338
1261.7	1.3923
1264.59	1.80905
1267.49	2.96951
1270.38	0.581268
1273.27	4.93265
1276.16	1.16095
1279.06	0.008575
1281.95	2.83106
1284.84	0.506073
