Measurement: Raman, 532 nm, unoriented, Raman Data Processed
Mineral: Kupletskite
Rruff sample: R110176
Ideal chemistry: K_2_NaMn^2+^_7_Ti_2_(Si_4_O_12_)_2_O_2_(OH)_4_F
Locality: Mont St-Hilaire, Quebec, Canada
Source: Donald Doell
Description: Dark brown micaceous associated with orthoclase and aegirine
Raman shift (cm-1)	intensity
192.701	0
195.594	0.446136
198.486	5.617
201.379	14.4999
204.272	11.7935
207.164	11.6656
210.057	20.0659
212.95	24.6251
215.843	33.001
218.735	41.4468
221.628	48.74
224.521	62.8574
227.413	72.1145
230.306	83.8372
233.199	97.2549
236.091	113.697
238.984	121.181
241.877	136.993
244.769	143.189
247.662	144.217
250.555	151.515
253.448	147.55
256.34	150.159
259.233	155.06
262.126	142.952
265.018	122.711
267.911	94.2639
270.804	65.4763
273.697	50.2026
276.589	28.8915
279.482	23.7113
282.375	10.3172
285.267	4.58652
288.16	0.714142
291.053	0.260895
293.945	0.794952
296.838	2.64923
299.731	0.812103
302.623	1.36453
305.516	1.08096
308.409	2.52811
311.302	1.64493
314.194	0.154999
317.087	3.54703
319.98	4.28571
322.872	3.00201
325.765	1.66138
328.658	2.4372
331.55	0.616699
334.443	4.81574
337.336	5.51184
340.229	12.8714
343.121	13.8503
346.014	13.7251
348.907	16.0112
351.799	17.3505
354.692	20.5981
357.585	14.1047
360.478	15.3916
363.37	20.3357
366.263	18.8084
369.156	21.0982
372.048	17.1564
374.941	13.2076
377.834	16.0463
380.726	12.2088
383.619	15.6303
386.512	22.2443
389.404	23.9792
392.297	26.6219
395.19	26.2712
398.083	34.0701
400.975	36.5334
403.868	39.4398
406.761	35.6762
409.653	35.9712
412.546	36.143
415.439	39.1301
418.332	39.2169
421.224	43.18
424.117	43.4049
427.01	40.0977
429.902	34.8764
432.795	25.516
435.688	17.5983
438.58	11.4928
441.473	2.00378
444.366	2.92206
447.259	1.2132
450.151	1.67282
453.044	0.622375
455.937	3.20291
458.829	1.08786
461.722	11.6213
464.615	11.785
467.507	12.355
470.4	14.1251
473.293	19.3462
476.185	13.276
479.078	16.7606
481.971	15.7739
484.864	18.4683
487.756	16.2907
490.649	17.4066
493.542	16.0175
496.434	20.534
499.327	15.0399
502.22	16.7435
505.113	15.9977
508.005	9.9516
510.898	10.1809
513.791	7.18411
516.683	2.81732
519.576	3.45712
522.469	1.65155
525.361	1.39874
528.254	4.41327
531.147	5.75812
534.04	1.19861
536.932	4.19208
539.825	6.38117
542.718	12.4431
545.61	21.0687
548.503	27.8151
551.396	40.1398
554.288	49.0919
557.181	50.8829
560.074	48.7303
562.967	44.046
565.859	34.8017
568.752	23.1916
571.645	19.6772
574.537	10.1842
577.43	5.02728
580.323	3.97461
583.216	6.10565
586.108	3.30563
589.001	3.06137
591.894	2.17651
594.786	3.29657
597.679	1.63086
600.572	0.840912
603.464	0.432129
606.357	1.90683
609.25	0.12677
612.142	0.986908
615.035	0.027161
617.928	3.27591
620.821	1.03625
623.713	1.48386
626.606	3.54407
629.499	4.7771
632.391	10.8406
635.284	16.1497
638.177	28.5153
641.069	36.852
643.962	54.9179
646.855	80.4465
649.747	112.194
652.64	140.42
655.533	159.872
658.426	147.456
661.318	112.713
664.211	77.9438
667.104	54.4298
669.996	43.9577
672.889	41.921
675.782	45.0849
678.674	53.6666
681.567	64.2168
684.46	76.1086
687.353	85.7098
690.245	97.747
693.138	100.007
696.031	104.046
698.923	106.391
701.816	108.795
704.709	104.686
707.601	104.683
710.494	108.195
713.387	103.522
716.28	98.6771
719.172	86.3088
722.065	74.1019
724.958	65.1586
727.85	51.3401
730.743	39.5904
733.636	27.6661
736.529	18.9061
739.421	10.6817
742.314	4.92389
745.207	3.39563
748.099	3.28192
750.992	0.959045
753.885	0.731384
756.777	2.33405
759.67	0.834534
762.563	4.32361
765.456	2.66284
768.348	5.86084
771.241	5.05627
774.134	9.05048
777.026	8.22443
779.919	14.9299
782.812	15.1511
785.704	12.3534
788.597	14.5335
791.49	13.6689
794.383	13.6491
797.275	13.083
800.168	4.07556
803.061	0.740967
805.953	3.3822
808.846	1.04529
811.739	5.66364
814.631	0.391357
817.524	1.349
820.417	3.63171
823.309	4.25458
826.202	0.849121
829.095	2.49744
831.988	2.91626
834.88	0.596313
837.773	1.81921
840.666	0.282837
843.558	1.4082
846.451	3.56635
849.344	2.04425
852.236	6.96668
855.129	12.5387
858.022	7.57989
860.915	15.4075
863.807	20.365
866.7	22.7683
869.593	28.382
872.485	37.1135
875.378	42.5482
878.271	51.8985
881.163	57.383
884.056	67.7292
886.949	78.7368
889.842	90.3177
892.734	103.055
895.627	120.271
898.52	133.813
901.412	154.031
904.305	173.154
907.198	192.867
910.091	216.12
912.983	233.778
915.876	249.134
918.769	259.509
921.661	263.921
924.554	269.176
927.447	266.124
930.339	265.505
933.232	258.873
936.125	247.232
939.018	227.576
941.91	200.87
944.803	170.92
947.696	140.095
950.588	114.984
953.481	94.7485
956.374	74.3063
959.266	56.8744
962.159	44.7398
965.052	32.4937
967.944	23.5345
970.837	13.8558
973.73	5.23358
976.623	0.088196
979.515	0.377747
982.408	2.41547
985.301	0.724487
988.193	0.881592
991.086	4.06964
993.979	1.33075
996.871	0.357361
999.764	0.631531
1002.66	2.89697
1005.55	6.68103
1008.44	9.21118
1011.34	13.6262
1014.23	24.4368
1017.12	28.0055
1020.01	38.336
1022.91	46.6196
1025.8	51.869
1028.69	55.311
1031.58	64.1227
1034.48	67.9083
1037.37	71.5898
1040.26	66.6578
1043.15	53.2908
1046.05	53.3151
1048.94	43.2421
1051.83	30.3888
1054.73	24.4188
1057.62	24.0403
1060.51	11.1502
1063.4	10.2567
1066.3	13.7871
1069.19	8.17487
1072.08	5.8067
1074.97	5.54767
1077.87	8.56061
1080.76	12.3525
1083.65	6.60742
1086.55	9.05579
1089.44	7.6073
1092.33	14.3329
1095.22	8.05054
1098.12	4.7135
1101.01	7.02283
1103.9	3.22852
1106.79	0.184387
1109.69	0.707581
1112.58	5.47241
1115.47	4.64648
1118.37	0.002197
1121.26	3.67102
1124.15	3.18866
1127.04	0.666443
1129.94	1.07007
1132.83	1.08221
1135.72	4.67212
1138.61	2.77039
1141.51	4.8797
1144.4	4.1308
1147.29	3.06549
1150.18	5.79987
1153.08	5.53888
1155.97	0.778564
1158.86	4.74103
1161.76	2.07355
1164.65	5.30725
1167.54	2.1767
1170.43	4.18396
1173.33	4.07581
1176.22	6.34235
1179.11	5.92975
1182	2.92853
1184.9	3.4198
1187.79	9.28961
1190.68	4.8346
1193.58	3.80548
1196.47	4.53082
1199.36	2.44446
1202.25	5.84491
1205.15	4.11755
1208.04	5.67133
1210.93	9.18744
1213.82	8.23498
1216.72	4.95654
1219.61	4.31525
1222.5	3.86096
1225.39	4.73901
1228.29	5.87842
1231.18	7.06683
1234.07	1.54608
1236.97	1.1842
1239.86	1.03955
1242.75	1.51892
1245.64	3.63751
1248.54	1.73401
1251.43	2.78357
1254.32	6.69806
1257.21	3.0321
1260.11	5.1557
1263	5.85077
1265.89	2.28955
1268.79	1.45667
1271.68	3.09711
1274.57	2.9906
1277.46	5.24493
1280.36	0.758728
1283.25	4.58179
1286.14	5.03931
1289.03	8.10693
1291.93	5.22449
1294.82	4.14862
1297.71	4.88092
1300.61	3.24725
