Measurement: Raman, 532 nm, unoriented, Raman Data Processed
Mineral: Kurchatovite
Rruff sample: R130074
Ideal chemistry: CaMgB_2_O_5_
Locality: Solongo B deposit, Vitim Plateau, Buriatia (Buryatia) Republic, Transbaikalia (Zabaykalye), Eastern-Siberian Region, Russia
Source: Igor Pekov
Description: Pale gray crystals with good cleavage, associated with white frolovite and yellow wurtzite
Raman shift (cm-1)	intensity
89.7832	0
93.158	30.8324
96.5328	37.8879
99.9077	15.2803
103.282	2.3009
106.657	39.2316
110.032	39.6066
113.407	62.0275
116.782	78.0044
120.157	83.6184
123.531	114.544
126.906	119.446
130.281	159.511
133.656	210.771
137.031	246.701
140.405	213.633
143.78	185.499
147.155	161.612
150.53	129.31
153.905	160.092
157.28	216.579
160.654	228.901
164.029	143.001
167.404	101.889
170.779	99.3043
174.154	115.622
177.528	143.512
180.903	158.761
184.278	160.662
187.653	145.504
191.028	99.3291
194.403	66.2839
197.777	61.0008
201.152	62.0146
204.527	56.3663
207.902	54.6417
211.277	52.5867
214.651	34.8141
218.026	6.79376
221.401	11.8184
224.776	11.5449
228.151	0.700317
231.525	1.67346
234.9	6.02753
238.275	22.2489
241.65	28.3124
245.025	25.2568
248.4	10.2372
251.774	9.18982
255.149	23.6821
258.524	44.926
261.899	63.441
265.274	81.4467
268.649	102.284
272.023	111.923
275.398	96.1713
278.773	84.0277
282.148	58.994
285.523	49.4619
288.897	52.7045
292.272	71.0102
295.647	93.1619
299.022	99.6273
302.397	112.799
305.772	124.43
309.146	116.436
312.521	74.9647
315.896	43.0633
319.271	28.7288
322.646	27.7932
326.02	30.6878
329.395	36.1724
332.77	38.3872
336.145	49.4835
339.52	56.9705
342.894	54.676
346.269	50.8788
349.644	60.292
353.019	73.1672
356.394	76.8043
359.769	66.5117
363.143	59.2053
366.518	48.9617
369.893	36.1951
373.268	29.066
376.643	15.5497
380.017	9.073
383.392	3.87488
386.767	2.5954
390.142	0.158264
393.517	2.38599
396.892	0.058899
400.266	0.38739
403.641	3.99078
407.016	4.26886
410.391	5.52136
413.766	0.466675
417.14	8.42896
420.515	12.4328
423.89	14.1495
427.265	18.5695
430.64	23.1733
434.014	25.0956
437.389	25.9983
440.764	36.3982
444.139	40.1556
447.514	44.7976
450.889	52.5782
454.263	76.2121
457.638	101.733
461.013	117.992
464.388	116.614
467.763	104.085
471.137	89.2929
474.512	96.7133
477.887	92.9908
481.262	106.445
484.637	142.222
488.012	160.537
491.386	171.542
494.761	162.397
498.136	180.96
501.511	181.448
504.886	166.77
508.26	119.753
511.635	70.6902
515.01	41.1668
518.385	21.765
521.76	10.9351
525.135	1.85126
528.509	0.188599
531.884	1.50385
535.259	0.494385
538.634	0.21637
542.009	0.701355
545.384	2.48523
548.758	1.58691
552.133	0.284668
555.508	2.78918
558.883	0.743774
562.258	0.140442
565.632	1.09796
569.007	0.799377
572.382	1.08667
575.757	3.90326
579.132	5.80469
582.506	10.1856
585.881	18.8276
589.256	20.9698
592.631	28.1689
596.006	34.1324
599.381	50.8176
602.755	71.9979
606.13	90.9336
609.505	122.612
612.88	165.142
616.255	187.722
619.63	162.812
623.004	145.172
626.379	151.757
629.754	169.836
633.129	183.912
636.504	175.214
639.878	147.663
643.253	104.082
646.628	69.5797
650.003	58.1857
653.378	46.5716
656.752	39.5211
660.127	37.6324
663.502	30.9692
666.877	27.414
670.252	20.1152
673.626	14.0311
677.001	6.14453
680.376	0.053162
683.751	0.447205
687.126	2.25147
690.501	2.3349
693.875	4.12817
697.25	3.39716
700.625	0.491394
704	6.35022
707.375	11.2413
710.75	22.6204
714.124	42.0422
717.499	76.5173
720.874	148.561
724.249	250.23
727.624	353.433
730.998	499.746
734.373	591.859
737.748	344.173
741.123	216.554
744.498	263.766
747.872	323.337
751.247	243.864
754.622	180.684
757.997	166.169
761.372	166.919
764.747	155.11
768.121	129.209
771.496	99.3724
774.871	79.4368
778.246	78.4351
781.621	92.8584
784.995	90.3916
788.37	58.5175
791.745	16.0594
795.12	7.20496
798.495	6.96765
801.87	1.91296
805.244	12.9929
808.619	34.3831
811.994	50.0043
815.369	78.8204
818.744	115.711
822.119	186.034
825.493	313.927
828.868	543.622
832.243	897.787
835.618	1423.52
838.993	1952.05
842.367	2005.47
845.742	1934.53
849.117	1992.38
852.492	1795.83
855.867	1279.32
859.241	809.437
862.616	500.431
865.991	310.168
869.366	190.821
872.741	120.936
876.115	87.2825
879.49	57.3677
882.865	39.0842
886.24	25.8918
889.615	21.5601
892.99	17.3187
896.364	13.3561
899.739	9.94397
903.114	7.33234
906.489	5.79864
909.864	2.55432
913.239	1.7605
916.613	2.29083
919.988	2.55829
923.363	0.843384
926.738	4.78198
930.113	1.41974
933.487	2.7807
936.862	1.54834
940.237	1.9856
943.612	3.07867
946.987	6.98444
950.361	9.33087
953.736	9.34393
957.111	10.8681
960.486	16.9168
963.861	25.7824
967.236	39.3625
970.61	55.7963
973.985	73.6786
977.36	74.1917
980.735	71.4196
984.11	70.2215
987.485	70.7988
990.859	66.5945
994.234	50.5435
997.609	44.2539
1000.98	52.005
1004.36	52.3346
1007.73	48.2855
1011.11	50.5018
1014.48	50.3603
1017.86	48.4641
1021.23	46.1128
1024.61	45.7385
1027.98	55.2803
1031.36	53.6242
1034.73	55.6553
1038.11	54.2089
1041.48	46.9358
1044.86	39.5809
1048.23	29.3105
1051.61	20.3516
1054.98	29.4757
1058.36	3.97266
1061.73	2.06824
1065.11	4.23291
1068.48	1.68372
1071.86	3.32666
1075.23	4.35461
1078.6	6.5387
1081.98	1.78015
1085.35	0.276123
1088.73	3.81433
1092.1	13.7671
1095.48	16.5996
1098.85	25.2701
1102.23	31.9501
1105.6	39.533
1108.98	51.3032
1112.35	61.6679
1115.73	66.4232
1119.1	53.199
1122.48	37.8463
1125.85	22.8048
1129.23	13.5708
1132.6	12.9966
1135.98	20.0884
1139.35	32.9424
1142.73	58.4647
1146.1	77.1924
1149.48	106.26
1152.85	131.056
1156.22	137.7
1159.6	120.072
1162.97	97.9102
1166.35	80.6028
1169.72	69.8147
1173.1	61.8837
1176.47	55.4584
1179.85	49.356
1183.22	45.7361
1186.6	47.8033
1189.97	47.0721
1193.35	49.0298
1196.72	52.6439
1200.1	50.9012
1203.47	58.8462
1206.85	60.7095
1210.22	62.2505
1213.6	61.1803
1216.97	53.7898
1220.35	53.4471
1223.72	47.9369
1227.1	40.9676
1230.47	36.5485
1233.85	28.37
1237.22	19.0343
1240.6	6.78076
1243.97	2.32214
1247.35	3.81433
1250.72	3.12146
1254.1	3.79834
1257.47	1.99853
1260.85	6.05969
1264.22	4.15295
1267.59	19.179
1270.97	54.1157
1274.34	111.437
1277.72	171.737
1281.09	251.456
1284.47	255.72
1287.84	128.842
1291.22	56.2725
1294.59	84.8068
1297.97	65.1295
1301.34	0.395264
