Measurement: Raman, 780 nm, unoriented, Raman Data Processed
Mineral: Kurchatovite
Rruff sample: R130074
Ideal chemistry: CaMgB_2_O_5_
Locality: Solongo B deposit, Vitim Plateau, Buriatia (Buryatia) Republic, Transbaikalia (Zabaykalye), Eastern-Siberian Region, Russia
Source: Igor Pekov
Description: Pale gray crystals with good cleavage, associated with white frolovite and yellow wurtzite
Raman shift (cm-1)	intensity
90.5957	0
93.9705	15.9587
97.3453	12.7085
100.72	1.79212
104.095	3.37717
107.47	5.2728
110.845	0.830833
114.219	0.834938
117.594	0.298759
120.969	0.832504
124.344	1.18791
127.719	2.47706
131.094	5.73608
134.468	11.6353
137.843	11.7144
141.218	7.15375
144.593	5.88625
147.968	3.09731
151.342	5.10269
154.717	11.2116
158.092	18.1262
161.467	13.3116
164.842	7.26307
168.216	4.86619
171.591	5.7013
174.966	7.97606
178.341	10.781
181.716	12.2366
185.09	13.3192
188.465	10.8492
191.84	5.25961
195.215	4.13523
198.59	5.14571
201.965	4.4315
205.339	3.6101
208.714	4.80921
212.089	4.67133
215.464	1.73434
218.839	0.467289
222.214	0.560352
225.588	0.198589
228.963	0.07806
232.338	1.02634
235.713	1.85207
239.088	3.39265
242.462	4.17049
245.837	4.07022
249.212	2.66184
252.587	3.12899
255.962	3.22194
259.336	5.98338
262.711	7.30534
266.086	9.46166
269.461	10.5019
272.836	10.2713
276.211	8.27192
279.585	5.47155
282.96	5.01651
286.335	3.1428
289.71	4.43007
293.085	5.94669
296.459	7.93053
299.834	8.78444
303.209	10.0595
306.584	10.7596
309.959	8.29305
313.334	4.41324
316.708	1.84586
320.083	0.991196
323.458	0.769173
326.833	0.964924
330.207	1.6314
333.582	2.17024
336.957	2.45822
340.332	2.6022
343.707	2.02444
347.082	1.2568
350.456	1.88448
353.831	2.75272
357.206	3.04887
360.581	1.53353
363.956	2.251
367.33	2.07516
370.705	1.73086
374.08	1.05345
377.455	0.794937
380.83	0.127974
384.205	0.059511
387.579	0.039555
390.954	0.04793
394.329	0.323643
397.704	0.54958
401.079	0.126621
404.453	0.062077
407.828	0.523792
411.203	0.170052
414.578	0.01436
417.953	0.213692
421.327	0.68325
424.702	0.504257
428.077	1.2153
431.452	1.54573
434.827	1.48042
438.202	2.62616
441.576	2.6192
444.951	2.39502
448.326	2.81544
451.701	3.28649
455.076	4.54629
458.45	6.05992
461.825	6.87837
465.2	6.4114
468.575	6.03548
471.95	5.21506
475.325	5.39901
478.699	5.39354
482.074	6.59066
485.449	7.99237
488.824	8.67364
492.199	8.48154
495.573	8.74529
498.948	9.54395
502.323	9.78713
505.698	7.93812
509.073	5.4251
512.447	2.69146
515.822	1.60588
519.197	0.940508
522.572	0.670069
525.947	0.106476
529.322	0.095886
532.696	0.112452
536.071	0.368164
539.446	0.243414
542.821	0.337852
546.196	0.173971
549.57	0.434879
552.945	0.126863
556.32	0.152527
559.695	0.536154
563.07	0.533722
566.444	0.844534
569.819	1.25288
573.194	1.00283
576.569	0.934477
579.944	1.2463
583.319	1.28547
586.693	0.935837
590.068	1.58711
593.443	1.5239
596.818	1.85945
600.193	1.81224
603.567	3.11383
606.942	3.45824
610.317	5.60795
613.692	7.2277
617.067	7.72912
620.442	5.84137
623.816	5.45235
627.191	6.66729
630.566	7.08323
633.941	8.26714
637.316	7.669
640.69	5.68661
644.065	4.71292
647.44	2.89625
650.815	2.63226
654.19	1.98478
657.564	2.19779
660.939	1.50177
664.314	1.03553
667.689	1.09448
671.064	0.551735
674.439	0.398554
677.813	0.276615
681.188	0.150248
684.563	0.438335
687.938	0.053822
691.313	0.250622
694.688	0.245304
698.062	0.205772
701.437	0.042376
704.812	0.740889
708.187	1.0386
711.562	1.3236
714.936	1.96721
718.311	3.33395
721.686	6.62064
725.061	9.3207
728.436	15.9978
731.81	28.2502
735.185	27.897
738.56	10.2776
741.935	8.03217
745.31	13.302
748.684	14.1666
752.059	8.68929
755.434	6.23582
758.809	6.0123
762.184	6.00568
765.559	4.7743
768.933	5.16861
772.308	3.19134
775.683	2.49912
779.058	2.41682
782.433	3.74339
785.808	3.46673
789.182	2.12978
792.557	0.044167
795.932	0.219881
799.307	0.2792
802.682	0.019043
806.056	0.708473
809.431	1.25524
812.806	1.84237
816.181	2.82848
819.556	4.66101
822.93	7.36271
826.305	11.6421
829.68	19.3191
833.055	34.503
836.43	62.1665
839.804	78.184
843.179	71.0408
846.554	72.725
849.929	76.7239
853.304	63.7436
856.679	40.8675
860.053	25.5635
863.428	15.9538
866.803	10.3932
870.178	5.97279
873.553	4.47415
876.927	2.97826
880.302	1.93226
883.677	1.88007
887.052	1.56068
890.427	1.13189
893.802	0.918663
897.176	0.6761
900.551	0.763748
903.926	0.319061
907.301	0.372993
910.676	0.243449
914.05	0.402685
917.425	0.246364
920.8	0.131443
924.175	0.13511
927.55	0.305262
930.924	0.065597
934.299	0.143188
937.674	0.497674
941.049	0.147568
944.424	0.312984
947.799	0.019464
951.173	0.010883
954.548	0.490252
957.923	0.318363
961.298	1.37071
964.673	0.977739
968.047	1.43351
971.422	2.34115
974.797	2.87881
978.172	2.31701
981.547	2.33026
984.922	1.83566
988.296	2.03393
991.671	1.18557
995.046	1.49471
998.421	1.69941
1001.8	1.41101
1005.17	1.23646
1008.54	1.08468
1011.92	1.49579
1015.29	1.6655
1018.67	1.7706
1022.04	1.34675
1025.42	1.29463
1028.79	1.43184
1032.17	1.78962
1035.54	1.23764
1038.92	1.55101
1042.29	1.06641
1045.67	0.772643
1049.04	0.352421
1052.42	0.520627
1055.79	0.505929
1059.17	0.082016
1062.54	0.266313
1065.92	0.148772
1069.29	0.109041
1072.67	0.074022
1076.04	0.38749
1079.42	0.088127
1082.79	0.19615
1086.17	0.077738
1089.54	0.425325
1092.92	0.364586
1096.29	0.489576
1099.66	1.07158
1103.04	0.896231
1106.41	0.991405
1109.79	1.26909
1113.16	1.72013
1116.54	1.46854
1119.91	0.559237
1123.29	0.647671
1126.66	0.543299
1130.04	0.041239
1133.41	0.120031
1136.79	0.382965
1140.16	0.301346
1143.54	0.859852
1146.91	1.74326
1150.29	2.83174
1153.66	3.63639
1157.04	3.74665
1160.41	2.3461
1163.79	2.28992
1167.16	1.83604
1170.54	1.67796
1173.91	1.77352
1177.29	1.69079
1180.66	2.70403
1184.04	3.20046
1187.41	3.87627
1190.79	4.0052
1194.16	5.29639
1197.54	5.34344
1200.91	6.32885
1204.28	6.25547
1207.66	6.74603
1211.03	6.38691
1214.41	6.00171
1217.78	5.14971
1221.16	4.04451
1224.53	2.78285
1227.91	1.69181
1231.28	1.10277
1234.66	0.66263
1238.03	0.297035
1241.41	0.248009
1244.78	0.446518
1248.16	0.175148
1251.53	0.403187
1254.91	0.446388
1258.28	0.57259
1261.66	0.50391
1265.03	0.360474
1268.41	0.588654
1271.78	0.384312
1275.16	1.00611
1278.53	1.40352
1281.9	2.78519
