Measurement: Raman, 780 nm, unoriented, Raman Data Processed
Mineral: Kurnakovite
Rruff sample: R050393
Ideal chemistry: MgB_3_O_3_(OH)_5_5H_2_O
Locality: Kramer deposit, Boron, Kern County, California, USA
Source: Marcus Origlieri
Description: Colorless to gray cleavage fragment
Measured chemistry: Mg_1.00_B_3_O_3_(OH)_5_·5H_2_O ; = lighter phase. The darker phase: (Mg_0.97_Al_0.02_[box]_0.01_)_Σ=1_B_3_O_3_(OH)_5_·5H_2_O ; B not measured but estimated by stoichiometry
Raman shift (cm-1)	intensity
125.79	0
128.682	32.9587
131.575	181.626
134.468	286.603
137.36	135.315
140.253	10.4611
143.146	0.141266
146.038	52.9177
148.931	133.648
151.824	129.687
154.716	102.505
157.609	130.691
160.502	203.502
163.395	317.997
166.287	456.27
169.18	415.134
172.073	305.02
174.965	228.633
177.858	174.491
180.751	116.217
183.643	88.5392
186.536	112.2
189.429	156.716
192.322	174.485
195.214	113.589
198.107	45.7695
201	9.50552
203.892	3.24365
206.785	9.4696
209.678	2.0592
212.571	13.4737
215.463	30.799
218.356	40.9231
221.249	44.0297
224.141	60.9023
227.034	94.7467
229.927	136.853
232.819	148.399
235.712	112.777
238.605	68.6072
241.498	51.9844
244.39	49.3563
247.283	53.2729
250.176	63.3766
253.068	82.9256
255.961	105.469
258.854	103.227
261.746	61.8991
264.639	37.0607
267.532	21.4924
270.425	15.7787
273.317	22.0312
276.21	35.9471
279.103	57.5389
281.995	77.8056
284.888	80.6102
287.781	58.2972
290.673	19.9081
293.566	0.78299
296.459	9.72861
299.351	13.162
302.244	4.26141
305.137	7.02652
308.03	20.4063
310.922	37.9177
313.815	56.6341
316.708	92.3159
319.6	140.975
322.493	193.009
325.386	235.499
328.279	259.909
331.171	236.79
334.064	184.989
336.957	146.975
339.849	131.324
342.742	129.489
345.635	143.383
348.527	159.917
351.42	187.309
354.313	223.925
357.205	237.074
360.098	200.553
362.991	146.976
365.884	117.377
368.776	106.754
371.669	118.58
374.562	132.648
377.454	148.33
380.347	157.352
383.24	143.841
386.132	101.666
389.025	61.1934
391.918	39.1694
394.81	34.7818
397.703	36.1598
400.596	51.2987
403.489	63.6578
406.381	85.3991
409.274	105.656
412.167	138.681
415.059	192.308
417.952	238.181
420.845	244.369
423.738	187.984
426.63	106.874
429.523	50.8254
432.416	20.4565
435.308	0.053558
438.201	7.19833
441.094	9.24934
443.986	4.76825
446.879	4.36351
449.772	1.86557
452.665	10.5165
455.557	16.7248
458.45	38.3983
461.343	65.902
464.235	111.138
467.128	141.092
470.021	136.31
472.913	102.518
475.806	63.9779
478.699	41.2362
481.592	30.5439
484.484	30.3171
487.377	33.9335
490.27	39.8569
493.162	47.5626
496.055	51.5773
498.948	54.0347
501.841	55.0328
504.733	52.9939
507.626	39.4367
510.519	26.7116
513.411	24.7279
516.304	17.526
519.197	15.7045
522.089	10.1772
524.982	15.1081
527.875	19.0881
530.768	26.2164
533.66	31.8413
536.553	35.3572
539.446	36.6334
542.338	41.3656
545.231	42.3725
548.124	47.2252
551.016	49.0931
553.909	53.2648
556.802	46.6115
559.694	41.3778
562.587	27.1629
565.48	14.6618
568.373	7.20354
571.265	4.77246
574.158	0.344818
577.051	2.7812
579.943	3.1926
582.836	3.61533
585.729	2.66591
588.621	0.797546
591.514	1.29205
594.407	6.02148
597.299	10.7957
600.192	21.4092
603.085	31.8233
605.978	44.354
608.87	59.5657
611.763	90.3365
614.656	123.344
617.548	173.8
620.441	237.57
623.334	311.416
626.226	391.428
629.119	435.624
632.012	426.771
634.905	366.764
637.797	283.54
640.69	212.146
643.583	149.288
646.475	113.159
649.368	80.8532
652.261	58.4564
655.154	45.8887
658.046	34.0193
660.939	24.3384
663.832	20.4237
666.724	16.626
669.617	15.0773
672.51	14.4626
675.402	6.13441
678.295	2.1206
681.188	1.52411
684.081	0.859436
686.973	0.147903
689.866	1.26446
692.759	0.497726
695.651	0.107986
698.544	0.120728
701.437	1.35463
704.329	2.04579
707.222	3.88042
710.115	5.24171
713.008	12.0939
715.9	15.4879
718.793	22.602
721.686	31.233
724.578	45.1121
727.471	60.0499
730.364	90.8534
733.256	112.816
736.149	130.497
739.042	133.587
741.934	118.942
744.827	92.7994
747.72	72.0598
750.613	54.8446
753.505	43.5673
756.398	34.6354
759.291	31.1576
762.183	24.2098
765.076	22.8418
767.969	19.8624
770.861	15.8573
773.754	15.4482
776.647	18.4574
779.54	22.9549
782.432	24.0598
785.325	32.2377
788.218	38.0799
791.11	42.8573
794.003	43.4306
796.896	48.0854
799.788	48.8783
802.681	52.1525
805.574	44.8207
808.467	35.9363
811.359	33.1009
814.252	27.0874
817.145	21.2198
820.037	14.6714
822.93	12.1565
825.823	8.74278
828.716	5.71506
831.608	6.28448
834.501	2.93588
837.394	0.182892
840.286	1.89964
843.179	1.30956
846.072	1.69981
848.964	3.69161
851.857	3.00864
854.75	1.41891
857.643	0.656898
860.535	1.66262
863.428	1.33674
866.321	6.74113
869.213	8.22484
872.106	6.50407
874.999	9.66727
877.891	8.63223
880.784	7.59145
883.677	4.85393
886.569	2.72993
889.462	6.96461
892.355	0.226799
895.248	6.03111
898.14	0.392456
901.033	0.617645
903.926	1.38945
906.818	1.43853
909.711	4.11567
912.604	6.9203
915.496	10.9779
918.389	9.19266
921.282	15.8511
924.175	9.71384
927.067	4.16806
929.96	9.14012
932.853	3.5621
935.745	5.94234
938.638	7.64504
941.531	12.4464
944.423	17.5086
947.316	20.5794
950.209	22.0399
953.102	25.0355
955.994	30.428
958.887	31.0491
961.78	23.8646
964.672	18.2598
967.565	13.685
970.458	6.43034
973.351	4.24234
976.243	3.15212
979.136	3.83222
982.029	1.6201
984.921	4.89834
987.814	1.61417
990.707	7.92797
993.599	5.4
996.492	5.06032
999.385	9.3267
1002.28	9.22957
1005.17	9.58504
1008.06	5.5398
1010.96	6.10666
1013.85	10.4661
1016.74	7.49321
1019.63	5.88277
1022.53	4.24504
1025.42	7.07542
1028.31	13.1092
1031.2	11.8965
1034.1	13.3542
1036.99	13.0843
1039.88	21.3885
1042.78	17.3112
1045.67	16.4286
1048.56	23.1649
1051.45	21.1208
1054.35	23.9966
1057.24	19.7404
1060.13	25.6769
1063.02	10.1551
1065.92	12.1262
1068.81	2.34167
1071.7	5.33766
1074.6	6.95165
1077.49	5.09196
1080.38	5.98409
1083.27	11.5459
1086.17	18.5222
1089.06	19.7183
1091.95	30.7357
1094.84	31.9126
1097.74	24.0796
1100.63	21.9951
1103.52	25.0505
1106.41	24.3308
1109.31	25.1628
1112.2	25.0411
1115.09	22.8792
1117.98	17.3137
1120.88	14.3604
1123.77	6.43648
1126.66	14.077
1129.56	10.8592
1132.45	3.55139
1135.34	6.35907
1138.23	1.64317
1141.13	13.4571
1144.02	15.5019
1146.91	8.97119
1149.81	20.0433
1152.7	16.7352
1155.59	11.4011
1158.48	23.1845
1161.38	23.5135
1164.27	29.6391
1167.16	31.3512
1170.05	27.8388
1172.95	16.1616
1175.84	17.9108
1178.73	15.9732
1181.62	8.48448
1184.52	13.0564
1187.41	18.3684
1190.3	14.6025
1193.2	5.28743
1196.09	7.12241
1198.98	2.58092
1201.87	7.14728
1204.77	0.554047
1207.66	2.55948
1210.55	1.76273
1213.44	13.2736
1216.34	16.0085
1219.23	28.4512
1222.12	34.3429
1225.02	24.9381
1227.91	23.4943
1230.8	27.9386
1233.69	24.7178
1236.59	22.1993
1239.48	28.7621
1242.37	25.2156
1245.26	12.2554
1248.16	15.2088
1251.05	15.6994
1253.94	20.2548
1256.84	15.8905
1259.73	13.4151
1262.62	3.26639
1265.51	0.187637
