Measurement: Raman, 780 nm, unoriented, Raman Data Processed
Mineral: Kurnakovite
Rruff sample: R050105
Ideal chemistry: MgB_3_O_3_(OH)_5_5H_2_O
Locality: Kramer deposit, Boron, Kern County, California, USA
Source: Rock Currier
Description: Tabular single crystal
Measured chemistry: MgB_3_O_3_(OH)_5_Â·5H_2_O
Raman shift (cm-1)	intensity
93.9173	0
97.2921	302.685
100.667	2123.42
104.042	1755.41
107.417	876.305
110.791	725.677
114.166	939.827
117.541	1877.92
120.916	2269.95
124.291	1242.67
127.665	923.931
131.04	1535.76
134.415	1911.76
137.79	650.646
141.165	23.7894
144.54	0.846191
147.914	425.481
151.289	354.749
154.664	42.1827
158.039	25.8462
161.414	180.416
164.788	565.831
168.163	876.94
171.538	884.755
174.913	918.463
178.288	780.468
181.663	304.929
185.037	148.707
188.412	157.988
191.787	186.171
195.162	49.5823
198.537	52.8629
201.911	64.5574
205.286	61.1051
208.661	54.0195
212.036	174.72
215.411	360.135
218.786	314.207
222.16	301.072
225.535	369.027
228.91	613.655
232.285	697.829
235.66	467.143
239.035	281.476
242.409	254.58
245.784	328.658
249.159	490.772
252.534	767.216
255.909	1046.23
259.283	722.26
262.658	271.339
266.033	35.1726
269.408	15.801
272.783	34.7316
276.158	177.213
279.532	322.777
282.907	433.308
286.282	379.61
289.657	108.313
293.032	24.2468
296.406	72.731
299.781	6.45984
303.156	101.819
306.531	167.564
309.906	148.847
313.281	153.34
316.655	290.29
320.03	449.323
323.405	600.823
326.78	713.929
330.154	612.492
333.529	440.002
336.904	412.028
340.279	531.019
343.654	806.269
347.029	1083.25
350.404	1489.79
353.778	1957.54
357.153	2121.54
360.528	1638.47
363.903	1082.34
367.278	863.602
370.652	817.425
374.027	815.815
377.402	886.338
380.777	817.947
384.152	638.982
387.526	432.324
390.901	288.732
394.276	232.658
397.651	249.128
401.026	269.346
404.401	332.559
407.775	443.766
411.15	616.652
414.525	968.467
417.9	1264.58
421.275	1204.9
424.649	759.004
428.024	365.439
431.399	134.267
434.774	17.0226
438.149	67.5331
441.524	84.0531
444.898	8.02887
448.273	16.9276
451.648	122.146
455.023	325.109
458.398	626.245
461.772	1020.3
465.147	1508.33
468.522	1596.53
471.897	1183.5
475.272	705.141
478.647	408.243
482.021	225.496
485.396	129.981
488.771	101.261
492.146	77.8483
495.521	89.657
498.895	66.5184
502.27	37.3767
505.645	1.72241
509.02	11.5725
512.395	11.8443
515.769	6.04279
519.144	36.6537
522.519	37.8348
525.894	36.1276
529.269	68.4184
532.644	106.339
536.018	120.833
539.393	212.531
542.768	255.312
546.143	373.421
549.518	522.939
552.893	670.256
556.267	764.823
559.642	716.335
563.017	463.927
566.392	256.71
569.767	115.866
573.141	12.1166
576.516	10.9385
579.891	12.1616
583.266	55.5646
586.641	187.613
590.016	238.225
593.39	234.525
596.765	131.071
600.14	76.7722
603.515	111.614
606.89	194.383
610.264	297.276
613.639	538.827
617.014	863.568
620.389	1332.47
623.764	1871.03
627.139	2355.03
630.513	2468.07
633.888	2027.25
637.263	1507.01
640.638	1021.29
644.013	687.291
647.388	468.141
650.762	364.434
654.137	243.242
657.512	168.209
660.887	120.541
664.261	100.993
667.636	81.1703
671.011	29.0723
674.386	29.1583
677.761	0.817993
681.136	9.82455
684.51	10.9971
687.885	15.1581
691.26	10.2318
694.635	16.6853
698.01	0.56958
701.385	3.50092
704.759	17.0857
708.134	42.0412
711.509	39.4018
714.884	106.071
718.259	152.937
721.633	229.507
725.008	388.565
728.383	551.63
731.758	749.402
735.133	902.386
738.508	889.034
741.882	792.867
745.257	614.047
748.632	502.226
752.007	378.167
755.382	341.197
758.756	292.335
762.131	236.709
765.506	227.431
768.881	183.814
772.256	169.806
775.63	175.563
779.005	164.364
782.38	179.661
785.755	166.117
789.13	199.406
792.505	232.588
795.88	247.753
799.254	273.205
802.629	248.069
806.004	243.26
809.379	225.523
812.754	226.14
816.128	150.172
819.503	93.8042
822.878	65.0669
826.253	31.0605
829.628	5.96713
833.002	11.2775
836.377	1.11032
839.752	16.1192
843.127	4.81772
846.502	0.838837
849.876	13.0305
853.251	4.31867
856.626	0.255737
860.001	20.5063
863.376	45.7319
866.751	38.9095
870.125	64.4135
873.5	40.5653
876.875	38.3117
880.25	38.8835
883.625	15.953
887	42.1368
890.374	34.7016
893.749	43.1369
897.124	49.704
900.499	58.1882
903.874	80.8396
907.248	94.2773
910.623	130.359
913.998	166.324
917.373	173.79
920.748	176.442
924.122	141.625
927.497	105.678
930.872	78.4399
934.247	73.7757
937.622	72.2931
940.997	80.8671
944.371	62.7341
947.746	65.871
951.121	55.2828
954.496	57.7166
957.871	47.8965
961.245	56.9442
964.62	51.2822
967.995	29.7856
971.37	12.1138
974.745	17.927
978.12	0.492798
981.494	13.9342
984.869	9.41211
988.244	16.7152
991.619	16.856
994.994	14.1201
998.369	33.9257
1001.74	36.4568
1005.12	25.8719
1008.49	19.9488
1011.87	9.12515
1015.24	17.7625
1018.62	20.4127
1021.99	0.285522
1025.37	13.08
1028.74	33.7171
1032.12	31.9756
1035.49	53.8283
1038.87	44.507
1042.24	58.4439
1045.62	67.1813
1048.99	39.5984
1052.37	19.9325
1055.74	31.8162
1059.12	19.4085
1062.49	33.666
1065.87	22.3183
1069.24	11.4965
1072.62	15.0651
1075.99	4.61841
1079.36	9.62967
1082.74	0.870117
1086.11	21.1254
1089.49	37.955
1092.86	47.767
1096.24	69.8133
1099.61	82.3905
1102.99	101.865
1106.36	119.776
1109.74	138.043
1113.11	145.661
1116.49	138.872
1119.86	131.265
1123.24	106.06
1126.61	112.365
1129.99	100.028
1133.36	73.9726
1136.74	57.8581
1140.11	55.9327
1143.49	63.5825
1146.86	29.3815
1150.23	38.2254
1153.61	40.7526
1156.98	33.0519
1160.36	37.2126
1163.73	17.1052
1167.11	8.68799
1170.48	17.3846
1173.86	6.42297
1177.23	8.64331
1180.61	18.2257
1183.98	3.14859
1187.36	17.9623
1190.73	14.3168
1194.11	7.15605
1197.48	0.507019
1200.86	16.6335
1204.23	3.46957
1207.61	10.5605
1210.98	16.4004
1214.36	28.6925
1217.73	19.5441
1221.11	16.5627
1224.48	18.1212
1227.86	0.919479
1231.23	0.697617
1234.61	23.8706
1237.98	19.4191
1241.36	0.601273
1244.73	31.5868
1248.11	0.497284
1251.48	22.1746
1254.86	25.2429
1258.23	28.2823
1261.6	14.8209
1264.98	33.3578
1268.35	18.9368
1271.73	3.63055
1275.1	24.8713
1278.48	17.7889
