Measurement: Raman, 514 nm, unoriented, Raman Data Processed
Mineral: Kurnakovite
Rruff sample: R050105
Ideal chemistry: MgB_3_O_3_(OH)_5_5H_2_O
Locality: Kramer deposit, Boron, Kern County, California, USA
Source: Rock Currier
Description: Tabular single crystal
Measured chemistry: MgB_3_O_3_(OH)_5_Â·5H_2_O
Raman shift (cm-1)	intensity
96.161	0
100.34	1266.05
104.516	1092.14
108.691	92.942
112.864	33.018
117.034	439.84
121.203	982.999
125.369	595.666
129.534	844.801
133.696	1525.28
137.857	2181.6
142.016	3657.62
146.172	3148.85
150.327	2998.25
154.48	2677.85
158.63	1965.32
162.779	1898.91
166.926	2558.7
171.07	2192.55
175.213	1379.41
179.354	859.751
183.493	565.953
187.63	861.588
191.765	965.725
195.898	424.431
200.029	159
204.158	96.732
208.285	56.704
212.41	40.134
216.533	14.788
220.654	197.331
224.773	480.218
228.891	1157.86
233.006	1328.2
237.119	725.064
241.231	287.506
245.34	419.631
249.448	540.45
253.553	842.034
257.657	885.494
261.758	557.009
265.858	292.311
269.956	13.769
274.052	151.602
278.146	383.138
282.237	578.757
286.327	318.23
290.416	143.282
294.502	131.319
298.586	13.447
302.668	27.591
306.749	25.352
310.827	166.489
314.903	44.015
318.978	330.066
323.051	323.844
327.121	337.276
331.19	338.877
335.257	313.135
339.322	241.215
343.385	202.101
347.446	178.74
351.505	240.095
355.563	145.171
359.618	197.978
363.672	437.375
367.723	522.893
371.773	705.294
375.821	1117.57
379.866	1221.78
383.91	1272.22
387.952	813.154
391.992	601.568
396.031	541.477
400.067	501.222
404.101	466.812
408.134	24.25
412.165	39.578
416.193	30.783
420.22	74.781
424.245	152.838
428.268	10.574
432.289	128.462
436.309	111.072
440.326	25.343
444.342	85.919
448.355	211.933
452.367	248.795
456.377	623.513
460.385	965.661
464.391	1733.39
468.395	2019.15
472.398	1429.83
476.398	1019.35
480.397	782.289
484.394	790.211
488.389	865.037
492.382	847.768
496.373	978.412
500.362	1227.97
504.349	1503.46
508.335	2153.86
512.319	2782.2
516.3	3214.52
520.28	3558.84
524.259	4243.35
528.235	4832.19
532.209	5421.47
536.182	5682.51
540.152	5491.05
544.121	4938.87
548.088	4952.83
552.053	5348.83
556.017	5197.03
559.978	4484.43
563.938	3003.98
567.895	2189.05
571.851	1667.02
575.805	1770.54
579.758	1665.89
583.708	1854.53
587.657	2059.56
591.603	2161.28
595.548	2094.16
599.491	2441.45
603.432	3086.89
607.372	3826.86
611.309	4976.34
615.245	6866.18
619.179	9526.21
623.111	14301
627.041	17596.5
630.97	18219.6
634.896	14309
638.821	9127.3
642.744	5798.69
646.665	3610.22
650.584	2395.86
654.502	1552.02
658.418	1116.92
662.331	866.934
666.244	523.078
670.154	842.994
674.062	789.699
677.969	804.723
681.874	800.664
685.777	880.877
689.678	1163.25
693.577	1006.6
697.475	1701.49
701.371	1816.57
705.265	2090.06
709.157	2038.4
713.047	2506.5
716.936	1849.94
720.823	1811.06
724.708	1647.35
728.591	1602.74
732.472	1505.93
736.352	1303.71
740.23	1076.13
744.106	732.463
747.98	431.537
751.853	670.568
755.723	489.195
759.592	191.688
763.459	368.246
767.325	303.748
771.188	333.107
775.05	15.592
778.91	107.617
782.768	28.242
786.625	317.711
790.479	115.539
794.332	171.268
798.183	424.891
802.033	421.406
805.88	55.809
809.726	460.076
813.57	219.219
817.413	358.232
821.253	197.201
825.092	57.082
828.929	22.377
832.764	321.125
836.598	123.15
840.429	11.816
844.259	155.838
848.088	58.504
851.914	84.846
855.739	70.994
859.562	52.5
863.383	212.385
867.203	7.225
871.02	72.793
874.836	53.768
878.65	199.963
882.463	215.973
886.274	264.922
890.083	185.738
893.89	210.398
897.695	136.885
901.499	261.25
905.301	134.492
909.102	361.662
912.9	550.736
916.697	394.568
920.492	498.176
924.285	689.535
928.077	692.996
931.867	845.762
935.655	785.189
939.442	423.148
943.226	590.859
947.009	571.357
950.791	852.951
954.57	636.055
958.348	863.453
962.124	673.922
965.899	490.268
969.671	444.283
973.442	737.951
977.211	601.711
980.979	372.254
984.745	54.355
988.509	295.385
992.271	330.342
996.032	450.012
999.791	406.477
1003.55	834.354
1007.3	412.574
1011.06	576.459
1014.81	314.209
1018.56	577.322
1022.31	703.678
1026.06	416.555
1029.8	693.775
1033.55	418.781
1037.29	780.621
1041.03	1098.52
1044.77	1293.58
1048.5	1149.2
1052.24	1605.18
1055.97	1231.43
1059.7	1187.69
1063.43	1077.7
1067.16	780.383
1070.89	1016.66
1074.61	925.477
1078.34	672.746
1082.06	1056.45
1085.78	1264.22
1089.5	972.984
1093.21	871.131
1096.93	733.994
1100.64	1340.91
1104.35	1245.46
1108.06	1624.54
1111.77	1718.44
1115.48	1478.99
1119.18	1384.58
1122.89	1644.05
1126.59	1395.14
1130.29	1467.41
1133.99	960.521
1137.68	822.58
1141.38	780.588
1145.07	751.742
1148.76	657.781
1152.45	720.68
1156.14	569.338
1159.83	307.324
1163.51	493.465
1167.19	20.785
1170.88	108.176
1174.56	94.07
1178.23	268.621
1181.91	96.188
1185.59	65.465
1189.26	20.684
1192.93	303.328
1196.6	14.559
1200.27	235.684
1203.94	282.121
1207.6	120.078
1211.27	152.621
1214.93	4.961
1218.59	319.266
1222.25	445.953
1225.9	393.762
1229.56	410.625
1233.21	63.824
1236.86	19.438
1240.51	153.43
1244.16	248.344
1247.81	265.383
1251.45	263.836
1255.1	398.004
1258.74	575.266
1262.38	183.711
1266.02	250.77
1269.66	325.977
1273.29	379
1276.93	604.176
1280.56	677.309
1284.19	709.945
1287.82	788.758
1291.45	991.992
1295.07	701.629
1298.7	991.68
1302.32	829.934
1305.94	604.301
1309.56	805.934
1313.18	1046.19
1316.8	1457.55
1320.41	1612.41
1324.02	1491.78
1327.63	1292.73
1331.24	1551.35
1334.85	1266.05
1338.46	1245.68
1342.06	918.156
1345.67	609.512
1349.27	507.852
1352.87	299.195
1356.47	167.75
1360.07	191.738
1363.66	460.969
1367.25	393.441
1370.85	241.465
1374.44	297.777
1378.03	294.004
1381.61	40.492
1385.2	237.645
1388.78	405.742
1392.37	320.793
1395.95	247.609
1399.53	349.754
1403.1	471.75
1406.68	559.223
1410.26	516.43
1413.83	208.883
1417.4	198.566
1420.97	25.508
1424.54	62.949
