Measurement: Raman, 532 nm, unoriented, Raman Data Processed
Mineral: Kurnakovite
Rruff sample: R050393
Ideal chemistry: MgB_3_O_3_(OH)_5_5H_2_O
Locality: Kramer deposit, Boron, Kern County, California, USA
Source: Marcus Origlieri
Description: Colorless to gray cleavage fragment
Measured chemistry: Mg_1.00_B_3_O_3_(OH)_5_·5H_2_O ; = lighter phase. The darker phase: (Mg_0.97_Al_0.02_[box]_0.01_)_Σ=1_B_3_O_3_(OH)_5_·5H_2_O ; B not measured but estimated by stoichiometry
Raman shift (cm-1)	intensity
126.584	0
129.476	186.607
132.369	698.865
135.262	656.229
138.155	205.675
141.047	28.2039
143.94	94.5007
146.833	359.273
149.725	586.243
152.618	519.134
155.511	572.745
158.404	711.509
161.296	969.25
164.189	1377.18
167.082	1549.08
169.974	1222.71
172.867	895.639
175.76	688.72
178.652	494.225
181.545	348.708
184.438	341.201
187.331	421.841
190.223	514.164
193.116	413.262
196.009	158.376
198.901	26.3201
201.794	19.7815
204.687	50.3575
207.579	42.0762
210.472	5.88611
213.365	69.6438
216.257	141.408
219.15	181.538
222.043	231.134
224.936	336.236
227.828	485.321
230.721	582.283
233.614	487.918
236.506	300.142
239.399	195.06
242.292	196.625
245.185	232.184
248.077	270.048
250.97	331.245
253.863	383.879
256.755	397.417
259.648	306.423
262.541	181.594
265.433	109.553
268.326	99.0829
271.219	121.912
274.111	141.598
277.004	196.839
279.897	256.592
282.79	283.643
285.682	224.901
288.575	131.58
291.468	29.1797
294.36	24.6267
297.253	42.3773
300.146	41.9531
303.038	0.114746
305.931	65.551
308.824	142.467
311.717	236.261
314.609	355.452
317.502	506.968
320.395	661.214
323.287	801.087
326.18	892.562
329.073	875.133
331.966	746.197
334.858	600.405
337.751	536.01
340.644	522.74
343.536	537.612
346.429	576.625
349.322	668.043
352.214	777.138
355.107	831.799
358	776.128
360.892	616.135
363.785	478.957
366.678	441.853
369.571	458.082
372.463	500.806
375.356	575.761
378.249	621.767
381.141	603.146
384.034	504.781
386.927	346.117
389.82	227.329
392.712	180.145
395.605	190.532
398.498	227.29
401.39	297.949
404.283	380.095
407.176	448.703
410.068	533.582
412.961	669.85
415.854	813.973
418.747	884.667
421.639	733.122
424.532	455.992
427.425	228.502
430.317	92.2738
433.21	2.33704
436.103	29.1102
438.995	39.6761
441.888	36.9569
444.781	24.6377
447.673	9.88513
450.566	43.3865
453.459	101.142
456.352	190.74
459.244	294.161
462.137	428.919
465.03	578.295
467.922	589.97
470.815	470.588
473.708	306.177
476.601	174.789
479.493	123.222
482.386	112.744
485.279	132.523
488.171	153.336
491.064	185.824
493.957	203.551
496.849	207.819
499.742	212.055
502.635	204.552
505.527	206.501
508.42	206.36
511.313	193.398
514.206	205.3
517.098	216.061
519.991	221.132
522.884	251.73
525.776	295.57
528.669	348.613
531.562	389.457
534.455	431.228
537.347	427.185
540.24	424.014
543.133	430.634
546.025	429.78
548.918	442.133
551.811	449.783
554.703	433.251
557.596	372.717
560.489	265.521
563.381	142.581
566.274	49.1493
569.167	5.14575
572.06	22.6804
574.952	17.0385
577.845	9.45142
580.738	3.16675
583.63	2.05164
586.523	5.9032
589.416	27.0572
592.308	44.2689
595.201	82.4541
598.094	145.879
600.987	216.055
603.879	310.435
606.772	444.55
609.665	630.784
612.557	886.492
615.45	1223.21
618.343	1617.89
621.236	2076.22
624.128	2530.22
627.021	2807.16
629.914	2766.54
632.806	2365.92
635.699	1793.11
638.592	1294.01
641.484	903.035
644.377	612.623
647.27	414.721
650.163	282.645
653.055	182.644
655.948	123.101
658.841	82.6804
661.733	51.8823
664.626	29.9128
667.519	18.8965
670.411	6.42993
673.304	5.38257
676.197	6.75391
679.09	12.9978
681.982	6.5116
684.875	11.3212
687.768	3.65649
690.66	7.07202
693.553	14.3832
696.446	19.4002
699.338	37.1405
702.231	69.6689
705.124	79.781
708.016	99.6639
710.909	118.558
713.802	132.02
716.695	150.91
719.587	194.048
722.48	247.737
725.373	304.406
728.265	395.76
731.158	475.464
734.051	534.432
736.943	526.439
739.836	455.557
742.729	363.71
745.622	283.097
748.514	205.242
751.407	157.014
754.3	126.243
757.192	106.982
760.085	75.2057
762.978	61.8972
765.87	51.5489
768.763	50.9153
771.656	52.1844
774.549	58.0034
777.441	67.1012
780.334	76.9542
783.227	92.7531
786.119	127.645
789.012	169.592
791.905	192.761
794.798	213.766
797.69	209.64
800.583	201.908
803.476	196.584
806.368	177.679
809.261	169.972
812.154	140.938
815.046	109.366
817.939	86.0995
820.832	50.7533
823.725	44.0836
826.617	17.0676
829.51	5.7489
832.403	3.98547
835.295	0.690796
838.188	0.9198
841.081	6.85632
843.973	0.288696
846.866	12.4913
849.759	1.10864
852.652	4.59644
855.544	10.1058
858.437	27.0252
861.33	31.4489
864.222	31.864
867.115	43.0485
870.008	49.349
872.9	51.6803
875.793	51.8109
878.686	66.6962
881.578	59.4054
884.471	56.0712
887.364	51.0981
890.257	39.5592
893.149	42.4939
896.042	59.2955
898.935	57.8706
901.827	72.9021
904.72	74.0466
907.613	75.3265
910.505	79.3884
913.398	86.9657
916.291	91.5523
919.184	103.776
922.076	101.522
924.969	84.1309
927.862	83.6942
930.754	79.3481
933.647	56.5393
936.54	63.2643
939.433	70.3579
942.325	74.163
945.218	96.5461
948.111	121.489
951.003	145.784
953.896	167.297
956.789	160.71
959.681	132.19
962.574	99.5533
965.467	76.4992
968.36	46.4786
971.252	40.4171
974.145	24.9576
977.038	15.8524
979.93	0.599976
982.823	3.26965
985.716	3.41553
988.608	1.20056
991.501	0.816528
994.394	1.72925
997.287	4.24658
1000.18	12.7959
1003.07	11.5063
1005.97	8.95605
1008.86	9.86841
1011.75	3.5957
1014.64	6.28735
1017.53	5.47168
1020.43	6.99463
1023.32	16.5803
1026.21	28.9473
1029.11	44.4003
1032	51.5153
1034.89	76.7522
1037.78	93.0251
1040.68	99.8291
1043.57	83.6622
1046.46	70.28
1049.36	64.0388
1052.25	65.8571
1055.14	67.1062
1058.03	49.1399
1060.93	42.1923
1063.82	26.7345
1066.71	13.9351
1069.6	6.15283
1072.5	7.65649
1075.39	1.85522
1078.28	5.69348
1081.17	4.2279
1084.07	5.48279
1086.96	3.22925
1089.85	20.0231
1092.75	24.0061
1095.64	50.6942
1098.53	78.0743
1101.42	89.2313
1104.32	122.661
1107.21	136.6
1110.1	120.232
1112.99	117.574
1115.89	127.308
1118.78	105.596
1121.67	119.657
1124.57	123.589
1127.46	101.118
1130.35	74.5256
1133.24	58.054
1136.14	41.9727
1139.03	50.5652
1141.92	35.0742
1144.81	50.5364
1147.71	55.8153
1150.6	50.7084
1153.49	24.3309
1156.38	34.7065
1159.28	7.29394
1162.17	12.2936
1165.06	14.7356
1167.96	19.4737
1170.85	17.033
1173.74	23.249
1176.63	24.7423
1179.53	14.6855
1182.42	19.9089
1185.31	5.40405
1188.2	5.75769
1191.1	11.2755
1193.99	24.2214
1196.88	15.9033
1199.78	11.5406
1202.67	4.73718
1205.56	7.93213
1208.45	1.92041
1211.35	6.9187
1214.24	16.3528
1217.13	39.5889
1220.02	31.9571
1222.92	23.9921
1225.81	22.8433
1228.7	13.4718
1231.6	29.2505
1234.49	48.4836
1237.38	39.1801
1240.27	37.7607
1243.17	20.6251
1246.06	22.7418
1248.95	6.4895
1251.84	10.7355
1254.74	10.2323
1257.63	9.29431
1260.52	17.2079
1263.41	7.29773
1266.31	12.2034
1269.2	3.95471
1272.09	0
