Measurement: Raman, 532 nm, unoriented, Raman Data Processed
Mineral: Kurnakovite
Rruff sample: R050105
Ideal chemistry: MgB_3_O_3_(OH)_5_5H_2_O
Locality: Kramer deposit, Boron, Kern County, California, USA
Source: Rock Currier
Description: Tabular single crystal
Measured chemistry: MgB_3_O_3_(OH)_5_Â·5H_2_O
Raman shift (cm-1)	intensity
121.461	0
124.835	106.239
128.21	1418.11
131.585	3259.54
134.96	3178.43
138.335	1014.6
141.709	607.52
145.084	1444
148.459	2407.8
151.834	1669.91
155.209	923.01
158.584	769.717
161.958	1189.2
165.333	1823.33
168.708	1681.4
172.083	1201.06
175.458	1013.16
178.832	583.388
182.207	146.65
185.582	90.5537
188.957	253.666
192.332	193.106
195.707	54.6333
199.081	166.332
202.456	76.7375
205.831	65.4443
209.206	438.065
212.581	1006.25
215.955	1341.39
219.33	1099.17
222.705	993.752
226.08	1231.51
229.455	1685.47
232.829	1681.1
236.204	1075.91
239.579	836.89
242.954	549.348
246.329	645.513
249.704	799.757
253.078	1282.22
256.453	1366.02
259.828	774.03
263.203	86.7627
266.578	3.97461
269.952	19.8223
273.327	108.97
276.702	387.36
280.077	597.298
283.452	758.709
286.827	463.177
290.201	77.1304
293.576	92.3975
296.951	116.097
300.326	37.0703
303.701	323.859
307.075	601.906
310.45	741.441
313.825	1045.17
317.2	1543.01
320.575	2022.87
323.95	2466.44
327.324	2416.59
330.699	1977.78
334.074	1341.74
337.449	1104.29
340.824	1278.28
344.198	1708.03
347.573	2062.88
350.948	2402.24
354.323	2885.14
357.698	2820.07
361.072	2017.28
364.447	1349.07
367.822	1081.88
371.197	1246.27
374.572	1308.17
377.947	1354.35
381.321	1372.69
384.696	1124.22
388.071	908.14
391.446	1102.01
394.821	1433.46
398.195	1865.87
401.57	2247.87
404.945	2522.06
408.32	2803.69
411.695	3622.91
415.07	4672.9
418.444	5564.15
421.819	4815.03
425.194	2762.06
428.569	1212.85
431.943	272.392
435.318	87.3652
438.693	157.275
442.068	203.087
445.443	135.695
448.818	722.263
452.192	1631.65
455.567	3086.78
458.942	5016.55
462.317	7644.62
465.692	10318.9
469.067	10315.6
472.441	7193.77
475.816	4084.11
479.191	2198.9
482.566	1155.65
485.941	556.899
489.315	249.535
492.69	138.01
496.065	18.939
499.44	23.6494
502.815	34.0317
506.19	44.292
509.564	23.5596
512.939	12.6279
516.314	98.0425
519.689	141.804
523.063	323.905
526.438	255.816
529.813	235.291
533.188	305.137
536.563	386.027
539.938	502.022
543.312	714.184
546.687	989.663
550.062	1284.01
553.437	1502.83
556.812	1647.93
560.187	1477.13
563.561	862.573
566.936	383.678
570.311	43.248
573.686	52.9541
577.061	50.1123
580.435	16.3716
583.81	136.16
587.185	339.547
590.56	550.09
593.935	522.544
597.309	466.277
600.684	437.989
604.059	568.928
607.434	848.487
610.809	1427.04
614.183	2153.03
617.558	3198.51
620.933	4597.83
624.308	6137.03
627.683	7281.94
631.058	7394.25
634.432	6145.02
637.807	4682.01
641.182	3522.13
644.557	2521.63
647.932	1850.01
651.307	1333.79
654.681	951.571
658.056	737.536
661.431	559.91
664.806	410.749
668.181	302.541
671.555	236.25
674.93	127.709
678.305	58.0859
681.68	20.6206
685.055	34.5801
688.429	4.23877
691.804	46.6392
695.179	4.86377
698.554	27.1323
701.929	24.4165
705.303	111.626
708.678	185.662
712.053	356.032
715.428	556.515
718.803	861.121
722.178	1378.96
725.552	2090.54
728.927	2846.74
732.302	3628.39
735.677	4128.64
739.052	4166.5
742.427	3376.53
745.801	2632.24
749.176	1930.74
752.551	1603.99
755.926	1273.47
759.301	981.516
762.675	834.456
766.05	657.881
769.425	502.519
772.8	429.54
776.175	330.434
779.549	344.962
782.924	395.825
786.299	470.236
789.674	508.53
793.049	528.434
796.423	568.998
799.798	664.065
803.173	681.668
806.548	669.992
809.923	649.025
813.298	621.33
816.672	392.845
820.047	183.727
823.422	240.094
826.797	140.09
830.172	15.0825
833.547	10.626
836.921	2.5708
840.296	37.0571
843.671	27.2568
847.046	44.169
850.42	1.56543
853.795	24.8174
857.17	16.6289
860.545	69.1231
863.92	39.7437
867.295	182.495
870.669	173.481
874.044	120.998
877.419	134.152
880.794	85.7622
884.169	92.437
887.543	155.518
890.918	121.155
894.293	244.7
897.668	323.361
901.043	369.804
904.418	461.311
907.792	578.825
911.167	698.576
914.542	825.917
917.917	877.687
921.292	767.987
924.667	603.564
928.041	511.209
931.416	438.957
934.791	414.091
938.166	353.792
941.54	309.596
944.915	281.08
948.29	290.066
951.665	266.512
955.04	327.233
958.415	249.382
961.789	211.366
965.164	124.338
968.539	86.4336
971.914	69.9902
975.289	41.0767
978.663	53.1685
982.038	45.1445
985.413	116.378
988.788	163.189
992.163	183.462
995.538	358.889
998.912	396.204
1002.29	479.736
1005.66	375.503
1009.04	265.502
1012.41	146.356
1015.79	77.957
1019.16	33.5884
1022.54	35.168
1025.91	20.8623
1029.29	2.78369
1032.66	92.9937
1036.04	63.2114
1039.41	179.522
1042.79	191.865
1046.16	148.626
1049.54	109.606
1052.91	108.342
1056.28	136.554
1059.66	61.3145
1063.03	62.8755
1066.41	80.3936
1069.78	29.0322
1073.16	3.52002
1076.53	56.3057
1079.91	37.3477
1083.28	12.7476
1086.66	19.9639
1090.03	93.7476
1093.41	78.6313
1096.78	147.314
1100.16	162.456
1103.53	233.499
1106.91	240.739
1110.28	288.202
1113.66	307.623
1117.03	316.547
1120.41	366.108
1123.78	336.013
1127.15	254.852
1130.53	290.146
1133.9	251.029
1137.28	281.497
1140.65	258.756
1144.03	304.461
1147.4	292.175
1150.78	330.478
1154.15	311.24
1157.53	235.64
1160.9	167.555
1164.28	133.754
1167.65	69.9526
1171.03	82.4853
1174.4	109.147
1177.78	115.568
1181.15	0.615234
1184.53	76.4702
1187.9	50.8897
1191.28	45.9473
1194.65	59.0967
1198.03	31.9995
1201.4	5.14648
1204.78	67.5859
1208.15	53.7583
1211.53	59.9214
1214.9	7.88184
1218.28	87.4502
1221.65	50.2266
1225.03	53.5127
1228.4	23.3809
1231.78	7.33447
1235.15	5.75537
1238.52	48.1826
1241.9	54.4141
1245.27	9.79688
1248.65	37.6499
1252.02	16.7158
1255.4	57.3301
1258.77	37.9878
1262.15	59.0244
1265.52	1.64551
1268.9	27.0361
1272.27	1.41064
1275.65	78.5659
1279.02	39.0532
1282.4	98.0596
1285.77	46.4873
1289.15	68.1479
1292.52	0
