Measurement: Raman, 532 nm, unoriented, Raman Data Processed
Mineral: Kushiroite
Rruff sample: R110134
Ideal chemistry: CaAl(AlSi)O_6_
Locality: Synthetic, at 1400 C, 20 kb, 24 hours, and 164 hours
Source: Roberta Fleming
Description: White pressed fragment
Raman shift (cm-1)	intensity
181.13	0
184.023	2.9584
186.916	12.8226
189.808	17.8343
192.701	25.3148
195.594	34.6177
198.486	42.3549
201.379	52.4406
204.272	68.6323
207.164	65.6671
210.057	68.1881
212.95	49.8772
215.843	25.905
218.735	12.0012
221.628	0.610229
224.521	2.43178
227.413	1.41919
230.306	2.74855
233.199	6.39287
236.091	15.2722
238.984	26.3372
241.877	37.4004
244.769	42.4478
247.662	33.6652
250.555	21.6112
253.448	13.1372
256.34	3.57816
259.233	4.47383
262.126	1.39062
265.018	2.61549
267.911	1.26741
270.804	8.34457
273.697	15.0627
276.589	23.0917
279.482	30.4991
282.375	33.3709
285.267	37.9523
288.16	42.9428
291.053	49.7412
293.945	50.0584
296.838	44.0644
299.731	33.3869
302.623	24.7877
305.516	14.2314
308.409	3.18175
311.302	1.91823
314.194	5.28479
317.087	7.08125
319.98	2.6241
322.872	7.04756
325.765	17.4213
328.658	33.139
331.55	56.3261
334.443	81.4088
337.336	104.192
340.229	105.209
343.121	91.7884
346.014	73.679
348.907	64.8089
351.799	74.4722
354.692	93.8841
357.585	124.113
360.478	167.067
363.37	214.592
366.263	256.242
369.156	281.28
372.048	273.226
374.941	244.556
377.834	206.653
380.726	168.03
383.619	141.771
386.512	116.926
389.404	95.8351
392.297	81.8941
395.19	69.9707
398.083	63.2222
400.975	58.6584
403.868	58.7503
406.761	67.7173
409.653	77.0198
412.546	88.8391
415.439	97.7786
418.332	104.434
421.224	105.617
424.117	101.149
427.01	90.334
429.902	77.0213
432.795	61.0906
435.688	47.5939
438.58	35.919
441.473	25.6709
444.366	21.5214
447.259	11.6278
450.151	3.80298
453.044	2.6077
455.937	0.803955
458.829	4.03153
461.722	3.11244
464.615	1.99484
467.507	3.8638
470.4	1.24029
473.293	1.43993
476.185	0.559586
479.078	3.89125
481.971	5.99478
484.864	9.33214
487.756	11.1699
490.649	17.7938
493.542	22.7105
496.434	30.8472
499.327	42.1036
502.22	56.267
505.113	77.5949
508.005	103.413
510.898	136.462
513.791	175.448
516.683	195.196
519.576	195.873
522.469	170.111
525.361	134.128
528.254	101.077
531.147	81.8246
534.04	73.2693
536.932	65.2776
539.825	68.0202
542.718	77.3574
545.61	89.0385
548.503	94.9346
551.396	93.1594
554.288	83.1299
557.181	68.5692
560.074	54.6406
562.967	45.4317
565.859	38.3978
568.752	32.4357
571.645	34.1243
574.537	31.0495
577.43	19.7334
580.323	15.9977
583.216	9.14258
586.108	3.72673
589.001	0.256622
591.894	1.75145
594.786	0.827789
597.679	2.84555
600.572	0.276825
603.464	0.747314
606.357	2.93959
609.25	0.438522
612.142	3.23073
615.035	5.50568
617.928	7.39854
620.821	13.4248
623.713	17.7356
626.606	31.4278
629.499	46.5015
632.391	67.9232
635.284	98.4783
638.177	138.471
641.069	188.203
643.962	245.294
646.855	301.809
649.747	345.337
652.64	366.457
655.533	364.362
658.426	342.284
661.318	315.363
664.211	290.532
667.104	275.798
669.996	263.829
672.889	250.568
675.782	243.54
678.674	225.225
681.567	209.352
684.46	182.933
687.353	154.819
690.245	128.575
693.138	105.63
696.031	86.8023
698.923	72.4086
701.816	62.2031
704.709	48.2098
707.601	35.364
710.494	23.0976
713.387	13.869
716.28	6.75461
719.172	2.86571
722.065	1.87462
724.958	1.24577
727.85	0.72699
730.743	0.558609
733.636	0.88063
736.529	3.22815
739.421	0.914734
742.314	2.04524
745.207	2.6272
748.099	4.15199
750.992	3.69847
753.885	4.79596
756.777	5.0448
759.67	4.15221
762.563	8.22247
765.456	10.8805
768.348	4.61804
771.241	4.72444
774.134	6.48094
777.026	5.93356
779.919	8.28653
782.812	4.37808
785.704	8.72552
788.597	2.15118
791.49	2.93843
794.383	1.59538
797.275	1.65808
800.168	1.6928
803.061	0.6474
805.953	0.793365
808.846	1.86645
811.739	0.626419
814.631	1.51562
817.524	0.079727
820.417	1.64348
823.309	1.35933
826.202	2.08379
829.095	2.71005
831.988	1.93861
834.88	4.69022
837.773	6.42174
840.666	6.20064
843.558	7.2077
846.451	6.54942
849.344	5.61307
852.236	5.50566
855.129	2.70447
858.022	1.67071
860.915	2.06732
863.807	0.550873
866.7	2.60704
869.593	1.22543
872.485	2.04184
875.378	1.23105
878.271	2.29373
881.163	3.66165
884.056	1.7085
886.949	6.67129
889.842	12.2784
892.734	12.8952
895.627	17.9398
898.52	24.8619
901.412	30.9755
904.305	40.2625
907.198	53.5447
910.091	63.7805
912.983	81.539
915.876	101.164
918.769	122.658
921.661	146.116
924.554	170.763
927.447	193.566
930.339	214.976
933.232	224.426
936.125	224.721
939.018	223.412
941.91	226.341
944.803	224.911
947.696	227.95
950.588	228.212
953.481	224.144
956.374	218.205
959.266	201.16
962.159	176.005
965.052	145.77
967.944	114.283
970.837	85.3645
973.73	63.8772
976.623	47.2773
979.515	36.0886
982.408	24.5084
985.301	16.0707
988.193	11.6867
991.086	8.57208
993.979	6.55399
996.871	4.12592
999.764	1.90189
1002.66	1.15314
1005.55	0.222839
1008.44	2.0054
1011.34	0.814026
1014.23	1.45587
1017.12	0.558563
1020.01	0.842621
1022.91	0.574219
1025.8	1.97938
1028.69	2.0162
1031.58	0.525162
1034.48	1.80487
1037.37	1.91299
1040.26	0.532074
1043.15	0.176239
1046.05	3.55017
1048.94	2.6246
1051.83	2.66252
1054.73	4.12634
1057.62	4.55937
1060.51	5.28722
1063.4	6.71138
1066.3	3.43742
1069.19	4.13696
1072.08	3.8714
1074.97	3.86487
1077.87	3.08186
1080.76	2.63034
1083.65	3.3026
1086.55	5.42607
1089.44	0.07663
1092.33	2.31465
1095.22	3.69351
1098.12	2.70885
1101.01	3.65671
1103.9	3.79137
1106.79	2.80096
1109.69	1.54294
1112.58	2.09061
1115.47	0.727768
1118.37	3.60738
1121.26	2.89066
1124.15	3.83217
1127.04	3.1422
1129.94	4.84247
1132.83	4.04309
1135.72	3.3665
1138.61	5.44641
1141.51	3.31369
1144.4	2.33377
1147.29	4.12045
1150.18	3.46347
1153.08	3.77771
1155.97	3.4698
1158.86	0.661682
1161.76	2.0659
1164.65	2.41092
1167.54	4.61685
1170.43	0.118042
1173.33	5.07384
1176.22	4.64998
1179.11	5.66981
1182	2.65935
1184.9	0.145157
1187.79	0.729401
1190.68	2.00684
1193.58	0.064911
1196.47	3.40549
1199.36	2.47978
1202.25	0.850937
1205.15	4.27446
1208.04	4.55264
1210.93	3.87625
1213.82	3.99728
1216.72	2.49255
1219.61	2.46201
1222.5	3.05405
1225.39	3.60071
1228.29	2.28683
1231.18	1.75705
1234.07	3.88422
1236.97	2.96271
1239.86	0.250092
1242.75	0.029022
1245.64	0.809753
1248.54	1.18961
1251.43	3.27246
1254.32	1.37686
1257.21	3.27972
1260.11	2.36923
1263	4.66632
1265.89	2.31476
1268.79	2.85776
1271.68	0.968414
1274.57	2.48218
1277.46	2.62662
1280.36	0.814484
1283.25	1.08783
1286.14	1.93283
1289.03	2.49619
1291.93	2.6218
1294.82	2.68765
1297.71	2.29108
1300.61	0.105072
