Measurement: Raman, 532 nm, unoriented, Raman Data Processed
Mineral: Kutnohorite
Rruff sample: R060473
Ideal chemistry: CaMn^2+^(CO_3_)_2_
Locality: N'Chwaning II mine, Kalahari Manganese Field, northern Cape Province, Republic of South Africa
Source: Michael Scott
Description: Aggregate of parallel pink colored acicular crystals
Measured chemistry: Ca_1.00_(Mn^2+^_0.63_Ca_0.35_Mg_0.02_)(CO_3_)_2_
Raman shift (cm-1)	intensity
95.3347	0
98.7095	0.068322
102.084	0.048056
105.459	0.331289
108.834	1.24981
112.209	2.26952
115.584	3.68079
118.958	4.08523
122.333	5.19714
125.708	6.17345
129.083	7.45449
132.458	8.55317
135.833	9.85029
139.207	13.0283
142.582	15.2852
145.957	18.9263
149.332	22.7102
152.707	27.5369
156.081	31.8714
159.456	34.1258
162.831	32.705
166.206	29.3945
169.581	26.2739
172.956	21.5544
176.33	17.6247
179.705	12.7117
183.08	8.44004
186.455	5.41323
189.83	3.15685
193.204	1.94964
196.579	1.36827
199.954	0.724459
203.329	0.253973
206.704	0.16758
210.078	0.207474
213.453	0.371893
216.828	0.208773
220.203	0.080463
223.578	0.147705
226.952	0.678581
230.327	0.668324
233.702	1.87674
237.077	3.28194
240.452	4.46976
243.827	6.45843
247.201	9.7978
250.576	13.4302
253.951	18.0675
257.326	25.6318
260.701	35.202
264.075	48.3954
267.45	62.8521
270.825	80.3431
274.2	98.7663
277.575	115.995
280.95	128.136
284.324	128.229
287.699	115.599
291.074	93.8889
294.449	72.1306
297.824	53.2408
301.199	38.3479
304.573	28.1877
307.948	19.8418
311.323	13.9344
314.698	10.4033
318.073	7.18993
321.447	5.13484
324.822	4.36275
328.197	3.08387
331.572	2.24117
334.947	1.4502
338.322	1.24412
341.696	0.895149
345.071	0.643858
348.446	0.373158
351.821	0.022614
355.195	0.024895
358.57	0.110956
361.945	0.153269
365.32	0.070232
368.695	0.19882
372.07	0.06126
375.444	0.09944
378.819	0.002419
382.194	0.503059
385.569	0.059855
388.944	0.398232
392.318	0.398458
395.693	0.493509
399.068	0.478024
402.443	0.524616
405.818	0.420158
409.193	0.480892
412.567	0.952881
415.942	0.69816
419.317	0.915846
422.692	0.980949
426.067	0.923201
429.442	0.742735
432.816	0.606731
436.191	0.575924
439.566	0.657408
442.941	0.533232
446.316	0.509125
449.69	0.388136
453.065	0.307119
456.44	0.347103
459.815	0.490816
463.19	0.471151
466.565	0.258894
469.939	0.113777
473.314	0.308142
476.689	0.223078
480.064	0.143972
483.438	0.640579
486.813	0.44113
490.188	0.057793
493.563	0.189732
496.938	0.496601
500.313	0.325933
503.687	0.097488
507.062	0.39035
510.437	0.341963
513.812	0.13686
517.187	0.212967
520.562	0.347855
523.936	0.310431
527.311	0.313766
530.686	0.230904
534.061	0.18103
537.436	0.492922
540.81	0.262026
544.185	0.186312
547.56	0.447186
550.935	0.106222
554.31	0.124926
557.684	0.311895
561.059	0.300169
564.434	0.155594
567.809	0.256321
571.184	0.592342
574.559	0.364288
577.933	0.336933
581.308	0.089115
584.683	0.41164
588.058	6.5e-05
591.433	0.546135
594.807	0.325256
598.182	0.270466
601.557	0.321945
604.932	0.306984
608.307	0.673473
611.682	0.559479
615.056	0.331795
618.431	0.110958
621.806	0.37241
625.181	0.279442
628.556	0.402958
631.93	0.218037
635.305	0.141159
638.68	0.414726
642.055	0.590908
645.43	0.618462
648.804	0.641491
652.179	0.099895
655.554	0.261684
658.929	0.432922
662.304	0.293625
665.679	0.192562
669.053	0.294518
672.428	0.435577
675.803	0.132362
679.178	0.389111
682.553	0.543205
685.928	0.087982
689.302	1.26854
692.677	2.21872
696.052	3.94617
699.427	7.43895
702.802	12.1553
706.176	19.2824
709.551	28.4414
712.926	37.4257
716.301	35.1231
719.676	22.7352
723.051	12.4246
726.425	6.19553
729.8	2.40626
733.175	1.59877
736.55	1.41233
739.925	1.30509
743.299	0.010914
746.674	0.02496
750.049	0.161125
753.424	0.092571
756.799	0.015362
760.173	0.049816
763.548	0.419987
766.923	0.34206
770.298	0.573746
773.673	0.200226
777.048	0.505703
780.422	0.103821
783.797	1.41552
787.172	0.764858
790.547	0.650383
793.922	0.536598
797.296	0.582787
800.671	0.08242
804.046	0.076263
807.421	0.200966
810.796	0.950317
814.17	0.461029
817.545	0.470863
820.92	0.296356
824.295	0.321716
827.67	0.027489
831.045	0.041481
834.419	0.148018
837.794	0.325348
841.169	0.626083
844.544	0.75415
847.919	0.352013
851.293	0.509529
854.668	0.432076
858.043	1.00164
861.418	1.18944
864.793	1.04833
868.168	1.54414
871.542	1.29397
874.917	1.1913
878.292	1.27511
881.667	0.194115
885.042	0.706505
888.416	0.094475
891.791	0.141884
895.166	0.253387
898.541	0.556854
901.916	0.196854
905.29	1.11526
908.665	1.12743
912.04	1.18181
915.415	1.11815
918.79	1.35606
922.165	1.09594
925.539	0.848053
928.914	0.429573
932.289	1.1474
935.664	1.55035
939.039	1.53458
942.413	1.07217
945.788	0.945839
949.163	0.944229
952.538	0.700058
955.913	0.353958
959.288	0.818161
962.662	0.397934
966.037	0.25425
969.412	0.728745
972.787	0.233368
976.162	0.6017
979.537	0.267479
982.911	0.703041
986.286	0.378777
989.661	0.25853
993.036	0.527031
996.41	0.7463
999.785	0.649345
1003.16	0.571289
1006.53	0.269363
1009.91	1.07321
1013.28	0.645592
1016.66	0.015785
1020.03	0.961662
1023.41	0.733482
1026.78	0.753578
1030.16	0.478966
1033.53	1.57665
1036.91	0.799957
1040.28	1.11227
1043.66	1.12444
1047.03	1.89929
1050.41	1.37962
1053.78	3.41676
1057.16	5.28818
1060.53	7.06043
1063.91	12.324
1067.28	29.7595
1070.66	59.4037
1074.03	114.021
1077.41	215.648
1080.78	282.937
1084.16	288.516
1087.53	270.311
1090.9	211.637
1094.28	131.524
1097.65	67.5563
1101.03	28.8704
1104.4	11.161
1107.78	4.5399
1111.15	1.91788
1114.53	1.59253
1117.9	0.085678
1121.28	0.07225
1124.65	0.052292
1128.03	0.005707
1131.4	0.177872
1134.78	0.035904
1138.15	0.413116
1141.53	0.052414
1144.9	0.049713
1148.28	1.22235
1151.65	1.73843
1155.03	1.1721
1158.4	0.58197
1161.78	0.117874
1165.15	0.50473
1168.53	1.87714
1171.9	1.18395
1175.28	1.69019
1178.65	1.26421
1182.03	1.11513
1185.4	0.635574
1188.78	1.54919
1192.15	0.794846
1195.53	0.719894
1198.9	1.92561
1202.27	0.694016
1205.65	1.43446
1209.02	0.53653
1212.4	1.55786
1215.77	2.68401
1219.15	3.16127
1222.52	1.99211
1225.9	0.561142
1229.27	3.15144
1232.65	1.08864
1236.02	2.59186
1239.4	1.2359
1242.77	0.866928
1246.15	1.70575
1249.52	0.758606
1252.9	0.398865
1256.27	0.241592
1259.65	0.659073
1263.02	0.570724
1266.4	0.664047
1269.77	0.844818
1273.15	1.09749
1276.52	0.966095
1279.89	1.06538
1283.27	0.501953
1286.64	1.30551
1290.02	0.768005
1293.39	0.422348
1296.77	0.127762
1300.14	0.143021
1303.52	0
