Measurement: Raman, 780 nm, unoriented, Raman Data Processed
Mineral: Kutnohorite
Rruff sample: R060473
Ideal chemistry: CaMn^2+^(CO_3_)_2_
Locality: N'Chwaning II mine, Kalahari Manganese Field, northern Cape Province, Republic of South Africa
Source: Michael Scott
Description: Aggregate of parallel pink colored acicular crystals
Measured chemistry: Ca_1.00_(Mn^2+^_0.63_Ca_0.35_Mg_0.02_)(CO_3_)_2_
Raman shift (cm-1)	intensity
113.313	0
116.687	0.004349
120.062	0.033787
123.437	1.23535
126.812	1.74371
130.187	4.03029
133.561	6.20499
136.936	10.5613
140.311	16.0143
143.686	20.612
147.061	27.0794
150.436	34.513
153.81	42.4535
157.185	49.3685
160.56	51.7889
163.935	49.2792
167.31	43.7924
170.685	37.4485
174.059	31.7249
177.434	24.6318
180.809	16.2997
184.184	9.76711
187.559	5.83263
190.933	2.86986
194.308	1.45735
197.683	0.736727
201.058	0.25638
204.433	0.179913
207.808	0.568249
211.182	0.359987
214.557	0.579126
217.932	0.153774
221.307	0.661001
224.681	0.946148
228.056	1.85709
231.431	2.55008
234.806	4.13286
238.181	6.30255
241.556	8.43563
244.93	12.2899
248.305	16.4795
251.68	22.4399
255.055	31.1948
258.43	42.8295
261.805	56.75
265.179	74.772
268.554	93.827
271.929	115.302
275.304	136.381
278.679	153.327
282.053	162.683
285.428	154.959
288.803	133.877
292.178	107.65
295.553	81.3007
298.928	58.1387
302.302	42.5533
305.677	29.3849
309.052	20.0942
312.427	14.2743
315.802	9.96919
319.176	6.18127
322.551	4.88306
325.926	2.96363
329.301	1.77273
332.676	1.39511
336.05	1.12711
339.425	0.494021
342.8	0.552485
346.175	0.116915
349.55	0.15375
352.925	0.060339
356.299	0.038812
359.674	0.106029
363.049	0.111741
366.424	0.134459
369.799	0.070578
373.173	0.364639
376.548	0.107367
379.923	0.318567
383.298	0.03121
386.673	0.150632
390.048	0.114652
393.422	0.079248
396.797	0.223688
400.172	0.337096
403.547	0.476969
406.922	0.686022
410.296	0.766099
413.671	1.08701
417.046	1.11227
420.421	1.02183
423.796	1.44757
427.171	1.05242
430.545	0.910944
433.92	1.13667
437.295	0.966727
440.67	0.874681
444.045	0.949654
447.419	0.429098
450.794	0.464086
454.169	0.419514
457.544	0.364401
460.919	0.351437
464.293	0.511651
467.668	0.388887
471.043	0.20886
474.418	0.562279
477.793	0.122278
481.168	0.475436
484.542	0.354894
487.917	0.276577
491.292	0.353122
494.667	0.349181
498.042	0.362566
501.416	0.235557
504.791	0.254915
508.166	0.151604
511.541	0.167621
514.916	0.408586
518.291	0.328488
521.665	0.234117
525.04	0.012657
528.415	0.239104
531.79	0.110585
535.165	0.212339
538.539	0.183239
541.914	0.175212
545.289	0.021904
548.664	0.083121
552.039	0.275496
555.414	0.254764
558.788	0.305618
562.163	0.224708
565.538	0.241317
568.913	0.391692
572.288	0.201664
575.663	0.276654
579.037	0.227785
582.412	0.268307
585.787	0.295025
589.162	0.105737
592.537	0.26933
595.911	0.144421
599.286	0.282745
602.661	0.258453
606.036	0.075321
609.411	0.312257
612.785	0.207027
616.16	0.165989
619.535	0.056533
622.91	0.180779
626.285	0.014885
629.659	0.108424
633.034	0.142159
636.409	0.237142
639.784	0.090671
643.159	0.028128
646.534	0.085665
649.908	0.370584
653.283	0.063706
656.658	0.042442
660.033	0.032597
663.408	0.120978
666.783	0.171085
670.157	0.142706
673.532	0.208952
676.907	0.146699
680.282	0.474696
683.657	0.668721
687.031	1.17219
690.406	1.93734
693.781	3.59942
697.156	7.79163
700.531	13.7449
703.905	21.1215
707.28	30.667
710.655	44.6572
714.03	53.2249
717.405	42.8499
720.779	25.5528
724.154	13.1935
727.529	6.3209
730.904	2.77855
734.279	1.2149
737.654	0.552626
741.028	0.478786
744.403	0.190054
747.778	0.25405
751.153	0.119843
754.528	0.075134
757.903	0.063067
761.277	0.100506
764.652	0.077264
768.027	0.191584
771.402	0.165732
774.777	0.148151
778.151	0.130172
781.526	0.262338
784.901	0.254309
788.276	0.196478
791.651	0.236552
795.025	0.490308
798.4	0.339826
801.775	0.233043
805.15	0.533653
808.525	0.358679
811.9	0.481546
815.274	0.634443
818.649	0.62386
822.024	0.622479
825.399	0.444283
828.774	0.661268
832.149	0.600607
835.523	0.471438
838.898	0.549514
842.273	0.777943
845.648	0.817678
849.023	0.682789
852.397	0.674295
855.772	0.852455
859.147	0.90032
862.522	1.12662
865.897	2.09738
869.271	1.48781
872.646	1.02017
876.021	0.612853
879.396	0.66293
882.771	0.352644
886.146	0.41284
889.52	0.134308
892.895	0.163261
896.27	0.147439
899.645	0.157618
903.02	0.072548
906.394	0.206277
909.769	0.209969
913.144	0.056487
916.519	0.176556
919.894	0.197626
923.269	0.366182
926.643	0.250711
930.018	0.209528
933.393	0.153509
936.768	0.199319
940.143	0.265562
943.517	0.114741
946.892	0.11338
950.267	0.052051
953.642	0.009023
957.017	0.07928
960.391	0.069565
963.766	0.162296
967.141	0.17323
970.516	0.19308
973.891	0.026209
977.266	0.087688
980.64	0.117635
984.015	0.020893
987.39	0.170609
990.765	0.042213
994.14	0.053211
997.514	0.150133
1000.89	0.328918
1004.26	0.240988
1007.64	0.178466
1011.01	0.440104
1014.39	0.337962
1017.76	0.357039
1021.14	0.685467
1024.51	0.731557
1027.89	0.712747
1031.26	0.79459
1034.64	0.897703
1038.01	1.15309
1041.39	1.4581
1044.76	1.98334
1048.14	2.32688
1051.51	3.18806
1054.89	4.91893
1058.26	6.76402
1061.64	10.8259
1065.01	23.7451
1068.39	48.5918
1071.76	89.3267
1075.13	163.631
1078.51	271.793
1081.88	312.504
1085.26	301.986
1088.63	266.86
1092.01	188.845
1095.38	108.273
1098.76	51.8791
1102.13	21.0296
1105.51	8.0296
1108.88	2.80811
1112.26	1.53428
1115.63	0.83347
1119.01	0.420342
1122.38	0.313326
1125.76	0.430418
1129.13	0.155817
1132.51	0.022309
1135.88	0.330104
1139.26	0.029147
1142.63	0.168731
1146.01	0.180922
1149.38	0.194746
1152.76	0.001667
1156.13	0.003955
1159.51	0.039872
1162.88	0.002505
1166.26	0.07116
1169.63	0.096111
1173.01	0.048431
1176.38	0.063847
1179.76	0.185801
1183.13	0.064029
1186.5	0.130062
1189.88	0.172585
1193.25	0.153121
1196.63	0.270986
1200	0.641911
1203.38	0.389444
1206.75	0.696367
1210.13	1.1087
1213.5	1.2967
1216.88	1.42123
1220.25	1.96452
1223.63	2.58601
1227	2.92418
1230.38	2.98841
1233.75	3.44469
1237.13	4.04067
1240.5	4.43231
1243.88	4.06244
1247.25	4.0697
1250.63	3.97201
1254	3.91972
1257.38	3.4703
1260.75	2.83918
1264.12	2.52089
1267.5	2.11242
1270.88	1.71526
1274.25	1.14945
1277.62	0.496254
1281	0.852985
1284.37	0.038353
