Measurement: Raman, 532 nm, unoriented, Raman Data Processed
Mineral: Kyanite
Rruff sample: R100139
Ideal chemistry: Al_2_OSiO_4_
Locality: Madagascar
Source: William W. Pinch
Description: Blue prismatic crystal fragment, slightly water-worn
Raman shift (cm-1)	intensity
170.102	0
172.995	6.58228
175.888	17.6404
178.78	18.9854
181.673	3.71094
184.566	7.6001
187.459	13.7845
190.351	17.3328
193.244	22.5049
196.137	9.83582
199.029	14.0426
201.922	13.402
204.815	25.464
207.708	37.3778
210.6	8.73352
213.493	2.05115
216.386	7.22681
219.278	2.86304
222.171	2.58362
225.064	8.21924
227.956	13.6963
230.849	0.537964
233.742	2.70422
236.635	8.70447
239.527	7.18896
242.42	18.4558
245.313	26.4694
248.205	27.2682
251.098	24.203
253.991	16.8069
256.884	12.3358
259.776	11.1945
262.669	18.8057
265.562	23.3929
268.454	22.2573
271.347	20.8008
274.24	38.2126
277.132	76.7647
280.025	54.7986
282.918	26.6446
285.81	54.6869
288.703	87.3887
291.596	136.14
294.489	125.653
297.381	169.194
300.274	360.301
303.167	379.165
306.059	60.9423
308.952	22.1517
311.845	29.9402
314.738	45.6962
317.63	63.6824
320.523	105.955
323.416	217.21
326.308	376.291
329.201	109.671
332.094	9.34827
334.986	3.96082
337.879	9.17615
340.772	16.1067
343.665	12.0048
346.557	3.48047
349.45	12.187
352.343	22.8503
355.235	46.9988
358.128	127.265
361.021	207.781
363.913	64.8599
366.806	35.1777
369.699	86.7761
372.592	132.958
375.484	142.077
378.377	201.792
381.27	245.141
384.162	386.872
387.055	403.341
389.948	229.524
392.841	311.613
395.733	146.291
398.626	134.358
401.519	256.88
404.411	420.328
407.304	190.553
410.197	19.9453
413.089	5.18457
415.982	7.65906
418.875	10.6018
421.767	19.0607
424.66	25.5812
427.553	40.588
430.446	85.8148
433.338	164.388
436.231	295.696
439.124	303.919
442.017	138.894
444.909	57.5952
447.802	75.5188
450.695	54.3628
453.587	3.07019
456.48	0.799683
459.373	0.985962
462.265	8.03345
465.158	29.6748
468.051	36.7556
470.943	65.6692
473.836	112.039
476.729	174.598
479.622	273.809
482.514	481.255
485.407	830.009
488.3	849.725
491.192	366.963
494.085	224.88
496.978	122.024
499.87	61.0713
502.763	35.8533
505.656	30.4119
508.549	24.5684
511.441	31.4801
514.334	26.2415
517.227	15.2873
520.119	10.0414
523.012	1.25745
525.905	1.90039
528.798	2.01379
531.69	0.702759
534.583	0.621704
537.476	0.715332
540.368	1.77026
543.261	5.4054
546.154	5.59314
549.047	14.5557
551.939	14.8612
554.832	24.3114
557.725	41.4675
560.617	74.4606
563.51	104.574
566.403	52.3998
569.295	27.7866
572.188	23.2673
575.081	15.6599
577.973	8.43982
580.866	9.94714
583.759	18.9342
586.652	23.1442
589.544	10.0189
592.437	1.24292
595.33	0.216064
598.222	10.3992
601.115	16.9694
604.008	35.7573
606.901	43.2595
609.793	25.1595
612.686	20.8562
615.579	24.6544
618.471	20.0874
621.364	22.3837
624.257	24.6189
627.149	32.356
630.042	50.8513
632.935	65.5576
635.828	80.3937
638.72	90.3489
641.613	52.2135
644.506	31.024
647.398	28.7784
650.291	33.4036
653.184	58.5869
656.077	85.6923
658.969	82.4919
661.862	46.8225
664.755	30.1689
667.647	19.8212
670.54	17.5245
673.433	13.6516
676.325	6.67932
679.218	3.87024
682.111	2.04822
685.004	4.16016
687.896	4.9165
690.789	2.44617
693.682	0.32251
696.574	5.10559
699.467	2.6366
702.36	10.9988
705.253	12.6697
708.145	8.58899
711.038	4.08667
713.931	4.53699
716.823	7.94971
719.716	7.12354
722.609	1.49182
725.501	4.27808
728.394	8.57129
731.287	7.49365
734.179	2.8396
737.072	6.10083
739.965	6.38184
742.858	4.17297
745.75	2.35046
748.643	4.651
751.536	0.389038
754.428	6.05811
757.321	9.13965
760.214	6.94311
763.107	8.25464
765.999	8.46619
768.892	5.72803
771.785	8.79114
774.677	8.99695
777.57	3.28137
780.463	1.15466
783.356	3.19263
786.248	7.39197
789.141	5.77832
792.034	6.17102
794.926	10.0609
797.819	11.6707
800.712	17.0359
803.604	18.0919
806.497	8.2345
809.39	10.1051
812.283	11.6692
815.175	13.2198
818.068	11.5277
820.961	10.8884
823.853	12.6691
826.746	3.45654
829.639	1.11194
832.531	5.77502
835.424	1.49951
838.317	2.18298
841.21	0.09314
844.102	0.207642
846.995	1.41553
849.888	6.57764
852.78	3.78296
855.673	2.82642
858.566	1.34753
861.458	0.17334
864.351	1.85181
867.244	8.15625
870.136	13.882
873.029	9.02124
875.922	12.3886
878.815	13.7792
881.707	12.9606
884.6	14.2376
887.493	17.2455
890.385	25.6953
893.278	24.0308
896.171	26.7974
899.064	40.0994
901.956	39.4917
904.849	21.5515
907.742	13.6533
910.634	3.45898
913.527	2.6228
916.42	1.78894
919.312	10.6185
922.205	11.7371
925.098	33.6182
927.991	56.7371
930.883	74.1686
933.776	115.646
936.669	146.615
939.562	181.982
942.454	231.411
945.347	294.863
948.24	346.4
951.132	378.257
954.025	388.381
956.918	394.651
959.81	408.787
962.703	382.813
965.596	306.636
968.489	207.398
971.381	130.343
974.274	86.8068
977.167	51.6758
980.059	35.499
982.952	25.5679
985.845	15.968
988.737	12.2636
991.63	19.0139
994.523	30.879
997.415	53.2224
1000.31	69.6533
1003.2	59.0392
1006.09	30.5966
1008.99	12.2554
1011.88	10.5267
1014.77	5.3479
1017.66	0.591309
1020.56	0.458862
1023.45	0.749634
1026.34	1.74292
1029.23	2.46094
1032.13	1.46887
1035.02	4.25561
1037.91	2.00317
1040.81	4.80652
1043.7	3.401
1046.59	5.68213
1049.48	0.539429
1052.38	0.23584
1055.27	8.9198
1058.16	13.1787
1061.06	10.0824
1063.95	3.67932
1066.84	5.38647
1069.73	10.0875
1072.63	11.0579
1075.52	12.5335
1078.41	14.3665
1081.3	20.3109
1084.2	18.2886
1087.09	17.2684
1089.98	12.3513
1092.88	11.4543
1095.77	14.9373
1098.66	11.7783
1101.55	17.1881
1104.45	16.092
1107.34	17.7279
1110.23	21.1735
1113.12	15.1433
1116.02	19.7578
1118.91	17.8765
1121.8	18.295
1124.69	21.4606
1127.59	16.4579
1130.48	16.9589
1133.37	19.6239
1136.27	21.4347
1139.16	16.6072
1142.05	12.7267
1144.94	10.2256
1147.84	15.1825
1150.73	11.1534
1153.62	13.8904
1156.51	7.94482
1159.41	10.0548
1162.3	11.171
1165.19	12.7835
1168.09	6.5531
1170.98	10.2842
1173.87	7.7406
1176.76	5.1416
1179.66	4.776
1182.55	0.543457
1185.44	1.79968
1188.33	0.376587
1191.23	7.23987
1194.12	7.65234
1197.01	4.10718
1199.9	2.39331
1202.8	0.550293
1205.69	3.22131
1208.58	1.76416
1211.48	1.94067
1214.37	2.18225
1217.26	2.80261
1220.15	2.20569
1223.05	0.226929
1225.94	0.41748
1228.83	2.14648
1231.72	1.1571
1234.62	11.028
1237.51	4.40942
1240.4	4.41309
1243.3	10.9232
1246.19	2.92004
1249.08	7.28735
1251.97	13.8798
1254.87	10.6343
1257.76	11.7007
1260.65	14.0819
1263.54	14.7672
1266.44	9.97986
1269.33	9.96411
1272.22	12.4911
1275.12	1.77002
1278.01	3.125
1280.9	5.80933
1283.79	7.50317
1286.69	6.84961
1289.58	3.88049
1292.47	0.446289
1295.36	5.17346
1298.26	2.57666
1301.15	1.54858
