Measurement: Raman, 532 nm, unoriented, Raman Data Processed
Mineral: Kyanite
Rruff sample: R040119
Ideal chemistry: Al_2_OSiO_4_
Locality: Rutherford County, North Carolina, USA
Source: University of Arizona Mineral Museum
Description: Blue bladed crystal
Measured chemistry: (Al_0.99_Fe^3+^_0.01_)_2_OSi_1.00_O_4_
Raman shift (cm-1)	intensity
152.554	0
155.929	14.2345
159.304	14.5386
162.679	27.9041
166.054	5.58789
169.429	27.3314
172.803	57.231
176.178	68.4426
179.553	55.2626
182.928	43.1448
186.303	81.8991
189.678	64.639
193.052	38.9891
196.427	75.3257
199.802	81.6373
203.177	148.283
206.552	257.234
209.926	116.061
213.301	106.816
216.676	89.4575
220.051	87.0531
223.426	153.921
226.8	205.315
230.175	88.4646
233.55	50.3019
236.925	99.156
240.3	103.011
243.675	168.87
247.049	98.1453
250.424	93.4714
253.799	16.9989
257.174	25.4473
260.549	14.8665
263.923	22.8793
267.298	1.1217
270.673	98.8165
274.048	209.813
277.423	547.173
280.798	148.263
284.173	133.752
287.547	366.027
290.922	781.163
294.297	837.145
297.672	1593.14
301.046	3493.03
304.421	592.04
307.796	156.32
311.171	164.389
314.546	292.036
317.921	577.72
321.295	1214.58
324.67	3095.2
328.045	704.923
331.42	55.3353
334.795	32.3557
338.17	66.0476
341.544	157.998
344.919	12.811
348.294	12.5678
351.669	69.1702
355.044	367.728
358.418	1158.09
361.793	664.657
365.168	290.887
368.543	526.508
371.918	886.206
375.293	874.07
378.667	1176.24
382.042	1921.24
385.417	2523.74
388.792	1271
392.167	2302.6
395.541	598.628
398.916	1005.04
402.291	2577.69
405.666	1450.09
409.041	204.011
412.416	34.697
415.79	39.9172
419.165	112.803
422.54	2.9353
425.915	120.904
429.29	502.636
432.664	1229.97
436.039	2268.59
439.414	1484.33
442.789	436.528
446.164	565.873
449.538	319.107
452.913	5.24072
456.288	31.4783
459.663	34.5586
463.038	174.47
466.413	186.745
469.787	217.051
473.162	485.765
476.537	1151.91
479.912	2395.4
483.287	5098.43
486.661	6444.39
490.036	2420.65
493.411	1361.33
496.786	636.107
500.161	358.894
503.536	301.074
506.911	292.726
510.285	315.484
513.66	220.228
517.035	98.1442
520.41	31.7235
523.784	16.4561
527.159	0.185791
530.534	11.1619
533.909	7.84424
537.284	1.36279
540.659	9.37378
544.033	24.1232
547.408	56.1121
550.783	46.781
554.158	123.709
557.533	310.579
560.908	757.072
564.282	510.553
567.657	170.869
571.032	151.16
574.407	61.9329
577.782	79.158
581.156	146.702
584.531	236.213
587.906	91.7385
591.281	10.7883
594.656	7.31775
598.031	64.8425
601.405	217.482
604.78	444.343
608.155	307.898
611.53	167.641
614.905	167.461
618.279	185.709
621.654	155.474
625.029	243.694
628.404	418.636
631.779	453.119
635.154	578.379
638.528	437.091
641.903	177.839
645.278	135.257
648.653	232.844
652.028	396.793
655.403	572.748
658.777	438.776
662.152	236.816
665.527	283.98
668.902	371.308
672.277	277.839
675.651	86.9423
679.026	46.7639
682.401	7.56531
685.776	10.3773
689.151	9.21716
692.525	8.85962
695.9	6.78247
699.275	48.5171
702.65	79.3309
706.025	58.3115
709.399	51.7585
712.774	34.2632
716.149	29.9586
719.524	35.5029
722.899	30.7211
726.274	65.6066
729.648	46.6605
733.023	73.4358
736.398	51.7103
739.773	42.8209
743.148	35.7091
746.523	40.838
749.897	22.7701
753.272	18.5068
756.647	32.9775
760.022	12.6349
763.397	13.8474
766.771	15.9243
770.146	14.8986
773.521	1.74206
776.896	19.8227
780.271	28.3124
783.646	20.0503
787.02	37.6455
790.395	26.7733
793.77	65.6638
797.145	40.397
800.52	74.5343
803.894	62.4125
807.269	59.7041
810.644	68.5856
814.019	77.6113
817.394	68.8921
820.769	52.3563
824.143	51.2946
827.518	33.0687
830.893	48.6853
834.268	30.6017
837.643	31.1724
841.018	13.6517
844.392	3.16479
847.767	19.0371
851.142	30.9349
854.517	18.4014
857.891	6.18225
861.266	18.2266
864.641	36.5956
868.016	14.0443
871.391	59.3241
874.766	97.6415
878.14	192.261
881.515	269.186
884.89	385.013
888.265	544.528
891.64	536.219
895.015	487.951
898.389	572.295
901.764	576.633
905.139	387.899
908.514	237.2
911.889	209.094
915.264	227.633
918.638	287.23
922.013	320.365
925.388	491.102
928.763	672.203
932.138	966.385
935.512	1396.59
938.887	1880.19
942.262	2553.94
945.637	3437.75
949.012	4124.55
952.386	4069.97
955.761	3656.74
959.136	3459.71
962.511	2856.92
965.886	1990.84
969.261	1239.38
972.635	737.204
976.01	461.13
979.385	298.753
982.76	211.638
986.135	162.687
989.51	190.059
992.884	309.906
996.259	545.532
999.634	768.978
1003.01	542.899
1006.38	227.651
1009.76	74.973
1013.13	57.7895
1016.51	14.07
1019.88	28.1584
1023.26	8.07788
1026.63	2.38391
1030.01	12.3964
1033.38	23.4788
1036.76	12.2012
1040.13	7.96326
1043.51	23.8253
1046.88	23.3848
1050.26	0.942627
1053.63	16.0325
1057.01	27.6165
1060.38	25.3097
1063.76	4.58472
1067.13	20.5369
1070.51	21.537
1073.88	22.5599
1077.26	26.9779
1080.63	24.0006
1084	18.7822
1087.38	49.2953
1090.75	56.3518
1094.13	47.8151
1097.5	58.0486
1100.88	39.1334
1104.25	49.408
1107.63	36.442
1111	28.4447
1114.38	25.9473
1117.75	20.1492
1121.13	60.1154
1124.5	48.7895
1127.88	42.2705
1131.25	56.5602
1134.63	27.4587
1138	35.9462
1141.38	44.0005
1144.75	24.1703
1148.13	28.8386
1151.5	0.9729
1154.88	17.1987
1158.25	14.0217
1161.62	18.207
1165	11.5665
1168.38	13.7398
1171.75	19.912
1175.12	30.8529
1178.5	16.3328
1181.87	35.3536
1185.25	36.1404
1188.62	24.7269
1192	6.5437
1195.37	22.4861
1198.75	26.8256
1202.12	11.8933
1205.5	22.5349
1208.87	43.4414
1212.25	6.09631
1215.62	64.5557
1219	11.7394
1222.37	37.0123
1225.75	5.10339
1229.12	6.61853
1232.5	30.7763
1235.87	1.92322
1239.25	69.6376
1242.62	26.2428
1246	61.156
1249.37	31.8058
1252.74	28.9241
1256.12	31.2214
1259.49	48.1985
1262.87	49.1401
1266.24	41.8937
1269.62	26.8389
1272.99	33.0393
1276.37	25.1169
1279.74	61.848
1283.12	7.0907
1286.49	18.2266
1289.87	15.6466
1293.24	11.5365
1296.62	29.4243
1299.99	7.46106
1303.37	33.4473
1306.74	24.6201
