Measurement: Raman, 532 nm, unoriented, Raman Data Processed
Mineral: Kyanite
Rruff sample: R050450
Ideal chemistry: Al_2_OSiO_4_
Locality: Switzerland
Source: Marcus Origlieri
Description: Blue bladed crystals
Measured chemistry: Al_2.00_OSi_1.00_O_4_
Raman shift (cm-1)	intensity
160.915	0
163.807	2.4223
166.7	3.83844
169.593	9.69632
172.486	11.4116
175.378	18.3619
178.271	18.0798
181.164	4.96176
184.056	3.51267
186.949	5.30453
189.842	3.19543
192.734	0.312195
195.627	0.041199
198.52	0.942963
201.412	3.63592
204.305	2.16617
207.198	5.69705
210.091	12.1537
212.983	11.1365
215.876	12.5702
218.769	20.7956
221.661	33.0448
224.554	63.0277
227.447	54.5254
230.339	7.99213
233.232	2.34116
236.125	5.02075
239.018	3.44928
241.91	5.03577
244.803	1.6615
247.696	0.223114
250.588	1.64401
253.481	2.28748
256.374	1.70859
259.267	1.2019
262.159	1.883
265.052	0.772736
267.945	0.790436
270.837	5.06851
273.73	18.9178
276.623	41.9226
279.515	30.5619
282.408	43.8199
285.301	91.5975
288.193	137.912
291.086	207.583
293.979	188.875
296.872	291.547
299.764	549.911
302.657	428.561
305.55	67.8115
308.442	38.4589
311.335	34.4947
314.228	50.5973
317.12	52.2567
320.013	61.761
322.906	136.476
325.799	208.152
328.691	31.0861
331.584	4.67816
334.477	9.60477
337.369	0.469086
340.262	15.0695
343.155	13.5526
346.048	5.87561
348.94	11.742
351.833	32.8018
354.726	69.1474
357.618	166.614
360.511	253.069
363.404	70.8569
366.296	54.8285
369.189	104.656
372.082	158.143
374.974	153.013
377.867	170.202
380.76	143.827
383.653	221.798
386.545	230.249
389.438	219.585
392.331	321.087
395.223	99.5606
398.116	80.9999
401.009	160.369
403.901	257.316
406.794	94.2347
409.687	20.1444
412.58	12.4681
415.472	30.7559
418.365	70.1018
421.258	51.333
424.15	34.0384
427.043	42.8025
429.936	80.9457
432.829	148.5
435.721	248.602
438.614	266.329
441.507	100.725
444.399	47.055
447.292	63.779
450.185	33.3798
453.077	4.96304
455.97	5.58481
458.863	1.88406
461.755	8.00858
464.648	24.5505
467.541	41.0311
470.434	84.5082
473.326	145.19
476.219	215.889
479.112	328.53
482.004	544.528
484.897	879.388
487.79	780.574
490.683	343.883
493.575	224.654
496.468	124.06
499.361	76.2596
502.253	65.4566
505.146	71.1227
508.039	85.6445
510.931	97.2945
513.824	78.3742
516.717	32.2751
519.61	11.2392
522.502	1.32834
525.395	2.2583
528.288	1.87106
531.18	0.254272
534.073	0.76236
536.966	1.72339
539.859	8.22385
542.751	20.2428
545.644	25.9536
548.537	22.327
551.429	22.8099
554.322	30.7899
557.215	56.3329
560.107	98.2969
563	129.211
565.893	89.546
568.785	99.2496
571.678	127.258
574.571	82.7892
577.464	35.0264
580.356	15.8553
583.249	13.4251
586.142	11.0675
589.034	9.42743
591.927	5.34695
594.82	11.4909
597.712	14.8601
600.605	28.5362
603.498	42.858
606.39	51.0779
609.283	26.8081
612.176	13.1654
615.069	9.73401
617.961	7.1138
620.854	0.124146
623.747	1.84058
626.639	3.87927
629.532	8.91919
632.425	10.1524
635.317	18.1663
638.21	14.8003
641.103	4.16171
643.996	0.847504
646.888	4.20493
649.781	0.614563
652.674	2.99213
655.566	10.9558
658.459	9.35358
661.352	13.121
664.245	18.9458
667.137	29.6245
670.03	37.8746
672.923	26.2169
675.815	11.6632
678.708	5.76553
681.601	8.15668
684.493	8.2135
687.386	5.50732
690.279	3.63229
693.172	2.22116
696.064	1.08072
698.957	7.84363
701.85	6.36111
704.742	3.20303
707.635	1.42636
710.528	2.82886
713.42	3.83734
716.313	9.3331
719.206	13.0569
722.098	18.2531
724.991	17.5843
727.884	7.09097
730.777	5.21335
733.669	0.406616
736.562	0.892578
739.455	0.314606
742.347	0.219421
745.24	1.30371
748.133	0.589081
751.025	2.20783
753.918	1.33462
756.811	2.75876
759.704	1.32852
762.596	1.83337
765.489	2.85565
768.382	3.14691
771.274	4.01837
774.167	4.53885
777.06	2.22916
779.952	1.4281
782.845	5.84604
785.738	1.4805
788.631	3.42233
791.523	1.53458
794.416	5.18167
797.309	4.14127
800.201	4.37659
803.094	3.30743
805.987	1.1759
808.88	5.19476
811.772	3.83865
814.665	3.93976
817.558	3.32684
820.45	1.36865
823.343	0.353424
826.236	0.872467
829.128	1.86823
832.021	1.27423
834.914	1.34427
837.807	0.631805
840.699	1.45389
843.592	2.07016
846.485	0.307312
849.377	0.828979
852.27	0.680939
855.163	3.08737
858.055	4.57407
860.948	9.48718
863.841	15.5953
866.734	22.9426
869.626	34.5318
872.519	58.5863
875.412	80.0691
878.304	125.16
881.197	177.111
884.09	240.657
886.982	315.691
889.875	353.633
892.768	291.973
895.66	237.143
898.553	233.68
901.446	236.596
904.339	166.383
907.231	97.1205
910.124	54.2827
913.017	30.5676
915.909	19.4595
918.802	12.4122
921.695	14.6793
924.587	17.6879
927.48	29.138
930.373	41.2751
933.266	57.7054
936.158	81.9137
939.051	104.82
941.944	128.552
944.836	153.04
947.729	184.151
950.622	198.721
953.514	193.877
956.407	176.543
959.3	164.743
962.193	143.461
965.085	110.376
967.978	70.7496
970.871	44.0907
973.763	24.0904
976.656	13.1555
979.549	6.95389
982.442	3.35364
985.334	0.350586
988.227	1.06766
991.12	2.06934
994.012	8.95953
996.905	17.7223
999.798	23.9952
1002.69	20.7826
1005.58	12.2875
1008.48	3.57996
1011.37	2.4223
1014.26	0.432312
1017.15	1.46408
1020.05	1.17209
1022.94	1.0369
1025.83	1.65646
1028.72	0.494202
1031.62	2.64246
1034.51	1.27292
1037.4	0.916443
1040.3	0.953888
1043.19	1.55173
1046.08	0.012878
1048.97	2.26486
1051.87	1.95981
1054.76	2.79471
1057.65	2.90192
1060.54	3.41242
1063.44	3.3851
1066.33	3.67542
1069.22	4.99548
1072.12	6.67276
1075.01	6.84924
1077.9	6.0318
1080.79	8.82501
1083.69	8.83087
1086.58	5.36447
1089.47	4.74197
1092.36	6.86905
1095.26	4.01199
1098.15	6.9946
1101.04	7.61438
1103.93	6.5636
1106.83	6.7485
1109.72	3.34723
1112.61	4.50311
1115.51	3.44122
1118.4	3.95401
1121.29	4.22641
1124.18	3.20734
1127.08	3.85107
1129.97	5.94043
1132.86	5.57156
1135.76	4.11353
1138.65	3.21381
1141.54	6.08758
1144.43	3.39987
1147.33	3.48349
1150.22	1.15726
1153.11	3.30035
1156	2.7869
1158.9	4.20743
1161.79	0.427216
1164.68	3.2009
1167.57	3.00186
1170.47	4.45361
1173.36	4.32504
1176.25	1.59897
1179.14	1.43613
1182.04	0.649384
1184.93	2.01419
1187.82	0.969727
1190.72	0.712738
1193.61	1.44464
1196.5	1.33069
1199.39	2.4436
1202.29	1.65753
1205.18	0.420349
1208.07	1.30426
1210.96	2.17798
1213.86	3.54504
1216.75	1.29254
1219.64	1.80829
1222.54	2.59985
1225.43	2.69513
1228.32	0.882019
1231.21	3.15787
1234.11	3.56348
1237	1.71997
1239.89	3.48822
1242.79	3.64557
1245.68	2.14395
1248.57	1.43054
1251.46	4.34457
1254.36	3.07352
1257.25	4.06891
1260.14	2.79221
1263.03	2.60236
1265.93	0.384644
1268.82	2.31119
1271.71	1.2265
1274.6	3.5
1277.5	2.17789
1280.39	0.37793
1283.28	2.44714
1286.17	0
