Measurement: Raman, 532 nm, unoriented, Raman Data Processed
Mineral: Kyanite
Rruff sample: R100159
Ideal chemistry: Al_2_OSiO_4_
Locality: Tanzania
Source: William W. Pinch
Description: Reddish-orange cut gemstone
Raman shift (cm-1)	intensity
132.979	0
136.354	5.06248
139.729	2.81654
143.104	13.9058
146.479	16.7464
149.853	22.3377
153.228	41.1003
156.603	57.8092
159.978	66.8073
163.353	72.5446
166.728	83.1301
170.102	100.63
173.477	94.1593
176.852	89.6216
180.227	72.2337
183.602	57.155
186.976	59.4004
190.351	56.433
193.726	51.3898
197.101	47.0447
200.476	48.4002
203.851	53.9538
207.225	56.1022
210.6	47.5443
213.975	42.8044
217.35	41.0176
220.725	42.0129
224.1	60.0476
227.474	57.3389
230.849	22.415
234.224	14.7745
237.599	13.3785
240.974	17.2429
244.348	11.5264
247.723	10.6255
251.098	4.66026
254.473	1.17099
257.848	4.4184
261.223	0.097198
264.597	3.07021
267.972	1.22418
271.347	6.1046
274.722	24.0745
278.097	43.6542
281.471	37.435
284.846	76.6299
288.221	120.479
291.596	173.539
294.971	203.727
298.346	382.259
301.72	532.666
305.095	124.95
308.47	45.1515
311.845	43.7255
315.22	58.6929
318.594	79.6186
321.969	152.95
325.344	245.089
328.719	65.2039
332.094	0.830048
335.469	6.92386
338.843	0.276337
342.218	9.83337
345.593	6.45725
348.968	6.55728
352.343	27.0084
355.717	73.9412
359.092	162.137
362.467	89.2153
365.842	21.6701
369.217	42.4462
372.592	80.3279
375.966	131.905
379.341	176.351
382.716	265.465
386.091	302.028
389.466	249.69
392.841	309.56
396.215	105.934
399.59	140.532
402.965	248.881
406.34	127.597
409.715	17.2633
413.089	1.1557
416.464	15.6414
419.839	31.0831
423.214	31.3986
426.589	55.9793
429.964	107.889
433.338	210.296
436.713	309.336
440.088	210.257
443.463	77.0807
446.838	79.773
450.212	43.5795
453.587	1.96039
456.962	6.50415
460.337	4.586
463.712	27.2774
467.087	53.4923
470.461	111.339
473.836	190.494
477.211	305.526
480.586	523.954
483.961	879.868
487.336	879.337
490.71	396.233
494.085	208.159
497.46	100.562
500.835	63.6294
504.21	53.8514
507.584	59.518
510.959	64.9443
514.334	40.455
517.709	12.1217
521.084	1.27689
524.458	2.53445
527.833	3.0849
531.208	2.57181
534.583	2.6362
537.958	5.1647
541.333	8.96335
544.707	17.0971
548.082	18.6859
551.457	21.3642
554.832	36.3807
558.207	66.1789
561.582	102.868
564.956	81.8251
568.331	61.9826
571.706	67.1995
575.081	47.1489
578.456	26.1885
581.83	16.6667
585.205	13.9346
588.58	11.7693
591.955	11.2547
595.33	16.5171
598.705	31.274
602.079	44.8868
605.454	61.3646
608.829	41.718
612.204	22.5349
615.579	23.4402
618.953	16.6145
622.328	10.2275
625.703	10.106
629.078	15.9816
632.453	23.1974
635.828	29.3791
639.202	23.0547
642.577	7.5491
645.952	2.10889
649.327	11.8678
652.702	27.7264
656.077	39.2603
659.451	27.6305
662.826	16.0395
666.201	18.0009
669.576	23.8876
672.951	17.4713
676.325	3.53088
679.7	3.56399
683.075	3.16434
686.45	0.852112
689.825	1.98419
693.199	3.63031
696.574	3.4364
699.949	2.13965
703.324	3.03861
706.699	1.60568
710.074	2.9704
713.448	11.1478
716.823	11.7285
720.198	18.5938
723.573	24.2915
726.948	16.4318
730.323	10.0364
733.697	12.1709
737.072	6.70337
740.447	8.21609
743.822	2.77789
747.197	3.38901
750.572	3.388
753.946	1.93726
757.321	3.27115
760.696	1.59598
764.071	4.7196
767.446	1.52274
770.82	1.57333
774.195	4.41223
777.57	4.44199
780.945	3.9165
784.32	2.9389
787.694	2.93713
791.069	5.86868
794.444	7.66827
797.819	6.5206
801.194	8.01114
804.569	5.47201
807.943	3.04642
811.318	8.32297
814.693	5.81595
818.068	4.01904
821.443	4.3443
824.818	0.767273
828.192	2.56787
831.567	1.19077
834.942	0.349243
838.317	1.77252
841.692	1.13129
845.067	1.03497
848.441	2.27441
851.816	0.851135
855.191	0.369568
858.566	3.04724
861.941	9.68964
865.315	15.1732
868.69	30.2866
872.065	49.3214
875.44	87.8473
878.815	147.771
882.189	219.667
885.564	311.942
888.939	396.978
892.314	350.256
895.689	252.044
899.064	213.775
902.438	163.145
905.813	93.6081
909.188	52.5836
912.563	30.0351
915.938	20.9337
919.312	22.2875
922.687	29.6309
926.062	41.5134
929.437	58.6988
932.812	86.7114
936.187	127.823
939.562	154.335
942.936	190.779
946.311	235.715
949.686	268.561
953.061	271.324
956.436	251.915
959.81	247.58
963.185	212.836
966.56	138.417
969.935	81.8218
973.31	45.9005
976.684	22.9039
980.059	11.7891
983.434	4.05719
986.809	3.42877
990.184	9.80719
993.559	20.0738
996.933	40.5809
1000.31	61.811
1003.68	41.0167
1007.06	19.6758
1010.43	4.02869
1013.81	1.2262
1017.18	1.50934
1020.56	3.97906
1023.93	0.608398
1027.31	2.47699
1030.68	0.354919
1034.06	3.35864
1037.43	2.86902
1040.81	5.99298
1044.18	1.73395
1047.56	1.92834
1050.93	3.01764
1054.31	6.07391
1057.68	5.75385
1061.06	7.50635
1064.43	4.21887
1067.81	6.75702
1071.18	9.38129
1074.55	9.94464
1077.93	9.21393
1081.3	9.37592
1084.68	9.659
1088.05	6.69531
1091.43	6.5896
1094.8	5.15204
1098.18	6.34467
1101.55	6.94043
1104.93	2.81165
1108.3	2.80469
1111.68	5.95154
1115.05	5.95435
1118.43	0.853516
1121.8	4.79169
1125.18	4.86609
1128.55	5.71893
1131.93	3.61585
1135.3	4.55969
1138.68	1.85998
1142.05	6.54541
1145.43	4.38251
1148.8	3.35883
1152.17	0.363953
1155.55	2.74316
1158.92	2.00488
1162.3	5.41125
1165.67	1.39484
1169.05	4.69318
1172.42	2.02917
1175.8	3.87292
1179.17	2.82849
1182.55	2.47742
1185.92	3.42468
1189.3	3.86328
1192.67	4.89062
1196.05	0.13324
1199.42	4.92108
1202.8	3.41589
1206.17	2.74945
1209.55	4.1944
1212.92	7.46606
1216.3	4.77594
1219.67	4.7356
1223.05	6.24237
1226.42	4.2561
1229.8	0.76947
1233.17	0.748291
1236.55	1.888
1239.92	6.45709
1243.3	2.98682
1246.67	4.49585
1250.05	3.82025
1253.42	6.55286
1256.8	5.16327
1260.17	8.42584
1263.54	8.83856
1266.92	7.95477
1270.29	6.98022
1273.67	7.8681
1277.04	3.95544
1280.42	6.42303
1283.79	0.832031
1287.17	3.27692
1290.54	6.11768
1293.92	9.17468
1297.29	1.42358
1300.67	0.060181
