Measurement: Raman, 514 nm, unoriented, Raman Data Processed
Mineral: Kyanite
Rruff sample: R040119
Ideal chemistry: Al_2_OSiO_4_
Locality: Rutherford County, North Carolina, USA
Source: University of Arizona Mineral Museum
Description: Blue bladed crystal
Measured chemistry: (Al_0.99_Fe^3+^_0.01_)_2_OSi_1.00_O_4_
Raman shift (cm-1)	intensity
103.124	0
107.3	202.766
111.473	219.937
115.644	428.17
119.813	334.44
123.981	102.122
128.146	116.304
132.309	235.456
136.47	206.732
140.63	360.233
144.787	315.059
148.942	134.371
153.096	127.519
157.247	2.426
161.396	105.133
165.544	168.618
169.689	125.323
173.833	198.501
177.974	167.658
182.114	300.692
186.251	322.254
190.387	338.503
194.52	414.336
198.652	576.746
202.782	887.716
206.909	923.233
211.035	487.255
215.159	74.736
219.281	401.649
223.4	419.977
227.518	334.654
231.634	91.597
235.748	75.391
239.86	166.727
243.97	91.608
248.079	67.812
252.185	29.731
256.289	96.022
260.391	72.137
264.492	212.663
268.59	129.694
272.687	1254.55
276.781	1186.43
280.874	564.841
284.964	1449.7
289.053	2131.94
293.14	4105.59
297.225	9605.35
301.308	7452.3
305.389	1846.45
309.468	505.7
313.545	717.968
317.62	3077.29
321.693	8270.65
325.765	6441.18
329.834	1320.86
333.902	408.683
337.967	634.676
342.031	491.725
346.093	190.193
350.153	322.872
354.21	2623.66
358.267	3580.74
362.321	2008.47
366.373	1474.1
370.423	2434.51
374.471	2679.69
378.518	4458.63
382.563	5775.3
386.605	6127.3
390.646	4808.59
394.685	2712.97
398.722	8231.6
402.757	6280.44
406.79	2710.51
410.821	1105.8
414.851	1301.96
418.878	1338.88
422.904	846.304
426.927	1354.92
430.949	7153.22
434.969	7716.85
438.987	5229.72
443.003	2735.82
447.018	2244.16
451.03	843.796
455.041	388.781
459.049	432.137
463.056	577.816
467.061	545.805
471.064	746.156
475.065	2193.91
479.064	8110
483.062	18894.4
487.057	15673.2
491.051	6163.23
495.043	2614.57
499.032	1240.29
503.02	1067.26
507.007	1181.62
510.991	1142.23
514.973	526.082
518.954	288.149
522.933	164.423
526.91	84.126
530.885	75.644
534.858	183.212
538.829	54.972
542.799	84.2
546.766	46.599
550.732	102.158
554.696	739.879
558.658	2453.76
562.618	2455.8
566.576	868.984
570.533	409.317
574.488	295.873
578.44	555.733
582.391	953.985
586.341	692.643
590.288	364.654
594.233	261.785
598.177	987.028
602.119	2367.64
606.059	2698.69
609.997	1455.97
613.933	1256.23
617.868	1310.35
621.801	1176.71
625.731	1720.11
629.66	1968.7
633.588	1626.48
637.513	1144.05
641.437	771.088
645.358	590.769
649.278	895.001
653.196	1369.98
657.113	1445.26
661.027	1319.93
664.94	1289.5
668.851	1548.65
672.76	1164.69
676.667	621.32
680.572	688.126
684.476	572.195
688.378	484.434
692.278	474.531
696.176	503.411
700.072	663.404
703.967	621.371
707.86	792.214
711.751	601.112
715.64	466.919
719.527	328.632
723.413	450.246
727.297	354.761
731.179	289.141
735.059	290.471
738.937	262.657
742.814	233.72
746.689	311.651
750.562	154.449
754.433	45.109
758.303	29.619
762.17	105.888
766.036	95.864
769.901	54.607
773.763	13.525
777.624	70.192
781.482	62.452
785.339	49.631
789.195	54.306
793.048	28.576
796.9	53.032
800.75	64.813
804.598	92.009
808.445	110.312
812.289	23.241
816.132	41.262
819.973	100.887
823.813	150.763
827.65	46.428
831.486	199.925
835.32	53.293
839.152	209.568
842.983	287.824
846.812	343.196
850.639	257.669
854.464	337.041
858.288	467.279
862.11	365.374
865.93	585.319
869.748	575.846
873.564	814.777
877.379	944.348
881.192	1098.87
885.004	1600.34
888.813	1866.67
892.621	1981.87
896.427	2064.93
900.232	2486.84
904.034	2165.62
907.835	2085.06
911.634	2073
915.432	2152.29
919.227	2537.77
923.021	3100.95
926.813	3593.11
930.604	4492.05
934.393	6016.97
938.18	7593.34
941.965	10705.8
945.749	16107.2
949.53	22230.9
953.311	21106
957.089	15809.7
960.866	12731.8
964.641	9635.76
968.414	6535.78
972.185	4599.81
975.955	3265.67
979.723	2560.91
983.49	2152.52
987.254	2264.95
991.017	2188.72
994.779	2731.12
998.538	3831.51
1002.3	4112.48
1006.05	2383.99
1009.81	1648.35
1013.56	1225.37
1017.31	945.593
1021.06	923.957
1024.81	774.752
1028.55	812.484
1032.3	707.069
1036.04	753.787
1039.78	646.907
1043.52	550.526
1047.26	535
1050.99	573.146
1054.73	457.873
1058.46	515.184
1062.19	490.498
1065.92	441.78
1069.65	505.516
1073.37	404.022
1077.1	470.374
1080.82	403.149
1084.54	294.296
1088.26	240.603
1091.97	281.484
1095.69	381.959
1099.4	208.661
1103.12	53.646
1106.83	121.258
1110.54	80.415
1114.24	72.51
1117.95	21.045
1121.65	207.954
1125.35	319.913
1129.06	74.453
1132.75	121.044
1136.45	110.449
1140.15	34.978
1143.84	44.581
1147.53	41.325
1151.22	9.217
1154.91	148.306
1158.6	30.475
1162.28	164.298
1165.97	194.543
1169.65	146.57
1173.33	22.599
1177.01	52.116
1180.69	81.074
1184.36	86.945
1188.04	77.91
1191.71	93.146
1195.38	44.882
1199.05	61.21
1202.71	53.478
1206.38	155.318
1210.04	147.103
1213.71	127.309
1217.37	113.675
1221.03	92.222
1224.68	22.209
1228.34	208.312
1231.99	238.529
1235.65	186.564
1239.3	240.849
1242.95	223.484
1246.59	48.391
1250.24	2.839
1253.88	58.32
1257.53	141.278
1261.17	120.07
1264.81	161.267
1268.45	165.622
1272.08	64.258
1275.72	50.431
1279.35	61.198
1282.98	141.312
1286.61	39.24
1290.24	117.298
1293.87	62.086
1297.49	145.094
1301.11	283.888
1304.73	183.231
1308.36	118.535
1311.97	192.893
1315.59	255.048
1319.2	247.347
1322.82	73.701
1326.43	285.669
1330.04	165.679
1333.65	186.789
1337.26	179.42
1340.86	269.759
1344.47	72.521
1348.07	189.435
1351.67	5.049
1355.27	200.11
1358.87	471.204
1362.46	73.382
1366.06	341.196
1369.65	287.922
1373.24	251.251
1376.83	255.426
1380.42	207.777
1384	147.441
1387.59	225.607
1391.17	242.351
1394.75	213.807
1398.33	155.828
1401.91	129.58
1405.49	176.464
1409.06	168.814
1412.64	174.401
1416.21	290.538
1419.78	298.17
1423.35	269.433
1426.91	275.442
1430.48	251.403
1434.05	396.199
1437.61	474.568
1441.17	521.674
1444.73	457.238
1448.29	423.748
1451.84	399.344
1455.4	295.004
1458.95	409.252
1462.5	492.07
1466.05	371.719
1469.6	353.711
1473.15	366.133
1476.69	360.695
1480.24	261.633
1483.78	170.883
1487.32	240.592
1490.86	166.955
1494.39	304.197
1497.93	213.287
1501.46	24.637
1505	120.734
1508.53	183.846
1512.06	44.697
1515.59	175.66
1519.11	28.939
1522.64	0
