Measurement: Raman, 780 nm, unoriented, Raman Data Processed
Mineral: Labradorite
Rruff sample: R060082
Ideal chemistry: Na_0.5-0.3_Ca_0.5-0.7_Al_1.5-1.7_Si_2.5-2.3_O_8_
Locality: Pinacate Mountains, Sonora, Mexico
Source: University of Arizona Mineral Museum
Description: Colorless crystal fragment
Measured chemistry: (Na_0.40_K_0.02_Ca_0.58_)Al_1.58_Si_2.42_O_8_
Raman shift (cm-1)	intensity
113.234	0
116.126	1.73761
119.019	0.292145
121.912	1.20538
124.804	0.818359
127.697	3.34024
130.59	2.5806
133.482	4.78803
136.375	5.02194
139.268	7.18607
142.161	9.87158
145.053	12.7949
147.946	14.7498
150.839	16.7147
153.731	19.3666
156.624	22.277
159.517	24.6118
162.41	28.9259
165.302	35.6223
168.195	39.5399
171.088	45.5598
173.98	53.5485
176.873	58.9337
179.766	62.6383
182.658	63.0347
185.551	64.1367
188.444	62.6371
191.337	61.482
194.229	57.5074
197.122	53.2002
200.015	48.3672
202.907	39.9555
205.8	31.5729
208.693	26.7488
211.585	18.3616
214.478	13.5663
217.371	7.98077
220.263	5.18649
223.156	1.23663
226.049	0.550995
228.942	0.742493
231.834	0.305542
234.727	0.027283
237.62	1.33197
240.512	3.89829
243.405	5.37833
246.298	7.35822
249.19	10.9317
252.083	12.7024
254.976	15.5945
257.869	16.8995
260.761	17.7911
263.654	20.0364
266.547	21.3973
269.439	23.0607
272.332	24.0524
275.225	23.7887
278.118	24.0306
281.01	21.7756
283.903	21.3989
286.796	15.3326
289.688	10.9741
292.581	8.35928
295.474	4.70151
298.366	1.49149
301.259	0.162567
304.152	0.548309
307.045	0.051086
309.937	0.03479
312.83	0.302734
315.723	1.41852
318.615	4.31964
321.508	5.57837
324.401	5.96762
327.293	6.46359
330.186	8.65295
333.079	9.28287
335.971	10.0809
338.864	10.9448
341.757	9.78909
344.649	9.44992
347.542	8.25253
350.435	7.61453
353.328	5.9776
356.22	4.81329
359.113	4.42636
362.006	4.36865
364.898	2.57413
367.791	1.87494
370.684	2.4317
373.577	0.783966
376.469	0.881104
379.362	1.41846
382.255	0.668976
385.147	1.93997
388.04	4.30222
390.933	5.11267
393.825	8.13934
396.718	10.3179
399.611	12.8201
402.503	14.615
405.396	13.6203
408.289	11.713
411.182	8.25467
414.074	4.6788
416.967	1.1058
419.86	1.36764
422.752	1.26331
425.645	1.48462
428.538	1.00989
431.43	0.951508
434.323	0.439392
437.216	2.67206
440.109	3.4032
443.001	4.04752
445.894	6.55337
448.787	8.02106
451.679	11.6229
454.572	17.1386
457.465	22.4507
460.358	31.1209
463.25	40.1081
466.143	49.7974
469.036	60.6405
471.928	71.9624
474.821	84.6275
477.714	94.4894
480.606	100.251
483.499	101.38
486.392	100.051
489.284	100.319
492.177	105.942
495.07	116.411
497.963	135.09
500.855	152.341
503.748	167
506.641	168.605
509.533	151.394
512.426	121.205
515.319	88.8777
518.212	61.8523
521.104	40.8119
523.997	25.2313
526.89	14.2957
529.782	8.09991
532.675	2.96222
535.568	0.998749
538.46	1.39279
541.353	3.99277
544.246	6.58801
547.139	10.487
550.031	14.4453
552.924	18.9033
555.817	22.7737
558.709	25.9594
561.602	24.7076
564.495	21.6496
567.388	15.5267
570.28	10.3421
573.173	6.63033
576.066	2.47182
578.958	1.56638
581.851	0.215271
584.744	0.327744
587.636	0.42485
590.529	0.404068
593.422	0.375214
596.314	1.09045
599.207	0.519897
602.1	0.096466
604.992	0.500778
607.885	1.22739
610.778	1.79175
613.671	1.69035
616.563	1.35738
619.456	1.96165
622.349	2.47072
625.241	3.77801
628.134	4.41432
631.027	4.75609
633.919	2.91193
636.812	3.86325
639.705	3.62946
642.598	1.94997
645.49	1.66734
648.383	1.57565
651.276	0.031799
654.168	0.144135
657.061	0.561646
659.954	0.434601
662.846	0.258423
665.739	0.006287
668.632	1.16391
671.525	0.705795
674.417	0.885117
677.31	0.950607
680.203	1.33875
683.095	0.892715
685.988	1.2726
688.881	2.14911
691.774	1.35205
694.666	4.11592
697.559	5.27591
700.452	4.48592
703.344	4.24945
706.237	3.56421
709.13	3.49277
712.022	3.29541
714.915	2.39883
717.808	1.7412
720.701	2.09912
723.593	2.2177
726.486	2.18358
729.379	3.6091
732.271	4.47481
735.164	5.33661
738.057	6.24202
740.949	5.87907
743.842	7.38191
746.735	8.36284
749.628	7.79096
752.52	9.26826
755.413	10.1813
758.306	11.1492
761.198	11.9828
764.091	12.985
766.984	14.7198
769.876	15.0371
772.769	16.2072
775.662	15.4868
778.554	16.6099
781.447	16.4132
784.34	16.3397
787.233	16.6517
790.125	16.5815
793.018	13.8496
795.911	12.6962
798.803	10.1527
801.696	6.28275
804.589	5.75902
807.481	3.39803
810.374	2.63898
813.267	1.68562
816.16	0.66597
819.052	0.28389
821.945	0.313339
824.838	0.499451
827.73	0.342773
830.623	0.056366
833.516	0.791107
836.409	0.083603
839.301	0.242538
842.194	0.456894
845.087	0.368271
847.979	0.864761
850.872	0.209167
853.765	0.973877
856.657	0.563156
859.55	0.702362
862.443	1.46567
865.336	0.740921
868.228	0.196991
871.121	0.200058
874.014	0.471588
876.906	0.069092
879.799	0.24231
882.692	0.287399
885.584	0.622482
888.477	0.309814
891.37	1.15051
894.263	0.825699
897.155	2.62875
900.048	2.06546
902.941	2.57582
905.833	1.50159
908.726	2.85069
911.619	2.80185
914.511	2.76254
917.404	1.02249
920.297	2.03671
923.189	3.17743
926.082	2.2868
928.975	1.17265
931.868	1.40799
934.76	1.90153
937.653	1.11887
940.546	1.03322
943.438	0.776718
946.331	0.274261
949.224	0.034531
952.116	0.006134
955.009	0.036606
957.902	0.513855
960.795	0.777054
963.687	0.907074
966.58	3.3147
969.473	3.55957
972.365	3.6701
975.258	3.47136
978.151	2.9743
981.043	3.95688
983.936	3.25778
986.829	3.41359
989.722	2.69142
992.614	2.05757
995.507	1.96181
998.4	1.86626
1001.29	2.02399
1004.18	1.9883
1007.08	1.08217
1009.97	1.70581
1012.86	1.4003
1015.76	1.08601
1018.65	1.34644
1021.54	0.605011
1024.43	0.150208
1027.33	0.425125
1030.22	0.808334
1033.11	0.661392
1036.01	1.47707
1038.9	1.25264
1041.79	1.8338
1044.68	0.248428
1047.58	0.940857
1050.47	1.28677
1053.36	1.118
1056.25	1.42448
1059.15	1.11967
1062.04	1.16135
1064.93	1.09155
1067.82	1.03259
1070.72	0.339722
1073.61	0.900497
1076.5	0.086655
1079.39	0.122864
1082.29	0.866318
1085.18	0.445526
1088.07	1.56049
1090.97	1.62106
1093.86	1.75096
1096.75	1.18623
1099.64	1.00284
1102.54	0.766342
1105.43	0.572861
1108.32	0.740967
