Measurement: Raman, 780 nm, unoriented, Raman Data Processed
Mineral: Labradorite
Rruff sample: R060193
Ideal chemistry: Na_0.5-0.3_Ca_0.5-0.7_Al_1.5-1.7_Si_2.5-2.3_O_8_
Locality: Mexico
Source: Bill Barker
Description: Tan colored translucent fragment
Measured chemistry: (Ca_0.58_Na_0.39_K_0.02_)Al_1.60_Si_2.40_O_8_
Raman shift (cm-1)	intensity
168.002	0
170.894	1.12727
173.787	31.6169
176.68	45.5367
179.572	66.9471
182.465	87.9738
185.358	112.984
188.25	125.173
191.143	141.272
194.036	156.187
196.929	166.526
199.821	167.058
202.714	142.873
205.607	112.192
208.499	81.8649
211.392	55.0219
214.285	31.2061
217.178	13.2251
220.07	0.601624
222.963	1.9474
225.856	0.038937
228.748	3.10991
231.641	2.93691
234.534	10.7243
237.426	17.2596
240.319	28.9229
243.212	43.9547
246.105	57.4987
248.997	72.0972
251.89	88.6017
254.783	108.428
257.675	118.941
260.568	125.059
263.461	138.417
266.353	140.191
269.246	146.685
272.139	146.793
275.031	152.89
277.924	154.55
280.817	151.68
283.71	144.513
286.602	130.514
289.495	112.554
292.388	83.5336
295.28	64.9131
298.173	47.6041
301.066	23.8781
303.959	11.6782
306.851	3.94047
309.744	2.49557
312.637	0.608202
315.529	0.499939
318.422	1.37771
321.315	0.60094
324.207	4.88781
327.1	10.4283
329.993	21.0662
332.885	31.0788
335.778	29.465
338.671	38.7429
341.564	30.1436
344.456	33.0038
347.349	24.6685
350.242	22.3779
353.134	16.1662
356.027	13.0026
358.92	11.705
361.812	6.9085
364.705	4.12088
367.598	2.41986
370.491	9.61026
373.383	4.19825
376.276	4.89105
379.169	8.40577
382.061	7.79624
384.954	14.6342
387.847	18.3213
390.74	19.0513
393.632	28.873
396.525	35.4181
399.418	43.0702
402.31	55.6037
405.203	62.7649
408.096	54.6539
410.988	39.2835
413.881	26.6487
416.774	15.1763
419.666	11.4334
422.559	2.96482
425.452	0.46725
428.345	1.08598
431.237	1.9695
434.13	4.56339
437.023	2.23152
439.915	2.78551
442.808	1.30897
445.701	0.136277
448.594	2.97844
451.486	6.33766
454.379	2.57871
457.272	15.2226
460.164	28.6886
463.057	38.7278
465.95	54.3895
468.842	79.5248
471.735	110.753
474.628	152.289
477.52	197.316
480.413	235.512
483.306	247.512
486.199	245.611
489.091	236.009
491.984	239.472
494.877	277.853
497.769	348.138
500.662	441.363
503.555	534.703
506.447	582.782
509.34	568.733
512.233	497.835
515.125	378.134
518.018	261.694
520.911	174.812
523.804	109.38
526.696	65.9542
529.589	38.7636
532.482	23.1796
535.375	6.17756
538.267	2.48897
541.16	0.171914
544.053	5.42668
546.945	11.8305
549.838	29.3541
552.731	46.0666
555.623	64.3388
558.516	82.4939
561.409	95.0011
564.302	93.4036
567.194	79.3387
570.087	59.4928
572.98	40.3201
575.872	28.7501
578.765	14.8184
581.658	14.0567
584.55	5.93339
587.443	1.48265
590.336	1.34844
593.229	0.321628
596.121	0.07284
599.014	0.151818
601.907	2.14624
604.799	0.457943
607.692	0.807964
610.585	2.05281
613.477	1.32231
616.37	0.820283
619.263	2.1901
622.155	0.335535
625.048	0.828626
627.941	0.44808
630.834	4.41457
633.726	5.05076
636.619	0.866761
639.512	2.02814
642.404	5.1577
645.297	6.26204
648.19	6.86921
651.082	6.17568
653.975	4.53978
656.868	3.35894
659.761	4.11271
662.653	5.11033
665.546	0.339889
668.439	0.748591
671.331	4.44271
674.224	0.7817
677.117	2.05672
680.01	4.9339
682.902	3.98315
685.795	7.2369
688.688	4.05204
691.58	1.98645
694.473	0.452174
697.366	1.50524
700.258	1.32097
703.151	0.751864
706.044	2.2667
708.937	4.53911
711.829	4.63896
714.722	4.50743
717.615	1.53811
720.507	1.23786
723.4	1.79267
726.293	5.44056
729.185	4.96782
732.078	6.02037
734.971	10.2619
737.864	13.9452
740.756	14.4573
743.649	19.444
746.542	19.0635
749.434	25.5489
752.327	27.641
755.22	29.9229
758.112	32.6215
761.005	35.1838
763.898	41.2402
766.79	44.3588
769.683	40.5918
772.576	46.6788
775.469	47.6847
778.361	48.5053
781.254	47.0552
784.147	47.9501
787.039	46.1364
789.932	47.3882
792.825	45.886
795.717	38.4031
798.61	29.7517
801.503	23.9134
804.396	16.3223
807.288	9.26133
810.181	8.26376
813.074	4.16214
815.966	1.06828
818.859	0.49025
821.752	0.677648
824.644	2.00817
827.537	1.17965
830.43	0.938171
833.322	0.965212
836.215	0.54344
839.108	1.63509
842.001	0.79489
844.893	4.6814
847.786	0.056478
850.679	1.09518
853.571	2.31218
856.464	2.57713
859.357	0.245278
862.25	0.147145
865.142	3.46989
868.035	0.313328
870.928	1.63318
873.82	0.876338
876.713	0.404097
879.606	0.416676
882.498	0.138233
885.391	7.74954
888.284	3.58322
891.177	1.57925
894.069	5.15538
896.962	1.05469
899.855	3.0988
902.747	8.1061
905.64	7.80091
908.533	13.0284
911.425	8.89169
914.318	9.22866
917.211	10.2559
920.104	6.60732
922.996	7.15909
925.889	4.99109
928.782	4.6507
931.674	3.08317
934.567	4.79019
937.46	5.00826
940.352	3.10507
943.245	0.041386
946.138	1.72218
949.03	2.1356
951.923	0.615464
954.816	5.4159
957.709	5.24033
960.601	10.8725
963.494	12.4351
966.387	11.6723
969.279	18.1189
972.172	17.1642
975.065	20.2468
977.957	20.1328
980.85	20.1288
983.743	23.7311
986.636	16.7807
989.528	16.9845
992.421	14.7872
995.314	12.9949
998.206	7.68839
1001.1	6.64082
1003.99	2.51625
1006.88	1.43131
1009.78	2.48857
1012.67	0.264176
1015.56	1.65996
1018.46	2.71306
1021.35	0.599148
1024.24	0.443046
1027.13	0.461097
1030.03	6.77976
1032.92	4.27982
1035.81	3.85216
1038.7	5.01527
1041.6	4.83925
1044.49	3.16135
1047.38	0.65856
1050.28	8.40312
1053.17	4.83364
1056.06	7.74944
1058.95	10.1388
1061.85	9.05812
1064.74	6.21003
1067.63	9.42861
1070.52	6.15704
1073.42	4.91579
1076.31	4.51741
1079.2	2.42485
1082.1	8.01835
1084.99	2.03629
1087.88	7.96459
1090.77	8.0782
1093.67	9.74971
1096.56	2.02926
1099.45	0.97896
1102.34	0.113332
1105.24	0.932997
1108.13	0.185829
1111.02	1.83822
1113.91	0.420139
1116.81	0.167626
1119.7	2.74489
1122.59	1.67331
1125.48	2.35535
1128.38	7.39203
1131.27	7.10936
1134.16	6.36981
1137.06	13.1084
1139.95	17.467
1142.84	19.4806
1145.73	25.7158
1148.63	28.9598
1151.52	33.6388
1154.41	44.3104
1157.31	45.9046
1160.2	48.8459
1163.09	55.709
1165.98	56.6983
1168.88	65.2086
1171.77	67.8687
1174.66	79.9658
1177.55	79.7126
1180.45	83.065
1183.34	79.4663
1186.23	78.5848
1189.12	80.5212
1192.02	78.7369
1194.91	72.9912
1197.8	67.342
1200.69	54.3165
1203.59	53.6349
1206.48	43.1886
1209.37	37.0758
1212.27	29.605
1215.16	19.6993
1218.05	18.2968
1220.94	8.19399
1223.84	5.58761
1226.73	1.58756
1229.62	0.172096
1232.52	0.276272
1235.41	0.497495
1238.3	0.979565
1241.19	2.67513
1244.09	5.19071
1246.98	14.6386
1249.87	13.8316
1252.76	17.8869
1255.66	23.5404
1258.55	22.8329
1261.44	23.1589
1264.34	17.6314
1267.23	13.0177
1270.12	12.0071
1273.01	10.6832
1275.91	2.60623
1278.8	2.70414
1281.69	0.016668
1284.58	3.10596
