Measurement: Raman, 532 nm, unoriented, Raman Data Processed
Mineral: Labradorite
Rruff sample: R100170
Ideal chemistry: Na_0.5-0.3_Ca_0.5-0.7_Al_1.5-1.7_Si_2.5-2.3_O_8_
Locality: La Elenda Mine near Nuevo Casas Grandes, Municipio de Nuevo Casas Grandes, Chihuahua, Mexico
Source: Mineralogical Museum, Harvard University
Description: Yellow-gray transparent fragment
Raman shift (cm-1)	intensity
158.049	0
160.942	6.36462
163.835	52.1749
166.728	152.936
169.62	302.877
172.513	397.463
175.406	445.904
178.298	474.276
181.191	445.753
184.084	410.352
186.976	374.582
189.869	341.173
192.762	320.909
195.655	330.256
198.547	309.762
201.44	280.073
204.333	244.45
207.225	202.604
210.118	144.33
213.011	101.787
215.904	62.2842
218.796	27.9465
221.689	6.18213
224.582	0.680603
227.474	11.2253
230.367	11.6507
233.26	10.4454
236.152	0.526611
239.045	9.17908
241.938	28.1486
244.831	42.0753
247.723	60.7513
250.616	79.0962
253.509	95.773
256.401	114.814
259.294	137.74
262.187	152.882
265.079	176.05
267.972	188.976
270.865	205.288
273.758	213.395
276.65	221.837
279.543	222.09
282.436	222.14
285.328	211.767
288.221	188.32
291.114	153.752
294.007	123.058
296.899	93.9905
299.792	69.7133
302.685	47.1678
305.577	38.3378
308.47	25.6869
311.363	15.6072
314.255	10.6428
317.148	5.42285
320.041	4.94928
322.933	2.24347
325.826	1.75855
328.719	7.84955
331.612	5.8255
334.504	8.26923
337.397	6.5163
340.29	4.50049
343.183	4.57752
346.075	8.60407
348.968	6.42425
351.861	8.3407
354.753	5.85437
357.646	3.49023
360.539	2.94507
363.431	3.33148
366.324	0.571228
369.217	4.3205
372.11	0.421143
375.002	0.701904
377.895	3.82929
380.788	8.56537
383.68	12.3495
386.573	10.8232
389.466	23.6208
392.358	28.6519
395.251	39.0337
398.144	45.067
401.036	49.6043
403.929	59.1249
406.822	62.0769
409.715	50.1492
412.607	33.6973
415.5	29.0277
418.393	18.2933
421.285	12.1898
424.178	5.06439
427.071	2.06561
429.964	3.30658
432.856	4.1026
435.749	1.33685
438.642	0.722229
441.534	2.97815
444.427	1.5954
447.32	4.43439
450.212	0.913513
453.105	6.74176
455.998	21.8923
458.891	45.6533
461.783	78.2422
464.676	127.372
467.569	194.58
470.461	265.226
473.354	351.535
476.247	441.217
479.139	515.219
482.032	550.5
484.925	543.572
487.818	495.163
490.71	477.918
493.603	504.836
496.496	579.816
499.388	712.005
502.281	851.935
505.174	961.646
508.067	988.269
510.959	916.572
513.852	757.491
516.745	580.682
519.637	419.972
522.53	297.464
525.423	205.626
528.316	141.369
531.208	87.4129
534.101	51.4443
536.994	35.688
539.886	30.7054
542.779	40.0196
545.672	56.0492
548.564	85.1485
551.457	124.078
554.35	164.444
557.242	200.771
560.135	230.339
563.028	241.063
565.921	212.408
568.813	168.758
571.706	122.757
574.599	85.8018
577.491	52.409
580.384	33.1799
583.277	24.6778
586.17	10.2738
589.062	10.4642
591.955	4.77844
594.848	0.477966
597.74	3.00281
600.633	0.661438
603.526	4.35498
606.418	5.67169
609.311	5.96551
612.204	2.63733
615.097	1.87488
617.989	0.492249
620.882	3.73932
623.775	2.01654
626.667	10.9142
629.56	12.329
632.453	8.91077
635.346	10.9828
638.238	7.43072
641.131	12.7548
644.024	7.66516
646.916	7.40924
649.809	9.69128
652.702	8.28198
655.594	8.58942
658.487	10.8682
661.38	5.52118
664.273	1.92725
667.165	0.970947
670.058	1.0423
672.951	0.739502
675.843	3.68414
678.736	4.48144
681.629	7.23126
684.521	11.7784
687.414	10.1774
690.307	12.6553
693.199	9.73669
696.092	10.6764
698.985	9.62445
701.878	10.9468
704.77	9.81665
707.663	7.30042
710.556	9.7937
713.448	5.70868
716.341	8.99896
719.234	1.79297
722.127	4.96747
725.019	5.68677
727.912	5.08496
730.805	9.52191
733.697	11.2814
736.59	17.1445
739.483	23.0335
742.375	20.6939
745.268	25.7448
748.161	29.1401
751.054	33.1354
753.946	36.9237
756.839	40.4135
759.732	41.6982
762.625	46.6509
765.517	58.33
768.41	59.646
771.303	64.5344
774.195	67.7358
777.088	67.8185
779.981	66.4063
782.873	64.2455
785.766	59.5919
788.659	57.6117
791.552	57.2706
794.444	49.3379
797.337	42.5092
800.23	38.2053
803.122	24.1213
806.015	22.0095
808.908	12.1638
811.8	8.99274
814.693	1.7218
817.586	3.36298
820.479	7.06616
823.371	5.3559
826.264	1.15387
829.157	4.14441
832.049	1.84308
834.942	0.770874
837.835	0.944336
840.727	1.67401
843.62	1.65991
846.513	2.33972
849.405	1.47101
852.298	4.03754
855.191	0.030273
858.084	1.12585
860.976	2.49213
863.869	3.716
866.762	8.57483
869.654	0.667053
872.547	1.35699
875.44	3.81476
878.333	5.29144
881.225	4.63061
884.118	0.34729
887.011	5.79877
889.903	7.15381
892.796	2.93317
895.689	7.45795
898.582	7.13727
901.474	9.57892
904.367	12.0448
907.26	10.0278
910.152	14.9581
913.045	13.3135
915.938	16.5596
918.83	11.7625
921.723	12.8542
924.616	14.2856
927.509	10.3436
930.401	9.51074
933.294	11.6153
936.187	9.36395
939.079	7.20801
941.972	2.67017
944.865	7.02808
947.757	2.935
950.65	4.08478
953.543	9.44702
956.436	9.15558
959.328	12.0142
962.221	15.5026
965.114	22.5533
968.006	26.673
970.899	25.9069
973.792	33.3837
976.684	43.0424
979.577	41.2526
982.47	43.1648
985.362	39.3969
988.255	37.954
991.148	37.1082
994.041	32.3341
996.933	35.4139
999.826	28.6141
1002.72	24.0085
1005.61	18.7581
1008.5	21.5137
1011.4	20.5086
1014.29	17.0764
1017.18	19.9985
1020.08	17.5051
1022.97	17.8001
1025.86	14.2803
1028.75	16.5316
1031.65	13.6653
1034.54	9.77918
1037.43	13.0982
1040.32	8.53857
1043.22	9.76941
1046.11	11.7166
1049	12.5829
1051.89	9.36762
1054.79	10.5859
1057.68	12.0084
1060.57	9.82282
1063.47	6.76202
1066.36	5.11993
1069.25	8.62488
1072.14	9.93707
1075.04	6.61914
1077.93	9.64514
1080.82	5.9455
1083.71	6.54761
1086.61	4.74628
1089.5	2.04156
1092.39	1.76044
1095.29	3.1402
1098.18	3.28314
1101.07	3.20526
1103.96	1.95886
1106.86	0.940247
1109.75	1.68433
1112.64	6.14612
1115.53	0.91626
1118.43	1.58777
1121.32	3.08734
1124.21	2.75647
1127.11	3.50049
1130	4.86298
1132.89	6.08575
1135.78	3.46899
1138.68	6.69141
1141.57	4.13879
1144.46	1.04895
1147.35	4.06018
1150.25	1.23865
1153.14	6.78076
1156.03	0.099243
1158.92	2.2041
1161.82	2.13586
1164.71	4.586
1167.6	6.74603
1170.5	1.99561
1173.39	5.86774
1176.28	5.20001
1179.17	0.732239
1182.07	4.20215
1184.96	6.16382
1187.85	7.16705
1190.74	4.25824
1193.64	4.56567
1196.53	7.02594
1199.42	1.68018
1202.32	3.08795
1205.21	1.12665
1208.1	1.19189
1210.99	3.31995
1213.89	4.47723
1216.78	5.50494
1219.67	0.85968
1222.56	3.21619
1225.46	5.94342
1228.35	12.3013
1231.24	4.02899
1234.13	3.49359
1237.03	2.5733
1239.92	4.56244
1242.81	4.49835
1245.71	4.09283
1248.6	3.95099
1251.49	5.75824
1254.38	5.85254
1257.28	6.46393
1260.17	6.53674
1263.06	7.82867
1265.95	7.28625
1268.85	6.85492
1271.74	1.49774
1274.63	3.97729
1277.53	4.23596
1280.42	4.61871
1283.31	2.40955
1286.2	2.97144
1289.1	2.59393
1291.99	5.45752
1294.88	0.1521
1297.78	0.147156
1300.67	0.240784
