Measurement: Raman, 780 nm, unoriented, Raman Data Processed
Mineral: Labradorite
Rruff sample: R050104
Ideal chemistry: Na_0.5-0.3_Ca_0.5-0.7_Al_1.5-1.7_Si_2.5-2.3_O_8_
Locality: unknown
Source: Rock Currier
Description: Iridescent slab
Measured chemistry: Ca_0.50_Na_0.47_K_0.03_Al_1.50_Si_2.50_O_8_
Raman shift (cm-1)	intensity
139.419	0
142.312	0.756714
145.204	5.9444
148.097	15.2362
150.99	27.3293
153.882	39.1403
156.775	49.5609
159.668	63.1136
162.56	77.8228
165.453	95.4209
168.346	107.35
171.238	117.33
174.131	123.259
177.024	123.29
179.917	118.211
182.809	110.487
185.702	99.3298
188.595	83.828
191.487	68.5859
194.38	58.583
197.273	52.1538
200.166	47.0508
203.058	38.8301
205.951	30.8146
208.844	23.0768
211.736	17.1895
214.629	10.8957
217.522	0.839233
220.414	2.17322
223.307	3.1872
226.2	4.52844
229.093	4.31659
231.985	1.82385
234.878	1.64978
237.771	9.55371
240.663	11.5457
243.556	20.4937
246.449	23.2772
249.341	30.967
252.234	35.4793
255.127	41.0522
258.019	44.4055
260.912	49.4331
263.805	60.5797
266.698	67.2005
269.59	74.4792
272.483	84.5544
275.376	89.4678
278.268	92.9022
281.161	93.3597
284.054	88.1231
286.946	78.056
289.839	67.8643
292.732	55.8765
295.625	42.7295
298.517	32.4043
301.41	27.6623
304.303	24.8002
307.195	21.1867
310.088	25.6408
312.981	31.4173
315.873	35.8457
318.766	40.7775
321.659	48.1934
324.551	54.3616
327.444	56.9113
330.337	56.2607
333.23	56.8436
336.122	52.4981
339.015	48.541
341.908	41.419
344.8	36.2823
347.693	29.5919
350.586	26.0673
353.478	17.0106
356.371	11.946
359.264	6.94849
362.157	5.51215
365.049	3.45093
367.942	0.502441
370.835	2.02576
373.727	0.865784
376.62	1.63355
379.513	0.901123
382.406	2.1142
385.298	3.56805
388.191	11.4596
391.084	15.4876
393.976	18.1858
396.869	18.9872
399.762	21.6697
402.654	22.3195
405.547	23.2225
408.44	24.1676
411.332	17.7615
414.225	14.0837
417.118	10.5601
420.011	5.09454
422.903	4.80756
425.796	2.02521
428.689	0.593567
431.581	2.01538
434.474	0.798218
437.367	2.10846
440.26	0.344482
443.152	1.15723
446.045	1.67047
448.938	0.793762
451.83	3.02271
454.723	6.90375
457.616	12.3411
460.508	21.8217
463.401	32.5184
466.294	45.7691
469.186	63.8258
472.079	83.0905
474.972	99.4167
477.865	114.055
480.757	118.017
483.65	112.143
486.543	99.7144
489.435	96.8838
492.328	102.502
495.221	119.37
498.113	151.291
501.006	181.912
503.899	207.413
506.791	223.847
509.684	219.227
512.577	190.27
515.47	149.431
518.362	105.335
521.255	69.6401
524.148	49.0001
527.04	32.1107
529.933	20.6995
532.826	10.4581
535.718	6.62524
538.611	3.21179
541.504	3.35608
544.397	5.40314
547.289	7.97351
550.182	7.88397
553.075	7.37964
555.967	12.6921
558.86	14.7454
561.753	16.2443
564.645	17.195
567.538	18.1552
570.431	15.1279
573.323	11.8785
576.216	5.3786
579.109	4.59247
582.002	1.90674
584.894	0.689514
587.787	0.579285
590.68	1.00934
593.572	0.223999
596.465	0.16449
599.358	0.504211
602.25	0.152527
605.143	0.023315
608.036	0.433167
610.929	0.849976
613.821	0.729858
616.714	1.94519
619.607	2.86206
622.5	1.58038
625.392	3.24048
628.285	5.35858
631.178	3.67731
634.07	3.49286
636.963	3.43249
639.856	1.67731
642.748	4.88843
645.641	4.25458
648.534	4.43024
651.426	3.65753
654.319	2.45044
657.212	1.63922
660.105	2.22369
662.997	2.33441
665.89	2.36548
668.783	1.42139
671.675	2.52277
674.568	0.396301
677.461	5.36975
680.353	1.27606
683.246	2.77679
686.139	2.32965
689.032	1.63513
691.924	0.267578
694.817	2.95917
697.71	1.39581
700.602	1.79571
703.495	1.5769
706.388	0.327759
709.28	1.40631
712.173	3.54108
715.066	2.73395
717.958	3.73932
720.851	2.31799
723.744	3.61981
726.636	4.76111
729.529	6.15564
732.422	6.99737
735.315	7.47919
738.207	6.76654
741.1	7.78839
743.993	9.10913
746.885	8.79401
749.778	9.54541
752.671	11.5551
755.563	8.96448
758.456	10.2099
761.349	9.0921
764.242	9.69782
767.134	10.9393
770.027	10.8234
772.92	10.8437
775.812	12.1766
778.705	11.6658
781.598	8.89423
784.49	10.0407
787.383	10.7575
790.276	9.59845
793.169	8.31195
796.061	6.27521
798.954	6.5658
801.847	5.19727
804.739	2.64252
807.632	2.22449
810.525	3.08215
813.418	2.75824
816.31	0.641174
819.203	0.812622
822.096	1.55334
824.988	1.84436
827.881	0.352356
830.774	0.715149
833.666	0.48407
836.559	0.603699
839.452	2.02216
842.345	2.03241
845.237	4.03857
848.13	3.38275
851.023	0.244629
853.915	2.48029
856.808	1.29333
859.701	1.5144
862.593	0.160339
865.486	1.86676
868.379	2.13922
871.271	2.3949
874.164	1.37457
877.057	0.469604
879.949	0.622437
882.842	1.74029
885.735	1.68713
888.628	1.15839
891.52	0.766541
894.413	1.40912
897.306	1.22846
900.198	2.88898
903.091	0.634949
905.984	1.0509
908.876	0.013245
911.769	0.946533
914.662	2.23602
917.555	2.99768
920.447	1.01221
923.34	0.838501
926.233	2.77576
929.125	0.934875
932.018	0.024048
934.911	0.927368
937.803	0.80304
940.696	0.026489
943.589	0.666931
946.482	2.23364
949.374	3.02734
952.267	1.12537
955.16	0.100281
958.052	3.28479
960.945	2.65997
963.838	2.89276
966.731	4.26538
969.623	4.68726
972.516	2.7948
975.409	5.89294
978.301	5.72846
981.194	4.39349
984.087	5.59851
986.979	4.9964
989.872	1.78857
992.765	0.029724
995.658	1.01025
998.55	2.27063
1001.44	2.93176
1004.34	3.25891
1007.23	2.34662
1010.12	3.02057
1013.01	4.0296
1015.91	3.40668
1018.8	2.96155
1021.69	4.45081
1024.58	2.93231
1027.48	2.82477
1030.37	2.77478
1033.26	1.03143
1036.15	2.5896
1039.05	1.20429
1041.94	0.491333
1044.83	3.04804
1047.73	2.45135
1050.62	4.74408
1053.51	2.41577
1056.4	2.18713
1059.3	5.15344
1062.19	6.37006
1065.08	3.67285
1067.97	6.41498
1070.87	8.70221
1073.76	6.79102
1076.65	7.73163
1079.55	6.2489
1082.44	6.57703
1085.33	8.18665
1088.22	6.43939
1091.12	6.79443
1094.01	7.54285
1096.9	5.70355
1099.8	4.6814
1102.69	4.36237
1105.58	0.169128
1108.47	1.75671
1111.37	1.25787
1114.26	2.07367
1117.15	0.103394
1120.04	0.399597
1122.94	0.643188
1125.83	1.78534
1128.72	0.376282
1131.61	2.61749
1134.51	1.04816
1137.4	6.5542
1140.29	10.4451
1143.18	13.4833
1146.08	15.983
1148.97	17.0447
1151.86	24.2604
1154.76	29.9161
1157.65	32.3906
1160.54	38.6821
1163.43	44.825
1166.33	49.2835
1169.22	57.3287
1172.11	63.9502
1175.01	66.5143
1177.9	72.303
1180.79	76.6545
1183.68	81.9756
1186.58	83.0475
1189.47	84.4658
1192.36	78.4365
1195.25	73.6627
1198.15	69.5989
1201.04	64.232
1203.93	55.043
1206.82	48.501
1209.72	38.5752
1212.61	31.5801
1215.5	25.7996
1218.39	16.3176
1221.29	5.90216
1224.18	2.36523
1227.07	0.393799
1229.97	2.40332
1232.86	0.377502
1235.75	3.65698
1238.64	3.69604
1241.54	7.69635
1244.43	12.4769
1247.32	21.4974
1250.21	26.6619
1253.11	27.2327
1256	21.4022
1258.89	28.3453
1261.79	23.1205
1264.68	19.1473
1267.57	13.2451
1270.46	7.57477
1273.36	0.087891
