Measurement: Raman, 780 nm, unoriented, Raman Data Processed
Mineral: Labradorite
Rruff sample: R060275
Ideal chemistry: Na_0.5-0.3_Ca_0.5-0.7_Al_1.5-1.7_Si_2.5-2.3_O_8_
Locality: Madagascar
Source: Herb Obodda
Description: Colorless to light gray fragment
Measured chemistry: (Na_0.44_K_0.03_Ca_0.53_)_Î£=1_Al_1.53_Si_2.47_O_8_
Raman shift (cm-1)	intensity
105.515	0
108.889	13.8994
112.264	13.2976
115.639	23.2776
119.014	26.1826
122.389	43.6711
125.763	21.0957
129.138	23.9453
132.513	3.97485
135.888	4.52954
139.263	9.76123
142.638	1.05518
146.012	20.094
149.387	25.1958
152.762	38.312
156.137	43.3862
159.512	58.7148
162.887	63.2375
166.261	53.239
169.636	48.6201
173.011	62.4199
176.386	73.8701
179.761	82.6958
183.135	105.946
186.51	132.3
189.885	139.496
193.26	150.261
196.635	158.15
200.01	138.543
203.384	137.889
206.759	118.9
210.134	67.6235
213.509	34.7119
216.884	7.61865
220.258	2.04639
223.633	5.94971
227.008	4.49512
230.383	10.6504
233.758	2.35522
237.132	3.18726
240.507	10.814
243.882	26.4192
247.257	39.8633
250.632	39.3494
254.006	57.9248
257.381	64.6072
260.756	81.6113
264.131	92.7944
267.506	101.082
270.881	123.096
274.255	131.717
277.63	154.746
281.005	163.151
284.38	157.269
287.755	125.459
291.13	104.449
294.504	64.6248
297.879	44.7602
301.254	32.3364
304.629	23.0098
308.004	45.2893
311.378	51.6943
314.753	80.9087
318.128	127.484
321.503	146.503
324.878	186.44
328.252	227.196
331.627	242.514
335.002	247.013
338.377	257.292
341.752	227.821
345.127	190.105
348.501	167.913
351.876	135.625
355.251	108.735
358.626	70.2292
362.001	53.9082
365.375	26.0859
368.75	17.9463
372.125	2.19116
375.5	0.205566
378.875	6.83545
382.25	5.50586
385.624	14.9094
388.999	27.9517
392.374	22.8838
395.749	36.3013
399.124	63.0913
402.498	84.3533
405.873	96.8687
409.248	94.7532
412.623	74.4853
415.998	62.7349
419.373	19.0337
422.747	21.6174
426.122	5.52564
429.497	11.6602
432.872	7.6167
436.247	7.71948
439.622	3.5769
442.996	5.62109
446.371	11.154
449.746	20.6565
453.121	31.8457
456.496	61.1108
459.87	91.5381
463.245	125.026
466.62	193.821
469.995	287.008
473.37	407.151
476.745	531.916
480.119	615.573
483.494	585.536
486.869	486.375
490.244	424.395
493.619	427.083
496.993	540.148
500.368	702.127
503.743	914.151
507.118	1053.68
510.493	1060.86
513.867	885.189
517.242	642.66
520.617	431.717
523.992	288.336
527.367	185.705
530.741	106.416
534.116	61.7468
537.491	36.1248
540.866	20.9582
544.241	25.1719
547.616	20.9954
550.99	42.272
554.365	40.2295
557.74	54.499
561.115	69.3672
564.49	88.9085
567.865	85.1038
571.239	67.1333
574.614	33.4346
577.989	22.1721
581.364	6.17896
584.739	0.974365
588.114	3.10644
591.488	13.3484
594.863	2.60181
598.238	7.65161
601.613	8.30957
604.987	7.7168
608.362	0.489014
611.737	3.8501
615.112	1.81323
618.487	1.07129
621.862	8.49243
625.236	1.1814
628.611	6.73291
631.986	5.90942
635.361	10.8865
638.736	15.1721
642.111	11.447
645.485	5.07227
648.86	4.32129
652.235	1.01514
655.61	1.74707
658.985	8.67627
662.359	0.50415
665.734	0.916992
669.109	7.89868
672.484	16.7859
675.859	13.721
679.234	22.4858
682.608	18.2764
685.983	14.3413
689.358	16.6328
692.733	12.7822
696.108	18.1682
699.482	12.9558
702.857	11.3579
706.232	5.7937
709.607	13.2905
712.982	20.8953
716.356	19.5933
719.731	22.5808
723.106	18.4351
726.481	12.4382
729.856	18.8789
733.231	23.4844
736.605	32.1096
739.98	27.8157
743.355	27.4416
746.73	34.2832
750.105	37.3101
753.48	42.8272
756.854	46.6609
760.229	38.8975
763.604	59.708
766.979	55.7105
770.354	53.0376
773.728	47.9968
777.103	45.8474
780.478	47.98
783.853	38.3308
787.228	39.2361
790.602	49.7214
793.977	62.3843
797.352	52.9815
800.727	43.7561
804.102	29.2861
807.477	44.9553
810.851	45.6223
814.226	45.532
817.601	17.6882
820.976	2.4823
824.351	2.58069
827.726	1.19153
831.1	2.85559
834.475	6.7738
837.85	12.2053
841.225	11.9934
844.6	11.9182
847.974	5.9884
851.349	9.88745
854.724	10.2656
858.099	8.5874
861.474	4.099
864.848	0.400879
868.223	10.6899
871.598	13.4895
874.973	9.32068
878.348	14.6216
881.722	9.10205
885.097	8.33301
888.472	0.061035
891.847	7.99719
895.222	6.38269
898.597	3.21655
901.971	2.10437
905.346	0.174561
908.721	5.90039
912.096	4.79932
915.471	5.07703
918.846	7.01392
922.22	8.22095
925.595	3.41162
928.97	6.46851
932.345	11.5098
935.72	8.58594
939.094	0.255859
942.469	2.03772
945.844	7.83936
949.219	13.9367
952.594	1.45129
955.968	11.2108
959.343	10.0054
962.718	11.3295
966.093	29.7436
969.468	22.304
972.843	38.938
976.217	35.142
979.592	32.8558
982.967	34.338
986.342	26.0225
989.717	21.6121
993.091	19.3571
996.466	12.4779
999.841	15.4468
1003.22	14.8655
1006.59	1.21997
1009.97	1.81702
1013.34	2.95459
1016.72	6.00879
1020.09	7.56116
1023.47	3.10974
1026.84	4.4574
1030.21	8.00928
1033.59	4.05762
1036.96	11.3613
1040.34	1.73364
1043.71	13.4017
1047.09	10.8373
1050.46	22.2341
1053.84	14.5392
1057.21	12.3661
1060.59	23.418
1063.96	24.8425
1067.34	13.4979
1070.71	23.6476
1074.09	33.6406
1077.46	23.2704
1080.84	21.376
1084.21	25.842
1087.59	21.4084
1090.96	22.4927
1094.34	22.3998
1097.71	14.2467
1101.09	11.0049
1104.46	1.89136
1107.84	8.0802
1111.21	5.15247
1114.59	13.6982
1117.96	5.86218
1121.34	8.11304
1124.71	9.89111
1128.08	4.54089
1131.46	21.1121
1134.83	21.5137
1138.21	29.432
1141.58	40.3129
1144.96	48.7897
1148.33	73.0502
1151.71	85.4967
1155.08	104.826
1158.46	126.76
1161.83	148.455
1165.21	171.935
1168.58	209.777
1171.96	243.999
1175.33	272.05
1178.71	288.875
1182.08	302.503
1185.46	294.365
1188.83	291.619
1192.21	284.611
1195.58	277.376
1198.95	246.235
1202.33	220.762
1205.7	175.466
1209.08	138.516
1212.45	97.7612
1215.83	65.1431
1219.2	17.3347
1222.58	0.711914
1225.95	2.62744
1229.33	8.59009
1232.7	2.71069
1236.08	31.3896
1239.45	68.6108
1242.83	111.122
1246.2	167.933
1249.58	209.819
1252.95	239.674
1256.33	246.518
1259.7	240.738
1263.08	209.78
1266.45	192.107
1269.83	163.258
1273.2	128.284
1276.58	70.7393
1279.95	29.1233
1283.33	1.12329
