Measurement: Raman, 532 nm, unoriented, Raman Data Processed
Mineral: Labradorite
Rruff sample: R060221
Ideal chemistry: Na_0.5-0.3_Ca_0.5-0.7_Al_1.5-1.7_Si_2.5-2.3_O_8_
Locality: Pinacote lavafield, Sonora, Mexico
Source: Rock Currier
Description: Light tan transparent fragment
Measured chemistry: (Ca_0.65_Na_0.34_K_0.01_)(Al_1.66_Fe^3+^_0.01_)Si_2.33_O_8_
Raman shift (cm-1)	intensity
155.718	0
158.61	0.244183
161.503	16.4686
164.396	101.04
167.288	253.916
170.181	465.293
173.074	699.412
175.966	916.589
178.859	1062.47
181.752	1100.4
184.644	1008.67
187.537	845.54
190.43	729.036
193.323	658.223
196.215	594.202
199.108	528.348
202.001	456.918
204.893	382.144
207.786	302.909
210.679	223.065
213.571	153.846
216.464	87.1239
219.357	25.8429
222.25	6.27659
225.142	17.7158
228.035	11.8435
230.928	6.45911
233.82	6.13429
236.713	3.41692
239.606	4.33797
242.499	41.7652
245.391	96.7746
248.284	154.976
251.177	213.424
254.069	275.361
256.962	335.156
259.855	403.383
262.747	469.085
265.64	535.505
268.533	599.709
271.425	655.217
274.318	711.862
277.211	751.479
280.104	778.835
282.996	771.668
285.889	734.679
288.782	669.634
291.674	568.515
294.567	461.661
297.46	360.989
300.353	282.442
303.245	215.477
306.138	167.828
309.031	128.075
311.923	98.2485
314.816	75.7074
317.709	54.8076
320.601	44.1266
323.494	29.1228
326.387	19.5193
329.279	18.1121
332.172	14.9612
335.065	21.3468
337.958	15.1485
340.85	12.5831
343.743	7.81257
346.636	0.710048
349.528	1.63002
352.421	4.62976
355.314	1.51241
358.207	2.0249
361.099	1.24636
363.992	0.382532
366.885	0.420759
369.777	1.28474
372.67	1.01429
375.563	0.362273
378.455	4.37225
381.348	11.3943
384.241	23.4252
387.134	35.2429
390.026	52.1326
392.919	77.5866
395.812	89.4331
398.704	108.173
401.597	114.211
404.49	115.595
407.382	114.115
410.275	105.645
413.168	81.3755
416.06	55.2535
418.953	34.1056
421.846	18.0925
424.739	5.88584
427.631	2.38621
430.524	3.42121
433.417	0.589359
436.309	1.26419
439.202	0.265204
442.095	4.46923
444.987	2.9086
447.88	0.821911
450.773	2.76988
453.666	3.59658
456.558	11.1534
459.451	43.8361
462.344	85.5388
465.236	137.645
468.129	208.181
471.022	299.9
473.914	403.107
476.807	512.016
479.7	623.489
482.592	681.758
485.485	696.31
488.378	677.008
491.271	675.19
494.163	734.44
497.056	875.403
499.949	1101.48
502.841	1362.4
505.734	1561.75
508.627	1599.83
511.519	1454.13
514.412	1172
517.305	877.958
520.198	613.881
523.09	413.108
525.983	266.68
528.876	160.67
531.768	78.3916
534.661	27.911
537.554	0.241754
540.447	2.37925
543.339	1.41033
546.232	30.9753
549.125	65.4574
552.017	116.496
554.91	160.758
557.803	208.738
560.695	237.792
563.588	239.337
566.481	195.012
569.374	140.786
572.266	95.3115
575.159	54.3194
578.052	27.9551
580.944	13.8406
583.837	0.425439
586.73	2.64833
589.622	0.756708
592.515	1.81571
595.408	2.4534
598.301	2.74474
601.193	2.01517
604.086	1.07851
606.979	0.121565
609.871	0.276818
612.764	1.17518
615.657	0.244716
618.549	0.192433
621.442	4.36258
624.335	5.59361
627.227	12.7285
630.12	11.0456
633.013	15.6528
635.906	11.154
638.798	9.69618
641.691	11.5798
644.584	12.434
647.476	5.70167
650.369	5.29414
653.262	3.57719
656.154	0.339687
659.047	0.125047
661.94	1.0191
664.833	0.742924
667.725	0.437333
670.618	8.15153
673.511	10.2047
676.403	17.6157
679.296	21.3866
682.189	22.6555
685.082	25.1166
687.974	26.2023
690.867	37.7672
693.76	35.2355
696.652	31.969
699.545	28.2116
702.438	22.7743
705.33	14.8523
708.223	11.6856
711.116	3.99634
714.009	3.08618
716.901	4.70868
719.794	0.017289
722.687	1.42904
725.579	0.432127
728.472	1.89458
731.365	4.19324
734.257	1.67704
737.15	11.8195
740.043	19.7056
742.936	26.5602
745.828	33.0164
748.721	43.4694
751.614	50.0206
754.506	51.8998
757.399	71.227
760.292	82.4159
763.184	94.6373
766.077	114.612
768.97	113.3
771.862	124.353
774.755	122.679
777.648	122.442
780.541	125.577
783.433	109.689
786.326	107.047
789.219	99.6864
792.111	90.8539
795.004	80.2802
797.897	71.4584
800.789	57.6864
803.682	40.0749
806.575	24.2279
809.467	15.7703
812.36	5.80903
815.253	1.28753
818.146	0.032881
821.038	0.496269
823.931	0.159737
826.824	0.252611
829.716	0.393948
832.609	0.427675
835.502	0.302278
838.394	1.63884
841.287	0.089258
844.18	4.09877
847.073	6.77503
849.965	0.310219
852.858	0.750352
855.751	0.309178
858.643	3.18076
861.536	6.17073
864.429	7.82358
867.322	3.73139
870.214	4.14201
873.107	5.70341
876	4.35363
878.892	4.86992
881.785	4.50338
884.678	4.28009
887.57	5.80987
890.463	13.6234
893.356	12.9328
896.249	14.0341
899.141	19.7524
902.034	21.0329
904.927	26.186
907.819	30.9644
910.712	34.8069
913.605	34.6485
916.497	28.7196
919.39	30.6191
922.283	27.9452
925.176	21.8875
928.068	19.2211
930.961	17.4144
933.854	15.4174
936.746	7.60621
939.639	0.612143
942.532	1.66428
945.424	4.62532
948.317	0.58816
951.21	2.60622
954.102	0.637604
956.995	3.62832
959.888	4.37869
962.781	6.01898
965.673	16.007
968.566	18.2227
971.459	32.2147
974.351	42.1026
977.244	52.8789
980.137	65.1718
983.029	60.1722
985.922	60.5607
988.815	61.612
991.708	55.7043
994.6	53.3479
997.493	43.1264
1000.39	37.5877
1003.28	31.1799
1006.17	21.5591
1009.06	19.6595
1011.96	12.8137
1014.85	6.41664
1017.74	8.81531
1020.63	14.8483
1023.53	16.7213
1026.42	12.2574
1029.31	14.5349
1032.2	12.118
1035.1	9.33207
1037.99	15.2278
1040.88	11.4745
1043.78	9.88288
1046.67	11.6299
1049.56	19.2023
1052.45	17.1835
1055.35	18.4952
1058.24	15.2303
1061.13	12.6583
1064.03	4.54349
1066.92	2.93428
1069.81	0.974425
1072.7	7.29427
1075.6	9.35737
1078.49	7.03165
1081.38	10.4882
1084.27	3.69411
1087.17	3.3139
1090.06	8.85171
1092.95	3.59483
1095.85	7.80716
1098.74	1.63864
1101.63	6.38342
1104.52	0.525634
1107.42	1.16486
1110.31	0.310332
1113.2	0.015222
1116.09	0.314547
1118.99	0.902306
1121.88	0.178636
1124.77	3.78307
1127.66	4.46631
1130.56	1.20173
1133.45	2.31585
1136.34	2.7848
1139.23	5.36837
1142.13	9.19236
1145.02	11.1279
1147.91	8.56644
1150.81	11.2264
1153.7	11.9263
1156.59	13.2538
1159.48	9.55792
1162.38	11.6225
1165.27	8.94121
1168.16	11.0601
1171.06	6.74017
1173.95	10.6425
1176.84	9.47126
1179.73	6.27264
1182.63	15.4997
1185.52	7.64186
1188.41	8.57704
1191.3	0.523837
1194.2	0.271125
1197.09	2.60316
1199.98	1.66429
1202.88	0.195275
1205.77	2.851
1208.66	0.187154
1211.55	1.97215
1214.44	1.36621
1217.34	1.66392
1220.23	15.3133
1223.12	5.58348
1226.02	7.6885
1228.91	6.91838
1231.8	0.085388
1234.69	2.27876
1237.59	1.20448
1240.48	6.6905
1243.37	10.4518
1246.27	11.0285
1249.16	4.27063
1252.05	5.95194
1254.94	5.10502
1257.84	5.4673
1260.73	4.07942
1263.62	9.02918
1266.51	5.74791
1269.41	7.98178
1272.3	2.14352
1275.19	0.112065
1278.09	0.315122
1280.98	3.68339
1283.87	7.91406
1286.76	3.91297
1289.66	4.60138
1292.55	3.47539
1295.44	5.21818
1298.33	6.38974
1301.23	4.45515
1304.12	0
