Measurement: Raman, 780 nm, unoriented, Raman Data Processed
Mineral: Labradorite
Rruff sample: R100170
Ideal chemistry: Na_0.5-0.3_Ca_0.5-0.7_Al_1.5-1.7_Si_2.5-2.3_O_8_
Locality: La Elenda Mine near Nuevo Casas Grandes, Municipio de Nuevo Casas Grandes, Chihuahua, Mexico
Source: Mineralogical Museum, Harvard University
Description: Yellow-gray transparent fragment
Raman shift (cm-1)	intensity
132.067	0
134.96	8.46985
137.853	6.88318
140.746	12.408
143.638	26.0985
146.531	34.6515
149.424	35.404
152.316	40.3774
155.209	32.0192
158.102	23.6571
160.994	21.2391
163.887	31.8503
166.78	34.1293
169.673	42.4821
172.565	46.7126
175.458	47.3132
178.351	73.0084
181.243	79.9167
184.136	80.7361
187.029	80.6554
189.921	85.3037
192.814	90.2642
195.707	92.363
198.6	90.5651
201.492	81.3086
204.385	66.3575
207.278	49.9511
210.17	31.1835
213.063	25.8645
215.956	13.081
218.848	4.37317
221.741	4.06018
224.634	0.937134
227.526	1.52393
230.419	1.01367
233.312	2.21338
236.205	13.0872
239.097	22.3479
241.99	30.0378
244.883	36.5198
247.775	48.4739
250.668	63.9487
253.561	69.0234
256.454	83.5747
259.346	92.4048
262.239	101.759
265.132	103.948
268.024	112.673
270.917	118.227
273.81	120.411
276.702	123.282
279.595	124.615
282.488	116.036
285.38	105.76
288.273	88.2366
291.166	74.8415
294.059	49.7703
296.951	28.335
299.844	20.7131
302.737	8.6853
305.629	2.95679
308.522	0.977539
311.415	6.26709
314.308	2.74243
317.2	0.062988
320.093	13.7737
322.986	21.6125
325.878	34.1296
328.771	45.125
331.664	45.7874
334.556	60.886
337.449	65.2192
340.342	69.0283
343.234	66.3525
346.127	73.1133
349.02	68.23
351.913	61.7837
354.805	51.5664
357.698	52.529
360.591	37.8264
363.483	37.2141
366.376	25.5178
369.269	22.7778
372.161	8.37622
375.054	11.9128
377.947	13.2522
380.839	12.0828
383.732	15.635
386.625	11.9133
389.518	20.2095
392.41	24.9695
395.303	25.9959
398.196	55.2119
401.088	60.2124
403.981	77.8589
406.874	72.137
409.767	60.4219
412.659	41.1345
415.552	27.7361
418.445	20.9414
421.337	15.8486
424.23	9.53149
427.123	1.23389
430.015	5.31445
432.908	4.41772
435.801	0.767822
438.693	2.94092
441.586	3.7561
444.479	8.19507
447.372	3.33569
450.264	6.76465
453.157	19.8865
456.05	29.311
458.942	48.6799
461.835	67.9346
464.728	95.7751
467.62	137.724
470.513	183.458
473.406	244.061
476.299	307.123
479.191	368.665
482.084	395.167
484.977	384.187
487.869	351.68
490.762	333.037
493.655	347.065
496.547	407.221
499.44	503.156
502.333	628.615
505.226	710.38
508.118	731.393
511.011	671.103
513.904	547.263
516.796	418.435
519.689	310.484
522.582	224.387
525.474	161.248
528.367	112.556
531.26	74.8413
534.153	40.6313
537.045	27.2082
539.938	13.2976
542.831	11.8015
545.723	22.7983
548.616	33.438
551.509	54.5745
554.401	66.9338
557.294	86.4665
560.187	98.3518
563.08	102.189
565.972	95.3337
568.865	76.0117
571.758	54.855
574.65	38.9846
577.543	21.9648
580.436	18.74
583.328	2.91162
586.221	4.23096
589.114	2.74121
592.006	3.06909
594.899	0.610352
597.792	4.54956
600.685	1.9292
603.577	6.94409
606.47	4.78906
609.363	0.789551
612.255	2.2251
615.148	4.17383
618.041	0.844727
620.933	2.88062
623.826	7.62036
626.719	12.8298
629.611	2.38135
632.504	7.37061
635.397	7.21582
638.29	12.1418
641.182	4.54175
644.075	5.92041
646.968	5.40967
649.86	8.2561
652.753	5.69263
655.646	1.56982
658.538	5.15015
661.431	3.05225
664.324	3.46289
667.217	3.56519
670.109	2.26245
673.002	2.80127
675.895	4.94287
678.787	6.74658
681.68	5.07861
684.573	8.47437
687.466	12.4111
690.358	10.6426
693.251	5.82275
696.144	8.57227
699.036	4.96851
701.929	11.9856
704.822	10.0598
707.714	10.9163
710.607	14.9497
713.5	18.7354
716.393	14.157
719.285	17.6819
722.178	13.2981
725.071	20.9072
727.963	18.241
730.856	14.7812
733.749	16.25
736.641	21.063
739.534	17.3704
742.427	29.5781
745.319	28.7502
748.212	31.635
751.105	29.8728
753.998	30.3384
756.89	34.1833
759.783	37.2942
762.676	39.9656
765.568	49.1868
768.461	42.2668
771.354	48.5352
774.246	42.9797
777.139	44.2578
780.032	37.9656
782.925	33.7759
785.817	34.3875
788.71	33.3367
791.603	31.4995
794.495	29.2141
797.388	23.0286
800.281	19.3564
803.173	4.58887
806.066	15.9116
808.959	1.55737
811.851	2.40552
814.744	4.7113
817.637	2.89819
820.53	3.92822
823.422	7.74597
826.315	6.64099
829.208	1.66846
832.1	1.18555
834.993	1.91431
837.886	0.878784
840.779	3.26917
843.671	0.528564
846.564	11.6132
849.457	2.37964
852.349	8.61865
855.242	5.9563
858.135	11.8535
861.027	3.34656
863.92	15.0693
866.813	7.41992
869.706	6.31641
872.598	7.14624
875.491	3.49194
878.384	2.5564
881.276	6.29285
884.169	1.46191
887.062	7.18543
889.954	0.997192
892.847	10.669
895.74	3.18384
898.632	4.729
901.525	1.8523
904.418	7.10571
907.311	13.271
910.203	8.10584
913.096	5.83179
915.989	5.37207
918.881	3.552
921.774	1.24609
924.667	0.343384
927.559	4.96436
930.452	8.76929
933.345	11.2792
936.237	1.724
939.13	0.706055
942.023	6.84338
944.916	7.38208
947.808	7.8346
950.701	5.58447
953.594	2.8999
956.486	2.82239
959.379	9.12585
962.272	0.063965
965.164	4.97119
968.057	3.03308
970.95	10.3463
973.843	5.43274
976.735	8.70215
979.628	7.98792
982.521	16.1842
985.413	3.50342
988.306	11.7492
991.199	7.02026
994.091	10.6476
996.984	10.6809
999.877	6.66736
1002.77	8.01623
1005.66	1.05029
1008.55	11.8901
1011.45	3.14819
1014.34	2.14673
1017.23	5.53125
1020.13	5.22656
1023.02	0.374634
1025.91	5.05737
1028.8	10.4325
1031.7	14.8713
1034.59	4.0459
1037.48	11.3004
1040.38	7.43506
1043.27	12.1537
1046.16	12.4822
1049.05	12.1536
1051.94	8.78259
1054.84	6.98731
1057.73	8.15613
1060.62	9.80298
1063.52	13.6759
1066.41	19.0048
1069.3	14.684
1072.19	14.7631
1075.09	18.064
1077.98	11.5433
1080.87	11.166
1083.77	11.1956
1086.66	8.94531
1089.55	13.7445
1092.44	14.4546
1095.34	6.43665
1098.23	8.7085
1101.12	3.45825
1104.01	0.770874
1106.91	1.9198
1109.8	5.60644
1112.69	1.30359
1115.59	3.06543
1118.48	6.64868
1121.37	5.64941
1124.26	7.80664
1127.16	3.9231
1130.05	16.1238
1132.94	19.6787
1135.83	24.3169
1138.73	26.2007
1141.62	31.4126
1144.51	42.2651
1147.4	52.4104
1150.3	60.4495
1153.19	63.4768
1156.08	76.3213
1158.97	94.2896
1161.87	100.9
1164.76	107.491
1167.65	117.225
1170.55	130.61
1173.44	143.972
1176.33	141.688
1179.22	146.891
1182.12	145.191
1185.01	146.087
1187.9	138.028
1190.8	137.907
1193.69	127.628
1196.58	123.242
1199.47	106.158
1202.37	92.404
1205.26	73.613
1208.15	64.1504
1211.04	50.5679
1213.94	28.3379
1216.83	23.083
1219.72	11.2871
1222.62	3.30688
1225.51	4.03467
1228.4	6.83984
1231.29	3.76685
1234.18	10.5886
1237.08	14.1106
1239.97	24.7058
1242.86	40.7495
1245.76	54.427
1248.65	70.1494
1251.54	76.8511
1254.43	75.3972
1257.33	72.946
1260.22	81.2344
1263.11	73.0913
1266.01	69.4949
1268.9	58.4463
1271.79	55.0388
1274.68	29.2622
1277.58	30.3208
1280.47	7.69727
1283.36	1.32593
