Measurement: Raman, 532 nm, unoriented, Raman Data Processed
Mineral: Labradorite
Rruff sample: R060082
Ideal chemistry: Na_0.5-0.3_Ca_0.5-0.7_Al_1.5-1.7_Si_2.5-2.3_O_8_
Locality: Pinacate Mountains, Sonora, Mexico
Source: University of Arizona Mineral Museum
Description: Colorless crystal fragment
Measured chemistry: (Na_0.40_K_0.02_Ca_0.58_)Al_1.58_Si_2.42_O_8_
Raman shift (cm-1)	intensity
137.619	0
140.994	0.324738
144.368	5.62277
147.743	16.2145
151.118	26.1637
154.493	33.7705
157.868	41.6973
161.242	56.58
164.617	76.393
167.992	101.548
171.367	126.992
174.742	149.473
178.117	160.679
181.491	158.928
184.866	145.154
188.241	125.16
191.616	108.09
194.991	102.985
198.365	88.071
201.74	75.9981
205.115	61.742
208.49	48.5068
211.865	36.9207
215.239	26.1088
218.614	14.2218
221.989	5.18144
225.364	1.09952
228.739	2.63693
232.114	3.50178
235.488	1.07895
238.863	2.72859
242.238	9.88881
245.613	17.4624
248.988	25.7437
252.362	37.6455
255.737	46.7344
259.112	55.3579
262.487	65.4114
265.862	75.8171
269.236	84.7425
272.611	93.0628
275.986	99.5023
279.361	101.52
282.736	101.443
286.111	95.0454
289.485	82.7705
292.86	69.3496
296.235	51.2737
299.61	37.8246
302.985	28.5505
306.36	20.7826
309.734	13.9465
313.109	10.195
316.484	6.41528
319.859	4.84058
323.234	3.81143
326.608	3.46109
329.983	4.298
333.358	4.03091
336.733	3.79166
340.108	4.20367
343.483	3.90393
346.857	2.28856
350.232	0.946091
353.607	0.908096
356.982	0.029785
360.357	1.17766
363.731	0.828491
367.106	0.4552
370.481	0.491531
373.856	1.70996
377.231	3.93008
380.606	3.91577
383.98	5.70003
387.355	9.33737
390.73	11.7995
394.105	15.1464
397.48	16.1122
400.854	18.6511
404.229	19.1219
407.604	21.365
410.979	17.9853
414.354	12.1835
417.728	7.20552
421.103	3.06844
424.478	0.02565
427.853	1.62097
431.228	1.48448
434.603	1.42673
437.977	0.063354
441.352	1.87712
444.727	2.83899
448.102	4.81287
451.477	7.24165
454.851	11.6398
458.226	18.9964
461.601	30.6792
464.976	45.0076
468.351	59.8656
471.726	80.0856
475.1	101.658
478.475	121.268
481.85	132.548
485.225	132.067
488.6	128.696
491.974	133.317
495.349	154.979
498.724	192.054
502.099	239.414
505.474	277.465
508.849	278.684
512.223	239.344
515.598	175.397
518.973	120.008
522.348	75.287
525.722	45.9301
529.097	25.863
532.472	11.9808
535.847	4.78369
539.222	2.45694
542.597	3.89639
545.971	8.24387
549.346	14.4705
552.721	22.947
556.096	30.5888
559.471	37.3644
562.846	39.7084
566.22	35.5973
569.595	24.8047
572.97	15.179
576.345	9.36929
579.72	4.39076
583.094	1.21558
586.469	0.38266
589.844	0.235168
593.219	1.03525
596.594	1.82968
599.968	0.056503
603.343	1.18526
606.718	0.330002
610.093	0.993408
613.468	0.967865
616.843	1.47522
620.217	1.25273
623.592	2.62216
626.967	3.4891
630.342	3.80264
633.717	4.05199
637.091	3.37749
640.466	2.5703
643.841	2.43361
647.216	3.31274
650.591	1.87793
653.966	1.30342
657.34	0.111557
660.715	0.838989
664.09	1.11482
667.465	0.22908
670.84	0.084137
674.215	0.136139
677.589	1.4888
680.964	2.51378
684.339	2.98653
687.714	4.7377
691.089	4.98538
694.463	4.61847
697.838	4.85612
701.213	5.18706
704.588	5.37781
707.963	4.50482
711.337	4.64075
714.712	2.87379
718.087	3.66835
721.462	4.27345
724.837	4.00276
728.212	4.05389
731.586	6.00687
734.961	5.17305
738.336	7.10898
741.711	9.60435
745.086	10.9541
748.46	10.5074
751.835	13.7675
755.21	15.6873
758.585	16.2128
761.96	17.4583
765.335	20.0128
768.709	22.8458
772.084	23.6121
775.459	24.4372
778.834	24.9894
782.209	24.1707
785.583	23.3578
788.958	23.2417
792.333	21.8162
795.708	19.4347
799.083	15.9446
802.457	11.7545
805.832	8.24881
809.207	4.92578
812.582	2.05623
815.957	0.620956
819.332	0.005707
822.706	0.040253
826.081	0.087173
829.456	1.16328
832.831	0.076996
836.206	0.927704
839.58	1.31273
842.955	0.117722
846.33	0.211288
849.705	0.96402
853.08	0.176941
856.455	1.51743
859.829	0.775375
863.204	1.45616
866.579	1.0397
869.954	1.39804
873.329	1.28041
876.703	0.756149
880.078	0.357925
883.453	1.5917
886.828	0.115753
890.203	1.63173
893.577	1.06163
896.952	0.692123
900.327	2.85611
903.702	2.9621
907.077	3.61594
910.452	3.45903
913.826	3.71872
917.201	2.89229
920.576	4.65742
923.951	4.14122
927.326	4.0081
930.701	3.23808
934.075	2.01546
937.45	1.97183
940.825	0.737396
944.2	0.169739
947.575	0.152283
950.949	0.218048
954.324	0.376312
957.699	0.47644
961.074	1.15607
964.449	0.923859
967.823	1.12091
971.198	3.95544
974.573	4.86441
977.948	5.31598
981.323	6.62833
984.697	7.89325
988.072	7.26578
991.447	7.04086
994.822	6.84164
998.197	6.38229
1001.57	5.26221
1004.95	4.62735
1008.32	3.54901
1011.7	3.82999
1015.07	4.68039
1018.45	4.29614
1021.82	4.61874
1025.19	6.0795
1028.57	5.72174
1031.94	6.26502
1035.32	5.40796
1038.69	7.20154
1042.07	5.89752
1045.44	6.85736
1048.82	6.82208
1052.19	6.58679
1055.57	5.68121
1058.94	6.728
1062.32	6.45633
1065.69	7.27945
1069.07	6.1553
1072.44	5.92404
1075.82	3.53165
1079.19	4.22494
1082.57	3.76019
1085.94	4.15219
1089.32	4.27264
1092.69	4.20798
1096.07	7.50861
1099.44	3.50269
1102.82	3.1004
1106.19	2.91861
1109.57	2.73767
1112.94	0.218201
1116.32	1.83682
1119.69	0.232574
1123.07	0.725311
1126.44	0.545563
1129.82	0.825867
1133.19	0.373108
1136.56	0.782318
1139.94	0.019714
1143.31	0.59668
1146.69	1.2193
1150.06	0.564362
1153.44	0.544098
1156.81	1.45825
1160.19	2.30087
1163.56	2.21988
1166.94	2.13083
1170.31	1.19589
1173.69	2.33679
1177.06	3.70291
1180.44	0.891754
1183.81	2.69727
1187.19	1.91202
1190.56	2.19833
1193.94	2.4418
1197.31	1.31226
1200.69	0.396698
1204.06	1.06357
1207.43	0.853912
1210.81	0.487335
1214.18	0.48587
1217.56	1.46558
1220.93	2.42181
1224.31	2.444
1227.68	1.47141
1231.06	0.670013
1234.43	1.33579
1237.81	0.318054
1241.18	0.585083
1244.56	1.5621
1247.93	0.780609
1251.31	2.23013
1254.68	1.93002
1258.06	3.25674
1261.43	2.74841
1264.81	2.71027
1268.18	2.37137
1271.56	1.85989
1274.93	1.39145
1278.31	1.09756
1281.68	1.57413
1285.06	0.923096
1288.43	0.95401
1291.81	0.084961
1295.18	0.084534
