Measurement: Raman, 532 nm, unoriented, Raman Data Processed
Mineral: Labradorite
Rruff sample: R050104
Ideal chemistry: Na_0.5-0.3_Ca_0.5-0.7_Al_1.5-1.7_Si_2.5-2.3_O_8_
Locality: unknown
Source: Rock Currier
Description: Iridescent slab
Measured chemistry: Ca_0.50_Na_0.47_K_0.03_Al_1.50_Si_2.50_O_8_
Raman shift (cm-1)	intensity
141.074	0
143.967	0.189636
146.859	4.92349
149.752	12.9699
152.645	21.2886
155.537	29.0646
158.43	33.2187
161.323	38.0271
164.215	46.9987
167.108	55.5514
170.001	61.5275
172.894	67.7338
175.786	67.8971
178.679	67.5318
181.572	67.0703
184.464	62.4086
187.357	56.452
190.25	49.157
193.143	41.955
196.035	38.0311
198.928	33.5963
201.821	29.2053
204.713	23.9877
207.606	17.6726
210.499	11.2281
213.391	4.20718
216.284	0.035782
219.177	1.66
222.069	2.06964
224.962	3.18194
227.855	0.3424
230.748	1.18085
233.64	4.86716
236.533	9.51802
239.426	15.2483
242.318	22.8587
245.211	27.3358
248.104	34.5525
250.996	39.6107
253.889	42.6799
256.782	44.9344
259.675	48.8676
262.567	53.7814
265.46	60.1317
268.353	66.8036
271.245	76.0901
274.138	82.3184
277.031	89.1602
279.923	93.5832
282.816	94.362
285.709	94.4115
288.601	86.2451
291.494	73.7579
294.387	62.1056
297.28	47.6434
300.172	34.2284
303.065	24.6034
305.958	17.9498
308.85	14.1569
311.743	10.9973
314.636	8.44183
317.529	7.36104
320.421	7.8539
323.314	6.95028
326.207	5.60986
329.099	5.86031
331.992	6.94706
334.885	6.57935
337.777	5.76685
340.67	5.60902
343.563	3.8572
346.455	4.23665
349.348	2.13284
352.241	1.27832
355.134	0.690056
358.026	0.134018
360.919	1.19164
363.812	0.725784
366.704	0.60128
369.597	0.294159
372.49	0.236862
375.382	0.620415
378.275	2.06552
381.168	5.07655
384.061	8.00677
386.953	11.8755
389.846	16.7535
392.739	21.2314
395.631	27.3516
398.524	31.4448
401.417	35.7982
404.309	41.6952
407.202	43.9948
410.095	40.7066
412.988	34.3243
415.88	25.9999
418.773	19.2483
421.666	14.2288
424.558	9.87541
427.451	5.2964
430.344	2.33487
433.236	0.515297
436.129	1.49253
439.022	0.617867
441.915	1.49646
444.807	1.41062
447.7	0.186302
450.593	3.1606
453.485	6.62711
456.378	12.7321
459.271	20.4827
462.163	31.2283
465.056	48.4512
467.949	68.5791
470.841	93.0432
473.734	119.018
476.627	143.778
479.52	159.233
482.412	160.433
485.305	147.573
488.198	133.061
491.09	126.816
493.983	137.771
496.876	170.692
499.769	215.731
502.661	262.443
505.554	305.044
508.447	319.22
511.339	308.228
514.232	262.059
517.125	199.904
520.017	141.193
522.91	98.0723
525.803	67.935
528.696	44.8017
531.588	27.4475
534.481	18.0945
537.374	12.1393
540.266	8.68104
543.159	7.12184
546.052	9.26726
548.944	10.1876
551.837	12.5059
554.73	15.201
557.622	16.3444
560.515	20.6197
563.408	23.3792
566.301	25.2096
569.193	21.4989
572.086	16.4725
574.979	10.0114
577.871	6.99658
580.764	3.78262
583.657	1.20883
586.549	0.351967
589.442	0.944237
592.335	1.20398
595.227	0.417412
598.12	1.02299
601.013	0.765472
603.906	0.645058
606.798	0.514702
609.691	0.784546
612.584	1.46165
615.476	1.79775
618.369	1.93617
621.262	2.12288
624.154	2.70317
627.047	2.9627
629.94	4.10892
632.833	4.77906
635.725	4.19064
638.618	4.25248
641.511	3.71362
644.403	3.92856
647.296	3.89283
650.189	3.41523
653.082	2.47488
655.974	2.32409
658.867	1.72433
661.76	1.44128
664.652	0.256943
667.545	0.020844
670.438	0.159317
673.33	0.828545
676.223	0.970085
679.116	1.34647
682.009	1.25379
684.901	1.07864
687.794	0.796967
690.687	1.0506
693.579	0.080734
696.472	1.07455
699.365	1.18601
702.257	1.38528
705.15	2.64745
708.043	2.5391
710.936	3.80925
713.828	3.75523
716.721	3.17855
719.614	4.11837
722.506	4.28882
725.399	4.15346
728.292	4.81925
731.184	5.59502
734.077	7.45121
736.97	9.31466
739.862	9.82416
742.755	12.1558
745.648	12.7495
748.541	12.6623
751.433	12.5897
754.326	12.1744
757.219	13.3745
760.111	14.0809
763.004	14.6136
765.897	14.504
768.789	15.3034
771.682	14.8285
774.575	14.7658
777.468	14.0292
780.36	13.7635
783.253	10.0799
786.146	9.01085
789.038	9.61497
791.931	9.16496
794.824	8.15546
797.716	8.33063
800.609	5.89172
803.502	4.65338
806.395	3.5934
809.287	2.02873
812.18	1.56638
815.073	1.71026
817.965	0.279549
820.858	0.188232
823.751	0.77253
826.643	0.218735
829.536	0.429016
832.429	0.297028
835.322	0.254219
838.214	0.769234
841.107	1.48675
844	0.480812
846.892	1.38857
849.785	0.784447
852.678	0.152161
855.57	0.458061
858.463	0.036858
861.356	0.053169
864.249	0.07975
867.141	1.10612
870.034	0.686531
872.927	1.39275
875.819	0.245422
878.712	0.01226
881.605	0.63903
884.497	0.279739
887.39	0.352219
890.283	0.938751
893.176	0.275879
896.068	0.815445
898.961	0.499229
901.854	0.307999
904.746	0.701668
907.639	0.654358
910.532	0.715858
913.424	1.14771
916.317	1.10276
919.21	0.139435
922.102	0.14225
924.995	0.258118
927.888	1.09963
930.781	0.988426
933.673	0.577118
936.566	1.81417
939.459	1.53599
942.351	0.805298
945.244	0.310654
948.137	0.742447
951.029	0.951866
953.922	1.47387
956.815	1.99139
959.708	3.43252
962.6	4.42673
965.493	4.29432
968.386	7.12132
971.278	8.64133
974.171	9.55793
977.064	10.7756
979.957	10.8383
982.849	9.93729
985.742	9.31541
988.635	8.18327
991.527	5.99818
994.42	5.76649
997.313	5.95684
1000.21	6.36287
1003.1	4.41521
1005.99	5.26931
1008.88	3.78257
1011.78	4.562
1014.67	5.08415
1017.56	5.3322
1020.45	4.77122
1023.35	4.05552
1026.24	3.8606
1029.13	3.79802
1032.03	3.20971
1034.92	2.24345
1037.81	2.26
1040.7	1.10352
1043.6	1.28738
1046.49	0.165047
1049.38	0.169365
1052.27	0.584015
1055.17	0.072044
1058.06	0.095634
1060.95	0.01461
1063.85	0.084206
1066.74	0.728271
1069.63	1.17426
1072.52	2.31366
1075.42	1.9755
1078.31	2.55173
1081.2	1.83277
1084.09	2.13626
1086.99	2.72594
1089.88	2.95796
1092.77	2.09988
1095.66	2.75168
1098.56	1.80416
1101.45	1.27085
1104.34	2.39287
1107.23	1.03785
1110.13	1.75266
1113.02	1.55963
1115.91	1.11102
1118.81	0.984711
1121.7	0.948257
1124.59	1.36327
1127.48	0.59536
1130.38	0.971237
1133.27	0.572426
1136.16	1.34803
1139.06	0.244965
1141.95	0.784019
1144.84	0.785645
1147.73	0.039627
1150.63	0.753777
1153.52	0.473511
1156.41	0.170792
1159.3	0.650841
1162.2	0.292747
1165.09	0.047813
1167.98	0.724205
1170.88	0.54818
1173.77	0.144684
1176.66	0.106628
1179.55	0.504509
1182.44	0.720459
1185.34	0.363602
1188.23	0.412842
1191.12	0.121773
1194.02	0.575386
1196.91	0.249657
1199.8	0.66259
1202.69	0.652924
1205.59	0.856651
1208.48	1.13612
1211.37	0.755219
1214.27	0.919067
1217.16	0.830414
1220.05	0.306511
1222.94	0.979485
1225.84	1.37537
1228.73	1.39242
1231.62	1.71442
1234.51	0.979408
1237.41	1.21557
1240.3	1.57858
1243.19	0.937851
1246.09	1.08842
1248.98	1.13026
1251.87	1.50707
1254.76	1.32446
1257.66	1.0013
1260.55	1.05051
1263.44	0.487793
1266.33	1.23167
1269.23	0.714027
1272.12	1.11939
1275.01	0.097923
1277.9	0.298279
1280.8	0.451241
1283.69	0.980515
1286.58	0.019249
1289.47	0
