Measurement: Raman, 532 nm, unoriented, Raman Data Processed
Mineral: Labradorite
Rruff sample: R060193
Ideal chemistry: Na_0.5-0.3_Ca_0.5-0.7_Al_1.5-1.7_Si_2.5-2.3_O_8_
Locality: Mexico
Source: Bill Barker
Description: Tan colored translucent fragment
Measured chemistry: (Ca_0.58_Na_0.39_K_0.02_)Al_1.60_Si_2.40_O_8_
Raman shift (cm-1)	intensity
157.646	0
160.539	1.28824
163.431	40.1912
166.324	202.987
169.217	426.98
172.109	663.693
175.002	884.743
177.895	1044.36
180.788	1095.12
183.68	992.448
186.573	824.337
189.466	698.097
192.358	638.297
195.251	615.327
198.144	549.066
201.036	474.12
203.929	387.198
206.822	295.491
209.715	213.828
212.607	121.45
215.5	51.7254
218.393	0.954704
221.285	15.9655
224.178	10.5045
227.071	0.670387
229.964	10.5806
232.856	11.6424
235.749	25.3668
238.642	68.2074
241.534	128.211
244.427	205.871
247.32	274.552
250.212	338.332
253.105	408.644
255.998	478.402
258.89	544.506
261.783	612.393
264.676	681.628
267.568	751.389
270.461	808.581
273.354	860.241
276.247	913.383
279.139	924.471
282.032	910.722
284.925	867.016
287.817	787.6
290.71	684.749
293.603	567.848
296.495	445.478
299.388	348.12
302.281	271.133
305.174	217.017
308.066	167.508
310.959	135.388
313.852	97.9617
316.744	80.1506
319.637	65.4663
322.53	41.6794
325.423	38.1739
328.315	30.4489
331.208	33.3317
334.101	32.8598
336.993	34.1497
339.886	31.6912
342.779	14.9791
345.671	20.5183
348.564	10.535
351.457	4.59895
354.349	4.61903
357.242	4.72302
360.135	6.42475
363.028	1.51279
365.92	0.021269
368.813	0.574446
371.706	3.24961
374.598	2.61136
377.491	9.07026
380.384	30.3846
383.276	31.8783
386.169	45.5716
389.062	73.1318
391.955	98.0648
394.847	117.189
397.74	140.255
400.633	153.292
403.525	155.27
406.418	149.222
409.311	129.653
412.204	104.934
415.096	69.2823
417.989	43.229
420.882	13.3657
423.774	5.37394
426.667	0.24841
429.56	10.9594
432.452	4.7284
435.345	1.08121
438.238	6.02482
441.13	9.88694
444.023	8.14954
446.916	7.32775
449.809	0.79814
452.701	10.0786
455.594	36.4093
458.487	77.503
461.379	142.94
464.272	228.224
467.165	324.865
470.058	449.1
472.95	604.674
475.843	751.365
478.736	896.481
481.628	979.016
484.521	974.139
487.414	931.478
490.306	919.669
493.199	1014.16
496.092	1217.42
498.985	1528.14
501.877	1871.46
504.77	2135.09
507.663	2202.99
510.555	2001.94
513.448	1644.77
516.341	1223.14
519.233	864.072
522.126	586.187
525.019	393.604
527.912	243.776
530.804	137.948
533.697	62.0151
536.59	12.6417
539.482	4.38913
542.375	2.80685
545.268	26.1862
548.16	51.2878
551.053	99.0614
553.946	142.545
556.838	189.406
559.731	232.308
562.624	251.195
565.517	230.995
568.409	174.849
571.302	120.467
574.195	66.7837
577.087	39.6817
579.98	16.6005
582.873	7.31874
585.765	6.49901
588.658	3.28164
591.551	0.487394
594.443	3.15203
597.336	6.14699
600.229	0.205174
603.122	0.847177
606.014	0.583383
608.907	1.81273
611.8	3.07028
614.692	6.66295
617.585	2.74003
620.478	8.98851
623.37	4.90371
626.263	10.8549
629.156	16.8401
632.049	17.3629
634.941	23.0584
637.834	15.5868
640.727	16.7933
643.619	11.5445
646.512	5.88863
649.405	4.13721
652.298	8.52821
655.19	0.875206
658.083	0.506551
660.976	0.745065
663.868	2.65141
666.761	4.43774
669.654	1.89818
672.546	19.5383
675.439	12.3896
678.332	14.7311
681.225	13.1723
684.117	20.6657
687.01	23.1449
689.903	23.7925
692.795	27.4464
695.688	27.6016
698.581	20.7332
701.473	21.6561
704.366	19.886
707.259	17.6613
710.152	12.4324
713.044	13.1877
715.937	16.82
718.83	15.4077
721.722	11.6213
724.615	9.98821
727.508	12.2451
730.4	13.6923
733.293	24.1617
736.186	28.1805
739.079	32.5848
741.971	51.4556
744.864	56.6879
747.757	62.9364
750.649	67.6308
753.542	83.714
756.435	92.3005
759.327	107.942
762.22	119.656
765.113	138.047
768.006	145.154
770.898	152.136
773.791	160.7
776.684	163.832
779.576	158.272
782.469	154.463
785.362	154.816
788.254	147.096
791.147	142.205
794.04	129.189
796.933	105.36
799.825	80.3717
802.718	64.6966
805.611	43.778
808.503	18.7044
811.396	16.9273
814.289	4.78916
817.181	2.55286
820.074	0.362503
822.967	3.17062
825.86	1.78579
828.752	0.62506
831.645	2.03623
834.538	3.63511
837.43	1.69412
840.323	2.01651
843.216	5.15156
846.108	1.68265
849.001	3.99626
851.894	2.82488
854.787	2.22283
857.679	1.20883
860.572	11.2454
863.465	11.9069
866.357	6.11707
869.25	8.00922
872.143	2.81575
875.035	1.86012
877.928	11.7788
880.821	2.43714
883.713	0.122535
886.606	5.33028
889.499	7.53332
892.392	9.13936
895.284	19.3716
898.177	17.8517
901.07	28.7781
903.962	22.8299
906.855	38.7956
909.748	41.2422
912.64	44.1328
915.533	36.0611
918.426	38.3234
921.319	36.0595
924.211	27.7449
927.104	23.784
929.997	17.4084
932.889	18.6344
935.782	10.8631
938.675	7.72639
941.567	3.86354
944.46	4.93228
947.353	1.15135
950.246	3.45862
953.138	3.57821
956.031	10.3417
958.924	16.3208
961.816	23.7225
964.709	37.2609
967.602	42.9598
970.495	65.1817
973.387	74.2057
976.28	87.1489
979.173	104.084
982.065	102.649
984.958	91.866
987.851	87.1431
990.743	86.5281
993.636	74.2362
996.529	63.6814
999.421	57.3146
1002.31	43.1671
1005.21	34.0877
1008.1	26.2714
1010.99	19.8789
1013.88	14.4848
1016.78	10.7006
1019.67	19.0779
1022.56	21.6661
1025.46	17.0641
1028.35	12.2732
1031.24	9.72066
1034.13	13.7247
1037.03	16.856
1039.92	15.6072
1042.81	17.5713
1045.7	15.3418
1048.6	21.538
1051.49	28.6945
1054.38	28.107
1057.28	25.3084
1060.17	29.6172
1063.06	29.5268
1065.95	23.5303
1068.85	20.5652
1071.74	20.3576
1074.63	22.3832
1077.52	19.8801
1080.42	21.1792
1083.31	18.125
1086.2	20.4771
1089.1	11.265
1091.99	14.7551
1094.88	15.1114
1097.77	12.1155
1100.67	6.82169
1103.56	2.41459
1106.45	3.56526
1109.34	0.154075
1112.24	4.71961
1115.13	2.86677
1118.02	1.32934
1120.91	2.3207
1123.81	0.853447
1126.7	8.53693
1129.59	4.07591
1132.49	3.02663
1135.38	5.15682
1138.27	0.422072
1141.16	10.1714
1144.06	7.1822
1146.95	13.8419
1149.84	10.2199
1152.73	5.39261
1155.63	20.0798
1158.52	8.56015
1161.41	15.7292
1164.31	13.5505
1167.2	13.2024
1170.09	17.9608
1172.98	14.6114
1175.88	8.71767
1178.77	10.7518
1181.66	11.8224
1184.55	10.0362
1187.45	5.99531
1190.34	4.3954
1193.23	5.97292
1196.12	5.22596
1199.02	5.54523
1201.91	0.7872
1204.8	0.736699
1207.7	1.12611
1210.59	10.3631
1213.48	5.52596
1216.37	0.41393
1219.27	4.56407
1222.16	7.21686
1225.05	6.68333
1227.94	4.7946
1230.84	5.65663
1233.73	3.24954
1236.62	1.12652
1239.52	6.44487
1242.41	18.11
1245.3	18.0008
1248.19	8.01717
1251.09	4.9105
1253.98	9.23152
1256.87	1.62852
1259.76	7.8482
1262.66	9.92982
1265.55	8.00918
1268.44	6.53189
1271.34	12.6503
1274.23	10.0639
1277.12	8.65029
1280.01	8.55093
1282.91	9.52924
1285.8	1.13086
1288.69	7.86149
1291.58	14.9809
1294.48	6.52148
1297.37	8.64455
1300.26	5.00142
1303.15	0.022199
