Measurement: Raman, 780 nm, unoriented, Raman Data Processed
Mineral: Labradorite
Rruff sample: R060221
Ideal chemistry: Na_0.5-0.3_Ca_0.5-0.7_Al_1.5-1.7_Si_2.5-2.3_O_8_
Locality: Pinacote lavafield, Sonora, Mexico
Source: Rock Currier
Description: Light tan transparent fragment
Measured chemistry: (Ca_0.65_Na_0.34_K_0.01_)(Al_1.66_Fe^3+^_0.01_)Si_2.33_O_8_
Raman shift (cm-1)	intensity
150.163	0
153.056	0.645493
155.949	2.71804
158.841	1.08951
161.734	8.94216
164.627	27.0359
167.519	49.394
170.412	76.132
173.305	104.21
176.198	135.627
179.09	157.952
181.983	163.774
184.876	160.486
187.768	153.6
190.661	152.464
193.554	159.674
196.446	159.112
199.339	146.72
202.232	130.247
205.125	108.928
208.017	86.0423
210.91	66.6089
213.803	47.2153
216.695	35.7492
219.588	19.3383
222.481	10.0738
225.374	10.4232
228.266	0.134804
231.159	0.323997
234.052	1.73273
236.944	0.321768
239.837	0.163028
242.73	3.42435
245.622	13.3852
248.515	21.4037
251.408	33.3204
254.3	35.9854
257.193	48.8873
260.086	55.4645
262.978	60.7552
265.871	68.7781
268.764	75.4979
271.657	79.0858
274.549	83.5798
277.442	82.2632
280.335	82.8117
283.227	79.3702
286.12	72.8692
289.013	60.3883
291.906	48.474
294.798	28.4498
297.691	19.792
300.584	7.59329
303.476	3.3883
306.369	1.33924
309.262	0.922834
312.154	0.762088
315.047	0.321041
317.94	1.23514
320.833	13.4056
323.725	13.4101
326.618	17.6879
329.511	21.3716
332.403	26.0384
335.296	27.2175
338.189	26.5568
341.082	28.3106
343.974	26.2691
346.867	24.6185
349.76	20.7498
352.652	17.9039
355.545	13.6964
358.438	10.9585
361.33	8.31374
364.223	3.88956
367.116	5.00336
370.009	3.12612
372.901	3.45472
375.794	1.42541
378.687	1.17327
381.579	0.571357
384.472	2.73499
387.365	3.41684
390.257	3.74638
393.15	9.40058
396.043	15.0484
398.935	20.1496
401.828	27.1151
404.721	25.5702
407.614	23.6646
410.506	17.5552
413.399	8.21523
416.292	0.094222
419.184	1.36046
422.077	1.73055
424.97	0.271872
427.863	0.718157
430.755	1.78245
433.648	3.00921
436.541	0.246148
439.433	0.397983
442.326	5.92075
445.219	4.5919
448.111	6.78887
451.004	13.6853
453.897	18.8917
456.789	28.0459
459.682	44.3686
462.575	61.2746
465.467	77.0872
468.36	100.723
471.253	129.895
474.146	165.78
477.038	199.912
479.931	229.9
482.824	240.243
485.716	235.111
488.609	223.96
491.502	226.829
494.394	251.116
497.287	302.038
500.18	372.065
503.073	437.421
505.965	468.044
508.858	439.287
511.751	366.843
514.643	279.651
517.536	194.568
520.429	130.85
523.322	87.2604
526.214	51.6541
529.107	27.1071
532	12.1342
534.892	2.24555
537.785	2.07171
540.678	0.803472
543.57	8.18058
546.463	16.8955
549.356	32.4487
552.249	48.8073
555.141	65.0575
558.034	76.8781
560.927	83.3328
563.819	72.7389
566.712	54.2724
569.605	35.7216
572.497	21.3188
575.39	11.5016
578.283	4.22028
581.176	0.350212
584.068	0.958955
586.961	0.412695
589.854	0.299368
592.746	1.39186
595.639	1.50878
598.532	0.943668
601.424	0.655816
604.317	0.177465
607.21	0.215279
610.102	1.13796
612.995	0.852399
615.888	3.82371
618.781	5.27207
621.673	8.7063
624.566	5.20644
627.459	5.54068
630.351	5.97886
633.244	5.31914
636.137	2.70344
639.029	4.78344
641.922	2.01183
644.815	0.008892
647.708	4.18985
650.6	1.56549
653.493	0.655515
656.386	0.278553
659.278	0.374255
662.171	0.305302
665.064	1.00846
667.957	1.1797
670.849	1.17926
673.742	1.39579
676.635	3.30002
679.527	7.68761
682.42	7.01246
685.313	7.67527
688.205	9.05608
691.098	9.12991
693.991	8.26761
696.884	6.04066
699.776	5.87196
702.669	5.09238
705.562	5.0929
708.454	6.37386
711.347	4.52227
714.24	3.24352
717.132	2.10251
720.025	2.84751
722.918	2.71148
725.811	3.27874
728.703	1.27243
731.596	3.34766
734.489	5.94689
737.381	11.3981
740.274	12.9767
743.167	12.6647
746.059	15.7371
748.952	18.3988
751.845	23.4288
754.737	22.9327
757.63	26.3159
760.523	31.1272
763.416	36.5153
766.308	38.3771
769.201	37.9006
772.094	42.0729
774.986	42.1027
777.879	40.8301
780.772	39.8557
783.665	40.1027
786.557	37.195
789.45	37.7263
792.343	33.42
795.235	28.1628
798.128	22.2419
801.021	17.2387
803.913	9.31305
806.806	8.18105
809.699	0.006647
812.592	1.48481
815.484	1.44162
818.377	3.47464
821.27	0.272975
824.162	0.590213
827.055	0.181389
829.948	2.44532
832.84	1.06647
835.733	0.11066
838.626	0.43436
841.519	1.54683
844.411	0.355874
847.304	3.56348
850.197	0.031759
853.089	0.996014
855.982	2.98787
858.875	0.503568
861.767	0.639618
864.66	1.80792
867.553	0.943208
870.446	1.87175
873.338	0.264
876.231	1.00178
879.124	0.623664
882.016	1.35695
884.909	2.93964
887.802	4.63304
890.694	1.08009
893.587	2.33228
896.48	2.41597
899.372	5.69702
902.265	8.38216
905.158	8.36668
908.051	6.02735
910.943	11.4934
913.836	11.8468
916.729	13.9508
919.621	10.8647
922.514	11.6421
925.407	6.19008
928.299	5.88155
931.192	3.00013
934.085	2.18256
936.978	0.971624
939.87	0.264775
942.763	0.401988
945.656	0.664135
948.548	0.400931
951.441	0.38739
954.334	0.24146
957.226	0.48601
960.119	5.43249
963.012	8.09178
965.905	3.88115
968.797	6.64609
971.69	10.6573
974.583	12.4665
977.475	17.751
980.368	12.3134
983.261	10.3204
986.154	12.5791
989.046	9.0642
991.939	8.14568
994.832	9.02657
997.724	6.71593
1000.62	5.38922
1003.51	4.38208
1006.4	2.00565
1009.29	1.44202
1012.19	3.14648
1015.08	0.806449
1017.97	0.307593
1020.87	0.41086
1023.76	0.166306
1026.65	0.560545
1029.54	1.81384
1032.44	4.27066
1035.33	0.311277
1038.22	2.42467
1041.12	3.22237
1044.01	5.3886
1046.9	5.37555
1049.79	7.01238
1052.69	3.33166
1055.58	6.71608
1058.47	7.58712
1061.36	7.57759
1064.26	8.47688
1067.15	7.4166
1070.04	6.95877
1072.93	4.4898
1075.83	7.60163
1078.72	4.80248
1081.61	4.47315
1084.51	5.53181
1087.4	4.97887
1090.29	3.46388
1093.18	2.18177
1096.08	2.88372
1098.97	0.439368
1101.86	0.32188
1104.75	0.780161
1107.65	0.137344
1110.54	0.661989
1113.43	1.15955
1116.33	1.10561
1119.22	1.34359
1122.11	0.197881
1125	3.42566
1127.9	5.61022
1130.79	7.41722
1133.68	9.66795
1136.57	14.0755
1139.47	17.3685
1142.36	23.3934
1145.25	26.889
1148.14	33.4186
1151.04	38.1998
1153.93	39.422
1156.82	48.5117
1159.71	55.9446
1162.61	59.5421
1165.5	66.5603
1168.39	72.9488
1171.29	76.9986
1174.18	85.1008
1177.07	87.2477
1179.96	87.7375
1182.86	87.025
1185.75	88.5487
1188.64	88.5314
1191.54	81.5811
1194.43	76.2553
1197.32	71.9156
1200.21	62.2304
1203.11	59.1072
1206	49.3107
1208.89	39.3242
1211.78	34.274
1214.68	27.7047
1217.57	14.9654
1220.46	8.22894
1223.36	0.193982
1226.25	2.09993
1229.14	0.476115
1232.03	1.98225
1234.93	2.40677
1237.82	9.7681
1240.71	9.94062
1243.6	20.7707
1246.5	30.8424
1249.39	40.7573
1252.28	46.5055
1255.17	46.0754
1258.07	41.3863
1260.96	31.2042
1263.85	34.554
1266.74	27.8114
1269.64	24.5462
1272.53	16.8457
1275.42	8.33596
1278.32	5.88105
1281.21	0.41371
1284.1	0.681808
