Measurement: Raman, 532 nm, unoriented, Raman Data Processed
Mineral: Labuntsovite-Mn
Rruff sample: R110169
Ideal chemistry: Na_4_K_4_Mn^2+^_2_Ti_8_O_4_(Si_4_O_12_)_4_(OH)_4_10-12H_2_O
Locality: Mont St-Hilaire, Quebec, Canada
Source: Donald V Doell
Description: Brownish-red bladed crystals associated with albite
Raman shift (cm-1)	intensity
177.273	0
180.166	3.92297
183.059	1.67178
185.951	0.164703
188.844	1.8273
191.737	8.73773
194.629	10.4246
197.522	16.8839
200.415	19.5313
203.308	24.5771
206.2	31.684
209.093	38.9089
211.986	48.6101
214.878	48.8463
217.771	49.5062
220.664	44.0021
223.556	39.622
226.449	30.1665
229.342	26.2212
232.234	19.1782
235.127	18.6682
238.02	14.0268
240.913	10.925
243.805	6.16589
246.698	3.94757
249.591	1.60739
252.483	5.86276
255.376	8.80023
258.269	19.2631
261.161	26.897
264.054	40.294
266.947	48.3357
269.84	61.1103
272.732	73.472
275.625	76.2024
278.518	80.8208
281.41	86.9265
284.303	90.0546
287.196	98.1487
290.089	109.946
292.981	125.551
295.874	137.622
298.767	149.98
301.659	163.435
304.552	176.812
307.445	179.797
310.337	172.923
313.23	160.802
316.123	138.423
319.015	120.505
321.908	104.484
324.801	91.8091
327.694	82.8564
330.586	78.2669
333.479	81.6233
336.372	88.623
339.264	96.7172
342.157	95.8546
345.05	95.1261
347.942	88.3311
350.835	84.8589
353.728	80.7894
356.621	73.1825
359.513	55.3834
362.406	34.6942
365.299	21.6493
368.191	4.56615
371.084	3.95747
373.977	10.1786
376.87	9.89372
379.762	5.77263
382.655	3.60068
385.548	5.48442
388.44	0.282471
391.333	3.76109
394.226	9.56839
397.118	16.9602
400.011	24.0742
402.904	26.2418
405.796	25.4045
408.689	24.852
411.582	21.4155
414.475	25.9593
417.367	30.2939
420.26	39.7854
423.153	56.0755
426.045	76.8823
428.938	94.0109
431.831	113.02
434.724	133.086
437.616	152.533
440.509	172.636
443.402	189.786
446.294	192.885
449.187	187.988
452.08	161.271
454.972	123.075
457.865	82.9631
460.758	56.0774
463.651	39.3177
466.543	38.9653
469.436	50.3397
472.329	79.7653
475.221	121.687
478.114	172.854
481.007	229.781
483.899	303.623
486.792	380.152
489.685	425.333
492.577	361.481
495.47	223.495
498.363	120.476
501.256	57.4585
504.148	27.5492
507.041	16.2094
509.934	15.0931
512.826	29.0406
515.719	55.2618
518.612	92.583
521.505	144.333
524.397	209.269
527.29	274.064
530.183	315.57
533.075	316.717
535.968	270.298
538.861	207.013
541.753	149.622
544.646	106.617
547.539	73.4954
550.432	52.7001
553.324	38.9842
556.217	27.6959
559.11	19.8696
562.002	13.8008
564.895	6.82677
567.788	3.08232
570.68	0.653091
573.573	3.23347
576.466	5.33363
579.359	5.10802
582.251	5.4455
585.144	3.77713
588.037	3.08971
590.929	1.13438
593.822	4.62694
596.715	8.03873
599.607	9.71426
602.5	14.7019
605.393	18.211
608.285	23.6011
611.178	25.7768
614.071	25.0106
616.964	18.343
619.856	13.0937
622.749	9.38019
625.642	6.50595
628.534	8.47166
631.427	4.27608
634.32	3.1893
637.212	2.26537
640.105	0.914932
642.998	1.55925
645.891	0.791504
648.783	0.424011
651.676	0.457916
654.569	3.20976
657.461	9.41263
660.354	11.2916
663.247	16.9752
666.139	20.9677
669.032	24.4198
671.925	28.0076
674.818	25.1477
677.71	20.9586
680.603	16.2783
683.496	8.49597
686.388	5.62785
689.281	0.023361
692.174	1.36261
695.067	2.84569
697.959	0.674988
700.852	2.35512
703.745	3.39832
706.637	9.57344
709.53	16.5033
712.423	24.6337
715.315	32.6075
718.208	41.2207
721.101	50.42
723.994	65.5763
726.886	76.1909
729.779	86.1414
732.672	100.778
735.564	108.648
738.457	116.609
741.35	123.291
744.242	131.557
747.135	133.227
750.028	134.233
752.92	137.804
755.813	139.164
758.706	136.726
761.599	133.305
764.491	129.668
767.384	126.368
770.277	120.727
773.169	116.187
776.062	112.063
778.955	109.35
781.847	106.602
784.74	105.067
787.633	98.9116
790.526	95.0068
793.418	83.8126
796.311	77.6003
799.204	64.202
802.096	58.4488
804.989	50.3634
807.882	41.6479
810.774	33.9723
813.667	26.8381
816.56	22.0281
819.453	15.6284
822.345	12.93
825.238	7.28516
828.131	4.04394
831.023	2.35718
833.916	0.932266
836.809	2.46605
839.702	2.9189
842.594	3.72099
845.487	3.90347
848.38	4.43513
851.272	2.80272
854.165	1.40813
857.058	7.76039
859.95	19.4032
862.843	40.5341
865.736	68.2215
868.629	111.767
871.521	167.344
874.414	230.152
877.307	287.033
880.199	330.315
883.092	339.292
885.985	306.764
888.877	248.408
891.77	187.266
894.663	140.431
897.556	110.498
900.448	98.3563
903.341	94.5974
906.234	96.4306
909.126	102.092
912.019	104.732
914.912	98.8553
917.804	90.6763
920.697	77.124
923.59	69.1098
926.482	65.379
929.375	65.9476
932.268	72.6685
935.161	83.414
938.053	96.5999
940.946	108.306
943.839	121.224
946.731	131.007
949.624	141.578
952.517	151.35
955.409	158.044
958.302	158.516
961.195	151.589
964.088	132.599
966.98	103.257
969.873	70.4244
972.766	40.6757
975.658	19.4333
978.551	9.04812
981.444	2.52416
984.337	0.60862
987.229	1.67747
990.122	2.47065
993.015	3.18699
995.907	1.97479
998.8	0.975861
1001.69	1.86671
1004.59	2.38492
1007.48	6.54924
1010.37	10.1734
1013.26	15.8609
1016.16	26.3926
1019.05	37.8015
1021.94	53.4693
1024.83	74.0802
1027.73	100.683
1030.62	128.545
1033.51	156.673
1036.4	185.009
1039.3	201.237
1042.19	198.715
1045.08	182.086
1047.98	155.276
1050.87	131.5
1053.76	108.225
1056.65	85.7633
1059.55	70.8331
1062.44	59.5296
1065.33	49.3158
1068.22	39.9547
1071.12	32.5971
1074.01	24.4043
1076.9	18.1103
1079.8	15.2965
1082.69	11.75
1085.58	9.96252
1088.47	6.27904
1091.37	6.46793
1094.26	4.70687
1097.15	3.35477
1100.04	2.36475
1102.94	2.89367
1105.83	2.67311
1108.72	1.13116
1111.62	0.949699
1114.51	0.666607
1117.4	0.118866
1120.29	0.491203
1123.19	1.14327
1126.08	0.207645
1128.97	0.135071
1131.86	0.726009
1134.76	0.126541
1137.65	0.270645
1140.54	1.0578
1143.43	0.216625
1146.33	1.04589
1149.22	2.27053
1152.11	1.58997
1155.01	0.714783
1157.9	1.56481
1160.79	1.91519
1163.68	1.61442
1166.58	1.82481
1169.47	3.25674
1172.36	2.47878
1175.26	3.25581
1178.15	1.82941
1181.04	1.96837
1183.93	2.26854
1186.83	1.50361
1189.72	2.29732
1192.61	2.74259
1195.5	2.91833
1198.4	2.84055
1201.29	1.55363
1204.18	2.19999
1207.07	2.1991
1209.97	2.90773
1212.86	1.85452
1215.75	2.98718
1218.64	1.99208
1221.54	1.71064
1224.43	1.62399
1227.32	1.54036
1230.22	1.61966
1233.11	1.79019
1236	1.16267
1238.89	1.16989
1241.79	0.778168
1244.68	1.98651
1247.57	1.92049
1250.46	0.649342
1253.36	0.605785
1256.25	1.15009
1259.14	1.87002
1262.04	1.71122
1264.93	1.89476
1267.82	0.473839
1270.71	1.92444
1273.61	1.76971
1276.5	1.57436
1279.39	0.716534
1282.29	1.18895
1285.18	1.22535
1288.07	1.28524
1290.96	1.20152
1293.86	0.100307
1296.75	0.167679
1299.64	0.303547
1302.53	0.516785
