Measurement: Raman, 780 nm, unoriented, Raman Data Processed
Mineral: Labuntsovite-Mg
Rruff sample: R130550
Ideal chemistry: Na_4_K_4_Mg_2_Ti_8_O_4_(Si_4_O_12_)_4_(OH)_4_10-12H_2_O
Locality: Kovdor Zheleznyi Mine, Kovdor Massif, Kola Peninsula, Murmanskaja Oblast', Northern Region, Russia
Source: Don Doell
Description: Prismatic orange crystals
Raman shift (cm-1)	intensity
91.1996	0
94.5744	21.0508
97.9492	20.4979
101.324	12.1325
104.699	0.686035
108.074	1.26578
111.448	9.03647
114.823	20.777
118.198	33.3068
121.573	55.6554
124.948	83.3127
128.322	98.0045
131.697	107.505
135.072	105.253
138.447	78.4763
141.822	45.3095
145.197	14.9526
148.571	2.84552
151.946	7.93689
155.321	8.15054
158.696	1.73871
162.071	8.36563
165.446	19.1821
168.82	35.7793
172.195	47.4559
175.57	49.0814
178.945	39.5939
182.32	28.8996
185.694	26.625
189.069	26.148
192.444	32.2632
195.819	44.9474
199.194	69.191
202.569	100.795
205.943	140.545
209.318	177.673
212.693	210.626
216.068	223.152
219.442	212.999
222.817	175.492
226.192	125.8
229.567	83.8702
232.942	52.3862
236.317	30.5951
239.691	19.0256
243.066	8.43561
246.441	2.63821
249.816	1.82291
253.191	7.93671
256.565	17.6356
259.94	32.7251
263.315	44.1679
266.69	52.2237
270.065	58.7814
273.44	65.4431
276.814	67.1102
280.189	66.2647
283.564	67.4904
286.939	70.5786
290.314	75.2805
293.688	77.671
297.063	83.065
300.438	88.6079
303.813	100.069
307.188	112.32
310.562	114.832
313.937	110.755
317.312	112.39
320.687	122.355
324.062	132.315
327.437	142.266
330.811	147.969
334.186	147.603
337.561	128.442
340.936	96.0259
344.311	68.0673
347.685	46.7146
351.06	27.4625
354.435	16.1624
357.81	10.0363
361.185	8.13679
364.56	3.73315
367.934	1.37717
371.309	5.77084
374.684	7.71312
378.059	5.19394
381.434	3.42255
384.808	0.767456
388.183	3.53954
391.558	6.19838
394.933	9.17371
398.308	12.6702
401.683	15.342
405.057	16.7973
408.432	18.2154
411.807	20.1121
415.182	23.6058
418.557	31.0322
421.931	35.9243
425.306	42.3075
428.681	44.6626
432.056	44.2736
435.431	44.2661
438.805	45.2118
442.18	45.7875
445.555	43.9138
448.93	41.8394
452.305	31.5058
455.68	21.4017
459.054	12.8461
462.429	3.75905
465.804	0.152466
469.179	6.11083
472.554	23.3587
475.928	56.344
479.303	96.4499
482.678	160.207
486.053	259.751
489.428	357.877
492.803	311.853
496.177	163.313
499.552	62.9365
502.927	16.1592
506.302	2.21728
509.677	4.92534
513.051	27.8422
516.426	66.5118
519.801	121.844
523.176	196.266
526.551	284.048
529.926	337.736
533.3	315.67
536.675	234.63
540.05	158.18
543.425	102.924
546.799	68.428
550.174	46.0418
553.549	30.9001
556.924	21.2942
560.299	14.2794
563.674	9.21622
567.048	5.31688
570.423	1.63139
573.798	0.114822
577.173	1.4095
580.548	0.198715
583.923	0.018524
587.297	1.42616
590.672	3.463
594.047	4.37436
597.422	5.3849
600.797	6.86954
604.171	9.37322
607.546	10.0893
610.921	11.3543
614.296	12.0771
617.671	11.6848
621.045	10.3287
624.42	6.31591
627.795	3.13935
631.17	0.112381
634.545	0.251366
637.919	2.54213
641.294	3.46645
644.669	3.56116
648.044	2.98089
651.419	1.64564
654.794	1.09096
658.168	4.80368
661.543	9.06163
664.918	14.3763
668.293	20.4698
671.668	25.4053
675.043	28.619
678.417	29.4327
681.792	29.7619
685.167	28.7929
688.542	28.0913
691.917	25.2033
695.291	24.1527
698.666	21.8398
702.041	19.3709
705.416	18.5598
708.791	16.9426
712.165	18.0129
715.54	19.0494
718.915	21.468
722.29	23.5772
725.665	25.8465
729.039	29.6998
732.414	35.0218
735.789	40.404
739.164	46.7115
742.539	55.5416
745.914	63.9436
749.288	75.2515
752.663	88.0485
756.038	99.0954
759.413	110.087
762.788	118.256
766.163	121.229
769.537	120.615
772.912	115.88
776.287	112.718
779.662	105.65
783.037	96.9231
786.411	88.7689
789.786	77.5606
793.161	65.3369
796.536	55.535
799.911	45.9387
803.285	37.3278
806.66	30.0772
810.035	24.3941
813.41	19.0494
816.785	15.3934
820.159	13.0461
823.534	10.9681
826.909	8.43289
830.284	5.89806
833.659	4.52985
837.034	1.53169
840.408	0.517525
843.783	2.33783
847.158	2.87423
850.533	3.91155
853.908	3.42732
857.283	3.22404
860.657	0.954826
864.032	1.90725
867.407	5.32072
870.782	11.9317
874.157	20.8394
877.531	30.3364
880.906	39.472
884.281	43.1709
887.656	41.008
891.031	35.8481
894.405	34.2168
897.78	34.9483
901.155	38.0481
904.53	44.1672
907.905	49.6297
911.279	58.1125
914.654	66.9189
918.029	78.5724
921.404	93.8796
924.779	116.755
928.154	144.657
931.528	176.871
934.903	203.905
938.278	222.862
941.653	233.581
945.028	237.829
948.403	238.769
951.777	234.979
955.152	223.309
958.527	192.494
961.902	142.504
965.277	88.0405
968.651	47.026
972.026	24.8489
975.401	12.749
978.776	7.21245
982.151	3.85426
985.525	2.16369
988.9	1.23949
992.275	0.588863
995.65	0.009243
999.025	0.059681
1002.4	0.253098
1005.77	0.296722
1009.15	0.753422
1012.52	0.826344
1015.9	0.900738
1019.27	0.105972
1022.65	1.84956
1026.02	4.33875
1029.4	7.00828
1032.77	10.1943
1036.15	12.0323
1039.52	13.4349
1042.9	14.8447
1046.27	15.8619
1049.65	15.2717
1053.02	13.3313
1056.4	12.2923
1059.77	10.5264
1063.15	10.0024
1066.52	8.50244
1069.9	7.0317
1073.27	5.27977
1076.64	3.30719
1080.02	2.4748
1083.39	1.95612
1086.77	1.31419
1090.14	1.23503
1093.52	1.80575
1096.89	2.54895
1100.27	1.2284
1103.64	0.469332
1107.02	0.083988
1110.39	0.086142
1113.77	0.222425
1117.14	0.084187
1120.52	0.04163
1123.89	0.208893
1127.27	0.269348
1130.64	0.365294
1134.02	0.798853
1137.39	0.646748
1140.77	1.18485
1144.14	1.25209
1147.52	0.605413
1150.89	1.0881
1154.27	1.18958
1157.64	1.48964
1161.02	1.4892
1164.39	1.0795
1167.77	1.04141
1171.14	1.21413
1174.52	1.40412
1177.89	1.25589
1181.27	1.10096
1184.64	1.58508
1188.01	0.995726
1191.39	0.742746
1194.76	0.994492
1198.14	1.15797
1201.51	0.753998
1204.89	0.618479
1208.26	0.584921
1211.64	0.450537
1215.01	0.093384
1218.39	0.036242
1221.76	0.154892
1225.14	0.198561
1228.51	0.040817
1231.89	0.204329
1235.26	0.064579
1238.64	0.334898
1242.01	0.137407
1245.39	0.105324
1248.76	0.392744
1252.14	0.896311
1255.51	0.435654
1258.88	0.358557
1262.26	0.852282
1265.63	1.01459
1269.01	0.60173
1272.38	1.03208
1275.76	0.874969
1279.13	0.218664
1282.51	0.035824
