Measurement: Raman, 532 nm, unoriented, Raman Data Processed
Mineral: Labuntsovite-Mg
Rruff sample: R130550
Ideal chemistry: Na_4_K_4_Mg_2_Ti_8_O_4_(Si_4_O_12_)_4_(OH)_4_10-12H_2_O
Locality: Kovdor Zheleznyi Mine, Kovdor Massif, Kola Peninsula, Murmanskaja Oblast', Northern Region, Russia
Source: Don Doell
Description: Prismatic orange crystals
Raman shift (cm-1)	intensity
199.284	0
202.177	13.3341
205.07	65.0439
207.962	129.101
210.855	195.112
213.748	255.044
216.64	309.178
219.533	329.163
222.426	318.047
225.319	266.484
228.211	202.579
231.104	129.01
233.997	70.848
236.889	25.6847
239.782	1.66711
242.675	0.380493
245.567	9.23254
248.46	34.626
251.353	78.9861
254.245	130.884
257.138	194.542
260.031	255.305
262.924	307.411
265.816	358.512
268.709	404.595
271.602	442.161
274.494	474.737
277.387	495.21
280.28	500.42
283.173	493.32
286.065	487.03
288.958	482.416
291.851	480.938
294.743	475.988
297.636	477.369
300.529	464.758
303.421	467.259
306.314	467.234
309.207	467.029
312.099	459.137
314.992	438.402
317.885	411.403
320.778	376.498
323.67	337.893
326.563	284.065
329.456	230.147
332.348	180.308
335.241	136.063
338.134	88.6503
341.027	47.2182
343.919	19.1802
346.812	0.47879
349.705	9.03516
352.597	13.7213
355.49	9.15402
358.383	5.86069
361.276	2.31061
364.168	2.29138
367.061	1.00436
369.954	1.09109
372.846	5.60962
375.739	13.729
378.632	22.4809
381.524	29.8524
384.417	35.4527
387.31	40.7195
390.202	44.9037
393.095	48.6459
395.988	47.3008
398.881	47.8182
401.773	43.9022
404.666	36.7853
407.559	25.5731
410.451	18.4916
413.344	14.295
416.237	15.6192
419.13	24.7426
422.022	29.5016
424.915	34.2117
427.808	33.1441
430.7	32.5849
433.593	33.1538
436.486	36.934
439.378	48.5078
442.271	63.2215
445.164	78.8095
448.057	97.8946
450.949	114.024
453.842	120.722
456.735	117.014
459.627	106.13
462.52	89.7938
465.413	67.581
468.305	43.6349
471.198	19.0264
474.091	9.10486
476.983	9.2373
479.876	27.214
482.769	69.2816
485.662	152.321
488.554	259.694
491.447	331.854
494.34	277.082
497.232	147.841
500.125	50.7831
503.018	2.25458
505.911	22.106
508.803	21.0134
511.696	6.15301
514.589	61.6962
517.481	155.435
520.374	285.954
523.267	465.12
526.159	681.371
529.052	885.731
531.945	993.32
534.837	940.136
537.73	780.16
540.623	612.264
543.516	475.82
546.408	379.451
549.301	320.393
552.194	279.17
555.086	246.535
557.979	228.637
560.872	218.055
563.764	203.65
566.657	189.899
569.55	181.647
572.443	175.488
575.335	166.713
578.228	159.556
581.121	156.348
584.013	152.464
586.906	150.318
589.799	147.862
592.692	146.209
595.584	141.747
598.477	137.883
601.37	131.372
604.262	126.167
607.155	123.676
610.048	125.554
612.94	121.632
615.833	118.497
618.726	106.431
621.619	86.559
624.511	61.7066
627.404	41.9312
630.297	26.2105
633.189	14.6502
636.082	3.78635
638.975	6.68433
641.867	13.416
644.76	17.3492
647.653	20.2351
650.545	17.4913
653.438	13.0712
656.331	6.77185
659.224	2.95715
662.116	18.1088
665.009	34.3544
667.902	54.7206
670.794	73.3659
673.687	88.525
676.58	98.6757
679.472	104.224
682.365	108.213
685.258	107.844
688.151	110.292
691.043	111.516
693.936	113.553
696.829	104.799
699.721	104.538
702.614	98.2282
705.507	97.729
708.399	95.559
711.292	96.7191
714.185	98.1624
717.078	104.931
719.97	116.737
722.863	128.958
725.756	142.408
728.648	156.683
731.541	170.498
734.434	191.701
737.327	216.29
740.219	247.191
743.112	279.329
746.005	323.49
748.897	366.445
751.79	417.853
754.683	465.27
757.575	512.608
760.468	557.726
763.361	596.774
766.254	611.231
769.146	610.473
772.039	600.021
774.932	577.428
777.824	544.127
780.717	513.23
783.61	470.358
786.502	426.385
789.395	379.296
792.288	330.673
795.181	283.843
798.073	234.794
800.966	193.131
803.859	158.813
806.751	134.088
809.644	111.632
812.537	92.9639
815.429	76.3555
818.322	64.9278
821.215	56.1908
824.107	46.5283
827	34.8834
829.893	26.7132
832.786	18.7929
835.678	10.3315
838.571	6.34723
841.464	0.326294
844.356	5.18076
847.249	8.87637
850.142	11.5514
853.034	12.6571
855.927	12.7015
858.82	10.0596
861.713	6.14035
864.605	0.023346
867.498	8.30545
870.391	20.6037
873.283	33.3272
876.176	47.383
879.069	58.9319
881.962	66.6702
884.854	74.2582
887.747	78.0097
890.64	82.8036
893.532	84.6595
896.425	89.4995
899.318	92.7325
902.21	100.904
905.103	109.091
907.996	118.658
910.889	128.623
913.781	136.526
916.674	143.464
919.567	151.715
922.459	160.803
925.352	178.011
928.245	194.772
931.137	219.669
934.03	244.204
936.923	262.327
939.816	273.197
942.708	280.581
945.601	280.658
948.494	274.084
951.386	260.922
954.279	242.056
957.172	213.709
960.064	175.613
962.957	127.828
965.85	79.3109
968.742	42.9897
971.635	20.1065
974.528	9.17516
977.421	1.40973
980.313	1.92894
983.206	1.06957
986.099	0.862122
988.991	1.13936
991.884	1.2446
994.777	4.50964
997.669	7.31748
1000.56	7.75447
1003.46	9.0782
1006.35	10.3294
1009.24	10.6917
1012.13	9.39314
1015.03	9.70476
1017.92	11.21
1020.81	16.4317
1023.7	21.66
1026.6	30.2756
1029.49	39.7343
1032.38	49.3137
1035.28	57.2247
1038.17	58.9859
1041.06	54.4698
1043.95	49.504
1046.85	39.0926
1049.74	31.5544
1052.63	24.7024
1055.52	19.8141
1058.42	16.7839
1061.31	14.623
1064.2	13.0793
1067.09	10.1922
1069.99	9.28447
1072.88	6.12765
1075.77	3.84794
1078.66	2.33344
1081.56	1.96951
1084.45	0.884476
1087.34	0.241714
1090.24	0.086197
1093.13	0.436684
1096.02	0.682716
1098.91	0.444283
1101.81	0.151855
1104.7	0.725555
1107.59	0.135605
1110.48	0.889206
1113.38	0.289215
1116.27	0.450798
1119.16	0.070366
1122.06	0.024071
1124.95	0.218456
1127.84	0.262104
1130.73	2.81386
1133.63	0.71479
1136.52	0.422207
1139.41	1.20396
1142.3	1.46984
1145.2	1.31683
1148.09	2.20424
1150.98	0.631145
1153.88	1.06775
1156.77	6.00907
1159.66	1.58394
1162.55	1.58532
1165.45	1.51506
1168.34	2.28182
1171.23	1.98489
1174.12	2.63609
1177.02	1.47706
1179.91	2.03745
1182.8	2.05658
1185.69	1.3913
1188.59	1.66781
1191.48	1.7575
1194.37	1.57971
1197.27	1.56801
1200.16	1.96939
1203.05	2.23999
1205.94	1.76661
1208.84	1.44834
1211.73	1.56638
1214.62	1.11185
1217.52	1.01865
1220.41	1.42437
1223.3	1.29814
1226.19	0.84869
1229.09	0.653412
1231.98	0.501614
1234.87	0.568943
1237.76	0.685276
1240.66	1.23154
1243.55	0.45755
1246.44	0.670303
1249.33	0.961987
1252.23	0.516754
1255.12	0.760029
1258.01	0.938187
1260.9	1.2378
1263.8	0.068241
1266.69	0.910145
1269.58	1.01
1272.48	0.734333
1275.37	1.13073
1278.26	0.976395
1281.15	1.13743
1284.05	1.37058
1286.94	1.32044
1289.83	1.02142
1292.72	0.928459
1295.62	0.54134
1298.51	1.53822
1301.4	0.126331
