Measurement: Raman, 780 nm, unoriented, Raman Data Processed
Mineral: Labuntsovite-Mn
Rruff sample: R110169
Ideal chemistry: Na_4_K_4_Mn^2+^_2_Ti_8_O_4_(Si_4_O_12_)_4_(OH)_4_10-12H_2_O
Locality: Mont St-Hilaire, Quebec, Canada
Source: Donald V Doell
Description: Brownish-red bladed crystals associated with albite
Raman shift (cm-1)	intensity
177.42	0
180.313	0.977234
183.206	4.42303
186.098	11.3978
188.991	19.4226
191.884	30.9711
194.776	43.3261
197.669	43.275
200.562	48.9002
203.455	54.2418
206.347	67.1334
209.24	75.2347
212.133	87.7115
215.025	90.2036
217.918	83.4224
220.811	77.8398
223.703	68.0915
226.596	57.2305
229.489	53.9373
232.382	49.87
235.274	49.0562
238.167	46.8453
241.06	39.9405
243.952	31.1598
246.845	19.6398
249.738	16.9368
252.631	13.0213
255.523	11.1071
258.416	21.2308
261.309	33.9416
264.201	51.2011
267.094	64.0228
269.987	75.2449
272.879	78.9477
275.772	79.4744
278.665	77.5272
281.558	75.9265
284.45	79.7247
287.343	87.1362
290.236	100.891
293.128	113.658
296.021	122.259
298.914	139.614
301.806	150.003
304.699	166.013
307.592	179.316
310.485	174.052
313.377	166.112
316.27	153.139
319.163	128.403
322.055	112.907
324.948	93.3593
327.841	75.4329
330.733	65.1917
333.626	62.6739
336.519	71.3282
339.411	76.6488
342.304	77.99
345.197	72.326
348.09	66.6581
350.982	63.2025
353.875	60.7254
356.768	59.5907
359.66	42.2444
362.553	26.6145
365.446	10.9297
368.339	4.0524
371.231	10.7262
374.124	15.5629
377.017	10.8483
379.909	6.85977
382.802	3.23026
385.695	4.25998
388.587	1.90469
391.48	0.485687
394.373	7.02731
397.265	15.7215
400.158	23.1971
403.051	29.0574
405.944	27.294
408.836	25.5067
411.729	21.1033
414.622	22.9554
417.514	24.495
420.407	34.3879
423.3	48.6663
426.192	63.4454
429.085	75.3137
431.978	91.7248
434.871	101.43
437.763	116.986
440.656	127.302
443.549	138.371
446.441	141.16
449.334	141.134
452.227	117.693
455.12	90.6137
458.012	62.7877
460.905	46.9767
463.798	44.8953
466.69	62.5045
469.583	104.824
472.476	174.161
475.368	265.673
478.261	338.045
481.154	436.406
484.046	576.539
486.939	760.159
489.832	882.333
492.725	751.048
495.617	450.874
498.51	229.246
501.403	105.951
504.295	49.9242
507.188	24.2223
510.081	23.9748
512.973	44.0432
515.866	82.2582
518.759	136.422
521.652	214.552
524.544	317.466
527.437	430.7
530.33	515.902
533.222	529.585
536.115	455.466
539.008	346.281
541.9	242.353
544.793	167.895
547.686	117.243
550.579	81.7489
553.471	59.9961
556.364	41.8153
559.257	32.0483
562.149	20.3025
565.042	13.9341
567.935	3.49588
570.827	2.42148
573.72	4.17242
576.613	8.65295
579.506	8.47958
582.398	6.40424
585.291	3.87396
588.184	1.43924
591.076	4.97171
593.969	11.4265
596.862	23.3068
599.755	32.3979
602.647	45.1394
605.54	52.895
608.433	65.1079
611.325	75.4921
614.218	67.392
617.111	51.0648
620.003	30.2738
622.896	16.7824
625.789	10.1864
628.682	6.48717
631.574	3.44855
634.467	3.07083
637.36	2.59123
640.252	0.287888
643.145	0.238861
646.038	0.700348
648.93	0.585083
651.823	2.18249
654.716	8.7736
657.609	10.9125
660.501	17.5
663.394	23.6758
666.287	30.0459
669.179	37.2563
672.072	39.3123
674.965	39.2655
677.857	34.7541
680.75	24.134
683.643	13.5956
686.535	6.97546
689.428	0.179916
692.321	2.92491
695.214	0.369415
698.106	3.77249
700.999	3.61322
703.892	5.77203
706.784	10.8067
709.677	23.3319
712.57	32.2682
715.462	43.9157
718.355	57.739
721.248	72.4233
724.141	89.8415
727.033	104.555
729.926	120.393
732.819	135.973
735.711	146.667
738.604	159.39
741.497	166.501
744.389	174.417
747.282	178.277
750.175	185.127
753.068	183.506
755.96	182.558
758.853	180.135
761.746	177.708
764.638	169.487
767.531	165.803
770.424	158.629
773.317	153.26
776.209	150.533
779.102	147.495
781.995	144.991
784.887	138.619
787.78	129.961
790.673	122.998
793.565	114.871
796.458	103.525
799.351	92.3023
802.244	80.9111
805.136	73.0337
808.029	62.6459
810.922	52.7762
813.814	44.15
816.707	35.7629
819.6	30.7806
822.492	24.8472
825.385	18.8184
828.278	15.6374
831.17	11.9817
834.063	8.04311
836.956	6.07015
839.849	3.38489
842.741	0.097244
845.634	2.03825
848.527	5.29803
851.419	5.48824
854.312	6.65092
857.205	3.43108
860.097	1.15762
862.99	10.5412
865.883	24.2248
868.776	45.4918
871.668	73.8852
874.561	109.441
877.454	150.71
880.346	187.081
883.239	201.551
886.132	186.168
889.024	148.307
891.917	111.03
894.81	81.4301
897.703	62.8151
900.595	55.9633
903.488	52.749
906.381	56.0221
909.273	60.5038
912.166	64.7201
915.059	62.8222
917.952	58.8111
920.844	55.2957
923.737	49.7097
926.63	48.8659
929.522	50.4733
932.415	57.2299
935.308	66.2845
938.2	80.9688
941.093	94.3539
943.986	105.543
946.879	115.955
949.771	129.43
952.664	140.244
955.557	152.1
958.449	160.652
961.342	159.819
964.235	147.985
967.127	119.189
970.02	82.2671
972.913	48.6657
975.806	25.0642
978.698	11.0732
981.591	4.57967
984.484	0.008804
987.376	1.07313
990.269	0.977028
993.162	1.36491
996.054	2.47831
998.947	0.034714
1001.84	1.39067
1004.73	2.80293
1007.62	3.89812
1010.52	6.70683
1013.41	9.62052
1016.3	15.1233
1019.2	19.4235
1022.09	29.7848
1024.98	42.3757
1027.87	57.681
1030.77	73.1994
1033.66	96.5191
1036.55	111.701
1039.44	122.973
1042.34	119.016
1045.23	108.852
1048.12	91.1788
1051.02	76.5148
1053.91	60.0699
1056.8	47.87
1059.69	39.7306
1062.59	33.3581
1065.48	27.7523
1068.37	24.3825
1071.27	19.0975
1074.16	14.2479
1077.05	10.2033
1079.94	6.69215
1082.84	6.18901
1085.73	3.95254
1088.62	1.91581
1091.51	2.40797
1094.41	3.32467
1097.3	0.231125
1100.19	1.31733
1103.08	1.79638
1105.98	0.149609
1108.87	0.955425
1111.76	0.662746
1114.65	0.880547
1117.55	0.748341
1120.44	0.614643
1123.33	0.412567
1126.23	0.630573
1129.12	1.03375
1132.01	1.0466
1134.9	0.859058
1137.8	0.069836
1140.69	1.86511
1143.58	1.32128
1146.47	0.384762
1149.37	0.414127
1152.26	0.686493
1155.15	0.301617
1158.05	0.082657
1160.94	2.02987
1163.83	1.32671
1166.72	2.08084
1169.62	1.3572
1172.51	1.3648
1175.4	0.925308
1178.3	2.06902
1181.19	2.78081
1184.08	0.624847
1186.97	1.28534
1189.87	1.57066
1192.76	1.59227
1195.65	2.47905
1198.54	1.91404
1201.44	1.58482
1204.33	2.09227
1207.22	1.60543
1210.11	1.4095
1213.01	1.56597
1215.9	2.16756
1218.79	1.56957
1221.68	1.48526
1224.58	1.29568
1227.47	1.18116
1230.36	1.45306
1233.26	0.803783
1236.15	2.25854
1239.04	0.432354
1241.93	0.688107
1244.83	0.144142
1247.72	0.053005
1250.61	0.075836
1253.51	0.205605
1256.4	1.50343
1259.29	1.03417
1262.18	0.809669
1265.08	1.41481
1267.97	1.44396
1270.86	0.387493
1273.75	1.55091
1276.65	0.766907
1279.54	1.15902
1282.43	0.802906
1285.32	0
