Measurement: Raman, 785 nm, unoriented, Raman Data Processed
Mineral: Lammerite
Rruff sample: R060715
Ideal chemistry: Cu^2+^_3_(As^5+^O_4_)_2_
Locality: Guanaco, Antofagasta Province, Chile
Source: Bob Jenkins
Description: Dark green tabular crystals associated with blue lavendulan, R060716, white quartz and barite
Measured chemistry: Cu_3.00_(As_1.00_O_4_)_2_
Raman shift (cm-1)	intensity
145.633	0
148.526	22.7783
151.419	26.679
154.311	157.518
157.204	450.994
160.097	396.855
162.99	278.601
165.882	321.678
168.775	366.834
171.668	449.527
174.56	265.734
177.453	57.835
180.346	15.9269
183.238	20.5153
186.131	2.14935
189.024	21.1671
191.917	14.6083
194.809	59.5879
197.702	86.5516
200.595	154.927
203.487	225.616
206.38	263.005
209.273	273.251
212.165	213.446
215.058	149.364
217.951	82.7814
220.844	40.0429
223.736	40.5092
226.629	49.0223
229.522	32.706
232.414	30.3826
235.307	31.609
238.2	16.5618
241.092	17.6328
243.985	9.38446
246.878	24.1585
249.77	19.6349
252.663	39.9169
255.556	58.6345
258.449	130.536
261.341	177.871
264.234	153.99
267.127	96.3056
270.019	62.5274
272.912	21.9014
275.805	3.05133
278.698	20.1967
281.59	7.23291
284.483	21.7724
287.376	35.3672
290.268	71.2986
293.161	175.441
296.054	260.654
298.946	324.252
301.839	267.178
304.732	168.988
307.625	115.519
310.517	89.804
313.41	77.7129
316.303	112.525
319.195	169.908
322.088	184.791
324.981	314.508
327.873	385.673
330.766	480.365
333.659	595.025
336.552	687.434
339.444	817.894
342.337	959.658
345.23	948.563
348.122	780.204
351.015	523.295
353.908	349.483
356.8	191.572
359.693	118.999
362.586	85.7065
365.478	62.9912
368.371	55.1171
371.264	47.9965
374.157	39.2673
377.049	36.7391
379.942	7.58289
382.835	0.513977
385.727	1.95477
388.62	8.05518
391.513	3.00848
394.405	1.15723
397.298	21.7747
400.191	17.7363
403.084	33.1461
405.976	26.6133
408.869	60.6679
411.762	108.74
414.654	146.305
417.547	205.716
420.44	261.009
423.332	327.877
426.225	362.926
429.118	346.595
432.011	282.735
434.903	216.26
437.796	153.28
440.689	87.3433
443.581	65.9008
446.474	52.2957
449.367	27.9903
452.259	21.5247
455.152	17.1116
458.045	29.9675
460.938	43.3035
463.83	32.1915
466.723	47.5789
469.616	75.4902
472.508	106.761
475.401	177.733
478.294	263.878
481.186	401.917
484.079	497.809
486.972	535.749
489.865	530.91
492.757	459.817
495.65	394.72
498.543	272.884
501.435	171.203
504.328	114.251
507.221	65.1868
510.114	51.9201
513.006	41.5293
515.899	23.8362
518.792	7.60144
521.684	20.1619
524.577	5.42212
527.47	4.83527
530.362	6.58704
533.255	8.78482
536.148	5.94858
539.041	14.7249
541.933	27.2809
544.826	40.1585
547.719	32.1574
550.611	11.0995
553.504	56.2173
556.397	23.6214
559.289	90.4342
562.182	72.4488
565.075	63.3221
567.968	123.613
570.86	117.871
573.753	133.468
576.646	100.212
579.538	88.8363
582.431	59.3774
585.324	44.8094
588.216	27.1096
591.109	38.7771
594.002	29.7234
596.895	22.5145
599.787	23.2
602.68	23.5887
605.573	4.72247
608.465	26.3969
611.358	12.3442
614.251	0.804077
617.143	15.4864
620.036	14.2322
622.929	8.99222
625.822	32.8988
628.714	15.3094
631.607	18.1057
634.5	7.17798
637.392	14.1582
640.285	7.77341
643.178	1.93192
646.07	10.48
648.963	9.42718
651.856	9.25403
654.749	7.45889
657.641	10.8611
660.534	34.5451
663.427	16.1523
666.319	30.2191
669.212	25.2722
672.105	42.0808
674.997	53.8158
677.89	29.4282
680.783	23.1956
683.676	30.1068
686.568	13.3567
689.461	9.48968
692.354	9.10132
695.246	24.7472
698.139	39.1431
701.032	19.1378
703.924	46.2675
706.817	38.0332
709.71	28.0745
712.603	17.8002
715.495	17.6034
718.388	0.293854
721.281	4.33304
724.173	0.615723
727.066	12.1011
729.959	9.73999
732.852	2.35406
735.744	6.35956
738.637	17.2991
741.53	5.7879
744.422	18.9581
747.315	30.5251
750.208	7.32526
753.1	25.446
755.993	29.7213
758.886	50.0853
761.779	88.0877
764.671	117.003
767.564	131.431
770.457	175.646
773.349	161.153
776.242	223.424
779.135	283.415
782.027	439.771
784.92	631.99
787.813	799.021
790.706	837.961
793.598	747.657
796.491	673.432
799.384	720.36
802.276	864.323
805.169	1112.61
808.062	1275.13
810.954	1092.67
813.847	722.024
816.74	457.077
819.633	220.023
822.525	120.884
825.418	74.8228
828.311	53.0455
831.203	33.2304
834.096	27.5274
836.989	60.936
839.881	91.3346
842.774	171.761
845.667	326.282
848.56	611.137
851.452	960.281
854.345	1289.73
857.238	1208.08
860.13	830.018
863.023	550.234
865.916	287.964
868.808	179.751
871.701	116.05
874.594	74.1703
877.487	38.6672
880.379	19.8977
883.272	3.03229
886.165	28.0981
889.057	13.506
891.95	4.09491
894.843	1.08191
897.735	7.7691
900.628	15.6802
903.521	19.5631
906.414	4.4696
909.306	24.556
912.199	13.0281
915.092	2.03565
917.984	2.39734
920.877	4.64813
923.77	11.3804
926.662	0.946838
929.555	18.3922
932.448	22.9896
935.341	25.9615
938.233	25.4378
941.126	16.5306
944.019	17.801
946.911	28.1664
949.804	39.0052
952.697	37.8849
955.589	8.54129
958.482	24.017
961.375	19.4493
964.268	47.9318
967.16	29.9846
970.053	45.8274
972.946	25.3469
975.838	26.8503
978.731	81.3984
981.624	43.6675
984.516	26.774
987.409	3.98337
990.302	17.4591
993.195	33.7004
996.087	8.5567
998.98	2.948
1001.87	16.7728
1004.76	31.3326
1007.66	41.2313
1010.55	58.3741
1013.44	14.4936
1016.34	4.74393
1019.23	20.2472
1022.12	43.9603
1025.01	1.46719
1027.91	30.1429
1030.8	41.3692
1033.69	10.4037
1036.59	35.8903
1039.48	30.7221
1042.37	34.9813
1045.26	17.415
1048.16	52.1069
1051.05	51.0665
1053.94	57.2632
1056.83	34.3993
1059.73	10.6418
1062.62	30.1289
1065.51	15.4606
1068.4	27.6266
1071.3	18.7326
1074.19	21.5023
1077.08	18.98
1079.98	27.9425
1082.87	28.5622
1085.76	21.2302
1088.65	23.9643
1091.55	44.9726
1094.44	23.9357
1097.33	20.8665
1100.22	43.9989
1103.12	14.1582
1106.01	14.5185
1108.9	21.5438
1111.8	27.0747
1114.69	6.84882
1117.58	22.6629
1120.47	8.43024
1123.37	21.6296
1126.26	50.4993
1129.15	38.2636
1132.04	22.7655
1134.94	51.6467
1137.83	32.7506
1140.72	44.1302
1143.62	12.7416
1146.51	20.1399
1149.4	26.9923
1152.29	30.1938
1155.19	39.0099
1158.08	21.246
1160.97	34.2313
1163.86	12.5794
1166.76	24.3516
1169.65	36.3614
1172.54	25.6659
1175.43	40.0298
1178.33	3.98611
1181.22	29.2541
1184.11	8.67615
1187.01	25.7359
1189.9	31.1101
1192.79	35.0791
1195.68	11.7518
1198.58	11.5344
1201.47	15.7552
1204.36	6.02799
1207.25	19.5721
1210.15	48.5958
1213.04	19.9472
1215.93	25.9071
1218.83	26.5595
1221.72	32.6624
1224.61	25.4293
1227.5	6.20248
1230.4	17.691
1233.29	5.33078
