Measurement: Raman, 532 nm, unoriented, Raman Data Processed
Mineral: Lammerite
Rruff sample: R060715
Ideal chemistry: Cu^2+^_3_(As^5+^O_4_)_2_
Locality: Guanaco, Antofagasta Province, Chile
Source: Bob Jenkins
Description: Dark green tabular crystals associated with blue lavendulan, R060716, white quartz and barite
Measured chemistry: Cu_3.00_(As_1.00_O_4_)_2_
Raman shift (cm-1)	intensity
112.363	0
115.737	105.962
119.112	269.235
122.487	360.068
125.862	282.079
129.237	259.41
132.611	222.036
135.986	256.92
139.361	306.218
142.736	273.345
146.111	298.663
149.486	402.342
152.86	699.085
156.235	1224.91
159.61	2366.73
162.985	2347.94
166.36	2266.63
169.734	3992.77
173.109	6818.98
176.484	2172.77
179.859	801.852
183.234	526.193
186.608	391.227
189.983	325.532
193.358	339.743
196.733	423.128
200.108	597.555
203.482	970.758
206.857	1460.17
210.232	1828.26
213.607	1269.13
216.982	573.582
220.357	258.997
223.731	162.554
227.106	82.118
230.481	57.026
233.856	47.034
237.231	1.259
240.605	2.133
243.98	0.066
247.355	13.064
250.73	47.751
254.105	97.837
257.48	199.093
260.854	223.28
264.229	281.405
267.604	203.333
270.979	117.375
274.354	67.424
277.728	81.65
281.103	95.546
284.478	173.176
287.853	302.161
291.228	638.7
294.603	1225.84
297.977	2064.16
301.352	2762.79
304.727	1946.99
308.102	1067.03
311.477	748.644
314.851	712.68
318.226	839.456
321.601	1163.36
324.976	1652.79
328.351	2308.02
331.725	3086.83
335.1	3705.03
338.475	4001.83
341.85	4274.82
345.225	4897.16
348.599	4292.47
351.974	2529.71
355.349	1322.35
358.724	781.63
362.099	446.498
365.474	253.535
368.848	163.976
372.223	76.657
375.598	41.917
378.973	10.178
382.348	22.378
385.723	20.722
389.097	21.153
392.472	42.926
395.847	33.004
399.222	25.943
402.597	2.04
405.971	59.948
409.346	94.727
412.721	206.712
416.096	329.907
419.471	502.633
422.845	713.957
426.22	910.811
429.595	934.537
432.97	714.087
436.345	409.893
439.72	242.53
443.094	180.125
446.469	146.695
449.844	123.343
453.219	171.759
456.594	200.052
459.968	286.05
463.343	420.39
466.718	595.02
470.093	971.726
473.468	1603.64
476.842	2649.77
480.217	4340.98
483.592	6811.63
486.967	9039.52
490.342	7950.67
493.717	5016.64
497.091	3178.68
500.466	2029.69
503.841	1288.75
507.216	872.688
510.591	629.539
513.966	466.132
517.34	376.202
520.715	293.129
524.09	227.522
527.465	227.62
530.839	190.021
534.214	158.674
537.589	134.178
540.964	111.893
544.339	104.535
547.714	103.113
551.088	96.993
554.463	128.018
557.838	156.881
561.213	213.573
564.588	265.783
567.963	338.555
571.337	386.833
574.712	352.827
578.087	226.661
581.462	152.734
584.836	89.793
588.211	65.15
591.586	53.32
594.961	31.831
598.336	26.441
601.711	11.131
605.085	20.64
608.46	9.045
611.835	17.294
615.21	13.982
618.585	36.353
621.959	31.128
625.334	35.759
628.709	34.93
632.084	61.348
635.459	56.983
638.834	55.129
642.208	45.622
645.583	45.959
648.958	35.13
652.333	32.558
655.708	37.261
659.083	38.227
662.457	43.806
665.832	56.531
669.207	49.485
672.582	72.52
675.956	71.899
679.331	71.181
682.706	72.701
686.081	65.437
689.456	47.381
692.831	56.274
696.205	48.246
699.58	50.381
702.955	59.426
706.33	47.335
709.705	57.563
713.08	11.649
716.454	23.782
719.829	90.549
723.204	144.441
726.579	191.774
729.954	255.872
733.328	340.493
736.703	442.997
740.078	532.261
743.453	531.849
746.828	612.565
750.203	711.746
753.577	837.501
756.952	1105.38
760.327	1561.71
763.702	2273.68
767.076	3212.14
770.451	4241.94
773.826	3864.12
777.201	3062.8
780.576	3107.94
783.951	3876.64
787.325	5414.93
790.7	7353.84
794.075	8458.66
797.45	9039.19
800.825	11633.3
804.2	16581.1
807.574	23654.2
810.949	27572.9
814.324	19783.6
817.699	10375.7
821.073	5636.6
824.448	3630.49
827.823	2709.68
831.198	2296.04
834.573	2269.67
837.948	2748.27
841.322	3877.57
844.697	6308.06
848.072	10639.9
851.447	18325.8
854.822	30862.2
858.196	39046.8
861.571	25027.5
864.946	12186.9
868.321	6555.1
871.696	4004.05
875.071	2662.52
878.445	1941.9
881.82	1430.52
885.195	1057.7
888.57	831.677
891.945	655.88
895.32	524.55
898.694	415.602
902.069	324.565
905.444	276.921
908.819	220.365
912.193	187.29
915.568	175.104
918.943	136.955
922.318	137.366
925.693	134.89
929.068	118.156
932.442	108.091
935.817	90.883
939.192	75.12
942.567	82.163
945.942	45.293
949.317	15.795
952.691	1.608
956.066	23.729
959.441	63.457
962.816	63.988
966.191	83.852
969.565	60.887
972.94	34.505
976.315	42.183
979.69	34.425
983.065	13.672
986.44	46.57
989.814	57.9
993.189	64.844
996.564	60.447
999.939	52.636
1003.31	44.302
1006.69	37.41
1010.06	33.293
1013.44	4.503
1016.81	16.02
1020.19	36.242
1023.56	46.896
1026.94	49.818
1030.31	35.757
1033.69	65.347
1037.06	69.627
1040.44	71.103
1043.81	86.254
1047.19	88.911
1050.56	81.946
1053.94	103.261
1057.31	117.716
1060.68	116.864
1064.06	100.395
1067.43	90.38
1070.81	76.55
1074.18	58.065
1077.56	20.517
1080.93	11.321
1084.31	15.651
1087.68	9.282
1091.06	28.049
1094.43	14.666
1097.81	19.148
1101.18	28.39
1104.56	7.717
1107.93	18.273
1111.31	9.573
1114.68	3.306
1118.06	1.54
1121.43	2.937
1124.81	13.192
1128.18	24.002
1131.56	15.597
1134.93	39.271
1138.31	38.349
1141.68	52.923
1145.06	45.5
1148.43	49.382
1151.81	40.352
1155.18	47.629
1158.56	46.231
1161.93	38.112
1165.31	21.354
1168.68	37.422
1172.05	32.377
1175.43	32.294
1178.8	34.451
1182.18	29.431
1185.55	42.467
1188.93	12.77
1192.3	27.501
1195.68	12.774
1199.05	6.06
1202.43	6.988
1205.8	5.856
1209.18	13.724
1212.55	19.859
1215.93	3.894
1219.3	17.482
1222.68	18.892
1226.05	11.307
1229.43	12.63
1232.8	6.802
1236.18	13.648
1239.55	14.12
1242.92	1.947
1246.3	10.591
1249.67	8.902
1253.05	0.211
1256.42	13.579
1259.8	2.995
1263.17	1.08
1266.55	7.234
1269.92	4.196
1273.3	1.401
1276.67	10.199
1280.05	5.747
1283.42	2.569
1286.8	6.328
1290.17	7.496
1293.55	10.885
