Measurement: Raman, 785 nm, unoriented, Raman Data Processed
Mineral: Lamprophyllite
Rruff sample: R070200
Ideal chemistry: Na_3_(SrNa)Ti^4+^_3_(Si_2_O_7_)_2_O_2_(OH)_2_
Locality: Windy Boy Peak, Bearpaw Mountains, Hill County, Montana, USA
Source: James Shigley
Description: Golden brown translucent platy massive associated with quartz
Measured chemistry: (Na_2.64_Mn^2+^_0.22_Mg_0.15_)_Σ=3.01_(Sr_1.19_K_0.18_Ba_0.13_Ca_0.09_)(Ti_2.82_Fe_0.33_Al_0.01_)_Σ=3.16_(Si_1.95_O_7_)_2_O_2_[(OH)_1.34_F_0.66_]_Σ=2_
Raman shift (cm-1)	intensity
151.201	0
154.093	123.55
156.986	2.08276
159.879	270.969
162.772	695.068
165.664	919.739
168.557	1249.39
171.45	1284.76
174.342	939.263
177.235	565.267
180.128	411.775
183.02	315.571
185.913	268.945
188.806	267.935
191.698	275.471
194.591	223.249
197.484	236.638
200.377	160.736
203.269	106.274
206.162	91.2024
209.055	26.6951
211.947	3.51147
214.84	4.63599
217.733	5.19922
220.625	3.03662
223.518	0.942383
226.411	10.0207
229.304	42.9226
232.196	71.0559
235.089	18.1965
237.982	111.244
240.874	246.057
243.767	422.178
246.66	601.165
249.553	672.308
252.445	760.918
255.338	774.903
258.231	739.683
261.123	622.34
264.016	540.776
266.909	534.018
269.801	485.402
272.694	523.833
275.587	543.106
278.479	527.332
281.372	527.699
284.265	535.273
287.158	566.839
290.05	537.568
292.943	543.029
295.836	547.695
298.728	542.601
301.621	527.44
304.514	551.788
307.406	535.203
310.299	567.974
313.192	577.413
316.085	586.588
318.977	612.575
321.87	566.867
324.763	547.736
327.655	526.163
330.548	588.464
333.441	683.762
336.334	863.681
339.226	912.768
342.119	946.96
345.012	859.608
347.904	766.48
350.797	681.916
353.69	514.375
356.582	460.714
359.475	417.12
362.368	287.215
365.26	248.263
368.153	208.65
371.046	155.626
373.939	115.517
376.831	36.1108
379.724	43.4404
382.617	90.519
385.509	3.25391
388.402	68.4668
391.295	347.431
394.188	527.021
397.08	825.621
399.973	1124.34
402.866	1381.92
405.758	1657.2
408.651	1960.17
411.544	2112.56
414.436	2164.35
417.329	2130.93
420.222	2097.02
423.115	1881.74
426.007	1520.17
428.9	1070.58
431.793	634.793
434.685	222.639
437.578	8.13745
440.471	57.5632
443.363	3.10693
446.256	258.56
449.149	607.354
452.041	1123.44
454.934	1680.33
457.827	2039.64
460.72	1968.97
463.612	1593.77
466.505	1121.08
469.398	761.63
472.29	451.837
475.183	261.561
478.076	83.3982
480.969	5.17505
483.861	15.1892
486.754	49.0986
489.647	219.094
492.539	361.307
495.432	507.687
498.325	518.006
501.217	495.577
504.11	427.805
507.003	381.252
509.896	338.73
512.788	337.165
515.681	257.169
518.574	235.83
521.466	226.021
524.359	199.157
527.252	151.018
530.144	154.471
533.037	101.166
535.93	36.1453
538.822	25.5942
541.715	14.009
544.608	71.8418
547.501	36.7017
550.393	15.7383
553.286	52.7241
556.179	90.9072
559.071	180.124
561.964	329.281
564.857	457.197
567.75	658.346
570.642	1016.95
573.535	1548.71
576.428	2174.07
579.32	2931.2
582.213	3553.5
585.106	3504.22
587.998	2912.26
590.891	2192.81
593.784	1692.47
596.677	1301.29
599.569	1125.25
602.462	948.226
605.355	738.036
608.247	582.415
611.14	419.509
614.033	297.246
616.925	172.03
619.818	100.955
622.711	56.0081
625.604	69.4619
628.496	5.63452
631.389	1.44946
634.282	0.3125
637.174	20.6626
640.067	22.6704
642.96	41.3506
645.852	42.2837
648.745	88.4851
651.638	129.03
654.53	143.994
657.423	197.016
660.316	284.111
663.209	407.779
666.101	571
668.994	845.39
671.887	1097.12
674.779	1505.1
677.672	1976.95
680.565	2526.93
683.457	3186.8
686.35	3893.31
689.243	4315.22
692.136	4354.6
695.028	3854.41
697.921	2989.33
700.814	2199.24
703.706	1606.22
706.599	1132.99
709.492	767.53
712.385	607.141
715.277	459.875
718.17	353.159
721.063	264.144
723.955	211.026
726.848	177.955
729.741	111.257
732.633	71.3887
735.526	67.8254
738.419	24.5474
741.312	26.0925
744.204	5.42017
747.097	38.248
749.99	3.23486
752.882	18.3645
755.775	37.21
758.668	10.0727
761.56	7.26611
764.453	67.3062
767.346	77.9263
770.239	114.067
773.131	163.792
776.024	275.592
778.917	366.185
781.809	452.792
784.702	558.731
787.595	727.834
790.487	793.987
793.38	841.491
796.273	880.43
799.165	865.337
802.058	804.623
804.951	678.292
807.844	528.491
810.736	364.391
813.629	278.775
816.522	184.823
819.414	120.636
822.307	31.3877
825.2	40.4707
828.092	106.37
830.985	145.456
833.878	110.749
836.771	57.3169
839.663	263.134
842.556	621.599
845.449	1040.61
848.341	1430.18
851.234	1715.36
854.127	1740.53
857.019	1619.42
859.912	1430.64
862.805	1265.61
865.698	1091.08
868.59	1166.55
871.483	1511.97
874.376	2455.91
877.268	3924.72
880.161	5988.46
883.054	8375.15
885.947	10751.6
888.839	12884.1
891.732	13896.7
894.625	14154
897.517	13404.7
900.41	12195.7
903.303	10703.1
906.195	8960.14
909.088	7503.38
911.981	6179.49
914.874	5099
917.766	4346.56
920.659	3876.46
923.552	3534.39
926.444	3463.39
929.337	3451.26
932.23	3513.36
935.122	3700.46
938.015	4027.56
940.908	4513.51
943.801	5015.57
946.693	5426.74
949.586	5085.6
952.479	4085.55
955.371	2739.62
958.264	1543.38
961.157	780.052
964.049	262.401
966.942	57.4006
969.835	77.8694
972.727	79.9048
975.62	117.759
978.513	68.4424
981.406	77.3992
984.298	45.6003
987.191	11.3208
990.084	34.1421
992.976	92.217
995.869	125.13
998.762	170.241
1001.65	189.055
1004.55	249.662
1007.44	264.678
1010.33	290.62
1013.23	326.06
1016.12	368.794
1019.01	396.888
1021.9	385.941
1024.8	392.976
1027.69	417.043
1030.58	387.703
1033.47	356.053
1036.37	373.707
1039.26	327.115
1042.15	297.641
1045.05	287.774
1047.94	284.099
1050.83	358.985
1053.72	366.171
1056.62	397.735
1059.51	467.252
1062.4	524.919
1065.29	578.617
1068.19	625.817
1071.08	651.714
1073.97	582.267
1076.87	488.084
1079.76	325.85
1082.65	249.764
1085.54	182.159
1088.43	99.113
1091.33	69.5709
1094.22	79.7939
1097.11	23.8892
1100.01	31.439
1102.9	34.1627
1105.79	26.4866
1108.68	9.52417
1111.58	2.49072
1114.47	2.66663
1117.36	28.3295
1120.26	11.8724
1123.15	38.2266
1126.04	37.8901
1128.93	24.0342
1131.83	16.829
1134.72	24.7008
1137.61	7.45898
1140.5	18.3993
1143.4	50.4398
1146.29	20.0183
1149.18	31.0085
1152.08	11.3557
1154.97	2.29541
1157.86	16.3064
1160.75	56.7217
1163.65	33.0847
1166.54	8.14722
1169.43	30.9089
