Measurement: Raman, 532 nm, unoriented, Raman Data Processed
Mineral: Lamprophyllite
Rruff sample: R130420
Ideal chemistry: Na_3_(SrNa)Ti_3_(Si_2_O_7_)_2_O_2_(OH)_2_
Locality: Pocos de Caldas Plateau, Minas Gerais, Brazil
Source: Gunnar Farber
Description: Bladed orange crystals
Measured chemistry: (Na_2.26_Mn_0.60_Ca_0.08_Mg_0.06_)(Sr_1.25_Na_0.50_K_0.10_)(Ti_2.80_Fe_0.17_Al_0.03_)Si_3.85_O_16_[(OH)_1.31_F_0.69_]
Raman shift (cm-1)	intensity
170.839	0
173.732	2.29046
176.625	0.093426
179.518	0.68605
182.41	3.23523
185.303	8.59429
188.196	11.2191
191.088	16.696
193.981	22.8577
196.874	32.1821
199.766	45.3561
202.659	60.4921
205.552	79.0202
208.445	101.563
211.337	121.939
214.23	137.639
217.123	139.316
220.015	131.141
222.908	113.257
225.801	96.4271
228.693	77.3925
231.586	63.5865
234.479	57.2345
237.371	56.4548
240.264	58.4278
243.157	61.5637
246.05	65.9399
248.942	62.7976
251.835	55.2309
254.728	43.3543
257.62	29.5375
260.513	19.6422
263.406	8.59177
266.298	3.22014
269.191	0.970871
272.084	1.64198
274.977	3.79597
277.869	3.50562
280.762	3.50989
283.655	2.91052
286.547	2.16296
289.44	1.88562
292.333	7.69522
295.226	17.5555
298.118	27.3827
301.011	41.48
303.904	59.1569
306.796	77.3077
309.689	93.5081
312.582	110.483
315.474	125.906
318.367	133.808
321.26	135.888
324.152	129.371
327.045	117.529
329.938	104.539
332.831	97.9748
335.723	99.7718
338.616	103.634
341.509	109.519
344.401	110.397
347.294	110.941
350.187	108.992
353.079	102.638
355.972	99.8898
358.865	98.1108
361.758	100.744
364.65	102.003
367.543	103.392
370.436	104.647
373.328	103.212
376.221	92.0945
379.114	77.1339
382.007	60.0165
384.899	53.0537
387.792	55.9939
390.685	64.9945
393.577	69.8135
396.47	61.0285
399.363	41.4353
402.255	30.9028
405.148	26.2809
408.041	29.4385
410.933	32.8879
413.826	35.5204
416.719	39.9899
419.612	42.0317
422.504	40.42
425.397	38.7746
428.29	32.151
431.182	21.2446
434.075	10.6602
436.968	1.28859
439.861	4.85759
442.753	5.87983
445.646	5.25308
448.539	2.22936
451.431	1.9725
454.324	5.19847
457.217	10.6092
460.109	15.6178
463.002	17.1616
465.895	19.4648
468.788	21.6827
471.68	25.9246
474.573	29.8248
477.466	32.0564
480.358	31.6605
483.251	28.1084
486.144	26.4302
489.036	29.2095
491.929	28.2356
494.822	29.7861
497.714	29.2293
500.607	23.9208
503.5	14.082
506.393	7.67162
509.285	3.18086
512.178	0.412155
515.071	0.340031
517.963	1.04859
520.856	0.73431
523.749	1.84048
526.641	5.35645
529.534	9.89519
532.427	13.889
535.32	19.462
538.212	24.5055
541.105	29.0296
543.998	29.0263
546.89	27.7194
549.783	22.403
552.676	21.2795
555.568	21.5495
558.461	23.3511
561.354	27.6792
564.247	35.1253
567.139	46.0551
570.032	59.3881
572.925	79.2975
575.817	103.697
578.71	134.293
581.603	167.665
584.495	180.411
587.388	162.207
590.281	129.333
593.174	104.895
596.066	86.1142
598.959	71.9798
601.852	61.486
604.744	50.2775
607.637	41.5059
610.53	32.5083
613.423	25.126
616.315	18.4547
619.208	12.7803
622.101	8.19625
624.993	3.99977
627.886	1.70639
630.779	0.054131
633.671	0.694862
636.564	1.04651
639.457	0.882332
642.35	1.00043
645.242	0.037189
648.135	0.184792
651.028	1.81701
653.92	3.18216
656.813	6.01178
659.706	8.83306
662.598	13.9427
665.491	19.5203
668.384	26.7798
671.277	36.769
674.169	49.7431
677.062	66.0184
679.955	86.5326
682.847	111.242
685.74	139.062
688.633	166.268
691.525	181.647
694.418	175.373
697.311	147.749
700.203	113.632
703.096	83.5384
705.989	61.3579
708.882	48.625
711.774	34.3593
714.667	27.327
717.56	20.6476
720.452	17.9532
723.345	14.748
726.238	11.9843
729.13	10.7345
732.023	9.44327
734.916	11.1071
737.809	4.88784
740.701	3.16358
743.594	2.32393
746.487	1.94248
749.379	0.572048
752.272	1.08047
755.165	0.420212
758.058	0.472538
760.95	0.709682
763.843	0.282173
766.736	0.229069
769.628	1.49899
772.521	2.50465
775.414	4.33284
778.306	6.83287
781.199	11.0205
784.092	19.3852
786.985	20.0548
789.877	26.7308
792.77	30.1926
795.663	32.7218
798.555	31.5706
801.448	30.5598
804.341	25.6694
807.233	20.0883
810.126	12.7936
813.019	4.62628
815.912	1.33334
818.804	4.8844
821.697	8.84154
824.59	7.85078
827.482	5.37929
830.375	0.801773
833.268	10.4674
836.16	29.704
839.053	51.2098
841.946	75.5544
844.838	96.9809
847.731	111.725
850.624	114.86
853.517	110.953
856.409	98.635
859.302	91.6452
862.195	86.3776
865.087	82.2168
867.98	89.5492
870.873	124.8
873.765	202.775
876.658	331.39
879.551	503.944
882.444	706.832
885.336	901.237
888.229	1021.45
891.122	1017
894.014	899.663
896.907	738.37
899.8	592.555
902.692	484.624
905.585	413.264
908.478	353.772
911.371	303.171
914.263	258.913
917.156	226.056
920.049	200.465
922.941	184.605
925.834	178.916
928.727	181.001
931.62	190.37
934.512	205.927
937.405	223.654
940.298	241.429
943.19	259.434
946.083	269.473
948.976	257.149
951.868	211.732
954.761	147.94
957.654	92.2401
960.547	54.3609
963.439	27.8525
966.332	12.9244
969.225	2.7504
972.117	2.46193
975.01	5.27688
977.903	6.89442
980.795	6.33793
983.688	4.63518
986.581	2.71266
989.473	0.932808
992.366	0.913124
995.259	3.6589
998.152	7.28838
1001.04	10.0843
1003.94	14.1052
1006.83	18.4576
1009.72	20.9728
1012.62	25.1566
1015.51	30.7703
1018.4	34.3637
1021.29	38.5007
1024.19	43.05
1027.08	47.3432
1029.97	53.2678
1032.86	58.023
1035.76	62.2537
1038.65	66.8777
1041.54	74.0591
1044.43	82.3223
1047.33	91.7724
1050.22	108.267
1053.11	122.139
1056.01	142.417
1058.9	161.494
1061.79	180.649
1064.68	189.531
1067.58	187.604
1070.47	170.198
1073.36	140.272
1076.26	105.695
1079.15	75.696
1082.04	52.0254
1084.93	33.9498
1087.83	22.6867
1090.72	13.6529
1093.61	8.11787
1096.5	4.65297
1099.4	3.38505
1102.29	1.2814
1105.18	0.76923
1108.07	0.422096
1110.97	0.146275
1113.86	0.2164
1116.75	0.25247
1119.64	0.137331
1122.54	0.084875
1125.43	0.076521
1128.32	0.614882
1131.22	0.059847
1134.11	0.399063
1137	1.03827
1139.89	0.639547
1142.79	0.096009
1145.68	0.560514
1148.57	0.61375
1151.46	0.405756
1154.36	0.82724
1157.25	0.963511
1160.14	0.428181
1163.04	0.934071
1165.93	0.572357
1168.82	0.112176
1171.71	0.731335
1174.61	0.887589
1177.5	0.3531
1180.39	0.330422
1183.28	0.452476
1186.18	0.125805
1189.07	0.342484
1191.96	0.717249
1194.86	0.740164
1197.75	1.07734
1200.64	1.12353
1203.53	2.66198
1206.43	1.2191
1209.32	1.14568
1212.21	0.531171
1215.1	0.611565
1218	0.966913
1220.89	0.593105
1223.78	0.604708
1226.67	0.642839
1229.57	0.572657
1232.46	0.25164
1235.35	0.592108
1238.25	0.387798
1241.14	0.529007
1244.03	0.885545
1246.92	0.76037
1249.82	0.912097
1252.71	1.30759
1255.6	0.815996
1258.49	1.4108
1261.39	1.15231
1264.28	1.0577
1267.17	0.818255
1270.07	0.516461
1272.96	0.422538
1275.85	0.712462
1278.74	0.834677
1281.64	1.20396
1284.53	1.04527
1287.42	0.89908
1290.31	0.378555
1293.21	0.827572
1296.1	0.402504
1298.99	0.08604
1301.88	0
