Measurement: Raman, 780 nm, unoriented, Raman Data Processed
Mineral: Lamprophyllite
Rruff sample: R130420
Ideal chemistry: Na_3_(SrNa)Ti_3_(Si_2_O_7_)_2_O_2_(OH)_2_
Locality: Pocos de Caldas Plateau, Minas Gerais, Brazil
Source: Gunnar Farber
Description: Bladed orange crystals
Measured chemistry: (Na_2.26_Mn_0.60_Ca_0.08_Mg_0.06_)(Sr_1.25_Na_0.50_K_0.10_)(Ti_2.80_Fe_0.17_Al_0.03_)Si_3.85_O_16_[(OH)_1.31_F_0.69_]
Raman shift (cm-1)	intensity
93.6102	0
96.985	31.358
100.36	21.4885
103.735	1.30237
107.109	0.643005
110.484	26.4506
113.859	78.3726
117.234	142.123
120.609	215.888
123.984	288.262
127.358	341.107
130.733	346.332
134.108	290.8
137.483	188.866
140.858	134.731
144.232	130.146
147.607	144.729
150.982	197.036
154.357	277.473
157.732	381.077
161.107	546.288
164.481	790.081
167.856	1105.28
171.231	1082.61
174.606	595.294
177.981	232.558
181.355	71.2206
184.73	2.37659
188.105	19.3084
191.48	1.14838
194.855	41.0374
198.229	107.987
201.604	199.499
204.979	328.671
208.354	484.456
211.729	641.253
215.103	714.457
218.478	664.679
221.853	544.373
225.228	414.018
228.603	309.109
231.978	251.395
235.352	236.853
238.727	254.802
242.102	291.373
245.477	311.221
248.852	305.793
252.226	260.621
255.601	184.999
258.976	103.837
262.351	42.1407
265.726	9.52563
269.101	4.09497
272.475	8.27325
275.85	2.47351
279.225	11.2004
282.6	25.0637
285.975	26.3292
289.349	10.2958
292.724	23.727
296.099	81.2521
299.474	157.386
302.849	254.148
306.224	365.237
309.598	471.328
312.973	568.564
316.348	650.831
319.723	693.117
323.098	693.137
326.472	633.616
329.847	582.285
333.222	575.75
336.597	602.245
339.972	629.286
343.346	647.185
346.721	644.913
350.096	634.153
353.471	626.78
356.846	632.386
360.221	664.705
363.595	712.99
366.97	770.436
370.345	819.665
373.72	814.04
377.095	702.64
380.469	503.274
383.844	355.979
387.219	305.184
390.594	323.749
393.969	328.355
397.344	250.988
400.718	164.769
404.093	126.543
407.468	132.627
410.843	155.081
414.217	176.301
417.592	192.497
420.967	202.65
424.342	188.061
427.717	149.343
431.092	91.6168
434.466	33.8156
437.841	11.861
441.216	30.3653
444.591	29.6863
447.966	10.7825
451.341	15.9702
454.715	48.1047
458.09	77.7382
461.465	88.4628
464.84	93.4644
468.215	99.9679
471.589	113.856
474.964	130.695
478.339	136.662
481.714	128.185
485.089	115.851
488.463	113.89
491.838	125.551
495.213	135.617
498.588	118.794
501.963	82.4006
505.337	38.2249
508.712	10.0183
512.087	2.04651
515.462	4.88968
518.837	1.62877
522.212	8.2326
525.586	26.99
528.961	47.975
532.336	70.0277
535.711	93.1662
539.086	113.332
542.46	127.168
545.835	119.416
549.21	100.371
552.585	89.1397
555.96	91.841
559.335	109.424
562.709	142.927
566.084	196.525
569.459	274.49
572.834	366.512
576.209	496.71
579.583	671.332
582.958	827.302
586.333	810.087
589.708	656.189
593.083	510.081
596.457	403.788
599.832	319.983
603.207	253.715
606.582	192.62
609.957	137.688
613.332	86.8913
616.706	51.3642
620.081	27.8705
623.456	12.1373
626.831	2.4567
630.206	3.77463
633.58	5.23856
636.955	5.43749
640.33	3.65626
643.705	1.21054
647.08	3.69634
650.455	10.6851
653.829	21.7803
657.204	36.3023
660.579	57.961
663.954	85.7117
667.329	123.844
670.703	174.407
674.078	242.652
677.453	330.86
680.828	444.457
684.203	579.455
687.577	715.863
690.952	804.271
694.327	767.514
697.702	614.097
701.077	439.728
704.452	299.669
707.826	205.523
711.201	144.835
714.576	106.657
717.951	79.5983
721.326	61.6229
724.7	49.3116
728.075	39.3446
731.45	30.7325
734.825	24.3711
738.2	17.4988
741.574	11.7745
744.949	7.0639
748.324	4.59166
751.699	4.39302
755.074	0.344498
758.449	1.46022
761.823	1.58662
765.198	1.73317
768.573	5.61876
771.948	10.2944
775.323	14.6474
778.697	29.163
782.072	45.9373
785.447	67.1981
788.822	85.4724
792.197	101.034
795.572	113.662
798.946	111.839
802.321	104.766
805.696	83.4091
809.071	54.2266
812.446	26.2239
815.82	1.23871
819.195	20.3797
822.57	33.2689
825.945	29.7564
829.32	8.92139
832.694	29.8161
836.069	99.6411
839.444	187.44
842.819	281.743
846.194	363.116
849.569	406.255
852.943	396.152
856.318	356.084
859.693	325.528
863.068	309.423
866.443	303.349
869.817	388.844
873.192	640.303
876.567	1101.83
879.942	1759.61
883.317	2538.78
886.692	3199.33
890.066	3438.86
893.441	3154.03
896.816	2577.1
900.191	2052.96
903.566	1680.71
906.94	1412.64
910.315	1198.84
913.69	1000.26
917.065	838.028
920.44	713.886
923.814	648.027
927.189	631.407
930.564	656.156
933.939	707.431
937.314	763.132
940.689	834.391
944.063	889.082
947.438	893.453
950.813	768.86
954.188	536.989
957.563	308.116
960.937	161.863
964.312	79.4496
967.687	29.3341
971.062	4.92395
974.437	12.1963
977.812	21.9513
981.186	22.1236
984.561	18.5922
987.936	13.3239
991.311	4.28581
994.686	7.0435
998.06	18.5427
1001.43	30.8046
1004.81	43.7767
1008.18	58.2484
1011.56	71.3206
1014.93	88.6163
1018.31	103.357
1021.68	119.407
1025.06	134.52
1028.43	153.738
1031.81	172.338
1035.18	188.277
1038.56	204.171
1041.93	228.195
1045.31	257.453
1048.68	301.138
1052.06	356.154
1055.43	426.539
1058.81	503.85
1062.18	567.326
1065.56	599.716
1068.93	567.206
1072.31	483.177
1075.68	364.677
1079.06	251.073
1082.43	164.333
1085.81	104.213
1089.18	62.9252
1092.56	37.2679
1095.93	21.1822
1099.31	11.5989
1102.68	7.11208
1106.05	2.60674
1109.43	1.55762
1112.8	1.29221
1116.18	0.800629
1119.55	1.0068
1122.93	0.176636
1126.3	0.063377
1129.68	0.767071
1133.05	1.0037
1136.43	1.2758
1139.8	0.12735
1143.18	0.298599
1146.55	0.027855
1149.93	0.869068
1153.3	0.97369
1156.68	1.95222
1160.05	1.93562
1163.43	2.25061
1166.8	2.68554
1170.18	3.69361
1173.55	3.82941
1176.93	4.43811
1180.3	5.16165
1183.67	5.74771
1187.05	10.2464
1190.42	7.73813
1193.8	9.93835
1197.17	11.8819
1200.55	13.844
1203.92	16.0073
1207.3	19.1879
1210.67	20.6289
1214.05	22.4187
1217.42	23.8856
1220.8	25.2448
1224.17	24.3791
1227.55	20.2638
1230.92	20.9755
1234.3	17.6035
1237.67	13.9453
1241.05	11.1552
1244.42	8.15193
1247.8	5.04655
1251.17	2.58775
1254.55	1.30136
1257.92	0.594204
1261.3	0.420517
1264.67	0.733376
1268.05	0.781784
1271.42	1.48155
1274.8	2.43068
1278.17	0.305122
1281.55	0.469559
