Measurement: Raman, 532 nm, unoriented, Raman Data Processed
Mineral: Lamprophyllite
Rruff sample: R070200
Ideal chemistry: Na_3_(SrNa)Ti^4+^_3_(Si_2_O_7_)_2_O_2_(OH)_2_
Locality: Windy Boy Peak, Bearpaw Mountains, Hill County, Montana, USA
Source: James Shigley
Description: Golden brown translucent platy massive associated with quartz
Measured chemistry: (Na_2.64_Mn^2+^_0.22_Mg_0.15_)_Σ=3.01_(Sr_1.19_K_0.18_Ba_0.13_Ca_0.09_)(Ti_2.82_Fe_0.33_Al_0.01_)_Σ=3.16_(Si_1.95_O_7_)_2_O_2_[(OH)_1.34_F_0.66_]_Σ=2_
Raman shift (cm-1)	intensity
161.752	0
164.645	379.933
167.538	998.411
170.431	1238.77
173.323	750.05
176.216	293.152
179.109	46.9531
182.001	137.212
184.894	138.55
187.787	130.168
190.679	83.5947
193.572	169.089
196.465	285.556
199.358	305.856
202.25	269.385
205.143	192.934
208.036	206.867
210.928	171.733
213.821	70.9717
216.714	91.7773
219.607	159.148
222.499	126.852
225.392	78.9951
228.285	169.958
231.177	104.728
234.07	49.3594
236.963	151.376
239.855	422.202
242.748	707.161
245.641	1070.25
248.534	1349.6
251.426	1502.95
254.319	1556.22
257.212	1294.02
260.104	1150.27
262.997	940.467
265.89	827.97
268.782	696.352
271.675	779.543
274.568	885.848
277.461	1018.09
280.353	971.804
283.246	1016.29
286.139	1056.47
289.031	1161.18
291.924	1224.83
294.817	1371.44
297.709	1506.87
300.602	1479.4
303.495	1607.4
306.387	1669.79
309.28	1655.72
312.173	1772.05
315.066	1779.59
317.958	1732.76
320.851	1723.54
323.744	1530.25
326.636	1596.15
329.529	1606.74
332.422	1943.82
335.315	2231
338.207	2471.19
341.1	2697.2
343.993	2586.39
346.885	2538.28
349.778	2297.14
352.671	1953.13
355.563	1675.5
358.456	1403.99
361.349	1168.11
364.242	973.385
367.134	690.391
370.027	366.809
372.92	162.852
375.812	24.8496
378.705	248.959
381.598	211.457
384.49	177.869
387.383	169.523
390.276	796.65
393.169	1464.71
396.061	2328.4
398.954	3113.77
401.847	4113.55
404.739	5105.84
407.632	6003.91
410.525	6727.62
413.418	7186.24
416.31	7576.27
419.203	7482.54
422.096	7382.12
424.988	6703.29
427.881	5456.47
430.774	3955.61
433.666	2299.01
436.559	1066.7
439.452	516.291
442.344	509.213
445.237	1199.4
448.13	2269.81
451.023	3782.41
453.915	5525.41
456.808	6827.31
459.701	6713.99
462.593	5614.09
465.486	4179.21
468.379	2847.64
471.272	2008.39
474.164	1282.01
477.057	734.344
479.95	304.84
482.842	150.973
485.735	68.6309
488.628	256.867
491.52	384.69
494.413	692.443
497.306	894.916
500.199	776.748
503.091	462.92
505.984	184.853
508.877	33.3379
511.769	9.5332
514.662	147.422
517.555	111.779
520.447	85.4356
523.34	13.043
526.233	66.7617
529.125	64.6484
532.018	60.4531
534.911	4.0957
537.804	2.48633
540.696	37.9922
543.589	119.551
546.482	229.568
549.375	325.746
552.267	473.795
555.16	792.059
558.053	1099.98
560.945	1470.71
563.838	2098.67
566.731	2959.53
569.623	4395.52
572.516	6389.73
575.409	9013.35
578.302	11776.1
581.194	14150.5
584.087	14068.9
586.98	11521.6
589.872	8619.24
592.765	6573.7
595.658	5336.57
598.55	4461.28
601.443	3660.61
604.336	3182.66
607.229	2440.96
610.121	1817.44
613.014	1199.31
615.907	765.758
618.799	565.729
621.692	296.377
624.585	199.285
627.477	49.2793
630.37	21.3359
633.263	6.33984
636.155	68.2519
639.048	176.748
641.941	3.47852
644.834	20.7051
647.726	158.498
650.619	335.406
653.512	502.109
656.404	505.619
659.297	722.146
662.19	1067.07
665.082	1494.92
667.975	1995.07
670.868	2857.34
673.761	3768.88
676.653	4908.01
679.546	6436.63
682.439	8217.2
685.331	9910.1
688.224	10989.6
691.117	11120.1
694.01	10075
696.902	8116.97
699.795	5977.96
702.688	4296.35
705.58	3097.52
708.473	2231.86
711.366	1670.33
714.258	1312.58
717.151	1012.23
720.044	806.006
722.937	543.039
725.829	539.057
728.722	338.094
731.615	294.346
734.507	193.543
737.4	102.398
740.293	33.7734
743.186	17.6758
746.078	9.9707
748.971	82.6914
751.864	60.0137
754.756	21.9121
757.649	61.5762
760.542	226.945
763.434	116.584
766.327	245.1
769.22	425.891
772.112	645.207
775.005	966.348
777.898	1273.07
780.791	1714.48
783.683	2055.38
786.576	2472.05
789.469	2751.34
792.361	2887.01
795.254	2879.04
798.147	2853.94
801.039	2625.72
803.932	2276.94
806.825	1697.21
809.718	1338.33
812.61	976.535
815.503	688.356
818.396	88.8086
821.288	114.672
824.181	175.258
827.074	322.092
829.966	552.246
832.859	418.818
835.752	16.25
838.645	815.002
841.537	2042.25
844.43	3179.73
847.323	4272.15
850.215	5082.88
853.108	5525.4
856.001	5563.91
858.894	5592.37
861.786	5634.25
864.679	5867.48
867.572	6763.63
870.464	9004.82
873.357	12859.4
876.25	19433.5
879.142	28074.4
882.035	38827.6
884.928	49608.8
887.821	59300.8
890.713	65835.6
893.606	68262.4
896.499	66167.2
899.391	61232.3
902.284	54289.8
905.177	46493.2
908.069	39003.9
910.962	32232.7
913.855	26805
916.748	22936.7
919.64	20171.7
922.533	18578.5
925.426	17483.9
928.318	16589.7
931.211	16379
934.104	16357.9
936.996	16428.3
939.889	17045.5
942.782	17797.3
945.675	17876.6
948.567	16568.2
951.46	13624.3
954.353	9577.08
957.245	5777.38
960.138	3096.25
963.031	1488.69
965.923	325.127
968.816	110.389
971.709	232.859
974.602	438.893
977.494	346.75
980.387	254.998
983.28	194.451
986.172	115.379
989.065	62.4414
991.958	140.977
994.851	338.658
997.743	340.525
1000.64	437.875
1003.53	680.84
1006.42	665.617
1009.31	712.391
1012.21	851.498
1015.1	952.447
1017.99	1012.06
1020.88	989.312
1023.78	1115.69
1026.67	1110.42
1029.56	1114.82
1032.46	1180.76
1035.35	968.562
1038.24	888.393
1041.13	790.584
1044.03	863.531
1046.92	801.938
1049.81	718.041
1052.7	758.014
1055.6	788.504
1058.49	894.492
1061.38	900.283
1064.28	975.856
1067.17	1079.82
1070.06	1059.41
1072.95	960.697
1075.85	791.385
1078.74	574.141
1081.63	366.621
1084.52	219.072
1087.42	216.332
1090.31	109.603
1093.2	169.41
1096.1	108.24
1098.99	18.3379
1101.88	61.7168
1104.77	41.2285
1107.67	32.1367
1110.56	20.7129
1113.45	50.7598
1116.34	57.707
1119.24	78.8906
1122.13	101.988
1125.02	17.0273
1127.91	64.8516
1130.81	89.7422
1133.7	150.93
1136.59	18.4707
1139.49	80.3574
1142.38	139.703
1145.27	111.465
1148.16	232.404
1151.06	170.648
1153.95	113.137
1156.84	115.744
1159.73	223.969
1162.63	96.8106
1165.52	185.191
1168.41	97.9277
1171.31	24.5703
1174.2	76.541
1177.09	96.8848
1179.98	43.7871
1182.88	5.61523
1185.77	57.4434
1188.66	106.867
1191.55	191.885
1194.45	142.35
1197.34	138.85
1200.23	0.951172
1203.12	177.658
1206.02	65.5547
1208.91	94.7207
1211.8	120.189
1214.7	75.207
1217.59	199.434
1220.48	151.359
1223.37	43.6465
1226.27	19.957
1229.16	21.4551
1232.05	140.168
1234.94	128.685
1237.84	16.6816
1240.73	33.1973
1243.62	40.0117
1246.52	54.6133
1249.41	185.42
1252.3	82.3984
1255.19	60.4863
1258.09	119.371
1260.98	239.447
1263.87	143.785
1266.76	174.596
1269.66	126.777
1272.55	139.394
1275.44	109.086
1278.34	189.508
1281.23	205.666
1284.12	234.893
1287.01	111.535
1289.91	215.481
1292.8	158.812
1295.69	144.666
1298.58	205.623
1301.48	153.106
1304.37	210.727
1307.26	12.1562
