Measurement: Raman, 532 nm, unoriented, Raman Data Processed
Mineral: Lamprophyllite
Rruff sample: R070284
Ideal chemistry: Na_3_(SrNa)Ti_3_(Si_2_O_7_)_2_O_2_(OH)_2_
Locality: Lovozero Massif,  Kola Peninsula,  Murmanskaja Oblast',  Northern Region,  Russia
Source: Michael Scott
Description: Stellate groups of transparent brown bladed crystals
Measured chemistry: (Na_2.35_Mn_0.36_Mg_0.17_Ca_0.12_)(Sr_1.08_Na_0.35_K_0.09_Ba_0.01_)(Ti_2.80_Fe_0.26_Al_0.02_)Si_3.87_O_16_[(OH)_1.14_F_0.86_]
Raman shift (cm-1)	intensity
148.698	0
152.072	171.044
155.447	693.571
158.822	1352.66
162.197	2235.17
165.572	3555.48
168.946	4988.9
172.321	4887.97
175.696	2674.76
179.071	1247.09
182.446	498.562
185.821	161.171
189.195	86
192.57	83.7793
195.945	12.6387
199.32	102.973
202.695	422.67
206.07	860.796
209.444	1437.02
212.819	2104.77
216.194	2368.23
219.569	2177.04
222.944	1715.94
226.318	1132.3
229.693	691.239
233.068	552.453
236.443	580.303
239.818	755.203
243.192	1044.54
246.567	1256.77
249.942	1277.89
253.317	1092.02
256.692	744.774
260.067	488.426
263.441	314.618
266.816	258.189
270.191	389.882
273.566	457.722
276.941	542.849
280.315	277.812
283.69	72.4678
287.065	102.943
290.44	186
293.815	171.948
297.19	38.4043
300.564	219.784
303.939	577.373
307.314	1073.89
310.689	1674.11
314.064	2257.17
317.438	2865.39
320.813	3331.36
324.188	3410.31
327.563	3475.77
330.938	3691.54
334.313	4089.34
337.687	4567.34
341.062	4882.68
344.437	4858.6
347.812	4729.46
351.187	4544.88
354.562	4349.79
357.936	4494.78
361.311	5010.94
364.686	5759.35
368.061	6589.23
371.436	7302.58
374.81	7220.9
378.185	5949.62
381.56	4042.68
384.935	2596.84
388.31	1981.25
391.685	1698.56
395.059	1559.9
398.434	1216.41
401.809	871.02
405.184	781.551
408.559	786.701
411.933	910.696
415.308	1022.19
418.683	1021.12
422.058	938.105
425.433	821.36
428.808	602.974
432.182	225.232
435.557	55.4336
438.932	141.949
442.307	149.289
445.682	74.4228
449.056	96.853
452.431	379.141
455.806	597.747
459.181	759.341
462.556	752.048
465.93	679.637
469.305	722.012
472.68	748.826
476.055	791.978
479.43	759.362
482.805	678.891
486.179	595.258
489.554	637.75
492.929	677.869
496.304	685.847
499.679	492.787
503.053	309.041
506.428	122.055
509.803	86.2212
513.178	20.5552
516.553	39.1621
519.928	2.73731
523.302	131.459
526.677	175.383
530.052	186.944
533.427	331.036
536.802	390.537
540.177	441.666
543.551	441.653
546.926	426.067
550.301	345.133
553.676	396.957
557.051	489.263
560.425	586.129
563.8	880.737
567.175	1264.89
570.55	1866.36
573.925	2829.93
577.299	4078.72
580.674	5618.16
584.049	6684.02
587.424	6553.79
590.799	5507.46
594.174	4603.03
597.548	3728.97
600.923	3074.73
604.298	2471.38
607.673	1794.4
611.048	1241.82
614.423	750.414
617.797	437.874
621.172	160.71
624.547	136.458
627.922	0.194336
631.297	8.45166
634.671	70.749
638.046	4.8125
641.421	17.7705
644.796	30.2471
648.171	42.602
651.545	88.9219
654.92	242.647
658.295	331.84
661.67	483.057
665.045	649.74
668.42	1008.03
671.794	1366.02
675.169	1873.38
678.544	2634.47
681.919	3552.92
685.294	4505.14
688.668	5454.54
692.043	6031.6
695.418	5676.06
698.793	4466.01
702.168	3235.59
705.543	2335.14
708.917	1605.12
712.292	1225.09
715.667	890.453
719.042	655.655
722.417	477.6
725.792	374.921
729.166	314.448
732.541	187.412
735.916	178.212
739.291	3.59717
742.666	26.3169
746.04	0.973633
749.415	65.0327
752.79	7.10498
756.165	12.7847
759.54	7.7041
762.915	20.6787
766.289	107.591
769.664	159.758
773.039	281.663
776.414	535.383
779.789	726.245
783.163	997.874
786.538	1313.48
789.913	1368.08
793.288	1558.71
796.663	1475.13
800.038	1341.65
803.412	1177.85
806.787	1077.62
810.162	787.084
813.537	497.041
816.912	268.962
820.286	6.63574
823.661	236.212
827.036	302.343
830.411	173.253
833.786	53.8125
837.16	542.339
840.535	1162.05
843.91	1899.17
847.285	2457.44
850.66	2749.86
854.035	2565.93
857.409	2259.34
860.784	2073.59
864.159	2022.67
867.534	2607.33
870.909	4419.39
874.284	8000.65
877.658	13911.3
881.033	21302.4
884.408	28056.7
887.783	32179.2
891.158	31953.1
894.533	28612.1
897.907	24478.3
901.282	20967.8
904.657	18375.2
908.032	16181.8
911.407	14169.7
914.781	12098.6
918.156	10186.2
921.531	8613.61
924.906	7550.34
928.281	6831.33
931.655	6653.52
935.03	6822.23
938.405	7239.23
941.78	7797.33
945.155	8253.22
948.529	7606.15
951.904	5791.25
955.279	3553.58
958.654	1998.28
962.029	917.501
965.404	388.227
968.778	0.959961
972.153	102.787
975.528	174.278
978.903	199.726
982.278	173.671
985.653	136.654
989.027	70.3203
992.402	184.976
995.777	331.727
999.152	430.962
1002.53	549.367
1005.9	673.298
1009.28	836.085
1012.65	978.269
1016.03	1180.57
1019.4	1279.93
1022.78	1496.64
1026.15	1591.14
1029.53	1746.1
1032.9	1847.44
1036.28	2036.44
1039.65	2198.84
1043.02	2447.05
1046.4	2745.69
1049.77	3281.55
1053.15	3784.35
1056.52	4541.55
1059.9	5092.02
1063.27	5178.61
1066.65	4970.65
1070.02	4223.03
1073.4	3182.71
1076.77	2236.77
1080.15	1519.75
1083.52	939.546
1086.9	656.835
1090.27	330.856
1093.65	209.581
1097.02	141.426
1100.4	37.3223
1103.77	46.4009
1107.15	25.9331
1110.52	13.8037
1113.9	26.5088
1117.27	35.208
1120.64	31.7354
1124.02	4.26172
1127.39	8.32324
1130.77	4.08789
1134.14	61.8852
1137.52	59.9072
1140.89	3.60107
1144.27	39.2661
1147.64	59.8648
1151.02	27.648
1154.39	62.2705
1157.77	99.0796
1161.14	81.5327
1164.52	42.2148
1167.89	88.3818
1171.27	19.6714
1174.64	83.4394
1178.02	25.1377
1181.39	75.6157
1184.77	51.6548
1188.14	31.1138
1191.52	85.2031
1194.89	29.0576
1198.27	11.249
1201.64	81.1182
1205.02	46.98
1208.39	111.785
1211.77	25.062
1215.14	29.0395
1218.52	102.548
1221.89	57.4917
1225.27	39.4673
1228.64	24.2432
1232.01	36.0249
1235.39	44.2383
1238.76	40.2895
1242.14	47.0523
1245.51	69.728
1248.89	35.3818
1252.26	35.4023
1255.64	70.7798
1259.01	13.5176
1262.39	66.2505
1265.76	113.08
1269.14	39.3618
1272.51	83.5454
1275.89	164.171
1279.26	1.52978
1282.64	123.918
1286.01	18.5239
1289.39	101.334
1292.76	52.2773
1296.14	53.5234
1299.51	70.7881
1302.88	86.2402
1306.26	65.8545
1309.63	75.874
1313.01	69.9356
