Measurement: Raman, 785 nm, unoriented, Raman Data Processed
Mineral: Lamprophyllite
Rruff sample: R070284
Ideal chemistry: Na_3_(SrNa)Ti_3_(Si_2_O_7_)_2_O_2_(OH)_2_
Locality: Lovozero Massif,  Kola Peninsula,  Murmanskaja Oblast',  Northern Region,  Russia
Source: Michael Scott
Description: Stellate groups of transparent brown bladed crystals
Measured chemistry: (Na_2.35_Mn_0.36_Mg_0.17_Ca_0.12_)(Sr_1.08_Na_0.35_K_0.09_Ba_0.01_)(Ti_2.80_Fe_0.26_Al_0.02_)Si_3.87_O_16_[(OH)_1.14_F_0.86_]
Raman shift (cm-1)	intensity
151.875	0
154.768	126.489
157.66	643.835
160.553	1499.31
163.446	2956.47
166.338	5044.96
169.231	7342.03
172.124	7479.89
175.017	4953.01
177.909	2544.22
180.802	1226.1
183.695	413.098
186.587	40.6299
189.48	72.8232
192.373	114.274
195.265	8.53857
198.158	239.44
201.051	651.535
203.944	1077.91
206.836	1738.49
209.729	2508.99
212.622	3363.78
215.514	3963.94
218.407	3897.1
221.3	3472.18
224.192	2761.64
227.085	1999.82
229.978	1367.1
232.87	1026.89
235.763	944.573
238.656	1185.71
241.549	1437.21
244.441	1685.06
247.334	1967.66
250.227	2007.2
253.119	1828.45
256.012	1407.99
258.905	995.342
261.798	671.235
264.69	490.764
267.583	396.349
270.476	491.261
273.368	591.663
276.261	651.65
279.154	472.502
282.046	330.682
284.939	159.938
287.832	21.3545
290.724	239.384
293.617	230.937
296.51	170.614
299.403	2.16992
302.295	454.057
305.188	948.475
308.081	1533.11
310.973	2325.63
313.866	2925.5
316.759	3551.09
319.651	4048.67
322.544	4491.48
325.437	4540.94
328.33	4523.23
331.222	4799.12
334.115	5114.13
337.008	5635.79
339.9	6040.17
342.793	6226.11
345.686	6185.26
348.579	5956.05
351.471	5678.66
354.364	5246.91
357.257	5163.08
360.149	5427.28
363.042	5861.88
365.935	6447.71
368.827	7346.34
371.72	7983.29
374.613	8193.35
377.505	7485.27
380.398	5650.26
383.291	3904.53
386.184	2667.89
389.076	2200.97
391.969	2173.7
394.862	2047.24
397.754	1582.36
400.647	1071.98
403.54	837.743
406.433	710.496
409.325	865.874
412.218	942.155
415.111	1111.58
418.003	1227.39
420.896	1204.55
423.789	1201.02
426.681	987.094
429.574	686.477
432.467	460.592
435.36	102.858
438.252	115.504
441.145	264.913
444.038	236.536
446.93	117.701
449.823	91.2578
452.716	322.831
455.608	597.591
458.501	783.285
461.394	870.894
464.286	956.583
467.179	875.987
470.072	908.867
472.965	937.899
475.857	1014.83
478.75	1002.11
481.643	905.872
484.535	772.644
487.428	741.175
490.321	781.878
493.214	866.285
496.106	869.631
498.999	754.574
501.892	530.375
504.784	266.128
507.677	92.0281
510.57	34.0855
513.462	42.8049
516.355	47.3835
519.248	30.7102
522.14	125.854
525.033	179.452
527.926	275.06
530.819	331.168
533.711	441.093
536.604	499.36
539.497	543.093
542.389	606.109
545.282	532.971
548.175	470.023
551.067	395.31
553.96	391.346
556.853	462.065
559.745	604.633
562.638	790.374
565.531	1167.32
568.424	1605.27
571.316	2247.44
574.209	3115.81
577.102	4548.2
579.994	6207.59
582.887	7849.19
585.78	8491.26
588.673	7626.6
591.565	6293.52
594.458	5211.52
597.351	4373.28
600.243	3602.92
603.136	3031.79
606.029	2459
608.921	1892.2
611.814	1300.4
614.707	807.776
617.6	474.676
620.492	260.095
623.385	138.939
626.278	48.9675
629.17	2.06348
632.063	52.8276
634.956	58.6924
637.848	26.4919
640.741	21.7402
643.634	45.1819
646.527	7.05566
649.419	81.8635
652.312	126.033
655.205	241.914
658.097	365.278
660.99	547.634
663.883	733.831
666.775	1082.36
669.668	1467.29
672.561	1980.17
675.454	2594.53
678.346	3347.97
681.239	4341.16
684.132	5591.42
687.024	6857.5
689.917	7997.72
692.81	8420.81
695.702	7932.81
698.595	6594.11
701.488	4937.05
704.381	3547.73
707.273	2539.71
710.166	1884.1
713.059	1347.46
715.951	977.174
718.844	703.526
721.737	553.523
724.63	425.322
727.522	323.534
730.415	228.398
733.308	168.435
736.2	124.6
739.093	57.1975
741.986	9.2229
744.878	3.40649
747.771	7.58032
750.664	33.2356
753.557	15.3594
756.449	2.50366
759.342	7.13135
762.235	10.471
765.127	2.29126
768.02	114.542
770.913	191.228
773.805	290.588
776.698	460.032
779.591	670.232
782.484	900.866
785.376	1124.07
788.269	1334.63
791.162	1406.48
794.054	1531.66
796.947	1519.53
799.84	1360.3
802.732	1292.88
805.625	1169.97
808.518	1004.94
811.41	789.103
814.303	620.816
817.196	317.223
820.089	69.6001
822.981	57.6714
825.874	227.879
828.767	211.94
831.659	174.17
834.552	3.18115
837.445	389.619
840.337	955.832
843.23	1561.46
846.123	2056.62
849.016	2381.99
851.908	2508.17
854.801	2396.11
857.694	2074.15
860.586	1858.27
863.479	1766.11
866.372	1744.47
869.264	2439.59
872.157	4161.47
875.05	7366.87
877.943	11899.8
880.835	17614.8
883.728	23678.8
886.621	28005.1
889.513	29531.9
892.406	28198.2
895.299	24515.3
898.192	20835.2
901.084	17709.1
903.977	15339.7
906.87	13530.4
909.762	11787
912.655	10369.6
915.548	8815.6
918.44	7572.13
921.333	6394.18
924.226	5716.78
927.119	5206.43
930.011	5132.03
932.904	5248.99
935.797	5618.25
938.689	6337.82
941.582	7166.59
944.475	7842.37
947.367	8049
950.26	6956.3
953.153	5228.45
956.045	3305.01
958.938	1910.82
961.831	1008.21
964.724	457.731
967.616	233.204
970.509	77.6982
973.402	4.45093
976.294	83.6289
979.187	213.948
982.08	205.457
984.972	200.933
987.865	193.068
990.758	53.6619
993.651	2.19458
996.543	40.7139
999.436	137.489
1002.33	195.635
1005.22	281.075
1008.11	313.61
1011.01	406.984
1013.9	466.993
1016.79	577.285
1019.68	616.502
1022.58	727.838
1025.47	742.159
1028.36	893.883
1031.26	964.379
1034.15	1067.32
1037.04	1165.17
1039.93	1240.87
1042.83	1351.21
1045.72	1430.38
1048.61	1678.77
1051.51	2059.86
1054.4	2438.76
1057.29	2867.29
1060.18	3331.6
1063.08	3497.69
1065.97	3510.07
1068.86	3169.71
1071.75	2608.74
1074.65	1976.44
1077.54	1399.63
1080.43	956.612
1083.32	652.781
1086.22	520.096
1089.11	344.035
1092	361.903
1094.89	362.125
1097.79	380.651
1100.68	414.265
1103.57	466.972
1106.47	469.162
1109.36	467.299
1112.25	540.38
1115.14	614.307
1118.04	635.864
1120.93	681.5
1123.82	779.984
1126.71	842.142
1129.61	935.476
1132.5	1040.57
1135.39	1174.25
1138.29	1208.27
1141.18	1307.43
1144.07	1324.86
1146.96	1310.71
1149.86	1330.25
1152.75	1289.19
1155.64	1172.67
1158.53	1112.85
1161.43	983.672
1164.32	892.96
1167.21	732.368
1170.11	635.801
1173	483.64
1175.89	326.997
1178.78	138.234
1181.68	31.0293
1184.57	81.2148
1187.46	124.712
1190.35	121.831
1193.25	82.2432
1196.14	0.532715
1199.03	98.5898
1201.92	160.08
1204.82	302.415
1207.71	383.544
1210.6	548.94
1213.5	703.113
1216.39	681.867
1219.28	576.198
1222.17	619.157
1225.07	581.1
1227.96	539.982
1230.85	537.888
1233.74	401.18
1236.64	311.729
1239.53	116.438
1242.42	16.4131
