Measurement: Raman, 780 nm, unoriented, Raman Data Processed
Mineral: Lanarkite
Rruff sample: R080116
Ideal chemistry: Pb_2_O(SO_4_)
Locality: Leadhills, Lanarkshire,  Scotland
Source: William W. Pinch
Description: Cream colored, elongated prismatic crystals
Raman shift (cm-1)	intensity
130.129	0
133.021	24.7462
135.914	139.462
138.807	421.004
141.699	845.004
144.592	1613.05
147.485	3519.1
150.377	4231.48
153.27	1182.14
156.163	290.123
159.055	100.018
161.948	35.8538
164.841	8.13176
167.734	1.61729
170.626	4.24605
173.519	6.25305
176.412	5.92309
179.304	8.03755
182.197	7.8299
185.09	8.36443
187.982	7.11549
190.875	10.0502
193.768	25.8996
196.661	41.4416
199.553	55.1614
202.446	70.0492
205.339	78.176
208.231	88.0588
211.124	95.3019
214.017	99.7559
216.91	105.901
219.802	104.655
222.695	102.784
225.588	96.3003
228.48	88.8032
231.373	79.5979
234.266	69.8276
237.158	60.1568
240.051	51.7438
242.944	43.8204
245.837	39.1047
248.729	37.3712
251.622	38.1067
254.515	39.8785
257.407	46.5595
260.3	56.4367
263.193	74.234
266.085	96.7234
268.978	124.154
271.871	154.463
274.764	186.58
277.656	228.622
280.549	280.141
283.442	324.15
286.334	320.977
289.227	255.034
292.12	167.824
295.012	100.025
297.905	60.8564
300.798	37.3115
303.69	25.4245
306.583	21.6148
309.476	24.6233
312.369	34.2444
315.261	50.2319
318.154	72.1178
321.047	98.5468
323.939	130.391
326.832	166.941
329.725	209.53
332.618	243.916
335.51	247.74
338.403	213.443
341.296	154.35
344.188	100.344
347.081	62.8832
349.974	38.5149
352.866	23.3076
355.759	12.3217
358.652	4.18897
361.545	1.77992
364.437	0.869972
367.33	3.16602
370.223	5.16753
373.115	4.91016
376.008	4.32579
378.901	3.05442
381.793	2.08162
384.686	1.1653
387.579	1.19435
390.471	1.75312
393.364	5.30284
396.257	5.92696
399.15	8.47205
402.042	9.69023
404.935	11.9884
407.828	18.0154
410.72	37.9495
413.613	52.3588
416.506	57.9163
419.399	80.3002
422.291	116.289
425.184	208.14
428.077	305.649
430.969	183.316
433.862	98.6156
436.755	124.003
439.647	246.8
442.54	305.197
445.433	77.7825
448.325	21.8923
451.218	9.13853
454.111	4.35106
457.004	3.14109
459.896	2.29371
462.789	1.4266
465.682	2.19576
468.574	3.65868
471.467	5.39502
474.36	7.22008
477.252	9.60569
480.145	12.5141
483.038	14.8255
485.931	15.0383
488.823	13.6921
491.716	11.1217
494.609	7.68015
497.501	5.23801
500.394	4.65311
503.287	3.30254
506.18	2.51409
509.072	2.54749
511.965	1.73544
514.858	1.40267
517.75	0.966898
520.643	0.555737
523.536	0.38921
526.428	0.420921
529.321	0.039394
532.214	0.036779
535.106	0.386524
537.999	0.633076
540.892	0.416195
543.785	1.05656
546.677	0.424728
549.57	0.237062
552.463	0.487581
555.355	0.047581
558.248	1.17449
561.141	0.719885
564.034	0.110298
566.926	0.008627
569.819	0.394016
572.712	0.818897
575.604	1.29645
578.497	2.46137
581.39	4.76291
584.282	10.1076
587.175	19.3758
590.068	28.8469
592.96	39.8532
595.853	65.7642
598.746	109.941
601.639	145.666
604.531	139.171
607.424	36.0606
610.317	19.4453
613.209	22.4843
616.102	35.2999
618.995	61.8491
621.888	51.9528
624.78	10.3938
627.673	1.93498
630.566	0.742472
633.458	0.260632
636.351	0.324726
639.244	0.338718
642.136	0.002289
645.029	0.187468
647.922	0.27401
650.814	0.655293
653.707	0.577856
656.6	0.629499
659.493	0.948109
662.385	0.517374
665.278	0.834587
668.171	1.24098
671.063	0.958624
673.956	0.872786
676.849	0.969894
679.741	0.80839
682.634	1.52745
685.527	1.67654
688.42	1.31149
691.312	1.33152
694.205	1.61535
697.098	1.33245
699.99	1.48596
702.883	1.67235
705.776	1.64269
708.668	1.82778
711.561	1.50547
714.454	0.954863
717.347	0.753939
720.239	1.3452
723.132	0.960712
726.025	0.873346
728.917	0.61351
731.81	0.531269
734.703	0.243938
737.596	0.145123
740.488	0.204288
743.381	0.507113
746.274	0.251863
749.166	0.688177
752.059	0.04063
754.952	0.250896
757.844	0.007441
760.737	0.239017
763.63	0.083681
766.523	0.478933
769.415	0.16592
772.308	0.356039
775.201	0.456657
778.093	0.0707
780.986	0.367073
783.879	0.483976
786.771	0.095039
789.664	0.199968
792.557	0.186447
795.449	0.345257
798.342	0.008766
801.235	0.583639
804.128	0.464924
807.02	1.03825
809.913	0.932384
812.806	0.380768
815.698	0.691246
818.591	0.97271
821.484	0.898172
824.376	0.527113
827.269	0.732792
830.162	0.23288
833.055	1.14885
835.947	0.917944
838.84	0.147518
841.733	1.1034
844.625	1.63305
847.518	2.5466
850.411	2.67459
853.303	3.05294
856.196	4.06545
859.089	5.37315
861.982	5.52828
864.874	6.1286
867.767	4.95693
870.66	5.43618
873.552	4.36808
876.445	4.73987
879.338	3.5511
882.231	2.96101
885.123	2.96162
888.016	2.27742
890.909	2.67397
893.801	2.14826
896.694	2.57848
899.587	1.9453
902.479	1.10744
905.372	0.893667
908.265	0.042622
911.158	0.387632
914.05	0.295443
916.943	1.22545
919.836	0.830257
922.728	1.00016
925.621	0.46542
928.514	0.261908
931.406	0.566006
934.299	0.819672
937.192	1.57577
940.084	2.9502
942.977	3.94108
945.87	6.97747
948.763	10.0358
951.655	14.9973
954.548	26.2233
957.441	42.3547
960.333	71.8862
963.226	136.866
966.119	255.367
969.011	389.146
971.904	632.872
974.797	1122.2
977.689	1750.84
980.582	999.901
983.475	351.595
986.368	159.353
989.26	87.2628
992.153	52.0958
995.046	32.397
997.938	20.8531
1000.83	13.0568
1003.72	7.43126
1006.62	4.33745
1009.51	3.06939
1012.4	2.30874
1015.29	1.17387
1018.19	1.23764
1021.08	1.04947
1023.97	1.62437
1026.87	4.53742
1029.76	6.80107
1032.65	11.6032
1035.54	17.5661
1038.44	28.6449
1041.33	43.7886
1044.22	62.0037
1047.11	87.5007
1050.01	117.848
1052.9	159.816
1055.79	199.708
1058.68	190.874
1061.58	153.709
1064.47	139.15
1067.36	158.526
1070.26	187.873
1073.15	191.832
1076.04	134.013
1078.93	73.0607
1081.83	40.857
1084.72	23.9542
1087.61	15.0488
1090.51	9.7959
1093.4	5.43951
1096.29	4.46598
1099.18	2.14193
1102.08	0.818571
1104.97	0.210106
1107.86	0.162767
1110.75	0.168417
1113.65	0.596933
1116.54	0.510035
1119.43	0.284365
1122.32	0.019712
1125.22	0.066559
1128.11	0.56477
1131	0.664721
1133.89	0.669437
1136.79	1.16262
1139.68	0.545242
1142.57	1.38414
1145.47	1.29173
1148.36	2.37371
1151.25	2.82831
1154.14	2.67932
1157.04	2.28891
1159.93	2.40545
1162.82	2.74542
1165.71	2.7246
1168.61	2.94902
1171.5	2.43597
1174.39	1.75687
1177.29	2.37907
1180.18	2.39836
1183.07	2.42197
1185.96	1.96862
1188.86	3.30912
1191.75	3.80397
1194.64	6.04107
1197.54	5.62241
1200.43	4.63331
1203.32	4.29778
1206.21	3.35057
1209.11	3.62264
1212	3.3483
1214.89	3.14176
1217.78	3.30415
1220.68	2.75695
1223.57	2.10679
1226.46	1.28811
1229.35	1.304
1232.25	2.10326
1235.14	2.60306
1238.03	2.44857
1240.92	0.948992
1243.82	0.006294
1246.71	0.288174
1249.6	0.050337
1252.5	0.160934
1255.39	0.233021
1258.28	0.513952
1261.17	0.742748
1264.07	0.671213
1266.96	0.733557
1269.85	1.05566
1272.74	0.528219
1275.64	0.783983
1278.53	0.446815
1281.42	0.015736
1284.32	0.112879
