Measurement: Raman, 532 nm, unoriented, Raman Data Processed
Mineral: Lanarkite
Rruff sample: R080116
Ideal chemistry: Pb_2_O(SO_4_)
Locality: Leadhills, Lanarkshire,  Scotland
Source: William W. Pinch
Description: Cream colored, elongated prismatic crystals
Raman shift (cm-1)	intensity
130.441	0
133.816	2636.9
137.19	6927.02
140.565	14711
143.94	27322.2
147.315	55864.8
150.69	47407
154.065	7706.22
157.439	1524.45
160.814	211.648
164.189	196.994
167.564	283.152
170.939	205.244
174.313	151.895
177.688	115.247
181.063	113.959
184.438	109.282
187.813	107.579
191.187	382.851
194.562	904.515
197.937	1374.09
201.312	1786.9
204.687	2136.28
208.061	2398.02
211.436	2598.13
214.811	2743.57
218.186	2751.2
221.561	2598.72
224.936	2335.3
228.31	2060.28
231.685	1813.35
235.06	1559.84
238.435	1350.15
241.81	1169.35
245.185	1048.21
248.559	1003.41
251.934	1015.98
255.309	1088.83
258.684	1253.27
262.059	1557.74
265.433	2088.02
268.808	2816.81
272.183	3563.59
275.558	4378.63
278.933	5341.39
282.308	6305.11
285.682	6329.22
289.057	4715.36
292.432	2800.38
295.807	1547.96
299.182	850.647
302.556	512.386
305.931	375.385
309.306	400.413
312.681	611.326
316.056	1007.86
319.43	1553.32
322.805	2146.55
326.18	2813.81
329.555	3487.72
332.93	3942.33
336.305	3754.03
339.679	2787.81
343.054	1696.34
346.429	998.389
349.804	571.597
353.179	296.444
356.553	127.364
359.928	12.3739
363.303	54.4437
366.678	89.7035
370.053	94.5741
373.428	101.016
376.802	76.0125
380.177	41.0017
383.552	6.80847
386.927	58.0426
390.302	113.518
393.676	152.91
397.051	185.624
400.426	233.841
403.801	265.168
407.176	312.202
410.55	723.331
413.925	1206.96
417.3	1452.11
420.675	1964.39
424.05	3587.38
427.425	5766.16
430.799	3125.34
434.174	2394.12
437.549	3951.39
440.924	6246.05
444.299	1783.58
447.673	364.093
451.048	135.836
454.423	51.7816
457.798	23.6168
461.173	16.6595
464.548	33.6767
467.922	69.4948
471.297	137.819
474.672	205.016
478.047	293.16
481.422	385.194
484.796	412.7
488.171	344.948
491.546	256.708
494.921	178.952
498.296	121.13
501.671	87.2532
505.045	62.2465
508.42	52.5326
511.795	39.0393
515.17	25.0624
518.545	9.71332
521.919	10.3106
525.294	10.9711
528.669	8.19238
532.044	8.32812
535.419	13.5006
538.794	7.61523
542.168	10.4093
545.543	6.27075
548.918	7.39923
552.293	1.05365
555.668	1.89374
559.043	1.20148
562.417	4.63843
565.792	1.13226
569.167	1.57574
572.542	17.1511
575.917	25.4686
579.291	58.8238
582.666	132.909
586.041	336.634
589.416	723.139
592.791	987.829
596.165	1524.81
599.54	2438.82
602.915	2952.63
606.29	809.783
609.665	342.546
613.04	388.588
616.414	564.237
619.789	794.208
623.164	208.412
626.539	24.8591
629.914	3.03522
633.288	5.52081
636.663	6.38208
640.038	3.94391
643.413	4.52154
646.788	5.97436
650.163	2.26502
653.537	6.48877
656.912	13.704
660.287	16.1193
663.662	12.4061
667.037	19.5531
670.411	23.2243
673.786	23.8246
677.161	27.9327
680.536	31.5921
683.911	37.8923
687.285	33.196
690.66	32.8278
694.035	31.3526
697.41	28.5228
700.785	33.6268
704.16	31.5202
707.534	24.9829
710.909	29.5615
714.284	27.1493
717.659	21.2658
721.034	15.5024
724.409	20.7
727.783	16.319
731.158	13.5716
734.533	14.347
737.908	18.3133
741.283	14.4973
744.657	12.9299
748.032	16.5624
751.407	6.0871
754.782	6.37097
758.157	5.58569
761.532	2.35748
764.906	9.92108
768.281	0.001282
771.656	3.50714
775.031	4.06519
778.406	7.0589
781.78	6.52704
785.155	2.27417
788.53	4.75848
791.905	10.2051
795.28	1.34448
798.654	0.573608
802.029	3.11408
805.404	6.37628
808.779	9.31659
812.154	5.62042
815.529	3.34558
818.903	3.43756
822.278	7.08197
825.653	5.25275
829.028	3.45911
832.403	2.01459
835.778	6.53552
839.152	21.7565
842.527	26.1501
845.902	34.6821
849.277	48.7212
852.652	74.95
856.026	100.135
859.401	98.8958
862.776	90.4833
866.151	91.0427
869.526	82.2529
872.9	71.3439
876.275	53.0715
879.65	48.7742
883.025	40.9602
886.4	28.8751
889.774	25.6314
893.149	25.7891
896.524	19.1824
899.899	17.6119
903.274	12.2976
906.649	2.05872
910.023	7.08496
913.398	13.3408
916.773	12.5815
920.148	6.99158
923.523	1.98688
926.898	11.3285
930.272	25.622
933.647	45.5568
937.022	65.5707
940.397	93.8737
943.772	141.537
947.146	223.698
950.521	343.747
953.896	584.58
957.271	1021.11
960.646	1921.4
964.02	4675.07
967.395	9265.47
970.77	14434.2
974.145	24435.5
977.52	32419.7
980.895	13137.5
984.269	4314.6
987.644	2000.53
991.019	1087.3
994.394	622.508
997.769	371.681
1001.14	213.883
1004.52	117.787
1007.89	55.4601
1011.27	28.3051
1014.64	14.4595
1018.02	3.97681
1021.39	1.29248
1024.77	30.0649
1028.14	77.3065
1031.52	168.543
1034.89	306.674
1038.27	526.814
1041.64	878.936
1045.02	1389.27
1048.39	1957.2
1051.77	2630.6
1055.14	3245.09
1058.52	3099.75
1061.89	2719.67
1065.27	2890.41
1068.64	3375.33
1072.02	3532.12
1075.39	2372.46
1078.76	1175.39
1082.14	586.908
1085.51	319.319
1088.89	181.045
1092.26	104.924
1095.64	62.5988
1099.01	25.626
1102.39	9.56751
1105.76	9.3678
1109.14	8.90668
1112.51	9.26868
1115.89	10.0133
1119.26	1.14819
1122.64	8.79767
1126.01	14.4387
1129.39	23.1169
1132.76	28.5465
1136.14	42.6238
1139.51	42.3554
1142.89	43.493
1146.26	51.6484
1149.63	58.311
1153.01	60.8188
1156.38	65.5276
1159.76	65.4327
1163.13	64.9802
1166.51	66.2504
1169.88	58.3217
1173.26	52.9679
1176.63	46.8671
1180.01	53.9538
1183.38	60.6577
1186.76	73.7704
1190.13	112.652
1193.51	143.188
1196.88	152.188
1200.26	131.852
1203.63	114.365
1207.01	121.992
1210.38	108.441
1213.76	102.698
1217.13	98.7065
1220.51	80.8248
1223.88	62.2747
1227.26	51.7109
1230.63	51.0854
1234.01	65.9745
1237.38	54.3595
1240.76	18.7155
1244.13	0.179382
1247.51	2.05328
1250.88	7.74487
1254.26	0.855774
1257.63	0.81366
1261	6.24225
1264.38	13.7681
1267.75	13.2321
1271.13	19.0611
1274.5	19.9851
1277.88	33.4821
1281.25	17.8114
1284.63	13.2362
1288	9.93561
1291.38	8.42578
1294.75	7.55817
1298.13	1.41931
1301.5	5.34271
