Measurement: Raman, 780 nm, unoriented, Raman Data Processed
Mineral: Landesite
Rruff sample: R130692
Ideal chemistry: Mn^2+^_9_Fe^3+^_3_(PO_4_)_8_(OH)_3_9H_2_O
Locality: Hagendorf South Pegmatite, Hagendorf, Waidhaus, Vohenstrauß, Oberpfälzer Wald, Upper Palatinate, Bavaria, Germany
Source: Rob Lavinsky
Description: Brown crystals, associated with colorless or pale-grey vivianite and dark-green rockbridgeite
Raman shift (cm-1)	intensity
90.2353	0
93.6102	2.25652
96.985	1.55008
100.36	3.95772
103.735	0.045563
107.109	8.56685
110.484	10.6809
113.859	16.2324
117.234	18.0723
120.609	7.71046
123.984	8.25719
127.358	14.8744
130.733	30.9801
134.108	36.0151
137.483	16.9411
140.858	5.09291
144.232	8.93001
147.607	15.3925
150.982	19.8584
154.357	27.2344
157.732	38.0807
161.107	55.8952
164.481	64.0808
167.856	53.7236
171.231	42.8316
174.606	41.1107
177.981	41.8408
181.355	39.9167
184.73	29.8274
188.105	13.7688
191.48	2.71937
194.855	1.22809
198.229	2.2555
201.604	2.33995
204.979	0.716278
208.354	5.1489
211.729	12.6452
215.103	22.7999
218.478	34.0625
221.853	49.1989
225.228	63.6013
228.603	73.9968
231.978	79.1743
235.352	77.5615
238.727	71.3166
242.102	65.1665
245.477	56.2
248.852	50.534
252.226	47.1608
255.601	47.9657
258.976	49.2934
262.351	50.1886
265.726	48.061
269.101	40.4913
272.475	31.8232
275.85	25.7765
279.225	23.6267
282.6	22.1367
285.975	21.4465
289.349	21.4131
292.724	21.5487
296.099	21.1165
299.474	20.7569
302.849	20.0621
306.224	18.4928
309.598	16.3784
312.973	13.7101
316.348	10.2317
319.723	6.61039
323.098	6.54152
326.472	4.257
329.847	2.76438
333.222	1.02004
336.597	0.740597
339.972	1.76562
343.346	1.81416
346.721	0.802994
350.096	0.106976
353.471	1.80323
356.846	4.28026
360.221	6.75647
363.595	9.71159
366.97	12.4204
370.345	14.4604
373.72	14.1724
377.095	13.316
380.469	11.3457
383.844	11.6397
387.219	11.9803
390.594	12.7881
393.969	14.6055
397.344	16.6413
400.718	17.0647
404.093	19.6598
407.468	25.6553
410.843	29.7529
414.217	31.2354
417.592	28.7615
420.967	23.5009
424.342	15.2748
427.717	8.16689
431.092	6.07717
434.466	5.15647
437.841	7.46338
441.216	12.5738
444.591	19.0337
447.966	28.1331
451.341	34.7846
454.715	38.2344
458.09	37.8056
461.465	33.9299
464.84	25.6431
468.215	19.3632
471.589	15.4948
474.964	11.6677
478.339	10.1624
481.714	7.35757
485.089	4.53568
488.463	1.90142
491.838	0.954967
495.213	0.265537
498.588	1.0909
501.963	0.696835
505.337	0.558262
508.712	0.082748
512.087	0.539742
515.462	1.55676
518.837	3.44379
522.212	6.10935
525.586	8.64462
528.961	11.7788
532.336	14.7802
535.711	19.3323
539.086	24.8047
542.46	31.6604
545.835	41.1836
549.21	49.5896
552.585	57.5876
555.96	66.159
559.335	74.7037
562.709	83.0009
566.084	81.5471
569.459	76.032
572.834	69.8023
576.209	65.829
579.583	66.6508
582.958	72.5026
586.333	79.5534
589.708	74.4786
593.083	56.5811
596.457	40.3641
599.832	28.2387
603.207	19.5409
606.582	14.6937
609.957	10.7526
613.332	7.53102
616.706	4.79868
620.081	2.99058
623.456	1.37867
626.831	0.331726
630.206	0.386082
633.58	0.403698
636.955	0.270716
640.33	0.016329
643.705	0.261461
647.08	0.164776
650.455	0.76577
653.829	1.45011
657.204	1.50682
660.579	1.49691
663.954	1.65947
667.329	1.6559
670.703	1.65993
674.078	2.07217
677.453	1.47828
680.828	1.53932
684.203	1.22814
687.577	0.721579
690.952	0.399668
694.327	0.741989
697.702	0.198496
701.077	0.029175
704.452	0.158167
707.826	0.289137
711.201	0.164789
714.576	0.263395
717.951	1.3562
721.326	1.39018
724.7	1.72566
728.075	1.51652
731.45	2.31154
734.825	3.85009
738.2	4.24226
741.574	5.26877
744.949	6.38178
748.324	7.17262
751.699	7.16688
755.074	7.05872
758.449	7.03071
761.823	6.59905
765.198	6.07554
768.573	4.97162
771.948	4.12698
775.323	2.17705
778.697	2.23554
782.072	2.0552
785.447	1.27795
788.822	1.15795
792.197	0.922533
795.572	0.72422
798.946	0.717054
802.321	0.433769
805.696	0.528172
809.071	0.7234
812.446	0.868019
815.82	0.743443
819.195	2.10158
822.57	1.58868
825.945	1.84523
829.32	2.01476
832.694	2.14292
836.069	2.01984
839.444	2.95619
842.819	2.75555
846.194	2.96789
849.569	3.04241
852.943	3.34869
856.318	2.83892
859.693	2.96902
863.068	2.02386
866.443	2.05538
869.817	2.04835
873.192	1.53867
876.567	1.08485
879.942	0.510887
883.317	0.360205
886.692	0.069242
890.066	0.172092
893.441	0.56032
896.816	0.515575
900.191	0.97958
903.566	0.301659
906.94	0.311367
910.315	0.382355
913.69	0.34893
917.065	1.85896
920.44	4.05872
923.814	6.91637
927.189	11.1617
930.564	16.2713
933.939	23.4275
937.314	33.4803
940.689	48.9973
944.063	70.0467
947.438	103.201
950.813	150.294
954.188	215.749
957.563	299.763
960.937	389.328
964.312	467.667
967.687	490.143
971.062	405.166
974.437	259.379
977.812	154.242
981.186	101.784
984.561	73.5443
987.936	60.4397
991.311	52.1501
994.686	48.0781
998.06	45.7216
1001.43	45.8584
1004.81	42.7812
1008.18	37.0581
1011.56	29.0598
1014.93	20.2492
1018.31	12.5539
1021.68	4.91769
1025.06	0.716393
1028.43	1.55161
1031.81	0.087002
1035.18	2.97169
1038.56	7.20181
1041.93	13.724
1045.31	20.1259
1048.68	17.3529
1052.06	10.7768
1055.43	9.17206
1058.81	12.5817
1062.18	15.3064
1065.56	12.0023
1068.93	4.47035
1072.31	0.061104
1075.68	1.09873
1079.06	0.399101
1082.43	1.96156
1085.81	5.53454
1089.18	8.24957
1092.56	8.17244
1095.93	6.3727
1099.31	5.82556
1102.68	5.63939
1106.05	3.84485
1109.43	2.0923
1112.8	0.553535
1116.18	0.353029
1119.55	0.518599
1122.93	0.070332
1126.3	0.314056
1129.68	0.022831
1133.05	0.263828
1136.43	0.162125
1139.8	0.413126
1143.18	0.559507
1146.55	1.56825
1149.93	1.92136
1153.3	1.41518
1156.68	2.03837
1160.05	2.77506
1163.43	3.49602
1166.8	3.47791
1170.18	4.00006
1173.55	4.34626
1176.93	4.47061
1180.3	4.66754
1183.67	4.07046
1187.05	3.48767
1190.42	3.43024
1193.8	3.79048
1197.17	3.35189
1200.55	3.50578
1203.92	3.13142
1207.3	2.84412
1210.67	2.63247
1214.05	2.24214
1217.42	2.34222
1220.8	2.14704
1224.17	1.6555
1227.55	1.80123
1230.92	1.1167
1234.3	0.934755
1237.67	0.681648
1241.05	0.982736
1244.42	0.865874
1247.8	0.312768
1251.17	0.487071
1254.55	0.520334
1257.92	0.433576
1261.3	0.478499
1264.67	0.541331
1268.05	0.152278
1271.42	0.260324
1274.8	0.467572
1278.17	0.005301
1281.55	0.502989
