Measurement: Raman, 532 nm, unoriented, Raman Data Processed
Mineral: Landesite
Rruff sample: R140111
Ideal chemistry: Mn^2+^_9_Fe^3+^_3_(PO_4_)_8_(OH)_3_9H_2_O
Locality: Hagendorf, Waidhaus, Vohenstrauß, Oberpfälzer Wald, Upper Palatinate, Bavaria, Germany
Source: Rock Currier
Description: Deep red vitreous, almost black, blocky crystals and massive. Golden-brown, bronze on cleavage surfaces
Raman shift (cm-1)	intensity
181.446	0
184.339	1.04824
187.231	5.95523
190.124	12.9406
193.017	12.9508
195.909	8.37806
198.802	8.92867
201.695	9.71881
204.588	14.2992
207.48	17.0669
210.373	17.3911
213.266	16.7188
216.158	18.651
219.051	22.9963
221.944	25.5986
224.836	28.9776
227.729	32.1531
230.622	32.1211
233.514	30.6015
236.407	28.9815
239.3	26.1696
242.193	23.977
245.085	21.7554
247.978	16.9995
250.871	13.1938
253.763	11.1952
256.656	12.356
259.549	11.8069
262.442	15.6376
265.334	16.2353
268.227	17.2429
271.12	15.875
274.012	12.5019
276.905	10.4004
279.798	9.76225
282.69	7.94649
285.583	9.31957
288.476	8.36787
291.368	6.52831
294.261	5.86276
297.154	7.1822
300.047	5.42056
302.939	3.90762
305.832	2.28722
308.725	2.46997
311.617	1.0788
314.51	1.56362
317.403	0.326645
320.296	0.747108
323.188	0.637703
326.081	1.35607
328.974	0.224602
331.866	0.261177
334.759	0.397697
337.652	0.299423
340.544	1.07164
343.437	0.129772
346.33	0.763058
349.223	1.64238
352.115	3.12283
355.008	4.20167
357.901	7.2589
360.793	8.91269
363.686	11.3201
366.579	13.7773
369.471	14.7321
372.364	17.5156
375.257	20.5894
378.149	20.9693
381.042	21.9906
383.935	23.8268
386.828	23.4593
389.72	23.3481
392.613	20.2191
395.506	17.9287
398.398	17.5856
401.291	16.2013
404.184	15.7129
407.077	17.8583
409.969	19.6827
412.862	21.7306
415.755	19.2739
418.647	15.9218
421.54	13.9574
424.433	8.99266
427.325	5.24069
430.218	1.30577
433.111	0.078674
436.003	0.842552
438.896	0.688599
441.789	1.31556
444.682	2.0183
447.574	6.80566
450.467	5.70406
453.36	8.23874
456.252	8.91549
459.145	7.4286
462.038	8.16014
464.93	7.2718
467.823	6.06842
470.716	6.223
473.609	5.63241
476.501	5.38368
479.394	5.53426
482.287	4.96272
485.179	2.57349
488.072	2.30137
490.965	1.20833
493.858	0.281071
496.75	0.067348
499.643	0.028076
502.536	0.057926
505.428	0.331795
508.321	0.582199
511.214	2.98883
514.106	2.89454
516.999	3.59703
519.892	6.22443
522.784	9.2216
525.677	10.9704
528.57	13.4352
531.463	16.4184
534.355	18.885
537.248	20.8554
540.141	24.6759
543.033	25.126
545.926	28.3756
548.819	28.7502
551.712	30.9283
554.604	30.3725
557.497	31.2344
560.39	33.7414
563.282	33.5768
566.175	31.7466
569.068	30.4772
571.96	29.8417
574.853	30.4324
577.746	31.954
580.639	37.2664
583.531	42.8653
586.424	48.7758
589.317	50.1229
592.209	47.0223
595.102	40.1466
597.995	32.6124
600.888	27.2078
603.78	22.5
606.673	20.8821
609.566	16.7172
612.458	14.0461
615.351	10.6705
618.244	7.69812
621.136	5.87002
624.029	4.65545
626.922	2.48063
629.814	0.969376
632.707	0.889477
635.6	0.421509
638.493	0.687252
641.385	0.458324
644.278	0.319008
647.171	0.204346
650.063	0.661045
652.956	0.56646
655.849	1.32923
658.741	0.612995
661.634	1.22555
664.527	0.586166
667.42	1.36568
670.312	1.61451
673.205	2.2455
676.098	2.63564
678.99	2.6288
681.883	3.09815
684.776	3.18844
687.668	3.23874
690.561	3.23758
693.454	2.52712
696.347	2.56645
699.239	1.82984
702.132	1.56922
705.025	0.855221
707.917	0.951946
710.81	0.242538
713.703	0.748695
716.596	0.138634
719.488	0.664902
722.381	0.986076
725.274	0.111771
728.166	0.020447
731.059	0.029789
733.952	0.670082
736.844	1.69028
739.737	2.50758
742.63	3.49497
745.523	5.25574
748.415	5.14503
751.308	6.80794
754.201	6.99603
757.093	7.45905
759.986	7.80154
762.879	7.28004
765.771	6.5492
768.664	4.87875
771.557	3.60367
774.449	3.75103
777.342	1.96419
780.235	2.6036
783.128	0.873241
786.02	0.122429
788.913	0.059917
791.806	0.643242
794.698	0.167053
797.591	0.099979
800.484	0.44569
803.376	0.747261
806.269	0.948627
809.162	0.114185
812.055	1.13272
814.947	1.48354
817.84	1.08281
820.733	1.91809
823.625	2.16626
826.518	1.92648
829.411	2.18435
832.303	2.65019
835.196	2.67192
838.089	3.45659
840.982	3.35453
843.874	3.73237
846.767	4.51831
849.66	3.54379
852.552	2.92939
855.445	4.08316
858.338	3.17831
861.231	3.01558
864.123	2.30565
867.016	1.90785
869.909	2.0939
872.801	1.97715
875.694	1.47805
878.587	1.17822
881.479	1.22294
884.372	0.952724
887.265	0.158871
890.158	0.516972
893.05	0.325237
895.943	0.622292
898.836	0.025967
901.728	0.208328
904.621	0.32782
907.514	0.30389
910.406	0.340496
913.299	0.311153
916.192	0.753334
919.085	1.12292
921.977	2.41674
924.87	3.16534
927.763	5.6627
930.655	8.36854
933.548	12.7687
936.441	18.4047
939.333	24.0555
942.226	33.8743
945.119	48.462
948.011	69.7781
950.904	99.7398
953.797	143.536
956.69	200.009
959.582	270.502
962.475	341.514
965.368	394.904
968.26	413.606
971.153	391.094
974.046	315.835
976.938	209.424
979.831	128.218
982.724	84.3215
985.617	60.3279
988.509	46.1255
991.402	35.1151
994.295	31.9105
997.187	26.5406
1000.08	25.527
1002.97	23.863
1005.87	23.1996
1008.76	21.2885
1011.65	16.5872
1014.54	12.3507
1017.44	6.56454
1020.33	2.36033
1023.22	0.000145
1026.11	0.432751
1029.01	1.17836
1031.9	0.860508
1034.79	1.40396
1037.68	3.35547
1040.58	6.72583
1043.47	10.6193
1046.36	14.8951
1049.26	15.3811
1052.15	11.3355
1055.04	8.95142
1057.93	7.87975
1060.83	7.61055
1063.72	5.96204
1066.61	3.7882
1069.51	0.827915
1072.4	0.744217
1075.29	0.086449
1078.18	0.159882
1081.08	2.04917
1083.97	3.59401
1086.86	5.32848
1089.75	6.74045
1092.65	8.32089
1095.54	9.74352
1098.43	9.78397
1101.33	10.8782
1104.22	9.9345
1107.11	10.3456
1110	9.17304
1112.89	7.73448
1115.79	6.78968
1118.68	6.57531
1121.57	4.93985
1124.47	4.04586
1127.36	3.11882
1130.25	2.61172
1133.14	0.371937
1136.04	0.764786
1138.93	0.175591
1141.82	0.006393
1144.71	0.103996
1147.61	0.225313
1150.5	0.638622
1153.39	1.16356
1156.29	0.487295
1159.18	0.536594
1162.07	0.594482
1164.96	1.64072
1167.86	1.44114
1170.75	1.35373
1173.64	1.47485
1176.54	2.48811
1179.43	3.19511
1182.32	3.17509
1185.21	2.82924
1188.11	3.32561
1191	3.70256
1193.89	4.0491
1196.78	3.70769
1199.68	4.26746
1202.57	4.5033
1205.46	3.59297
1208.35	3.32518
1211.25	2.61119
1214.14	2.7683
1217.03	2.55676
1219.92	2.04476
1222.82	2.69498
1225.71	2.42916
1228.6	1.76463
1231.5	1.85941
1234.39	1.42859
1237.28	1.17191
1240.17	2.03485
1243.07	1.12933
1245.96	1.99134
1248.85	1.01301
1251.74	0.91725
1254.64	0.616526
1257.53	1.21923
1260.42	1.465
1263.32	0.996302
1266.21	1.22578
1269.1	1.3648
1271.99	1.74853
1274.89	0.265228
1277.78	0.65633
1280.67	0.355692
1283.57	0.412085
1286.46	0.26243
1289.35	0.633766
1292.24	0.853573
1295.13	0.830793
1298.03	0.007256
1300.92	0.154898
