Measurement: Raman, 532 nm, unoriented, Raman Data Processed
Mineral: Landesite
Rruff sample: R130692
Ideal chemistry: Mn^2+^_9_Fe^3+^_3_(PO_4_)_8_(OH)_3_9H_2_O
Locality: Hagendorf South Pegmatite, Hagendorf, Waidhaus, Vohenstrauß, Oberpfälzer Wald, Upper Palatinate, Bavaria, Germany
Source: Rob Lavinsky
Description: Brown crystals, associated with colorless or pale-grey vivianite and dark-green rockbridgeite
Raman shift (cm-1)	intensity
187.231	0
190.124	5.75889
193.017	5.3549
195.909	2.02182
198.802	0.368896
201.695	3.31036
204.588	6.75593
207.48	10.1656
210.373	10.8028
213.266	10.1189
216.158	11.2742
219.051	16.7869
221.944	23.1759
224.836	26.8295
227.729	30.3795
230.622	31.4162
233.514	32.9851
236.407	31.9779
239.3	30.6101
242.193	30.4981
245.085	27.8097
247.978	26.1819
250.871	21.7177
253.763	22.3629
256.656	20.2284
259.549	21.6832
262.442	21.06
265.334	19.8788
268.227	18.6444
271.12	15.0023
274.012	10.8442
276.905	8.95794
279.798	7.33153
282.69	7.2282
285.583	5.06823
288.476	4.90632
291.368	4.12246
294.261	3.58223
297.154	1.2772
300.047	0.952507
302.939	1.6641
305.832	1.92947
308.725	0.768005
311.617	0.873131
314.51	0.665085
317.403	0.773842
320.296	0.018669
323.188	0.401627
326.081	0.718102
328.974	0.274956
331.866	0.087685
334.759	0.472
337.652	1.0654
340.544	3.25233
343.437	7.19673
346.33	10.9752
349.223	16.3426
352.115	21.5846
355.008	27.9622
357.901	33.4046
360.793	35.5461
363.686	38.6161
366.579	37.7036
369.471	38.1316
372.364	34.7695
375.257	29.7225
378.149	26.7986
381.042	22.1833
383.935	18.8955
386.828	15.7756
389.72	13.7297
392.613	12.8229
395.506	11.3047
398.398	12.3784
401.291	10.1102
404.184	10.4716
407.077	13.4886
409.969	14.8622
412.862	16.8728
415.755	17.1953
418.647	16.8739
421.54	13.395
424.433	8.94373
427.325	6.04588
430.218	1.9055
433.111	0.131439
436.003	0.111824
438.896	1.19512
441.789	0.797134
444.682	0.763252
447.574	4.11466
450.467	6.05019
453.36	7.45171
456.252	8.8542
459.145	10.3589
462.038	10.3553
464.93	9.29897
467.823	8.41876
470.716	8.1837
473.609	8.93351
476.501	8.91963
479.394	9.29594
482.287	9.24104
485.179	7.96861
488.072	7.17984
490.965	5.66174
493.858	3.34478
496.75	1.59881
499.643	0.259064
502.536	0.103287
505.428	0.040024
508.321	0.842239
511.214	0.149864
514.106	1.26229
516.999	2.89385
519.892	5.31255
522.784	7.39249
525.677	9.25611
528.57	12.1924
531.463	11.9319
534.355	13.8761
537.248	15.3188
540.141	16.203
543.033	16.0649
545.926	17.8052
548.819	19.6782
551.712	20.5032
554.604	22.1286
557.497	24.9743
560.39	29.0124
563.282	32.4583
566.175	32.3897
569.068	30.8538
571.96	29.1906
574.853	27.9597
577.746	26.1151
580.639	27.3679
583.531	29.4719
586.424	33.7751
589.317	33.1038
592.209	29.7741
595.102	25.6428
597.995	20.826
600.888	17.755
603.78	16.375
606.673	14.0067
609.566	11.1828
612.458	9.69947
615.351	7.56159
618.244	5.69019
621.136	3.87901
624.029	2.73067
626.922	0.450253
629.814	0.371307
632.707	0.664722
635.6	0.663883
638.493	0.029488
641.385	1.3
644.278	0.319908
647.171	0.007618
650.063	0.211838
652.956	1.77544
655.849	2.85394
658.741	2.51563
661.634	2.88123
664.527	2.52051
667.42	2.45034
670.312	2.75102
673.205	2.85224
676.098	1.47946
678.99	1.96573
681.883	2.49316
684.776	2.61919
687.668	0.521797
690.561	1.06005
693.454	0.612953
696.347	1.06607
699.239	0.022316
702.132	0.281124
705.025	0.23069
707.917	0.039024
710.81	0.431072
713.703	0.237114
716.596	0.058556
719.488	0.156834
722.381	0.194542
725.274	0.721779
728.166	1.66223
731.059	2.0214
733.952	2.11471
736.844	3.12225
739.737	3.48309
742.63	3.87336
745.523	4.01604
748.415	4.36164
751.308	5.79546
754.201	5.31838
757.093	4.95778
759.986	5.73175
762.879	5.52124
765.771	5.10904
768.664	4.37456
771.557	3.51589
774.449	3.26258
777.342	2.1096
780.235	1.48677
783.128	1.52472
786.02	1.26778
788.913	0.119919
791.806	1.29435
794.698	1.10138
797.591	0.523422
800.484	1.37091
803.376	1.0847
806.269	1.3447
809.162	1.52892
812.055	1.11372
814.947	1.874
817.84	2.29457
820.733	1.96219
823.625	2.50348
826.518	2.445
829.411	2.92727
832.303	2.75489
835.196	3.48869
838.089	3.19015
840.982	3.7014
843.874	3.84211
846.767	4.63587
849.66	4.78799
852.552	5.39185
855.445	5.60085
858.338	5.3241
861.231	4.19606
864.123	3.79318
867.016	4.74322
869.909	3.06554
872.801	3.36955
875.694	3.10833
878.587	1.68977
881.479	2.00904
884.372	1.85683
887.265	0.588154
890.158	0.046135
893.05	0.168259
895.943	0.145329
898.836	0.283619
901.728	1.18516
904.621	0.18232
907.514	0.601749
910.406	0.74057
913.299	0.135021
916.192	0.747189
919.085	1.39377
921.977	2.59127
924.87	3.92723
927.763	7.04764
930.655	9.81865
933.548	13.7745
936.441	19.3128
939.333	24.7452
942.226	37.3726
945.119	50.275
948.011	70.7151
950.904	97.5216
953.797	134.227
956.69	183.283
959.582	241.992
962.475	300.942
965.368	348.251
968.26	363.014
971.153	317.024
974.046	220.894
976.938	140.002
979.831	90.4231
982.724	64.6358
985.617	49.4313
988.509	40.6811
991.402	35.163
994.295	32.629
997.187	30.7046
1000.08	31.363
1002.97	31.0845
1005.87	31.2454
1008.76	28.9337
1011.65	21.9284
1014.54	16.4103
1017.44	11.8405
1020.33	6.46136
1023.22	2.03379
1026.11	0.078644
1029.01	0.919533
1031.9	2.15592
1034.79	0.146004
1037.68	0.129753
1040.58	3.20838
1043.47	6.94129
1046.36	11.7119
1049.26	10.6128
1052.15	8.3081
1055.04	8.66901
1057.93	10.4325
1060.83	13.4712
1063.72	17.3352
1066.61	17.0002
1069.51	13.0315
1072.4	11.4282
1075.29	9.90406
1078.18	11.8447
1081.08	12.083
1083.97	15.5061
1086.86	17.4749
1089.75	21.2754
1092.65	22.6646
1095.54	22.3991
1098.43	21.8612
1101.33	22.4684
1104.22	20.7694
1107.11	18.6778
1110	15.6348
1112.89	13.1284
1115.79	11.5725
1118.68	8.37922
1121.57	6.60641
1124.47	4.08533
1127.36	2.32965
1130.25	1.49046
1133.14	0.265285
1136.04	1.03619
1138.93	0.620266
1141.82	0.782001
1144.71	0.471729
1147.61	0.50647
1150.5	0.077789
1153.39	0.829838
1156.29	1.0518
1159.18	1.97156
1162.07	1.89014
1164.96	2.33841
1167.86	2.4984
1170.75	3.29972
1173.64	4.02571
1176.54	3.78244
1179.43	5.0644
1182.32	5.26193
1185.21	5.44782
1188.11	5.25239
1191	5.60464
1193.89	5.82587
1196.78	5.71865
1199.68	4.8487
1202.57	4.27814
1205.46	4.42962
1208.35	4.26614
1211.25	2.88676
1214.14	3.88141
1217.03	3.16867
1219.92	2.63509
1222.82	3.35799
1225.71	1.89343
1228.6	2.27717
1231.5	2.53476
1234.39	1.45945
1237.28	2.59251
1240.17	2.12273
1243.07	1.19489
1245.96	1.38322
1248.85	0.829891
1251.74	1.12222
1254.64	0.8041
1257.53	0.827923
1260.42	1.30432
1263.32	1.17126
1266.21	0.87307
1269.1	0.940563
1271.99	1.45183
1274.89	1.159
1277.78	0.695065
1280.67	0.63752
1283.57	0.217091
1286.46	0.751137
1289.35	0.028931
1292.24	0.626026
1295.13	0.002438
1298.03	0.261337
1300.92	0.001431
