Measurement: Raman, 532 nm, unoriented, Raman Data Processed
Mineral: Langite
Rruff sample: R120042
Ideal chemistry: Cu_4_SO_4_(OH)_6_2H_2_O
Locality: Dunbrack mine, Musquodoboit Harbour, Halifax County, Nova Scotia, Canada
Source: Donald Doell
Description: Blue tabular crystals
Raman shift (cm-1)	intensity
205.236	0
208.129	5.27362
211.021	8.36523
213.914	11.7181
216.807	8.22321
219.699	5.30212
222.592	1.17859
225.485	2.5809
228.377	4.18384
231.27	11.7804
234.163	14.2301
237.056	23.7328
239.948	30.5142
242.841	36.0457
245.734	45.3233
248.626	49.3008
251.519	48.9214
254.412	46.74
257.305	40.4227
260.197	38.7302
263.09	31.4027
265.983	24.4922
268.875	17.7849
271.768	12.6674
274.661	16.3681
277.553	19.4874
280.446	23.0502
283.339	23.2421
286.232	18.1223
289.124	13.7236
292.017	6.54416
294.91	2.0293
297.802	0.774628
300.695	1.33066
303.588	1.55255
306.481	0.257202
309.373	6.08804
312.266	9.36044
315.159	14.0167
318.051	21.2128
320.944	24.0504
323.837	24.5717
326.729	21.8152
329.622	25.3647
332.515	22.6477
335.408	21.8367
338.3	20.8491
341.193	19.8436
344.086	17.6182
346.978	15.6159
349.871	13.4351
352.764	11.121
355.656	7.02496
358.549	6.20569
361.442	1.5481
364.334	1.59546
367.227	6.21423
370.12	6.31647
373.012	7.03281
375.905	2.57828
378.798	0.251221
381.691	8.75037
384.583	11.7491
387.476	23.7685
390.369	32.4813
393.261	42.9696
396.154	50.3569
399.047	59.754
401.94	73.488
404.832	92.1432
407.725	116.49
410.618	142.784
413.51	164.403
416.403	167.529
419.296	146.681
422.188	112.759
425.081	86.6728
427.974	69.365
430.866	68.3197
433.759	73.5584
436.652	84.3354
439.545	101.222
442.437	120.236
445.33	144.775
448.223	154.386
451.115	148.91
454.008	151.212
456.901	160.468
459.793	161.74
462.686	157.677
465.579	151.46
468.472	145.376
471.364	150.433
474.257	150.389
477.15	121.269
480.042	83.7719
482.935	59.629
485.828	44.555
488.721	39.9883
491.613	37.456
494.506	38.0739
497.399	45.2135
500.291	57.6636
503.184	70.6954
506.077	75.6956
508.969	79.9232
511.862	79.1213
514.755	79.3278
517.648	75.5173
520.54	66.3629
523.433	49.5177
526.326	35.9947
529.218	17.4297
532.111	9.59659
535.004	2.64383
537.896	0.594269
540.789	4.13117
543.682	1.95383
546.575	3.34186
549.467	3.36197
552.36	1.19928
555.253	2.57861
558.145	2.2587
561.038	0.605988
563.931	0.175476
566.823	1.43747
569.716	2.89011
572.609	5.56662
575.502	5.89203
578.394	8.61246
581.287	14.7066
584.18	18.5285
587.072	24.2091
589.965	35.0894
592.858	51.1255
595.75	63.0059
598.643	75.4049
601.536	75.445
604.428	67.3246
607.321	62.1641
610.214	60.7547
613.107	59.9645
615.999	58.1927
618.892	58.796
621.785	57.4323
624.677	50.3453
627.57	37.8365
630.463	27.1733
633.356	18.228
636.248	12.6462
639.141	13.2004
642.034	11.2288
644.926	13.3802
647.819	12.4979
650.712	13.4927
653.604	12.0933
656.497	13.512
659.39	14.5065
662.283	11.0729
665.175	12.1504
668.068	9.6817
670.961	7.98218
673.853	5.65909
676.746	6.10736
679.639	5.08844
682.531	3.47339
685.424	2.96875
688.317	2.17603
691.21	2.75992
694.102	1.28384
696.995	1.60208
699.888	1.02716
702.78	0.42572
705.673	0.603088
708.566	0.022491
711.458	1.55441
714.351	0.417694
717.244	0.094971
720.136	0.603088
723.029	0.494568
725.922	0.182678
728.815	2.7131
731.707	1.83551
734.6	1.38739
737.493	0.139984
740.385	0.839691
743.278	0.272064
746.171	0.838776
749.063	1.36612
751.956	3.17499
754.849	0.916779
757.742	3.72376
760.634	2.32596
763.527	2.66403
766.42	2.99497
769.312	1.47629
772.205	1.17325
775.098	2.15537
777.99	1.91885
780.883	0.394379
783.776	3.08554
786.669	2.02719
789.561	0.787384
792.454	1.20593
795.347	3.61169
798.239	1.94049
801.132	3.31812
804.025	3.67099
806.918	4.66815
809.81	5.66394
812.703	3.48556
815.596	3.95236
818.488	4.54108
821.381	5.11301
824.274	3.55386
827.166	5.19891
830.059	3.92795
832.952	4.56265
835.845	5.11435
838.737	4.71851
841.63	5.36472
844.523	6.74725
847.415	4.79117
850.308	5.82339
853.201	2.82727
856.093	2.95184
858.986	4.40732
861.879	4.27271
864.771	3.46219
867.664	3.03
870.557	2.26856
873.45	2.61984
876.342	3.59271
879.235	1.52475
882.128	0.897186
885.02	1.08343
887.913	1.07678
890.806	2.13904
893.698	0.544128
896.591	1.73718
899.484	1.44534
902.377	0.856567
905.269	0.544037
908.162	1.59616
911.055	2.86288
913.947	5.06445
916.84	8.18863
919.733	11.8716
922.625	11.1955
925.518	8.12613
928.411	5.62311
931.304	6.505
934.196	8.39056
937.089	8.37454
939.982	13.4272
942.875	19.6593
945.767	28.8056
948.66	35.2418
951.553	46.1377
954.445	64.7604
957.338	95.414
960.231	141.533
963.123	207.487
966.016	288.086
968.909	363.994
971.802	372.327
974.694	308.682
977.587	238.977
980.48	185.196
983.372	135.48
986.265	93.2279
989.158	59.4967
992.05	39.8482
994.943	27.9749
997.836	16.5847
1000.73	8.63931
1003.62	4.53296
1006.51	3.79614
1009.41	3.35059
1012.3	0.937134
1015.19	2.08704
1018.09	1.60059
1020.98	0.637939
1023.87	2.57794
1026.76	2.27103
1029.66	0.569794
1032.55	0.533936
1035.44	0.694885
1038.33	4.86591
1041.23	6.87399
1044.12	13.6584
1047.01	24.2829
1049.9	31.7771
1052.8	53.2404
1055.69	76.0126
1058.58	47.1053
1061.47	44.2113
1064.37	47.9665
1067.26	52.193
1070.15	50.6491
1073.05	43.6124
1075.94	36.5079
1078.83	29.0212
1081.72	25.581
1084.62	21.9778
1087.51	22.1959
1090.4	23.8668
1093.3	25.2911
1096.19	26.193
1099.08	25.6318
1101.97	23.2633
1104.87	22.9691
1107.76	19.7615
1110.65	16.6513
1113.54	13.2498
1116.44	9.89301
1119.33	8.52963
1122.22	5.82706
1125.12	5.45203
1128.01	6.5264
1130.9	6.06979
1133.79	6.28772
1136.68	9.81082
1139.58	11.4705
1142.47	15.1065
1145.36	13.1051
1148.26	12.486
1151.15	13.0014
1154.04	10.7878
1156.93	9.10464
1159.83	4.73642
1162.72	3.4649
1165.61	0.900635
1168.51	1.11551
1171.4	1.84177
1174.29	0.453766
1177.18	1.11743
1180.08	1.08887
1182.97	1.36807
1185.86	2.79752
1188.75	0.82959
1191.65	0.814545
1194.54	0.866882
1197.43	1.7655
1200.33	1.92746
1203.22	2.73044
1206.11	3.24811
1209	4.62763
1211.9	3.68481
1214.79	4.30527
1217.68	3.54639
1220.57	1.52978
1223.47	4.68494
1226.36	5.1749
1229.25	3.23294
1232.14	2.46494
1235.04	2.13834
1237.93	1.46698
1240.82	2.2009
1243.71	2.09583
1246.61	3.55289
1249.5	1.42743
1252.39	2.07996
1255.29	2.89648
1258.18	0.708984
1261.07	2.48929
1263.96	1.41287
1266.86	0.621399
1269.75	1.51907
1272.64	1.81949
1275.54	3.43646
1278.43	1.4151
1281.32	0.746399
1284.21	0.73233
1287.11	1.42523
1290	2.18085
1292.89	1.80386
1295.78	0.160309
1298.68	2.57913
1301.57	2.75342
