Measurement: Raman, 532 nm, unoriented, Raman Data Processed
Mineral: Langite
Rruff sample: R070316
Ideal chemistry: Cu_4_SO_4_(OH)_6_2H_2_O
Locality: Drakewalls mine, Gunnislake, Callington District, Cornwall, England
Source: James Shigley
Description: Pale greenish-blue tabular crystals associated with dark green brochantite
Raman shift (cm-1)	intensity
162.388	0
165.281	0.251598
168.174	5.5529
171.067	12.0385
173.959	12.7685
176.852	14.433
179.745	13.9528
182.637	14.7362
185.53	15.3301
188.423	13.1904
191.315	13.1371
194.208	10.7084
197.101	8.96768
199.994	7.39874
202.886	4.01311
205.779	3.27754
208.672	5.12297
211.565	9.53453
214.457	12.1608
217.35	16.9609
220.243	15.1064
223.135	23.9536
226.028	28.2632
228.921	33.6972
231.813	40.9855
234.706	53.3342
237.599	52.9169
240.492	48.993
243.384	49.5022
246.277	34.1487
249.17	21.8197
252.062	19.6994
254.955	12.6588
257.848	12.3456
260.74	13.5209
263.633	12.1858
266.526	12.6362
269.418	17.9883
272.311	17.1676
275.204	14.4991
278.097	12.2174
280.989	15.3176
283.882	20.9837
286.775	25.9512
289.667	21.2768
292.56	12.4296
295.453	7.49358
298.346	1.78375
301.238	1.01979
304.131	1.29118
307.024	0.497551
309.916	0.792244
312.809	0.636456
315.702	4.78243
318.594	3.70511
321.487	4.94625
324.38	7.29087
327.273	7.9226
330.165	7.47351
333.058	7.15309
335.951	8.61831
338.843	3.99766
341.736	3.91204
344.629	6.16092
347.522	2.44669
350.414	8.68041
353.307	10.6114
356.2	12.6037
359.092	12.6926
361.985	8.85117
364.878	5.43303
367.77	3.14974
370.663	1.48872
373.556	0.83897
376.449	1.11068
379.341	2.53965
382.234	2.19596
385.127	2.57624
388.019	1.69031
390.912	1.28084
393.805	1.92855
396.697	0.507729
399.59	0.497395
402.483	1.06717
405.376	1.68315
408.268	5.23431
411.161	9.17462
414.054	16.5858
416.946	28.3464
419.839	43.0046
422.732	67.2539
425.625	102.672
428.517	150.275
431.41	180.619
434.303	152.702
437.195	102.276
440.088	65.6595
442.981	48.5039
445.873	37.2849
448.766	32.0377
451.659	26.7537
454.551	20.4585
457.444	16.7642
460.337	8.03199
463.23	6.60803
466.122	1.83228
469.015	5.35908
471.908	6.37131
474.8	8.71685
477.693	14.093
480.586	20.0287
483.479	21.8229
486.371	24.3396
489.264	26.0835
492.157	19.6432
495.049	14.6441
497.942	13.7926
500.835	10.3447
503.728	15.8494
506.62	15.8449
509.513	14.7391
512.406	14.4701
515.298	9.04204
518.191	5.44216
521.084	5.8406
523.976	2.80346
526.869	4.40232
529.762	2.31255
532.654	0.173397
535.547	1.63321
538.44	0.21706
541.333	1.49905
544.225	1.64458
547.118	0.70488
550.011	2.19896
552.903	0.080456
555.796	1.32399
558.689	0.431492
561.582	0.11647
564.474	2.06587
567.367	1.52818
570.26	3.73309
573.152	1.98692
576.045	3.06812
578.938	3.13377
581.83	2.67264
584.723	5.7038
587.616	5.67779
590.509	8.61169
593.401	11.2991
596.294	13.1572
599.187	19.1933
602.079	19.3585
604.972	21.4903
607.865	21.2862
610.758	24.0031
613.65	22.0358
616.543	20.7209
619.436	19.9639
622.328	11.7737
625.221	12.434
628.114	6.76926
631.006	6.66624
633.899	6.26982
636.792	5.56706
639.684	3.91372
642.577	3.612
645.47	6.18164
648.363	5.07473
651.255	3.09737
654.148	4.67598
657.041	2.14125
659.933	1.7926
662.826	2.68976
665.719	2.31951
668.612	3.40522
671.504	2.13513
674.397	3.08188
677.29	0.826828
680.182	0.99625
683.075	1.20165
685.968	0.62598
688.861	2.11198
691.753	0.507671
694.646	0.296955
697.539	1.68346
700.431	0.191559
703.324	0.587147
706.217	0.824486
709.109	1.04201
712.002	0.01342
714.895	0.952557
717.788	1.71878
720.68	3.50531
723.573	0.066002
726.466	0.604843
729.358	2.22296
732.251	1.0499
735.144	2.04099
738.036	2.29092
740.929	2.57568
743.822	1.16474
746.715	1.52544
749.607	1.75082
752.5	4.27767
755.393	4.7987
758.285	3.86958
761.178	4.01746
764.071	5.8631
766.963	5.01505
769.856	4.61262
772.749	4.21329
775.642	4.54254
778.534	1.89533
781.427	1.03683
784.32	3.88505
787.212	2.93389
790.105	1.99283
792.998	1.73107
795.89	0.453129
798.783	0.749798
801.676	0.023479
804.569	0.790901
807.461	2.12357
810.354	1.75898
813.247	2.12316
816.139	0.600262
819.032	1.7089
821.925	3.58101
824.818	3.55303
827.71	7.33824
830.603	6.84901
833.496	8.59973
836.388	8.48483
839.281	6.96628
842.174	4.40766
845.067	5.95895
847.959	2.41928
850.852	2.46772
853.745	3.75797
856.637	0.826195
859.53	0.118473
862.423	2.04673
865.315	1.34861
868.208	1.96986
871.101	1.27102
873.994	2.0751
876.886	2.28175
879.779	1.84966
882.672	3.24535
885.564	3.25961
888.457	1.88894
891.35	3.6973
894.242	1.57077
897.135	2.95459
900.028	4.00323
902.92	3.23041
905.813	0.273781
908.706	2.59271
911.599	1.63071
914.491	1.52458
917.384	0.495586
920.277	0.389919
923.169	1.09991
926.062	0.254013
928.955	0.934486
931.847	1.36186
934.74	2.17078
937.633	2.67901
940.526	0.198898
943.418	3.43289
946.311	3.08172
949.204	4.44351
952.096	8.36001
954.989	18.0535
957.882	19.4669
960.775	35.2106
963.667	63.0695
966.56	125.699
969.453	244.514
972.345	264.652
975.238	117.772
978.131	54.5126
981.024	31.0428
983.916	21.6513
986.809	12.8365
989.702	9.47388
992.594	9.89231
995.487	7.97734
998.38	6.63134
1001.27	6.82238
1004.16	4.64783
1007.06	3.10359
1009.95	4.90094
1012.84	4.91315
1015.74	2.42366
1018.63	1.23683
1021.52	2.2134
1024.41	3.07256
1027.31	3.19469
1030.2	0.795315
1033.09	0.856369
1035.98	0.247723
1038.88	0.050217
1041.77	0.004864
1044.66	0.478546
1047.56	0.397476
1050.45	0.092495
1053.34	2.1043
1056.23	2.95068
1059.13	4.59559
1062.02	2.50958
1064.91	6.69269
1067.81	8.56758
1070.7	6.48163
1073.59	9.62888
1076.48	8.78672
1079.38	7.70298
1082.27	10.1115
1085.16	10.5531
1088.05	12.3518
1090.95	15.1533
1093.84	17.1067
1096.73	18.9262
1099.62	17.8148
1102.52	16.7188
1105.41	14.5985
1108.3	11.9675
1111.19	11.5725
1114.09	10.6147
1116.98	8.31001
1119.87	7.29525
1122.77	6.94553
1125.66	6.84461
1128.55	5.23929
1131.44	7.70023
1134.34	7.93875
1137.23	5.65664
1140.12	5.35399
1143.02	5.48877
1145.91	10.9102
1148.8	13.7705
1151.69	17.9236
1154.59	14.071
1157.48	11.0174
1160.37	7.76829
1163.26	4.93719
1166.16	3.54963
1169.05	2.07286
1171.94	2.86503
1174.84	0.661747
1177.73	1.52548
1180.62	0.869682
1183.51	0.588898
1186.4	0.17828
1189.3	0.12883
1192.19	1.22112
1195.08	1.56779
1197.98	1.79501
1200.87	1.56272
1203.76	1.03994
1206.65	2.84293
1209.55	3.1831
1212.44	0.91534
1215.33	1.97546
1218.22	2.16875
1221.12	2.06908
1224.01	2.33881
1226.9	2.67292
1229.8	5.62889
1232.69	3.00002
1235.58	2.95381
1238.47	1.78958
1241.37	4.14431
1244.26	1.04692
1247.15	2.06403
1250.05	3.75486
1252.94	1.70235
1255.83	3.1524
1258.72	0.96254
1261.62	2.49621
1264.51	1.5161
1267.4	2.83533
1270.29	3.35956
1273.19	1.93613
1276.08	2.41222
1278.97	2.57327
1281.87	3.41019
1284.76	1.24501
1287.65	1.54011
1290.54	3.21943
1293.43	1.37422
1296.33	2.31508
1299.22	0.594082
1302.11	0.006077
