Measurement: Raman, 532 nm, unoriented, Raman Data Processed
Mineral: Langite
Rruff sample: R060090
Ideal chemistry: Cu_4_SO_4_(OH)_6_2H_2_O
Locality: Allihies mine, County Cork, Ireland
Source: University of Arizona Mineral Museum
Description: Blue skeletal prismatic crystals in snowflake-like groupings, associated with brochantite
Measured chemistry: Cu_4.00_(S_1.00_O_4_)(OH)_6_Â·2H_2_O ; darker phase: Cu_4_SO_4_(OH)_6_ ; lighter phase
Raman shift (cm-1)	intensity
171.839	0
174.732	117.964
177.625	293.349
180.517	285.065
183.41	361.193
186.303	436.021
189.195	601.356
192.088	624.988
194.981	586.366
197.874	337.8
200.766	25.2185
203.659	48.3337
206.552	0.79541
209.444	158.952
212.337	254.91
215.23	423.649
218.122	419.906
221.015	380.593
223.908	473.427
226.8	601.436
229.693	806.01
232.586	1111.12
235.479	1476.35
238.371	1818.19
241.264	1616.51
244.157	1060.4
247.049	529.634
249.942	346.667
252.835	188.262
255.727	242.743
258.62	198.624
261.513	195.355
264.406	214.058
267.298	231.406
270.191	240.799
273.084	274.133
275.976	203.775
278.869	193.165
281.762	225.286
284.655	168.16
287.547	162.805
290.44	172.88
293.333	142.756
296.225	64.3693
299.118	92.4928
302.011	122.609
304.904	68.3003
307.796	200.546
310.689	354.971
313.582	509.916
316.474	702.104
319.367	727.595
322.26	677.186
325.152	679.374
328.045	607.706
330.938	536.465
333.83	382.13
336.723	239.041
339.616	152.857
342.509	48.7998
345.401	15.0488
348.294	7.73608
351.187	24.3772
354.079	68.853
356.972	43.8337
359.865	30.7632
362.757	57.2375
365.65	97.5706
368.543	164.197
371.436	174.24
374.328	99.343
377.221	8.70996
380.114	85.3967
383.006	201.123
385.899	262.126
388.792	209.612
391.685	230.088
394.577	137.326
397.47	168.124
400.363	292.942
403.255	557.047
406.148	976.301
409.041	1777.2
411.933	2949.28
414.826	4924.09
417.719	7858.64
420.611	11659.4
423.504	15915
426.397	20033.8
429.29	22004
432.182	19685.6
435.075	14547.7
437.968	9898.42
440.86	7295.49
443.753	5867.06
446.646	5057.79
449.538	4010.4
452.431	3146.89
455.324	2215
458.217	1543.63
461.109	1236.82
464.002	1219.89
466.895	1565.3
469.787	2284.57
472.68	3251.76
475.573	4504.07
478.466	5772.49
481.358	6698.52
484.251	7086.48
487.144	6946.62
490.036	6031.99
492.929	5122.68
495.822	4561.03
498.714	4432.03
501.607	4631.45
504.5	4748.72
507.393	4704.62
510.285	4435.79
513.178	4201.41
516.071	3981.96
518.963	3838.47
521.856	3501.97
524.749	2684.7
527.641	1855.71
530.534	1087.57
533.427	567.068
536.32	243.591
539.212	62.7202
542.105	62.6099
544.998	84.5891
547.89	130.389
550.783	144.399
553.676	80.5527
556.568	61.468
559.461	74.6721
562.354	36.4996
565.247	132.574
568.139	214.318
571.032	329.134
573.925	465.377
576.817	706.586
579.71	952.685
582.603	1360.85
585.495	2060.81
588.388	2834.93
591.281	3797.54
594.174	4919.06
597.066	5539.68
599.959	5731.55
602.852	5597.56
605.744	5077.48
608.637	4363.62
611.53	3704.79
614.423	3149.01
617.315	2680.5
620.208	2139.78
623.101	1650.88
625.993	1356.85
628.886	1043.57
631.779	816.623
634.671	652.75
637.564	548.077
640.457	450.161
643.35	348.439
646.242	299.322
649.135	286.07
652.028	208.941
654.92	176.586
657.813	131.553
660.706	115.134
663.598	108.804
666.491	51.5001
669.384	55.1394
672.277	75.7741
675.169	10.3245
678.062	19.5676
680.955	2.83313
683.847	43.0112
686.74	6.57849
689.633	4.1416
692.525	12.5915
695.418	1.13184
698.311	19.1958
701.204	4.3031
704.096	50.2903
706.989	83.3451
709.882	104.767
712.774	77.7013
715.667	164.631
718.56	181.073
721.452	247.482
724.345	275.463
727.238	320.595
730.131	342.868
733.023	350.998
735.916	326.486
738.809	322.199
741.701	330.031
744.594	315.066
747.487	336.811
750.38	330.679
753.272	408.912
756.165	434.986
759.058	496.238
761.95	483.983
764.843	491.988
767.736	462.721
770.628	464.444
773.521	484.853
776.414	397.297
779.307	371.504
782.199	284.764
785.092	268.346
787.985	212.732
790.877	159.41
793.77	92.2751
796.663	54.1625
799.555	70.6764
802.448	17.8041
805.341	8.42969
808.234	11.1472
811.126	29.3146
814.019	43.6309
816.912	25.7861
819.804	114.111
822.697	176.037
825.59	276.939
828.482	362.877
831.375	360.843
834.268	385.633
837.16	311.67
840.053	245.727
842.946	221.892
845.839	124.958
848.731	80.5182
851.624	15.7295
854.517	10.5734
857.409	7.64941
860.302	40.0497
863.195	28.6532
866.087	21.9006
868.98	40.0806
871.873	45.1937
874.766	68.609
877.658	50.7592
880.551	111.336
883.444	168.1
886.337	157.53
889.229	199.169
892.122	309.55
895.015	312.297
897.907	407.868
900.8	388.172
903.693	385.66
906.585	299.022
909.478	288.892
912.371	191.661
915.264	65.5862
918.156	2.40894
921.049	25.0142
923.942	27.2312
926.834	26.7446
929.727	23.1333
932.62	32.5732
935.512	125.524
938.405	266.071
941.298	403.653
944.191	685.004
947.083	1034.23
949.976	1673.21
952.869	2690.22
955.761	5002.25
958.654	9950.66
961.547	18314.2
964.439	27934.5
967.332	36334.9
970.225	33193.8
973.117	20194.9
976.01	11129.4
978.903	6754.75
981.796	4575.49
984.688	3381.04
987.581	2670.43
990.474	2151.16
993.366	1818.66
996.259	1692.25
999.152	1456
1002.04	1366.26
1004.94	1338.76
1007.83	1158.42
1010.72	1119.44
1013.62	979.499
1016.51	806.222
1019.4	634.663
1022.29	463.435
1025.19	288.739
1028.08	119.967
1030.97	31.7398
1033.86	66.2647
1036.76	86.2993
1039.65	63.5212
1042.54	42.8648
1045.43	79.3337
1048.33	267.807
1051.22	555.77
1054.11	914.062
1057.01	1346.17
1059.9	1766.36
1062.79	2137.5
1065.68	2286.57
1068.58	2157.41
1071.47	1785.87
1074.36	1353.82
1077.26	990.708
1080.15	652.842
1083.04	450.253
1085.93	378.801
1088.83	349.603
1091.72	463.106
1094.61	617.202
1097.5	753.275
1100.4	814.547
1103.29	1027
1106.18	1185.23
1109.07	1216.39
1111.97	1134.18
1114.86	1010.93
1117.75	797.769
1120.64	604.657
1123.54	537.547
1126.43	402.853
1129.32	343.436
1132.22	250.412
1135.11	231.658
1138	205.263
1140.89	302.079
1143.79	336.327
1146.68	398.867
1149.57	498.16
1152.46	422.752
1155.36	346.266
1158.25	213.743
1161.14	90.9168
1164.04	49.7547
1166.93	22.1924
1169.82	28.9167
1172.71	3.84869
1175.61	26.2305
1178.5	20.6634
1181.39	7.95416
1184.29	15.9507
1187.18	75.4936
1190.07	40.715
1192.96	68.0715
1195.86	78.9106
1198.75	122.157
1201.64	109.059
1204.53	107.501
1207.43	154.461
1210.32	184.39
1213.21	173.149
1216.1	183.675
1219	234.419
1221.89	209.981
1224.78	212.696
1227.67	179.558
1230.57	192.554
1233.46	171.833
1236.35	169.841
1239.25	192.055
1242.14	80.4556
1245.03	127.578
1247.92	116.617
1250.82	68.5558
1253.71	103.488
1256.6	97.8537
1259.49	48.408
1262.39	88.059
1265.28	80.4128
1268.17	75.3262
1271.07	33.9856
1273.96	7.47534
1276.85	82.4462
1279.74	33.8479
1282.64	38.9406
1285.53	37.6855
1288.42	21.9657
1291.32	59.5597
1294.21	78.7942
1297.1	52.4185
1299.99	33.0775
1302.88	28.3823
1305.78	17.4461
1308.67	62.8086
1311.56	47.7114
1314.46	4.90366
