Measurement: Raman, 532 nm, unoriented, Raman Data Processed
Mineral: Langbeinite
Rruff sample: R070285
Ideal chemistry: K_2_Mg_2_(SO_4_)_3_
Locality: Carlsbad, New Mexico, USA
Source: Michael Scott
Description: Colorless to gray granular massive
Raman shift (cm-1)	intensity
174.924	0
177.816	1.41704
180.709	2.07753
183.602	2.01434
186.494	3.14198
189.387	2.56744
192.28	7.44618
195.173	11.629
198.065	14.2387
200.958	15.9079
203.851	20.6719
206.743	13.2427
209.636	9.8204
212.529	3.31839
215.421	4.81842
218.314	3.8641
221.207	0.276474
224.1	4.18764
226.992	1.45966
229.885	0.578476
232.778	0.853714
235.67	1.51114
238.563	0.316757
241.456	1.32812
244.348	0.32457
247.241	0.256561
250.134	0.585022
253.026	0.263824
255.919	0.335266
258.812	0.392731
261.705	0.309326
264.597	3.43547
267.49	1.71013
270.383	1.61925
273.276	2.76964
276.168	3.77869
279.061	2.49515
281.954	0.899582
284.846	1.91814
287.739	3.83469
290.632	7.64929
293.524	9.18628
296.417	7.7601
299.31	7.58661
302.202	5.08188
305.095	6.3716
307.988	3.72775
310.881	5.25751
313.773	5.04732
316.666	9.86404
319.559	6.22492
322.451	4.17082
325.344	2.99527
328.237	7.95711
331.13	5.50253
334.022	4.60924
336.915	4.6828
339.808	4.22575
342.7	3.5002
345.593	2.68607
348.486	7.00879
351.378	5.91454
354.271	3.54527
357.164	4.07825
360.057	0.591736
362.949	2.53015
365.842	3.10994
368.735	1.11237
371.627	3.28732
374.52	4.45685
377.413	1.99092
380.305	0.486267
383.198	0.896729
386.091	1.27898
388.984	0.331238
391.876	1.39906
394.769	1.09828
397.662	1.72832
400.554	2.51195
403.447	3.16124
406.34	0.193741
409.233	0.185532
412.125	0.142746
415.018	1.36998
417.911	1.75848
420.803	1.84201
423.696	3.07448
426.589	3.77396
429.481	4.87743
432.374	8.35867
435.267	10.2026
438.159	16.7427
441.052	26.3688
443.945	38.405
446.838	45.839
449.73	62.7192
452.623	103.669
455.516	129.274
458.409	163.924
461.301	142.855
464.194	164.471
467.087	200.314
469.979	177.227
472.872	116.617
475.765	82.6229
478.657	48.3077
481.55	29.1231
484.443	20.0459
487.336	11.8733
490.228	8.58572
493.121	6.41988
496.014	6.66522
498.906	7.07938
501.799	4.10175
504.692	2.22105
507.584	2.53175
510.477	1.72267
513.37	3.57289
516.263	2.30296
519.155	1.45044
522.048	1.63527
524.941	2.35326
527.833	0.323364
530.726	2.07564
533.619	0.534668
536.511	0.243759
539.404	0.758453
542.297	0.79567
545.19	0.385681
548.082	0.887497
550.975	1.06575
553.868	1.1761
556.76	0.8116
559.653	1.6302
562.546	1.80667
565.438	2.00925
568.331	0.42952
571.224	0.535538
574.117	1.82729
577.009	1.63905
579.902	3.9668
582.795	4.06444
585.687	7.02615
588.58	9.24657
591.473	18.2825
594.365	26.3122
597.258	43.4513
600.151	65.3404
603.044	93.3003
605.936	114.128
608.829	103.103
611.722	76.1874
614.614	72.2633
617.507	82.848
620.4	107.021
623.293	132.594
626.185	157.4
629.078	154.745
631.971	110.809
634.863	86.6752
637.756	88.1391
640.649	92.7303
643.542	66.7586
646.434	34.8047
649.327	34.2931
652.22	40.6149
655.112	52.6306
658.005	59.5555
660.898	44.7353
663.79	25.9561
666.683	14.3381
669.576	7.87994
672.468	5.24374
675.361	3.82532
678.254	0.020889
681.147	0.249252
684.039	0.78479
686.932	2.06436
689.825	1.73395
692.717	1.75385
695.61	1.32748
698.503	1.45781
701.396	0.469696
704.288	1.01508
707.181	1.89598
710.074	1.50276
712.966	2.49388
715.859	3.35043
718.752	2.21785
721.644	0.529282
724.537	0.474564
727.43	0.093994
730.323	3.38945
733.215	0.069199
736.108	2.94858
739.001	0.395645
741.893	1.16849
744.786	1.32126
747.679	0.979599
750.572	1.76871
753.464	1.39267
756.357	1.21857
759.25	2.39087
762.142	0.347855
765.035	2.24156
767.928	4.15768
770.82	0.626495
773.713	2.74031
776.606	2.28615
779.499	2.99982
782.391	2.71907
785.284	1.72688
788.177	1.98381
791.069	1.52518
793.962	3.31645
796.855	2.54536
799.747	0.424667
802.64	2.14435
805.533	0.175293
808.426	2.66457
811.318	1.42796
814.211	2.51669
817.104	1.79504
819.996	0.304611
822.889	1.53468
825.782	1.11485
828.674	1.93831
831.567	1.30267
834.46	0.351822
837.353	1.4752
840.245	0.387512
843.138	0.896484
846.031	0.911682
848.923	2.05038
851.816	0.38295
854.709	2.10367
857.601	2.44212
860.494	0.547729
863.387	0.464981
866.28	6.12721
869.172	1.75983
872.065	0.396027
874.958	2.21658
877.851	2.86772
880.743	2.43382
883.636	2.22902
886.529	2.52916
889.421	3.98979
892.314	0.944794
895.207	0.864029
898.099	1.93123
900.992	0.714172
903.885	1.38263
906.778	1.3559
909.67	2.9727
912.563	2.76065
915.456	0.213821
918.348	0.985168
921.241	2.03235
924.134	3.68561
927.026	2.8201
929.919	2.46854
932.812	6.29654
935.705	3.48535
938.597	3.4809
941.49	4.11589
944.383	2.60515
947.275	0.573288
950.168	2.0704
953.061	1.59923
955.953	2.43829
958.846	1.81261
961.739	1.85838
964.631	1.81593
967.524	1.21567
970.417	0.622452
973.31	0.85994
976.202	0.141022
979.095	0.282883
981.988	0.285385
984.88	1.67363
987.773	1.74823
990.666	1.02649
993.559	2.97108
996.451	3.09511
999.344	2.11923
1002.24	5.19383
1005.13	6.18176
1008.02	6.63763
1010.91	10.2922
1013.81	10.5687
1016.7	17.3254
1019.59	16.4368
1022.49	26.8007
1025.38	32.546
1028.27	46.5818
1031.16	60.6641
1034.06	77.4463
1036.95	107.087
1039.84	160.661
1042.73	274.352
1045.63	473.728
1048.52	790.558
1051.41	1323.74
1054.31	1804.92
1057.2	1360.63
1060.09	611.566
1062.98	289.031
1065.88	156.332
1068.77	94.346
1071.66	62.7457
1074.55	42.8266
1077.45	28.9429
1080.34	21.3521
1083.23	13.211
1086.12	11.3229
1089.02	5.94382
1091.91	2.72377
1094.8	1.15118
1097.7	1.73689
1100.59	2.57558
1103.48	0.193176
1106.37	0.070236
1109.27	1.87411
1112.16	6.0298
1115.05	15.4396
1117.94	29.9055
1120.84	52.6489
1123.73	65.9255
1126.62	64.2672
1129.52	55.5837
1132.41	58.6698
1135.3	69.8747
1138.19	71.4063
1141.09	49.6944
1143.98	35.6456
1146.87	33.0171
1149.77	47.456
1152.66	45.8506
1155.55	33.5016
1158.44	29.7525
1161.34	37.1153
1164.23	36.6193
1167.12	28.3702
1170.01	25.4563
1172.91	31.4
1175.8	25.5828
1178.69	20.2533
1181.58	16.3338
1184.48	9.83929
1187.37	3.2632
1190.26	1.56705
1193.15	3.18132
1196.05	0.559341
1198.94	0.501068
1201.83	0.641174
1204.73	0.851639
1207.62	0.907562
1210.51	0.070175
1213.4	1.83086
1216.3	1.66569
1219.19	0.111969
1222.08	3.06456
1224.97	5.09525
1227.87	1.93413
1230.76	4.41614
1233.65	5.98367
1236.55	4.33286
1239.44	6.9711
1242.33	9.04504
1245.22	14.0611
1248.12	18.6703
1251.01	20.8373
1253.9	19.7653
1256.8	15.652
1259.69	11.5824
1262.58	8.74342
1265.47	4.26523
1268.37	3.94174
1271.26	6.42969
1274.15	3.82608
1277.04	4.27004
1279.94	3.46185
1282.83	2.38956
1285.72	1.6714
1288.61	2.95102
1291.51	1.57497
1294.4	0.953598
1297.29	1.02126
1300.18	2.36293
