Measurement: Raman, 780 nm, unoriented, Raman Data Processed
Mineral: Langbeinite
Rruff sample: R070285
Ideal chemistry: K_2_Mg_2_(SO_4_)_3_
Locality: Carlsbad, New Mexico, USA
Source: Michael Scott
Description: Colorless to gray granular massive
Raman shift (cm-1)	intensity
180.761	0
183.654	1.39746
186.547	2.66345
189.439	2.2568
192.332	6.1907
195.225	7.31192
198.117	10.3907
201.01	9.66666
203.903	10.9028
206.796	6.2247
209.688	6.58392
212.581	0.090576
215.474	4.29813
218.366	5.83862
221.259	-0.116649
224.152	4.28683
227.044	2.87085
229.937	3.26092
232.83	3.32141
235.722	2.9061
238.615	3.61896
241.508	1.46771
244.401	2.27881
247.293	6.22739
250.186	3.75867
253.079	2.73798
255.971	2.85992
258.864	1.5358
261.757	3.50857
264.649	1.651
267.542	4.3855
270.435	5.22223
273.328	6.18695
276.22	8.74597
279.113	6.80145
282.006	5.4223
284.898	4.81549
287.791	7.74557
290.684	8.59949
293.576	7.14615
296.469	4.63327
299.362	7.05063
302.255	6.21893
305.147	4.90366
308.04	4.60541
310.933	3.44409
313.825	4.811
316.718	3.45673
319.611	6.57346
322.503	3.31885
325.396	3.96774
328.289	7.75803
331.182	4.65381
334.074	6.98291
336.967	4.37622
339.86	3.54523
342.752	5.5155
345.645	2.93179
348.538	3.7565
351.43	2.80862
354.323	2.71216
357.216	2.052
360.108	3.92346
363.001	1.18311
365.894	4.18722
368.787	5.03033
371.679	4.49029
374.572	2.75297
377.465	2.38138
380.357	0.088379
383.25	0.411316
386.143	0.937042
389.036	0.744853
391.928	1.09225
394.821	1.60953
397.714	1.15723
400.606	2.83319
403.499	3.59216
406.392	2.28415
409.284	0.601135
412.177	3.02652
415.07	0.017059
417.962	3.09228
420.855	4.03128
423.748	4.3429
426.641	7.63263
429.533	11.7672
432.426	14.9506
435.319	17.8258
438.211	29.5086
441.104	49.373
443.997	54.7471
446.889	66.0771
449.782	90.7958
452.675	112.056
455.567	134.334
458.46	128.648
461.353	102.157
464.246	111.461
467.138	116.576
470.031	85.8804
472.924	61.614
475.816	37.727
478.709	24.1731
481.602	19.1736
484.495	10.4912
487.387	11.0829
490.28	7.80452
493.173	7.96495
496.065	8.18216
498.958	5.44792
501.851	6.815
504.743	9.81572
507.636	6.23466
510.529	3.01555
513.422	2.07275
516.314	3.56338
519.207	5.26833
522.1	2.04155
524.992	2.54497
527.885	1.55093
530.778	1.02683
533.67	1.68321
536.563	0.65123
539.456	0.259216
542.348	2.10429
545.241	1.8101
548.134	0.699921
551.027	0.392441
553.919	2.42333
556.812	1.44711
559.705	1.73065
562.597	0.19725
565.49	5.25125
568.383	2.33232
571.275	4.15535
574.168	0.372116
577.061	3.1342
579.954	4.59486
582.846	6.26305
585.739	8.11876
588.632	15.0098
591.524	20.4763
594.417	31.2508
597.31	39.4312
600.202	52.1334
603.095	66.7992
605.988	74.8931
608.881	65.0578
611.773	55.6503
614.666	53.0717
617.559	59.0199
620.451	64.3494
623.344	75.217
626.237	84.3593
629.129	70.1568
632.022	54.666
634.915	53.6863
637.808	57.5903
640.7	51.8902
643.593	29.867
646.486	22.4854
649.378	21.2994
652.271	25.8231
655.164	25.7781
658.056	25.1505
660.949	18.3586
663.842	12.94
666.735	6.82545
669.627	4.32889
672.52	3.37822
675.413	0.068069
678.305	0.880096
681.198	2.82353
684.091	1.92958
686.983	1.89558
689.876	0.2491
692.769	0.422455
695.662	0.26004
698.554	0.206848
701.447	1.2508
704.34	2.33051
707.232	1.29983
710.125	1.56041
713.018	0.671021
715.91	4.62155
718.803	1.89928
721.696	2.58355
724.588	2.87543
727.481	3.99168
730.374	5.15276
733.266	2.07946
736.159	1.81759
739.052	2.86646
741.945	0.371147
744.837	2.73727
747.73	4.35485
750.623	2.63107
753.515	2.9476
756.408	3.13919
759.301	2.21696
762.193	1.94187
765.086	0.055496
767.979	1.47187
770.872	4.00971
773.764	3.08352
776.657	4.68715
779.55	4.68823
782.442	2.82476
785.335	0.322739
788.228	3.21172
791.12	3.88118
794.013	1.92348
796.906	4.53717
799.799	2.15173
802.691	5.07841
805.584	4.97098
808.477	5.10399
811.369	1.22913
814.262	1.7187
817.155	2.31193
820.048	2.8335
822.94	1.18873
825.833	2.2799
828.726	2.14621
831.618	0.349899
834.511	1.46957
837.404	3.34808
840.296	2.42683
843.189	2.10706
846.082	1.59808
848.975	4.60178
851.867	4.03347
854.76	3.08839
857.653	2.6189
860.545	3.71879
863.438	4.36526
866.331	4.28493
869.223	1.96607
872.116	2.91699
875.009	3.68877
877.901	4.79853
880.794	7.77006
883.687	4.42474
886.58	0.630638
889.472	2.74745
892.365	0.886833
895.258	3.35352
898.15	0.332825
901.043	2.54179
903.936	1.52754
906.828	0.061623
909.721	1.13449
912.614	0.406487
915.506	4.16666
918.399	3.17055
921.292	1.53986
924.185	0.329384
927.077	0.655251
929.97	1.97314
932.863	4.29447
935.755	2.14957
938.648	2.17735
941.541	3.00615
944.433	2.16233
947.326	3.78214
950.219	3.12398
953.112	1.54067
956.004	3.80322
958.897	2.97877
961.79	2.54961
964.682	1.45653
967.575	2.43834
970.468	3.97355
973.361	-0.178656
976.253	0.91301
979.146	0.160652
982.039	1.2365
984.931	0.552788
987.824	0.748863
990.717	0.854408
993.609	2.66708
996.502	3.53646
999.395	3.68505
1002.29	2.58408
1005.18	5.3545
1008.07	4.01953
1010.97	6.04394
1013.86	7.82498
1016.75	11.1975
1019.64	13.5167
1022.54	17.645
1025.43	22.4461
1028.32	28.8905
1031.21	40.2014
1034.11	58.5795
1037	96.2851
1039.89	178.582
1042.79	297.485
1045.68	389.172
1048.57	491.307
1051.46	609.662
1054.36	597.139
1057.25	325.337
1060.14	148.692
1063.03	75.1262
1065.93	42.2461
1068.82	27.3909
1071.71	17.1716
1074.61	12.4696
1077.5	9.89257
1080.39	7.79515
1083.28	3.84254
1086.18	2.33829
1089.07	1.10632
1091.96	0.892487
1094.85	0.997787
1097.75	1.69429
1100.64	1.46089
1103.53	2.20815
1106.42	1.41416
1109.32	5.77753
1112.21	8.50833
1115.1	15.0322
1117.99	20.9479
1120.89	28.5597
1123.78	33.5916
1126.67	29.3567
1129.57	26.6759
1132.46	30.9809
1135.35	30.5182
1138.24	26.5726
1141.14	23.9572
1144.03	16.1207
1146.92	18.1788
1149.82	23.0697
1152.71	22.6645
1155.6	23.2061
1158.49	26.2785
1161.39	22.9995
1164.28	19.0884
1167.17	15.2952
1170.06	13.4865
1172.96	12.1266
1175.85	11.1583
1178.74	12.1387
1181.63	6.81832
1184.53	5.94503
1187.42	1.53522
1190.31	0.224827
1193.21	0.534626
1196.1	0.125587
1198.99	1.78946
1201.88	1.86509
1204.78	0.913757
1207.67	0.860321
1210.56	3.71138
1213.45	3.91766
1216.35	1.13052
1219.24	1.87619
1222.13	1.22738
1225.03	0.816441
1227.92	3.46487
1230.81	5.00814
1233.7	6.12714
1236.6	7.3369
1239.49	8.69425
1242.38	11.9919
1245.27	15.4743
1248.17	14.0219
1251.06	15.4702
1253.95	12.6131
1256.85	9.21782
1259.74	7.2792
1262.63	2.27783
1265.52	2.3564
1268.42	2.91489
1271.31	2.90739
1274.2	0.098995
1277.09	2.26587
1279.99	3.12322
1282.88	0.002193
