Measurement: Raman, 532 nm, unoriented, Raman Data Processed
Mineral: Langbanite
Rruff sample: R050664
Ideal chemistry: Mn^2+^_4_Mn^3+^_9_Sb^5+^O_16_(SiO_4_)_2_
Locality: Langban, Filipstad, Varmland, Sweden
Source: University of Arizona Mineral Museum
Description: Black metallic crystals
Measured chemistry: (Mn^2+^_3.79_Ca_0.21_)_Σ=4_(Mn^3+^_6.45_Fe^3+^_2.55_)_Σ=9_Sb^5+^_1.00_O_16_(Si_1.00_O_4_)_2_
Raman shift (cm-1)	intensity
135.583	0
138.958	3.62236
142.332	0.31299
145.707	1.68766
149.082	4.23432
152.457	7.29967
155.832	5.24528
159.207	5.03297
162.581	2.67811
165.956	2.76494
169.331	1.79699
172.706	1.84161
176.081	1.50322
179.455	1.58066
182.83	1.75462
186.205	2.20741
189.58	2.46481
192.955	3.38773
196.329	5.78012
199.704	3.43477
203.079	0.986778
206.454	0.636192
209.829	0.650314
213.204	0.077797
216.578	0.327545
219.953	1.77021
223.328	1.74083
226.703	1.4245
230.078	1.08207
233.452	0.817936
236.827	0.228397
240.202	0.112362
243.577	0.664707
246.952	0.65559
250.327	0.260906
253.701	2.31833
257.076	2.25233
260.451	3.47481
263.826	4.4759
267.201	4.32962
270.575	4.50597
273.95	4.86365
277.325	5.71427
280.7	6.3143
284.075	6.22464
287.45	7.4749
290.825	8.3612
294.199	9.28321
297.574	9.57354
300.949	9.71249
304.324	10.028
307.699	9.34281
311.073	7.8849
314.448	8.04377
317.823	7.20641
321.198	5.36704
324.573	2.63097
327.947	2.47568
331.322	1.37534
334.697	1.90019
338.072	0.890125
341.447	0.046341
344.822	0.336769
348.196	0.176563
351.571	0.086681
354.946	0.150143
358.321	0.094688
361.696	0.51199
365.07	0.660847
368.445	1.61907
371.82	1.61514
375.195	2.03717
378.57	3.2253
381.945	5.24959
385.32	4.80181
388.694	6.49611
392.069	7.13692
395.444	7.08695
398.819	6.98127
402.194	6.27429
405.568	4.92462
408.943	3.5439
412.318	2.8895
415.693	1.40144
419.068	0.728672
422.442	0.73896
425.817	0.992706
429.192	0.393291
432.567	0.024807
435.942	0.057098
439.317	0.128479
442.691	0.602516
446.066	1.56098
449.441	2.00588
452.816	2.17983
456.191	2.8482
459.565	3.72093
462.94	2.52966
466.315	3.83926
469.69	5.08869
473.065	6.529
476.44	8.6501
479.815	12.1006
483.189	15.4683
486.564	19.8234
489.939	25.0847
493.314	33.991
496.688	50.049
500.063	69.1662
503.438	91.7533
506.813	118.511
510.188	143.649
513.563	154.033
516.938	133.652
520.312	94.7599
523.687	60.6863
527.062	40.3816
530.437	29.7241
533.812	23.6853
537.186	18.3326
540.561	15.0156
543.936	11.6993
547.311	9.44077
550.686	6.92959
554.061	4.49802
557.435	3.89764
560.81	2.30391
564.185	1.511
567.56	1.43652
570.935	1.39697
574.309	0.392899
577.684	0.195114
581.059	0.450962
584.434	1.4907
587.809	0.534248
591.183	0.180771
594.558	0.006752
597.933	1.50916
601.308	3.05657
604.683	4.08844
608.058	4.99989
611.433	5.59636
614.807	6.61453
618.182	7.16026
621.557	7.72853
624.932	7.52719
628.307	6.21182
631.681	4.82836
635.056	3.61067
638.431	2.95824
641.806	0.417288
645.181	0.703205
648.556	0.320206
651.93	0.275261
655.305	0.611008
658.68	0.773045
662.055	1.54061
665.43	2.27168
668.804	3.37589
672.179	3.7216
675.554	4.74876
678.929	3.71622
682.304	2.68917
685.678	2.90426
689.053	1.99571
692.428	1.63654
695.803	1.37582
699.178	1.38266
702.553	1.03354
705.927	1.01496
709.302	1.08945
712.677	2.25195
716.052	2.82614
719.427	3.40881
722.802	4.90729
726.176	5.14612
729.551	7.02478
732.926	6.54754
736.301	6.67584
739.676	4.96626
743.051	4.02157
746.425	3.13176
749.8	1.95798
753.175	1.72453
756.55	0.707346
759.925	0.324116
763.299	0.500835
766.674	0.201466
770.049	0.170792
773.424	0.463551
776.799	0.738514
780.173	0.402922
783.548	0.199774
786.923	0.080112
790.298	0.315598
793.673	0.299982
797.048	0.580076
800.422	0.387587
803.797	0.592926
807.172	0.076746
810.547	0.539873
813.922	0.828461
817.297	0.25993
820.671	0.378689
824.046	0.649019
827.421	0.701885
830.796	0.236115
834.171	0.520144
837.545	0.044388
840.92	0.986412
844.295	0.816156
847.67	0.581577
851.045	1.63346
854.42	1.92945
857.794	3.05553
861.169	4.33552
864.544	6.65261
867.919	9.45096
871.294	13.5931
874.668	16.7906
878.043	15.7131
881.418	9.14078
884.793	4.20563
888.168	1.50607
891.543	0.384764
894.917	0.02458
898.292	0.697462
901.667	3.03167
905.042	5.64091
908.417	8.02021
911.792	10.2127
915.166	12.0569
918.541	15.2913
921.916	17.7885
925.291	21.8486
928.666	28.1758
932.04	34.7438
935.415	44.3871
938.79	54.8966
942.165	61.539
945.54	65.6289
948.915	60.5056
952.289	51.2739
955.664	39.6024
959.039	29.3298
962.414	21.2388
965.789	14.655
969.163	11.3206
972.538	8.38293
975.913	6.56264
979.288	5.48717
982.663	3.65778
986.038	1.32835
989.412	1.04953
992.787	0.492416
996.162	0.040375
999.537	0.075043
1002.91	0.542225
1006.29	0.074123
1009.66	0.078909
1013.04	0.129181
1016.41	0.719692
1019.79	1.02412
1023.16	0.613678
1026.54	0.991634
1029.91	0.658587
1033.29	0.923552
1036.66	1.40562
1040.04	1.87374
1043.41	0.739824
1046.78	1.37124
1050.16	1.37707
1053.53	1.35563
1056.91	1.08164
1060.28	0.652531
1063.66	0.89636
1067.03	0.752789
1070.41	0.348589
1073.78	0.639305
1077.16	0.88324
1080.53	0.045042
1083.91	0.060253
1087.28	0.423742
1090.66	1.21414
1094.03	1.62947
1097.41	0.647234
1100.78	0.094843
1104.16	0.371666
1107.53	0.517576
1110.91	0.566401
1114.28	0.331089
1117.66	0.65992
1121.03	0.245066
1124.4	0.523296
1127.78	0.345434
1131.15	0.428448
1134.53	0.426687
1137.9	0.378418
1141.28	0.774885
1144.65	0.004171
1148.03	0.557486
1151.4	0.905329
1154.78	0.257191
1158.15	0.034016
1161.53	0.260994
1164.9	0.258579
1168.28	0.198406
1171.65	0.845699
1175.03	0.52297
1178.4	0.606365
1181.78	0.201242
1185.15	0.629604
1188.53	0.972248
1191.9	0.601728
1195.28	0.654367
1198.65	0.646692
1202.03	1.72147
1205.4	1.73853
1208.78	1.36753
1212.15	1.17014
1215.53	1.31851
1218.9	1.39857
1222.28	0.915822
1225.65	1.30709
1229.03	1.30697
1232.4	1.37297
1235.77	0.663652
1239.15	0.668097
1242.52	1.49298
1245.9	0.498085
1249.27	0.598248
1252.65	1.09131
1256.02	0.788682
1259.4	0.488262
1262.77	0.670064
1266.15	0.255101
1269.52	0.01445
1272.9	0.622471
1276.27	0.30608
1279.65	0.000862
1283.02	0.234067
1286.4	0.465816
1289.77	0.449712
1293.15	0.74836
1296.52	0.125338
1299.9	0.163612
