Measurement: Raman, 532 nm, unoriented, Raman Data Processed
Mineral: Lannonite
Rruff sample: R090036
Ideal chemistry: HCa_4_Mg_2_Al_4_(SO_4_)_8_F_9_32H_2_O
Locality: Lone Pine mine, Catron County, New Mexico, USA
Source: Bob Jenkins
Description: Transparent colorless thin square tabular crystals on matrix
Raman shift (cm-1)	intensity
170.183	0
173.075	5.64453
175.968	6.16699
178.861	7.6311
181.753	6.71191
184.646	12.6907
187.539	10.1719
190.431	1.79663
193.324	5.77173
196.217	2.24512
199.109	10.0373
202.002	5.76147
204.895	4.84863
207.788	3.30078
210.68	12.6599
213.573	14.467
216.466	6.09521
219.358	4.73853
222.251	5.26489
225.144	3.96826
228.036	4.22559
230.929	1.82007
233.822	4.8689
236.715	1.24097
239.607	2.05005
242.5	2.0249
245.393	2.3706
248.286	2.93286
251.178	4.04688
254.071	4.02173
256.964	5.64648
259.856	6.56079
262.749	7.32007
265.642	15.9468
268.534	22.9968
271.427	17.0969
274.32	19.6614
277.212	24.896
280.105	35.27
282.998	31.3567
285.891	37.3252
288.783	45.3208
291.676	39.8396
294.569	29.2036
297.461	17.6379
300.354	17.7324
303.247	18.7959
306.14	17.8259
309.032	16.9773
311.925	17.3994
314.818	23.2534
317.71	27.9168
320.603	23.1719
323.496	20.3823
326.389	19.3533
329.281	16.6291
332.174	22.7107
335.067	28.8523
337.959	17.0569
340.852	13.8364
343.745	8.27954
346.637	8.88989
349.53	4.43384
352.423	19.1038
355.315	9.0293
358.208	17.9785
361.101	18.2356
363.994	15.3979
366.886	6.69678
369.779	6.66357
372.672	2.67554
375.565	1.24853
378.457	2.0769
381.35	0.935547
384.243	6.52393
387.135	12.1106
390.028	11.7415
392.921	15.1326
395.813	3.8689
398.706	8.99146
401.599	5.16162
404.491	10.6355
407.384	9.26489
410.277	2.10791
413.17	1.91797
416.062	4.62598
418.955	16.4797
421.848	20.1941
424.74	29.491
427.633	34.1814
430.526	46.5181
433.418	55.282
436.311	74.8652
439.204	80.0186
442.097	95.2515
444.989	101.982
447.882	114.96
450.775	131.144
453.667	149.417
456.56	143.493
459.453	111.176
462.346	62.4358
465.238	43.8767
468.131	29.3677
471.024	36.574
473.916	22.093
476.809	23.2451
479.702	18.9487
482.594	16.3635
485.487	8.40381
488.38	6.49658
491.273	1.33228
494.165	3.25977
497.058	15.3101
499.951	3.39722
502.843	5.396
505.736	1.93774
508.629	6.44067
511.522	2.14771
514.414	3.31738
517.307	1.99097
520.2	0.672363
523.092	5.00317
525.985	3.60913
528.878	7.68799
531.77	0.134277
534.663	3.26392
537.556	5.37427
540.448	14.2915
543.341	13.8706
546.234	16.2593
549.127	14.7822
552.019	8.59961
554.912	13.8762
557.805	18.7402
560.697	19.0891
563.59	32.123
566.483	23.9734
569.376	22.2192
572.268	18.2664
575.161	11.1863
578.054	6.66919
580.946	9.50879
583.839	18.3677
586.732	20.9041
589.625	25.6277
592.517	17.1248
595.41	20.3931
598.303	10.8904
601.195	20.2856
604.088	24.1902
606.981	13.6992
609.874	11.0264
612.766	16.9097
615.659	14.6985
618.552	25.6941
621.444	27.3804
624.337	30.9463
627.23	36.3325
630.122	33.4956
633.015	26.8848
635.908	18.2544
638.801	25.667
641.693	30.9922
644.586	24.614
647.479	28.6956
650.371	20.4568
653.264	17.3901
656.157	13.9719
659.049	4.72998
661.942	4.48511
664.835	10.4158
667.727	8.2544
670.62	11.0798
673.513	3.90137
676.406	2.00757
679.298	4.21753
682.191	11.4607
685.084	0.167236
687.976	1.64453
690.869	7.5249
693.762	1.83252
696.654	7.33301
699.547	0.514893
702.44	4.29394
705.333	7.24829
708.225	8.65161
711.118	0.702393
714.011	5.56543
716.904	7.72803
719.796	1.6665
722.689	3.27319
725.582	2.48071
728.474	17.9758
731.367	8.66211
734.26	9.6521
737.152	2.60303
740.045	4.79712
742.938	4.23731
745.831	4.70215
748.723	4.41724
751.616	8.24414
754.509	8.89575
757.401	5.948
760.294	3.50806
763.187	4.17651
766.08	2.58545
768.972	11.1086
771.865	8.90259
774.758	15.3237
777.65	2.12524
780.543	2.52417
783.436	4.91382
786.328	3.87207
789.221	1.62598
792.114	5.49829
795.006	5.65479
797.899	3.4751
800.792	4.1333
803.685	3.27759
806.577	6.61255
809.47	9.54712
812.363	5.15064
815.255	10.5483
818.148	3.9624
821.041	4.75244
823.933	10.5154
826.826	8.77856
829.719	8.83545
832.612	12.8945
835.504	0.102051
838.397	3.95386
841.29	5.10742
844.182	8.59277
847.075	3.69751
849.968	2.86621
852.861	1.51221
855.753	1.55908
858.646	0.496338
861.539	2.20703
864.431	2.68555
867.324	3.8208
870.217	10.9661
873.11	13.6548
876.002	5.83789
878.895	1.90869
881.788	3.06079
884.68	2.22217
887.573	4.53809
890.466	1.93921
893.358	6.12109
896.251	4.92651
899.144	6.71143
902.037	4.94629
904.929	2.38306
907.822	5.42578
910.715	7.90723
913.607	11.9141
916.5	14.2219
919.393	7.17993
922.285	0.874512
925.178	0.519043
928.071	4.25391
930.964	7.01929
933.856	9.90723
936.749	1.1731
939.642	2.96558
942.534	7.58643
945.427	3.85815
948.32	0.592285
951.212	1.32324
954.105	3.2019
956.998	4.0083
959.891	8.55005
962.783	9.68994
965.676	18.1633
968.569	15.3389
971.461	10.1606
974.354	27.4861
977.247	47.6001
980.139	76.9124
983.032	120.504
985.925	176.961
988.818	271.033
991.71	413.453
994.603	583.635
997.496	559.698
1000.39	349.207
1003.28	279.044
1006.17	305.062
1009.07	446.953
1011.96	796.483
1014.85	967.915
1017.75	372.321
1020.64	107.14
1023.53	47.2986
1026.42	23.677
1029.32	23.8623
1032.21	18.3928
1035.1	18.4138
1037.99	5.21484
1040.89	0.746826
1043.78	0.485596
1046.67	5.79077
1049.56	11.7346
1052.46	6.92261
1055.35	0.885254
1058.24	6.67407
1061.13	3.26611
1064.03	5.40356
1066.92	3.69946
1069.81	1.67578
1072.71	4.25781
1075.6	11.1719
1078.49	10.9485
1081.38	10.3003
1084.28	12.8486
1087.17	11.0759
1090.06	11.9822
1092.95	18.76
1095.85	12.3062
1098.74	20.3157
1101.63	34.458
1104.53	35.6028
1107.42	32.6326
1110.31	39.5671
1113.2	51.0393
1116.1	56.9707
1118.99	65.27
1121.88	62.1692
1124.78	54.094
1127.67	54.8621
1130.56	43.0898
1133.45	45.032
1136.35	48.5862
1139.24	49.6953
1142.13	47.4641
1145.02	38.0364
1147.92	38.1008
1150.81	29.6758
1153.7	22.8462
1156.59	17.7222
1159.49	7.79028
1162.38	2.99634
1165.27	8.21973
1168.16	3.5415
1171.06	8.08789
1173.95	5.11133
1176.84	10.3023
1179.74	4.44287
1182.63	6.67554
1185.52	2.88647
1188.41	1.7605
1191.31	0.20752
1194.2	1.15576
1197.09	1.71314
1199.98	0.787354
1202.88	0.14209
1205.77	5.31909
1208.66	3.02832
1211.56	11.5102
1214.45	7.23511
1217.34	5.11401
1220.23	4.99634
1223.13	9.00171
1226.02	7.89453
1228.91	1.59888
1231.81	3.05713
1234.7	2.86206
1237.59	1.92031
1240.48	3.13574
1243.38	6.65283
1246.27	6.04761
1249.16	9.90308
1252.05	12.7869
1254.95	8.87378
1257.84	11.6204
1260.73	9.91235
1263.62	5.52881
1266.52	8.08472
1269.41	17.3694
1272.3	12.6965
1275.19	12.5662
1278.09	10.1873
1280.98	6.49707
1283.87	3.39404
1286.77	10.0532
1289.66	9.979
1292.55	1.21265
1295.44	2.25513
1298.34	6.23755
1301.23	0.976318
