Measurement: Raman, 780 nm, unoriented, Raman Data Processed
Mineral: Lannonite
Rruff sample: R090036
Ideal chemistry: HCa_4_Mg_2_Al_4_(SO_4_)_8_F_9_32H_2_O
Locality: Lone Pine mine, Catron County, New Mexico, USA
Source: Bob Jenkins
Description: Transparent colorless thin square tabular crystals on matrix
Raman shift (cm-1)	intensity
117.135	0
120.51	0.352066
123.885	3.81042
127.26	5.83887
130.635	9.38184
134.01	9.80972
137.384	15.8668
140.759	21.4053
144.134	18.6624
147.509	13.2926
150.884	10.4773
154.258	10.3946
157.633	9.01984
161.008	6.01247
164.383	4.91832
167.758	3.40521
171.132	1.38132
174.507	0.379585
177.882	0.210503
181.257	0.968254
184.632	0.962547
188.007	0.289322
191.381	2.51807
194.756	3.76635
198.131	3.66267
201.506	5.69675
204.881	6.87395
208.256	7.64577
211.63	7.64253
215.005	8.69225
218.38	8.61111
221.755	9.02503
225.13	7.15149
228.504	6.65902
231.879	6.84414
235.254	5.64628
238.629	4.74628
242.004	2.57382
245.378	3.59874
248.753	2.94613
252.128	1.99403
255.503	0.598068
258.878	0.403969
262.252	1.65066
265.627	0.276817
269.002	0.584885
272.377	1.99841
275.752	1.2851
279.127	2.66097
282.501	3.61697
285.876	3.97524
289.251	4.77445
292.626	4.62614
296.001	5.0098
299.375	4.09199
302.75	2.95579
306.125	1.72897
309.5	2.73693
312.875	4.46088
316.25	3.1583
319.624	4.48911
322.999	4.51625
326.374	2.4487
329.749	1.57426
333.124	1.10232
336.498	0.741325
339.873	0.361687
343.248	0.008469
346.623	0.195602
349.998	0.075989
353.373	0.74025
356.747	0.473686
360.122	1.68491
363.497	0.621185
366.872	1.44005
370.247	0.162132
373.621	0.579735
376.996	0.766396
380.371	0.083672
383.746	1.90721
387.121	2.14524
390.495	1.94922
393.87	2.71722
397.245	3.24934
400.62	2.35791
403.995	2.4127
407.37	2.10693
410.744	4.46685
414.119	4.92251
417.494	5.33887
420.869	8.91595
424.244	12.1057
427.618	13.9037
430.993	18.5869
434.368	22.4826
437.743	27.9597
441.118	30.56
444.493	32.2198
447.867	34.0938
451.242	36.5145
454.617	37.4348
457.992	33.4829
461.366	23.294
464.741	14.113
468.116	10.6422
471.491	8.33524
474.866	6.69951
478.241	5.49991
481.615	6.42346
484.99	5.09422
488.365	4.2476
491.74	2.15406
495.115	1.1297
498.49	0.213654
501.864	0.084
505.239	0.255096
508.614	0.316963
511.989	0.411507
515.364	0.425308
518.738	0.054474
522.113	0.673317
525.488	0.369576
528.863	0.037056
532.238	0.044609
535.612	0.793373
538.987	2.85135
542.362	2.04666
545.737	2.58994
549.112	4.78044
552.486	5.45509
555.861	8.60853
559.236	7.67181
562.611	8.65895
565.986	7.71901
569.361	6.54524
572.735	5.20664
576.11	4.17438
579.485	4.74001
582.86	6.81735
586.235	5.95725
589.61	6.44975
592.984	6.53448
596.359	6.42133
599.734	4.60203
603.109	5.22994
606.484	5.68402
609.858	6.23299
613.233	6.74852
616.608	6.43075
619.983	8.68276
623.358	10.2394
626.732	10.9122
630.107	12.184
633.482	11.3153
636.857	10.463
640.232	8.50318
643.606	7.00617
646.981	6.26951
650.356	4.98735
653.731	3.87187
657.106	3.26404
660.481	2.2598
663.855	1.97917
667.23	1.63165
670.605	0.988396
673.98	1.24815
677.355	0.180031
680.73	1.0248
684.104	0.079987
687.479	0.126854
690.854	0.101341
694.229	1.13271
697.604	0.374908
700.978	0.376495
704.353	0.125053
707.728	0.395233
711.103	0.784325
714.478	0.264374
717.852	0.933464
721.227	0.451942
724.602	0.12468
727.977	0.146118
731.352	0.452038
734.726	1.09409
738.101	1.33703
741.476	0.857746
744.851	0.760502
748.226	1.14344
751.601	0.74588
754.975	0.792107
758.35	0.338188
761.725	1.48478
765.1	1.56979
768.475	1.18542
771.85	1.48794
775.224	2.57577
778.599	0.823215
781.974	0.712093
785.349	0.432766
788.724	0.844612
792.098	0.57589
795.473	0.319489
798.848	0.570118
802.223	1.02996
805.598	1.8781
808.972	1.69555
812.347	0.655544
815.722	1.52507
819.097	1.73593
822.472	0.009529
825.846	0.774475
829.221	0.001205
832.596	1.03008
835.971	2.06998
839.346	1.75234
842.721	2.02497
846.095	1.56084
849.47	1.93034
852.845	2.76675
856.22	1.52309
859.595	1.31508
862.97	0.984432
866.344	0.929291
869.719	0.31004
873.094	1.26824
876.469	1.11759
879.843	1.26266
883.218	1.27129
886.593	1.40569
889.968	1.60642
893.343	1.16854
896.718	0.531498
900.092	1.19724
903.467	0.266628
906.842	1.13349
910.217	1.09021
913.592	1.28428
916.966	0.185539
920.341	1.42486
923.716	0.731934
927.091	0.682491
930.466	0.176186
933.841	0.551571
937.215	0.481007
940.59	1.22988
943.965	0.326698
947.34	0.867325
950.715	1.36652
954.09	0.884453
957.464	0.433289
960.839	1.85975
964.214	2.69117
967.589	3.39617
970.963	5.13241
974.338	8.45653
977.713	14.0869
981.088	25.8931
984.463	45.2701
987.838	64.566
991.212	89.1265
994.587	113.61
997.962	110.452
1001.34	81.0964
1004.71	81.5664
1008.09	100.354
1011.46	135.083
1014.84	180.354
1018.21	66.084
1021.59	17.9859
1024.96	8.72029
1028.34	4.60434
1031.71	3.69566
1035.09	1.56898
1038.46	1.66492
1041.84	1.19949
1045.21	1.07423
1048.58	0.526535
1051.96	0.4678
1055.33	0.10437
1058.71	0.355827
1062.08	0.204491
1065.46	1.12016
1068.83	1.21045
1072.21	0.911442
1075.58	1.67133
1078.96	0.63541
1082.33	1.99636
1085.71	1.95332
1089.08	3.02899
1092.46	2.62678
1095.83	3.02597
1099.21	5.16328
1102.58	5.94127
1105.96	8.31104
1109.33	10.582
1112.71	11.6721
1116.08	13.6341
1119.45	14.2285
1122.83	13.725
1126.2	12.5151
1129.58	10.4407
1132.95	10.1837
1136.33	9.92799
1139.7	9.40283
1143.08	7.83209
1146.45	7.44862
1149.83	6.06312
1153.2	4.88088
1156.58	4.12109
1159.95	2.75385
1163.33	1.47641
1166.7	0.016209
1170.08	0.764423
1173.45	0.275032
1176.83	0.957008
1180.2	0.277523
1183.58	0.388561
1186.95	0.038452
1190.33	0.842056
1193.7	0.459579
1197.08	0.25713
1200.45	0.957802
1203.83	0.979469
1207.2	0.980309
1210.58	0.911255
1213.95	0.129055
1217.33	0.181671
1220.7	0.546005
1224.08	1.28323
1227.45	1.22538
1230.82	1.11257
1234.2	0.706154
1237.57	0.58688
1240.95	0.754196
1244.32	1.55479
1247.7	1.69032
1251.07	1.23738
1254.45	0.387943
1257.82	0.589901
1261.2	1.2368
1264.57	1.33988
1267.95	1.72237
1271.32	1.05832
1274.7	1.67555
1278.07	1.42985
1281.45	0.297398
1284.82	0.775234
