Measurement: Raman, 532 nm, unoriented, Raman Data Processed
Mineral: Lanthanite-(Nd)
Rruff sample: R060993
Ideal chemistry: Nd_2_(CO_3_)_3_8H_2_O
Locality: Mitsukoshi, Hizen-cho, Karatsu City, Saga Prefecture, Japan
Source: Marcus Origlieri
Description: Pink platy crystals and cleavages on rock. This sample was used in the structural study by Morrison et al (2013)
Measured chemistry: (Nd_0.95_La_0.61_Pr_0.17_Sm_0.12_Gd_0.08_Y_0.04_Eu_0.03_)_Σ=2_(CO_3_)_3_·7.97H_2_O
Raman shift (cm-1)	intensity
83.4352	0
86.8101	17.7514
90.1849	36.0474
93.5597	56.6777
96.9345	103.585
100.309	82.9349
103.684	44.4296
107.059	0.961372
110.434	26.0192
113.809	17.3615
117.183	31.7979
120.558	121.762
123.933	233.243
127.308	384.26
130.683	488.507
134.058	538.788
137.432	581.867
140.807	702.254
144.182	850.648
147.557	1016.93
150.931	1159.36
154.306	1334.32
157.681	1515.4
161.056	1661.28
164.431	1650.88
167.806	1494.93
171.18	1271.03
174.555	1162.79
177.93	1040.67
181.305	964.309
184.68	912.378
188.054	936.783
191.429	1012.27
194.804	1062.31
198.179	999.688
201.554	830.613
204.929	659.756
208.303	515.84
211.678	446.199
215.053	424.051
218.428	485.234
221.803	457.078
225.178	487.871
228.552	473.349
231.927	433.932
235.302	374.933
238.677	317.402
242.052	271.857
245.426	200.462
248.801	149.491
252.176	100.738
255.551	74.7516
258.926	63.6576
262.3	56.9843
265.675	40.4844
269.05	28.7729
272.425	39.2255
275.8	27.7942
279.175	21.7609
282.549	3.69763
285.924	15.7833
289.299	26.3791
292.674	31.2891
296.049	16.6713
299.423	12.3505
302.798	1.35214
306.173	24.773
309.548	36.6081
312.923	33.7353
316.298	69.7724
319.672	79.4871
323.047	108.54
326.422	123.593
329.797	167.015
333.172	184.156
336.546	196.265
339.921	175.197
343.296	176.336
346.671	129.233
350.046	112.936
353.421	83.7126
356.795	72.14
360.17	63.2325
363.545	38.8297
366.92	26.0103
370.295	31.2447
373.669	24.4658
377.044	25.4131
380.419	12.4833
383.794	20.3461
387.169	17.9246
390.543	7.8298
393.918	23.5967
397.293	21.0119
400.668	20.6647
404.043	14.015
407.418	17.5352
410.792	27.1279
414.167	27.047
417.542	16.6658
420.917	24.0559
424.292	23.1307
427.666	4.59163
431.041	21.5342
434.416	26.1947
437.791	15.2898
441.166	12.9599
444.541	17.0642
447.915	19.9931
451.29	19.9303
454.665	8.89769
458.04	4.21899
461.415	8.91318
464.789	8.61862
468.164	3.9227
471.539	7.41513
474.914	13.7992
478.289	15.769
481.663	25.9348
485.038	6.01488
488.413	5.95094
491.788	16.2959
495.163	19.1817
498.538	8.40208
501.912	13.7719
505.287	18.264
508.662	14.9774
512.037	14.1887
515.412	5.07095
518.786	11.286
522.161	4.6913
525.536	2.95299
528.911	4.74159
532.286	11.3013
535.66	0.19429
539.035	0.277435
542.41	0.551437
545.785	5.20735
549.16	3.75117
552.534	8.00111
555.909	15.7622
559.284	7.34311
562.659	2.86021
566.034	9.62573
569.409	16.2212
572.783	11.7645
576.158	17.223
579.533	18.942
582.908	22.6564
586.283	23.8923
589.658	48.1491
593.032	35.5096
596.407	27.9176
599.782	39.133
603.157	43.4641
606.532	38.851
609.906	36.4235
613.281	37.9544
616.656	34.9632
620.031	31.5069
623.406	33.5588
626.78	8.31398
630.155	16.7016
633.53	8.36401
636.905	21.7475
640.28	2.8234
643.654	13.4517
647.029	0.289261
650.404	8.62978
653.779	4.15855
657.154	14.4587
660.529	1.59405
663.903	20.4156
667.278	13.4961
670.653	24.2515
674.028	27.1439
677.403	43.4459
680.778	76.757
684.152	131.527
687.527	51.4864
690.902	7.54105
694.277	1.82939
697.652	0.026291
701.026	11.6851
704.401	9.50261
707.776	13.1853
711.151	3.8644
714.526	37.8279
717.9	65.24
721.275	103.539
724.65	151.342
728.025	231.772
731.4	240.228
734.775	206.942
738.149	179.65
741.524	144.633
744.899	146.262
748.274	251.486
751.649	440.883
755.024	853.749
758.398	1618.78
761.773	2343.85
765.148	1655.96
768.523	540.464
771.898	198.312
775.272	92.0527
778.647	45.3657
782.022	37.7546
785.397	17.4682
788.772	17.8725
792.146	21.078
795.521	6.11085
798.896	1.90204
802.271	4.99451
805.646	6.62421
809.02	13.5935
812.395	3.17374
815.77	2.39061
819.145	5.59706
822.52	5.12665
825.895	5.70369
829.269	2.50401
832.644	3.31072
836.019	0.470734
839.394	8.43814
842.769	18.5256
846.144	21.4243
849.518	15.4588
852.893	21.9316
856.268	13.9163
859.643	13.9466
863.018	19.1595
866.392	21.1287
869.767	22.063
873.142	7.98869
876.517	23.5152
879.892	19.258
883.266	8.85008
886.641	19.7044
890.016	16.0336
893.391	24.5184
896.766	9.51887
900.14	12.9336
903.515	18.3708
906.89	28.9365
910.265	14.246
913.64	19.5449
917.015	12.5854
920.389	13.6197
923.764	22.3404
927.139	27.3186
930.514	17.9936
933.889	8.44421
937.264	18.6353
940.638	8.34729
944.013	6.71266
947.388	15.7906
950.763	6.05015
954.138	0.80526
957.512	3.51013
960.887	2.76035
964.262	0.641533
967.637	4.34081
971.012	9.19661
974.386	14.5952
977.761	9.58631
981.136	2.89289
984.511	5.11211
987.886	5.71909
991.261	7.03765
994.635	7.38426
998.01	11.3667
1001.38	7.67415
1004.76	0.547523
1008.13	3.08499
1011.51	4.21039
1014.88	1.02335
1018.26	7.66776
1021.63	2.57392
1025.01	10.5382
1028.38	0.78492
1031.76	21.7865
1035.13	2.56928
1038.51	12.9178
1041.88	18.2158
1045.26	14.57
1048.63	42.5061
1052.01	51.8195
1055.38	61.9938
1058.76	86.9016
1062.13	120.906
1065.51	184.129
1068.88	308.646
1072.26	640.908
1075.63	1286.13
1079.01	2365.81
1082.38	3320.68
1085.76	4727.14
1089.13	7568.04
1092.51	8817.01
1095.88	4314.94
1099.26	935.116
1102.63	289.378
1106	151.801
1109.38	92.9587
1112.75	66.6116
1116.13	23.7398
1119.5	29.5029
1122.88	26.476
1126.25	8.11163
1129.63	13.5373
1133	12.7469
1136.38	21.8622
1139.75	21.7629
1143.13	2.46597
1146.5	3.03278
1149.88	6.71404
1153.25	3.04448
1156.63	5.59735
1160	4.45174
1163.38	2.25558
1166.75	3.0082
1170.13	7.03391
1173.5	4.40051
1176.88	10.9352
1180.25	1.93201
1183.62	8.87866
1187	0.868675
1190.38	0.315216
1193.75	16.5759
1197.12	6.50411
1200.5	9.31146
1203.87	13.1534
1207.25	20.5272
1210.62	19.6466
1214	17.74
1217.37	15.2439
1220.75	6.96487
1224.12	20.1888
1227.5	1.63017
1230.87	8.6923
1234.25	9.89628
1237.62	9.96822
1241	0.24295
1244.37	15.3245
1247.75	10.4088
1251.12	18.117
1254.5	15.5591
1257.87	22.1794
1261.25	9.53324
1264.62	14.564
1267.99	12.3827
1271.37	5.76349
1274.74	6.70659
1278.12	6.92539
1281.49	8.44206
1284.87	13.9061
1288.24	13.1624
1291.62	17.6942
1294.99	2.77898
1298.37	10.2172
