Measurement: Raman, 532 nm, unoriented, Raman Data Processed
Mineral: Lanthanite-(Nd)
Rruff sample: R060470
Ideal chemistry: Nd_2_(CO_3_)_3_8H_2_O
Locality: Santa Isabel, Sao Paulo State, Brazil
Source: Michael Scott
Description: Purple platy aggregate
Raman shift (cm-1)	intensity
176.37	0
179.263	9.00446
182.155	10.1872
185.048	1.50305
187.941	2.08112
190.833	26.0483
193.726	46.9479
196.619	60.9036
199.512	59.7281
202.404	44.9379
205.297	17.3535
208.19	7.83984
211.082	7.19995
213.975	15.5785
216.868	32.3363
219.761	51.4754
222.653	67.902
225.546	83.7066
228.439	77.2703
231.331	75.1543
234.224	65.678
237.117	54.2897
240.009	47.6779
242.902	36.5984
245.795	25.9014
248.688	14.36
251.58	4.89325
254.473	5.80212
257.366	5.88596
260.258	10.1269
263.151	5.59146
266.044	14.3901
268.936	14.3035
271.829	11.454
274.722	9.86832
277.615	12.3236
280.507	5.90951
283.4	2.83551
286.293	4.82416
289.185	0.76413
292.078	0.90271
294.971	0.974274
297.863	3.18213
300.756	3.0054
303.649	5.2533
306.541	7.12067
309.434	15.0899
312.327	14.7065
315.22	18.8148
318.112	26.7798
321.005	29.2187
323.898	42.9981
326.791	39.9633
329.683	45.5143
332.576	48.8264
335.469	50.864
338.361	47.9793
341.254	45.1177
344.147	39.5539
347.039	32.6422
349.932	27.2805
352.825	22.5085
355.717	14.239
358.61	14.271
361.503	11.0978
364.396	10.0935
367.288	7.39432
370.181	0.611237
373.074	5.4743
375.966	2.75427
378.859	5.20618
381.752	2.19629
384.644	3.28339
387.537	5.58765
390.43	3.31409
393.323	4.07047
396.215	0.454712
399.108	4.47342
402.001	3.26941
404.894	3.34592
407.786	0.453461
410.679	2.21909
413.572	0.273651
416.464	0.554749
419.357	2.64877
422.25	2.3519
425.142	4.00418
428.035	5.2486
430.928	12.5194
433.82	8.67154
436.713	8.63629
439.606	12.0855
442.499	12.0572
445.391	9.50986
448.284	8.96054
451.177	9.32663
454.069	7.31363
456.962	10.7965
459.855	10.8701
462.748	11.37
465.64	13.0359
468.533	11.545
471.426	9.79553
474.318	8.18393
477.211	12.105
480.104	10.5012
482.996	9.87546
485.889	8.65952
488.782	10.8071
491.675	7.98172
494.567	12.6137
497.46	12.3729
500.353	6.25845
503.245	0.339355
506.138	4.96219
509.031	2.88861
511.923	7.09479
514.816	2.45901
517.709	3.16946
520.602	0.029907
523.494	4.99005
526.387	4.31693
529.28	5.24557
532.172	1.43265
535.065	0.248199
537.958	2.43121
540.851	0.769867
543.743	5.68063
546.636	1.46429
549.529	2.22043
552.421	1.02478
555.314	1.26318
558.207	2.04627
561.099	0.661591
563.992	1.20911
566.885	4.27829
569.778	7.12961
572.67	8.18295
575.563	10.4128
578.456	10.6211
581.348	7.76672
584.241	11.8703
587.134	14.4675
590.027	15.5075
592.919	9.66867
595.812	15.4532
598.705	10.3775
601.597	12.4587
604.49	10.0764
607.383	9.37753
610.275	11.6165
613.168	5.64825
616.061	7.64297
618.953	6.26239
621.846	8.94238
624.739	7.44049
627.632	8.88153
630.524	9.71298
633.417	11.0175
636.31	5.16193
639.202	6.2692
642.095	6.78696
644.988	5.1329
647.881	3.95151
650.773	0.681488
653.666	2.04031
656.559	2.10883
659.451	3.46249
662.344	3.57132
665.237	4.65259
668.13	9.45639
671.022	7.85654
673.915	7.405
676.808	11.9442
679.7	13.9413
682.593	21.4739
685.486	28.4836
688.378	9.49509
691.271	5.20416
694.164	2.75229
697.057	1.71341
699.949	3.28876
702.842	1.18448
705.735	2.75263
708.627	0.93161
711.52	9.61514
714.413	8.80731
717.305	14.0594
720.198	15.6574
723.091	26.9862
725.984	39.2667
728.876	53.4888
731.769	60.6457
734.662	59.2055
737.554	49.8243
740.447	40.9018
743.34	37.8463
746.232	43.9162
749.125	60.8993
752.018	104.177
754.91	168.004
757.803	284.36
760.696	427.017
763.589	452.378
766.481	233.137
769.374	85.5563
772.267	41.4027
775.159	20.6559
778.052	11.273
780.945	7.896
783.838	7.12775
786.73	5.96664
789.623	2.4126
792.516	1.16885
795.408	3.32489
798.301	2.68701
801.194	2.26181
804.087	3.66193
806.979	0.496552
809.872	2.17761
812.765	0.169708
815.657	2.00073
818.55	0.56958
821.443	2.21307
824.335	2.89526
827.228	2.01242
830.121	2.37247
833.014	0.111908
835.906	0.243134
838.799	0.09906
841.692	0.571899
844.584	4.06183
847.477	4.25763
850.37	1.53229
853.263	3.5957
856.155	6.06461
859.048	2.92136
861.941	8.2771
864.833	3.53946
867.726	3.95142
870.619	5.88532
873.511	2.55417
876.404	5.24896
879.297	4.88126
882.189	2.78311
885.082	3.33679
887.975	2.93704
890.868	6.62192
893.76	5.35529
896.653	5.40756
899.546	3.24014
902.438	3.36768
905.331	7.48254
908.224	2.03406
911.116	3.26193
914.009	3.93622
916.902	1.15262
919.795	4.23694
922.687	1.03986
925.58	5.72897
928.473	6.64111
931.365	1.9899
934.258	5.81845
937.151	7.72076
940.044	3.34509
942.936	1.4826
945.829	2.1738
948.722	5.32697
951.614	4.21265
954.507	2.89316
957.4	1.93124
960.293	2.70129
963.185	4.86728
966.078	3.34909
968.971	4.68506
971.863	0.288574
974.756	0.493622
977.649	5.39755
980.541	0.296295
983.434	2.15369
986.327	0.286255
989.22	0.554871
992.112	1.6994
995.005	1.54303
997.898	2.42117
1000.79	2.02182
1003.68	1.27435
1006.58	2.79651
1009.47	3.146
1012.36	1.42905
1015.25	0.309692
1018.15	5.59064
1021.04	4.57693
1023.93	1.9191
1026.83	1.58639
1029.72	4.12277
1032.61	3.54382
1035.5	4.94507
1038.4	2.29291
1041.29	7.81696
1044.18	9.21161
1047.07	8.47116
1049.97	6.78412
1052.86	7.50589
1055.75	13.3802
1058.64	17.3691
1061.54	22.4791
1064.43	36.0765
1067.32	55.9415
1070.21	99.5641
1073.11	169.537
1076	317.174
1078.89	571.769
1081.79	817.264
1084.68	1044.88
1087.57	1601.99
1090.46	2470.53
1093.36	2150.57
1096.25	834.518
1099.14	209.237
1102.04	71.0688
1104.93	36.8014
1107.82	21.3252
1110.71	14.7411
1113.61	10.6681
1116.5	9.32834
1119.39	5.99521
1122.28	1.20779
1125.18	4.78259
1128.07	2.88904
1130.96	0.49501
1133.86	1.27542
1136.75	0.420197
1139.64	1.67741
1142.53	2.23067
1145.43	1.07668
1148.32	1.92703
1151.21	1.63312
1154.1	1.20029
1157	1.72806
1159.89	5.67896
1162.78	4.64198
1165.67	3.04246
1168.57	6.2791
1171.46	9.10011
1174.35	4.50087
1177.24	11.1853
1180.14	9.95639
1183.03	11.2291
1185.92	9.08987
1188.82	10.9431
1191.71	11.7957
1194.6	13.881
1197.49	16.5805
1200.39	14.6391
1203.28	16.4719
1206.17	19.7672
1209.07	18.7398
1211.96	19.0543
1214.85	17.8107
1217.74	20.4727
1220.64	19.6279
1223.53	21.2842
1226.42	17.0585
1229.31	15.6132
1232.21	16.2884
1235.1	17.7833
1237.99	18.4535
1240.88	14.9451
1243.78	16.6419
1246.67	17.5439
1249.56	11.9869
1252.45	14.6089
1255.35	13.7683
1258.24	14.6216
1261.13	13.4577
1264.03	10.2943
1266.92	6.69298
1269.81	6.78442
1272.7	4.537
1275.6	4.63518
1278.49	3.00021
1281.38	0.242188
1284.28	0.419289
1287.17	0.931511
1290.06	1.52963
1292.95	5.28619
1295.85	1.70436
1298.74	3.63185
1301.63	0.888016
