Measurement: Raman, 532 nm, unoriented, Raman Data Processed
Mineral: Lanthanite-(Nd)
Rruff sample: R060467
Ideal chemistry: Nd_2_(CO_3_)_3_8H_2_O
Locality: Curitiba, Parana, Brazil
Source: Michael Scott
Description: Pink tabular crystals
Measured chemistry: (Nd_0.85_La_0.78_Pr_0.22_Sm_0.09_)_Σ=1.94_(CO_3_)_3.04_·8H_2_O
Raman shift (cm-1)	intensity
163.904	0
166.797	17.418
169.69	29.0408
172.582	87.9961
175.475	142.656
178.368	198.364
181.26	190.91
184.153	113.99
187.046	148.553
189.939	230.648
192.831	233.17
195.724	266.209
198.617	202.304
201.509	112.478
204.402	39.9609
207.295	1.51123
210.187	18.1815
213.08	0.651001
215.973	36.6859
218.865	117.18
221.758	163.299
224.651	232.253
227.544	229.798
230.436	193.236
233.329	147.871
236.222	147.954
239.114	88.3431
242.007	65.8618
244.9	37.8625
247.792	3.1322
250.685	25.5565
253.578	16.0326
256.471	7.34326
259.363	19.4872
262.256	31.8926
265.149	31.3281
268.041	34.8131
270.934	25.364
273.827	34.629
276.719	40.071
279.612	37.3613
282.505	36.9695
285.398	34.2264
288.29	23.9764
291.183	25.4099
294.076	9.33777
296.969	29.7854
299.861	24.6094
302.754	61.0078
305.647	62.5143
308.539	68.5581
311.432	75.5912
314.325	96.1816
317.217	114.542
320.11	95.5242
323.003	121.056
325.896	149.219
328.788	180.549
331.681	153.72
334.574	152.18
337.466	142.725
340.359	141.869
343.252	147.18
346.144	120.004
349.037	101.882
351.93	91.0162
354.822	73.8658
357.715	85.2742
360.608	38.0518
363.501	33.3113
366.393	13.1201
369.286	7.23865
372.179	0.762451
375.071	23.5314
377.964	46.5977
380.857	22.9252
383.75	23.0972
386.642	23.5853
389.535	19.6426
392.428	18.4217
395.32	17.8578
398.213	2.86914
401.106	2.05042
403.998	6.26856
406.891	0.571045
409.784	0.97583
412.676	8.80078
415.569	8.68127
418.462	11.9273
421.355	23.6273
424.247	6.72937
427.14	20.7837
430.033	28.2628
432.925	47.6533
435.818	6.81689
438.711	16.2296
441.603	11.1389
444.496	15.9363
447.389	57.6779
450.282	44.6481
453.174	27.2999
456.067	19.4957
458.96	16.0651
461.852	41.5454
464.745	49.5566
467.638	36.3179
470.531	7.01233
473.423	36.881
476.316	38.5523
479.209	35.1162
482.101	14.5928
484.994	38.0989
487.887	53.7936
490.779	29.2402
493.672	6.85583
496.565	35.38
499.458	29.4783
502.35	31.4122
505.243	8.16113
508.136	6.14648
511.028	22.4238
513.921	21.4123
516.814	1.25159
519.707	9.93066
522.599	27.3146
525.492	4.14563
528.385	7.89612
531.277	17.0664
534.17	17.9784
537.063	6.40015
539.955	33.0751
542.848	24.1854
545.741	5.56702
548.634	13.8438
551.526	31.8756
554.419	25.2124
557.312	13.8491
560.204	8.8595
563.097	16.5607
565.99	22.5376
568.882	16.0366
571.775	47.917
574.668	44.5381
577.561	12.3531
580.453	24.63
583.346	47.8768
586.239	22.9884
589.131	60.217
592.024	39.1511
594.917	44.5308
597.809	33.5765
600.702	24.1698
603.595	44.1182
606.487	36.1768
609.38	40.2272
612.273	53.5234
615.166	44.6804
618.058	44.9456
620.951	58.5395
623.844	22.8311
626.736	2.92102
629.629	1.15759
632.522	16.7792
635.415	33.4841
638.307	14.2793
641.2	19.3652
644.093	11.2958
646.985	22.1674
649.878	1.72546
652.771	14.4724
655.663	13.2116
658.556	2.09595
661.449	16.9868
664.342	18.5975
667.234	33.2244
670.127	24.1637
673.02	55.3458
675.912	67.6071
678.805	37.832
681.698	81.1252
684.591	89.7373
687.483	43.5045
690.376	20.8986
693.269	16.2543
696.161	12.0671
699.054	15.7295
701.947	11.0501
704.839	6.53223
707.732	14.5835
710.625	6.86182
713.518	33.5631
716.41	41.233
719.303	48.5778
722.196	96.1591
725.088	136.088
727.981	158.292
730.874	179.277
733.766	197.142
736.659	175.394
739.552	141.565
742.444	163.28
745.337	231.879
748.23	404.057
751.123	767.722
754.015	1205.88
756.908	1680.97
759.801	2135.37
762.693	2132.53
765.586	1307.67
768.479	505.665
771.371	236.103
774.264	96.8351
777.157	65.4069
780.05	42.3832
782.942	34.9077
785.835	31.0416
788.728	25.7832
791.62	4.11316
794.513	26.0006
797.406	33.0304
800.298	44.9424
803.191	4.40234
806.084	23.6796
808.977	1.70239
811.869	1.01721
814.762	6.12927
817.655	8.41418
820.547	27.0685
823.44	15.3171
826.333	9.45068
829.226	10.6029
832.118	7.14221
835.011	0.321411
837.904	15.2809
840.796	29.7548
843.689	6.40637
846.582	17.9557
849.474	57.5369
852.367	19.1144
855.26	9.94788
858.153	18.2192
861.045	8.79346
863.938	5.30005
866.831	29.4967
869.723	31.668
872.616	26.5708
875.509	60.3168
878.401	19.7058
881.294	8.56995
884.187	5.06213
887.08	3.61523
889.972	38.0284
892.865	22.3372
895.758	29.0892
898.65	36.1366
901.543	31.5524
904.436	36.2395
907.328	27.0041
910.221	20.1648
913.114	31.5638
916.007	30.1174
918.899	29.3972
921.792	6.4541
924.685	27.1227
927.577	14.5898
930.47	26.8701
933.363	11.4793
936.255	22.6322
939.148	35.3901
942.041	29.2612
944.934	18.8622
947.826	44.5295
950.719	44.1937
953.612	6.94287
956.504	13.9869
959.397	34.1416
962.29	46.1096
965.183	37.9242
968.075	5.67346
970.968	12.2654
973.861	12.1454
976.753	7.64514
979.646	27.1116
982.539	12.8107
985.431	5.45349
988.324	4.979
991.217	6.64624
994.11	8.27283
997.002	1.92029
999.895	0.949219
1002.79	10.9523
1005.68	21.9095
1008.57	36.8023
1011.47	12.8859
1014.36	13.4689
1017.25	26.499
1020.14	3.22754
1023.04	32.0029
1025.93	0.28125
1028.82	26.6597
1031.71	22.4321
1034.61	22.4915
1037.5	10.3803
1040.39	15.1227
1043.29	28.1665
1046.18	1.57422
1049.07	32.4688
1051.96	59.264
1054.86	51.1987
1057.75	75.75
1060.64	118.752
1063.53	157.523
1066.43	298.65
1069.32	559.408
1072.21	1051.52
1075.11	1824.87
1078	2746.22
1080.89	3836.36
1083.78	5183.7
1086.68	6952.88
1089.57	8371.58
1092.46	7651.77
1095.35	4208.45
1098.25	1320.44
1101.14	380.21
1104.03	175.607
1106.92	122.96
1109.82	95.5884
1112.71	29.2138
1115.6	75.0856
1118.5	12.2684
1121.39	23.6046
1124.28	21.599
1127.17	6.4165
1130.07	27.3084
1132.96	37.1617
1135.85	8.94324
1138.74	19.3545
1141.64	17.5023
1144.53	30.0609
1147.42	34.7008
1150.32	37.3464
1153.21	15.2399
1156.1	19.7808
1158.99	18.1783
1161.89	17.5859
1164.78	2.80896
1167.67	1.44678
1170.56	2.31311
1173.46	20.2515
1176.35	9.48523
1179.24	16.5692
1182.13	24.2301
1185.03	43.7727
1187.92	54.0514
1190.81	20.5824
1193.71	14.9089
1196.6	36.4344
1199.49	31.1939
1202.38	56.4404
1205.28	31.7323
1208.17	26.3355
1211.06	51.8743
1213.95	38.727
1216.85	55.0852
1219.74	41.3738
1222.63	58.5915
1225.53	52.2299
1228.42	42.6294
1231.31	42.6874
1234.2	44.1439
1237.1	50.8385
1239.99	41.1276
1242.88	35.0994
1245.78	61.261
1248.67	46.0614
1251.56	63.1089
1254.45	65.0118
1257.35	20.9044
1260.24	78.4385
1263.13	35.5555
1266.02	51.7899
1268.92	54.2208
1271.81	33.0617
1274.7	30.9305
1277.59	16.4131
1280.49	14.544
1283.38	30.976
1286.27	36.4172
1289.16	10.3931
1292.06	43.1589
1294.95	20.8458
1297.84	31.9828
1300.74	15.1484
1303.63	32.725
1306.52	0.927734
1309.41	10.7602
1312.31	16.5474
1315.2	39.6217
1318.09	0
