Measurement: Raman, 532 nm, unoriented, Raman Data Processed
Mineral: Larderellite
Rruff sample: R130392
Ideal chemistry: NH_4_B_5_O_7_(OH)_2_H_2_O
Locality: Larderello Lagoon, Tuscany, Italy
Source: Bob Jenkins (capsule), Rock Currier (rock piece)
Description: Soft, vitreous, opaque white botryoidal crust, in part altered on surface to off-white tiny granules of ammonioborite
Raman shift (cm-1)	intensity
191.57	0
194.463	0.064026
197.356	0.468033
200.249	1.06519
203.141	1.60686
206.034	2.44934
208.927	2.97479
211.819	1.67825
214.712	1.91748
217.605	3.17881
220.497	1.33305
223.39	3.14355
226.283	3.10476
229.175	2.64407
232.068	1.6319
234.961	0.327454
237.854	0.684967
240.746	0.745575
243.639	0.662247
246.532	0.178383
249.424	0.190475
252.317	0.594269
255.21	1.70253
258.103	1.7415
260.995	5.49811
263.888	10.5771
266.781	19.3169
269.673	29.0374
272.566	40.6597
275.459	58.7133
278.351	85.6519
281.244	114.927
284.137	111.959
287.029	74.9081
289.922	43.3192
292.815	28.9441
295.708	21.7956
298.6	20.8361
301.493	22.2197
304.386	25.1347
307.278	29.3615
310.171	34.097
313.064	35.0908
315.957	29.8461
318.849	21.2393
321.742	13.6539
324.635	7.78906
327.527	5.31335
330.42	3.35893
333.313	2.737
336.205	2.97086
339.098	2.22942
341.991	4.16373
344.884	7.34124
347.776	8.4045
350.669	9.06583
353.562	7.26405
356.454	4.7099
359.347	5.0588
362.24	5.16077
365.132	6.87225
368.025	9.7793
370.918	12.735
373.81	17.8574
376.703	18.7485
379.596	13.1081
382.489	8.55737
385.381	5.41747
388.274	3.97944
391.167	2.70654
394.059	0.86927
396.952	0.750866
399.845	0.185043
402.738	0.574577
405.63	0.467567
408.523	1.15894
411.416	0.216125
414.308	0.065388
417.201	0.070526
420.094	0.555908
422.986	0.275558
425.879	1.27074
428.772	0.877174
431.664	0.070126
434.557	1.13538
437.45	1.44986
440.343	2.17465
443.235	2.52996
446.128	3.79309
449.021	4.73219
451.913	6.2577
454.806	7.75862
457.699	11.3755
460.591	12.1166
463.484	12.5973
466.377	12.0644
469.27	14.5347
472.162	14.3491
475.055	10.2115
477.948	9.67481
480.84	12.6253
483.733	17.6987
486.626	26.0851
489.519	37.274
492.411	54.0461
495.304	76.5241
498.197	82.5426
501.089	49.2298
503.982	22.618
506.875	11.8708
509.767	6.6639
512.66	4.21638
515.553	3.46753
518.446	2.08271
521.338	1.02751
524.231	2.39289
527.124	2.79495
530.016	2.03098
532.909	0.150734
535.802	0.671406
538.694	0.134129
541.587	0.217106
544.48	0.511971
547.372	0.974586
550.265	0.198208
553.158	0.725868
556.051	1.01985
558.943	0.958664
561.836	1.25967
564.729	1.25515
567.621	1.24062
570.514	0.765923
573.407	0.781513
576.299	0.111992
579.192	0.30843
582.085	0.141666
584.977	0.174171
587.87	0.143124
590.763	0.186653
593.656	0.613091
596.548	0.63538
599.441	0.686344
602.334	0.210289
605.226	0.798237
608.119	0.859356
611.012	1.02249
613.904	2.38471
616.797	3.24017
619.69	5.50025
622.583	6.12712
625.475	5.29646
628.368	2.39365
631.261	1.92864
634.153	1.96932
637.046	1.62993
639.939	1.88291
642.832	2.19607
645.724	2.19319
648.617	2.75173
651.51	1.58076
654.402	1.13545
657.295	0.698357
660.188	0.982025
663.08	1.0324
665.973	0.525902
668.866	0.038689
671.759	0.05862
674.651	0.025093
677.544	0.420887
680.437	0.085651
683.329	0.155285
686.222	0.501064
689.115	0.676369
692.007	0.145664
694.9	0.506527
697.793	0.660347
700.686	0.056469
703.578	0.189552
706.471	1.42201
709.364	1.64632
712.256	3.75999
715.149	4.35273
718.042	6.65975
720.934	8.45184
723.827	9.90597
726.72	10.5476
729.612	11.2827
732.505	10.9254
735.398	10.4009
738.291	8.86243
741.183	6.76813
744.076	5.52362
746.969	5.97443
749.861	6.66749
752.754	7.00311
755.647	9.47293
758.54	10.7799
761.432	12.2163
764.325	16.9536
767.218	25.749
770.11	38.3455
773.003	60.5945
775.896	94.0161
778.788	110.516
781.681	64.2673
784.574	33.9541
787.467	18.2684
790.359	10.2278
793.252	5.96336
796.145	4.48498
799.037	2.55773
801.93	1.71359
804.823	0.397873
807.716	0.181278
810.608	1.01011
813.501	0.41972
816.394	0.234844
819.286	0.125507
822.179	0.07156
825.072	0.316315
827.964	0.082481
830.857	0.151596
833.75	0.500927
836.643	0.085232
839.535	0.753365
842.428	0.35841
845.321	0.536934
848.213	0.485424
851.106	0.531349
853.999	0.031841
856.891	0.350529
859.784	0.133163
862.677	0.099239
865.569	0.444695
868.462	0.991398
871.355	1.93954
874.248	3.35871
877.14	4.50053
880.033	4.56025
882.926	2.71155
885.818	1.72259
888.711	0.437027
891.604	0.949505
894.496	0.548824
897.389	0.827187
900.282	1.0767
903.175	1.51193
906.067	2.00618
908.96	2.94782
911.853	4.75322
914.745	6.03097
917.638	9.9603
920.531	15.6695
923.423	24.1486
926.316	36.0903
929.209	54.0281
932.102	72.1458
934.994	72.9791
937.887	68.4868
940.78	68.209
943.672	69.2842
946.565	55.2888
949.458	31.4393
952.351	17.7076
955.243	10.5054
958.136	6.19342
961.029	3.26817
963.921	2.14977
966.814	1.01136
969.707	0.704243
972.599	0.934971
975.492	0.230385
978.385	0.418327
981.278	0.165936
984.17	1.0331
987.063	0.790771
989.956	1.9688
992.848	1.48535
995.741	1.04181
998.634	0.906769
1001.53	0.605991
1004.42	0.922562
1007.31	0.373299
1010.2	0.677876
1013.1	0.370686
1015.99	0.602001
1018.88	1.33705
1021.77	0.449852
1024.67	0.284306
1027.56	0.59343
1030.45	0.139885
1033.35	1.0614
1036.24	0.175388
1039.13	0.272076
1042.02	0.229351
1044.92	0.174778
1047.81	0.050125
1050.7	0.664639
1053.6	0.538921
1056.49	1.64179
1059.38	2.30683
1062.27	3.09724
1065.17	2.05689
1068.06	2.40174
1070.95	1.69726
1073.84	2.67219
1076.74	2.66307
1079.63	2.57524
1082.52	2.97633
1085.41	3.9663
1088.31	3.76291
1091.2	3.42781
1094.09	2.43319
1096.98	1.41851
1099.88	1.13892
1102.77	1.80801
1105.66	1.01396
1108.56	0.922108
1111.45	1.65752
1114.34	0.463039
1117.23	0.659492
1120.13	0.79353
1123.02	0.583992
1125.91	0.902821
1128.81	0.746784
1131.7	1.203
1134.59	1.26551
1137.48	0.674717
1140.38	0.322254
1143.27	0.879692
1146.16	0.345417
1149.05	0.184017
1151.95	0.189297
1154.84	0.052296
1157.73	0.329659
1160.62	0.495369
1163.52	0.105373
1166.41	0.670052
1169.3	0.013088
1172.2	0.378109
1175.09	0.70628
1177.98	0.647442
1180.87	0.598553
1183.77	0.937374
1186.66	0.346329
1189.55	0.790474
1192.44	0.900837
1195.34	1.58319
1198.23	1.66898
1201.12	2.59227
1204.02	3.00847
1206.91	2.93626
1209.8	2.19951
1212.69	1.53962
1215.59	1.33281
1218.48	0.618496
1221.37	0.807438
1224.26	0.767254
1227.16	1.03235
1230.05	0.821793
1232.94	0.011745
1235.84	0.929855
1238.73	0.415699
1241.62	0.963474
1244.51	0.578979
1247.41	1.1156
1250.3	0.972977
1253.19	1.17017
1256.08	1.85918
1258.98	2.14307
1261.87	1.3584
1264.76	1.54886
1267.65	1.32053
1270.55	0.868526
1273.44	0.898506
1276.33	0.428883
1279.23	0.731224
1282.12	1.17437
1285.01	0.303013
1287.9	1.22196
1290.8	0.364441
1293.69	0.065559
1296.58	0.377403
1299.47	0.587109
1302.37	0
