Measurement: Raman, 785 nm, unoriented, Raman Data Processed
Mineral: Larisaite
Rruff sample: R060879
Ideal chemistry: Na(H_3_O)(UO_2_)_3_(Se^4+^O_3_)_2_O_2_4H_2_O
Locality: Repete mine, San Juan County, Utah, USA
Source: Michael Scott
Description: Flattened aggregate of greenish yellow platy crystals
Raman shift (cm-1)	intensity
203.005	0
205.898	377.031
208.791	10.6094
211.683	694.406
214.576	1379.02
217.469	2448.5
220.361	2000.62
223.254	1397.28
226.147	540.531
229.04	136.875
231.932	1001.52
234.825	1556.06
237.718	2426.59
240.61	2182.42
243.503	2459.25
246.396	2148.53
249.288	2876.95
252.181	3943.72
255.074	5245.11
257.966	6338.83
260.859	7257.73
263.752	7498.75
266.645	7769.09
269.537	6903.17
272.43	6893.45
275.323	7409.72
278.215	8068.19
281.108	8532.05
284.001	7767.03
286.894	6419.19
289.786	3633.58
292.679	1414.31
295.572	173.484
298.464	447.422
301.357	1387.72
304.25	2585.19
307.142	2404.84
310.035	2038.47
312.928	179.047
315.82	508.953
318.713	588.219
321.606	372.25
324.499	2237.09
327.391	4463.62
330.284	4775.31
333.177	4175.08
336.069	2448.11
338.962	1076.91
341.855	760
344.748	1923.3
347.64	3096.66
350.533	5533.67
353.426	7031.19
356.318	8004.47
359.211	8395.59
362.104	7856.8
364.996	6756.86
367.889	5053.83
370.782	3899.34
373.675	3488.89
376.567	2023.62
379.46	1240.47
382.353	107.703
385.245	656.531
388.138	296.625
391.031	2627.23
393.923	5422.84
396.816	8276.69
399.709	10622.9
402.601	13023.1
405.494	16479.1
408.387	21378.2
411.28	28919.8
414.172	38218.4
417.065	46274.8
419.958	49195.8
422.85	47344.4
425.743	41239.9
428.636	33747.3
431.529	28028.2
434.421	23705.9
437.314	20577.3
440.207	17545.8
443.099	14780.6
445.992	12742.1
448.885	9700.41
451.777	7577.83
454.67	6211.95
457.563	6025.72
460.455	7440.31
463.348	9458.22
466.241	10618.1
469.134	11704.9
472.026	11268.7
474.919	9363.81
477.812	6961.67
480.704	4894.2
483.597	3544.75
486.49	2726.42
489.382	2516.52
492.275	2248.16
495.168	1129.11
498.061	41.2656
500.953	406.484
503.846	684.25
506.739	450.469
509.631	182.781
512.524	292.109
515.417	456.203
518.309	251.984
521.202	594.609
524.095	400.125
526.988	868.938
529.88	152.25
532.773	349
535.666	845.516
538.558	1301.97
541.451	1145.25
544.344	934.734
547.236	1078.09
550.129	828.531
553.022	1480.3
555.915	2198.14
558.807	2808.62
561.7	2834.31
564.593	2852.08
567.485	2599.55
570.378	2233.47
573.271	2275.27
576.163	2333.58
579.056	3225.06
581.949	3406.86
584.842	3452.91
587.734	2794.17
590.627	2320.91
593.52	1770.81
596.413	1741.3
599.305	1637.83
602.198	1043.59
605.091	732.812
607.983	880.391
610.876	1282.41
613.769	617.312
616.661	764.516
619.554	397.797
622.447	744.016
625.34	448.531
628.232	953.172
631.125	475.469
634.018	944.484
636.91	771.453
639.803	873.938
642.696	602.188
645.588	407.531
648.481	200.844
651.374	103.766
654.266	828.953
657.159	793.906
660.052	989.219
662.945	427.672
665.837	91.1875
668.73	74.2344
671.623	304.172
674.515	424.922
677.408	468.625
680.301	501.156
683.193	152.75
686.086	89.3594
688.979	4.73438
691.872	337.344
694.764	407.203
697.657	1235.97
700.55	1515.52
703.442	1641.8
706.335	1482.84
709.228	2636.61
712.12	3604.64
715.013	5265.91
717.906	6567.27
720.799	8020.61
723.691	8994.41
726.584	9006.75
729.477	10357.4
732.369	10404.8
735.262	12047.8
738.155	12621.8
741.048	12717.4
743.94	11747.8
746.833	9893.56
749.726	7539.89
752.618	5399.89
755.511	3396.84
758.404	1437.27
761.296	442.547
764.189	69.7344
767.082	460.141
769.975	262.609
772.867	315.734
775.76	280.109
778.653	763.797
781.545	2633.27
784.438	6649.81
787.331	12146.3
790.223	20411.1
793.116	31805.5
796.009	47261.3
798.902	66123.2
801.794	83487
804.687	93666.6
807.58	94665.1
810.472	86011.7
813.365	70976.5
816.258	53558.7
819.15	39510.7
822.043	28726.9
824.936	21772.6
827.828	16985.6
830.721	12804.8
833.614	9022.28
836.507	6569.34
839.399	4021.3
842.292	2635.89
845.185	2659.86
848.077	3491.22
850.97	4110.69
853.863	5564.05
856.755	6456.06
859.648	7611.75
862.541	8463.77
865.434	7718.92
868.326	6684.17
871.219	4960.12
874.112	3674.66
877.004	2498.67
879.897	1769.36
882.79	1160.3
885.683	251.188
888.575	199.078
891.468	62.7344
894.361	210.703
897.253	274.547
900.146	556.016
903.039	37.9062
905.931	277.875
908.824	496.562
911.717	519.188
914.61	659.984
917.502	508.984
920.395	311.422
923.288	450.297
926.18	541.516
929.073	651.078
931.966	1472.3
934.859	1401.91
937.751	882.688
940.644	646.281
943.537	592.25
946.429	657.141
949.322	1153.72
952.215	1180.94
955.107	1267.38
958	1004.98
960.893	1242.8
963.785	880.922
966.678	972.062
969.571	402.312
972.464	799.391
975.356	503.391
978.249	852.781
981.142	732.188
984.034	663.266
986.927	685.578
989.82	360.094
992.712	86.9844
995.605	224.047
998.498	356.297
1001.39	1039.72
1004.28	582.391
1007.18	403.391
1010.07	53.125
1012.96	262.953
1015.85	366.625
1018.75	250.469
1021.64	234.859
1024.53	60.2969
1027.42	7.51562
1030.32	287.938
1033.21	225.75
1036.1	462.906
1039	222.656
1041.89	189.656
1044.78	116.75
1047.67	477.734
1050.57	91.7812
1053.46	186.047
1056.35	643.484
1059.24	952.25
1062.14	668.922
1065.03	632.953
1067.92	188.203
1070.82	380.094
1073.71	159.469
1076.6	162.359
1079.49	365.828
1082.39	14.2656
1085.28	57.5
1088.17	184.031
1091.06	16.2031
1093.96	984.281
1096.85	880.781
1099.74	1317.42
1102.63	897.469
1105.53	612.969
1108.42	910.562
1111.31	1226.55
1114.21	1791.36
1117.1	1750.16
1119.99	1365.36
1122.88	1679.19
1125.78	1711.34
1128.67	1463.72
1131.56	1129.77
1134.45	633.469
1137.35	796.859
1140.24	901.422
1143.13	470.172
1146.03	283.828
1148.92	141.672
1151.81	197.031
1154.7	69.25
1157.6	47.0781
1160.49	107.312
1163.38	199.719
1166.28	72.1094
1169.17	180.656
1172.06	674.609
1174.95	765.18
1177.85	1107.48
1180.74	1003.28
1183.63	1763.16
1186.52	2205.26
1189.42	2846.34
1192.31	3182.41
1195.2	2972.76
1198.09	3372.8
1200.99	3158.34
1203.88	2725.45
1206.77	2369.98
1209.66	2018.38
1212.56	2022.21
1215.45	2059.77
1218.34	2336.4
1221.24	2088.1
1224.13	2158.47
1227.02	1734.44
1229.91	1310.74
1232.81	975.852
1235.7	736.117
1238.59	329.688
1241.48	355.57
1244.38	212.773
1247.27	61.8906
1250.16	18.9062
1253.06	88.2812
1255.95	174.367
1258.84	856.164
1261.73	516.055
1264.63	557.047
1267.52	115.68
1270.41	135.18
