Measurement: Raman, 785 nm, unoriented, Raman Data Processed
Mineral: Larnite
Rruff sample: R070530
Ideal chemistry: -Ca_2_SiO_4_
Locality: Larne, County Antrim, Northern Ireland, UK
Source: Michael Scott
Description: Light gray massive
Raman shift (cm-1)	intensity
162.772	0
165.665	38.7532
168.558	106.58
171.45	128.589
174.343	180.516
177.236	132.477
180.128	142.088
183.021	144.155
185.914	148.781
188.806	160.968
191.699	162.113
194.592	118.517
197.484	204.95
200.377	204.234
203.27	140.105
206.163	128.237
209.055	77.7719
211.948	39.0795
214.841	79.7914
217.733	4.74707
220.626	32.97
223.519	69.1357
226.411	24.2467
229.304	1.83545
232.197	14.0363
235.089	19.3846
237.982	10.1525
240.875	7.09485
243.768	9.11731
246.66	38.7162
249.553	49.6702
252.446	44.2281
255.338	55.2172
258.231	25.0879
261.124	81.2036
264.017	5.56433
266.909	163.757
269.802	117.349
272.695	258.218
275.587	265.064
278.48	246.946
281.373	327.848
284.265	355.147
287.158	343.785
290.051	321.22
292.943	386.764
295.836	412.457
298.729	490.003
301.622	556.812
304.514	481.381
307.407	568.649
310.3	662.889
313.192	689.354
316.085	690.623
318.978	726.087
321.87	717.964
324.763	740.552
327.656	620.769
330.549	634.11
333.441	561.526
336.334	518.067
339.227	492.324
342.119	429.511
345.012	383.459
347.905	442.831
350.798	301.798
353.69	263.113
356.583	198.345
359.476	139.507
362.368	157.604
365.261	73.1244
368.154	69.7999
371.046	95.8018
373.939	107.316
376.832	30.436
379.724	14.3699
382.617	72.1234
385.51	28.394
388.403	56.5964
391.295	41.4476
394.188	6.61731
397.081	14.391
399.973	68.6598
402.866	36.0649
405.759	21.2628
408.651	20.818
411.544	42.7399
414.437	37.3655
417.33	71.9426
420.222	120.909
423.115	151.736
426.008	139.444
428.9	195.526
431.793	230.245
434.686	301.359
437.579	367.709
440.471	439.552
443.364	453.836
446.257	543.961
449.149	385.959
452.042	390.96
454.935	313.851
457.827	215.764
460.72	176.859
463.613	203.008
466.505	125.816
469.398	121.609
472.291	122.702
475.184	129.236
478.076	168.684
480.969	166.326
483.862	202.315
486.754	153.329
489.647	168.536
492.54	172.972
495.433	162.555
498.325	101.508
501.218	62.0966
504.111	138.543
507.003	65.8722
509.896	115.383
512.789	66.2438
515.681	118.088
518.574	144.916
521.467	84.0345
524.36	160.216
527.252	136.038
530.145	183.36
533.038	86.1205
535.93	103.239
538.823	162.188
541.716	58.0263
544.608	106.097
547.501	58.1716
550.394	6.1134
553.286	55.4159
556.179	39.8682
559.072	12.5165
561.965	7.83325
564.857	56.8869
567.75	15.5049
570.643	16.6282
573.535	57.0732
576.428	20.674
579.321	12.2425
582.213	21.1141
585.106	32.109
587.999	43.4622
590.891	8.67004
593.784	73.1226
596.677	55.7976
599.57	6.24469
602.462	54.1913
605.355	122.014
608.248	150.129
611.14	69.4897
614.033	119.772
616.926	163.695
619.818	186.248
622.711	164.228
625.604	305.703
628.497	397.932
631.389	361.015
634.282	492.856
637.175	671.067
640.067	856.129
642.96	978.615
645.853	1350.27
648.745	1518.4
651.638	1963.35
654.531	2318.06
657.424	2614.68
660.316	2855.71
663.209	3103.24
666.102	3220.25
668.994	3150.95
671.887	2947.86
674.78	2653.94
677.673	2357.09
680.565	1999.81
683.458	1637.12
686.351	1387.58
689.243	1095.9
692.136	918.72
695.029	747.506
697.921	584.361
700.814	625.381
703.707	426.559
706.6	274.168
709.492	316.993
712.385	294.587
715.278	261.974
718.17	246.565
721.063	241.863
723.956	140.144
726.848	104.217
729.741	185.226
732.634	103.378
735.527	61.0901
738.419	66.4874
741.312	6.56473
744.205	39.1371
747.097	36.0062
749.99	70.9677
752.883	61.385
755.775	1.6467
758.668	10.4516
761.561	3.13895
764.453	23.4094
767.346	0.985092
770.239	14.209
773.132	30.896
776.024	35.7603
778.917	16.0841
781.81	37.6034
784.702	17.1876
787.595	22.1392
790.488	46.7643
793.38	109.87
796.273	25.9493
799.166	52.6611
802.059	44.9343
804.951	67.9579
807.844	59.2087
810.737	91.304
813.629	89.49
816.522	146.029
819.415	189.028
822.308	98.8546
825.2	178.265
828.093	129.906
830.986	143.598
833.878	157.633
836.771	161.888
839.664	196.112
842.556	207.262
845.449	164.321
848.342	186.179
851.235	169.31
854.127	227.244
857.02	211.557
859.913	125.965
862.805	168.236
865.698	104.824
868.591	111.454
871.483	68.9977
874.376	77.8847
877.269	113.232
880.162	85.1345
883.054	142.338
885.947	100.793
888.84	91.4128
891.732	28.5313
894.625	66.3781
897.518	15.0292
900.41	0.997406
903.303	25.7062
906.196	38.5736
909.088	24.289
911.981	26.2458
914.874	82.6136
917.767	19.2925
920.659	17.3253
923.552	14.1871
926.445	93.4258
929.337	5.67453
932.23	88.8048
935.123	3.25983
938.015	65.1102
940.908	2.88699
943.801	80.5894
946.693	144.858
949.586	109.927
952.479	68.1493
955.372	186.464
958.264	186.754
961.157	284.549
964.05	178.086
966.942	251.655
969.835	294.667
972.728	226.514
975.62	241.136
978.513	284.767
981.406	307.668
984.299	396.197
987.191	486.015
990.084	472.224
992.977	553.777
995.869	644.962
998.762	609.345
1001.65	689.416
1004.55	688.098
1007.44	758.472
1010.33	636.655
1013.23	644.485
1016.12	657.296
1019.01	636.768
1021.9	638.295
1024.8	656.327
1027.69	623.271
1030.58	564.213
1033.47	441.969
1036.37	432.522
1039.26	353.87
1042.15	333.749
1045.05	318.845
1047.94	245.492
1050.83	226.902
1053.72	108.075
1056.62	102.574
1059.51	93.1757
1062.4	135.302
1065.29	188.694
1068.19	192.743
1071.08	159.393
1073.97	181.357
1076.87	196.636
1079.76	201.776
1082.65	154.874
1085.54	150.015
1088.44	105.704
1091.33	84.2671
1094.22	17.4406
1097.11	9.55581
1100.01	18.1151
1102.9	12.8564
1105.79	11.5663
1108.68	41.0205
1111.58	12.5744
1114.47	18.7664
1117.36	0.435749
1120.26	19.7889
1123.15	12.4578
1126.04	10.11
1128.93	42.657
1131.83	95.3102
1134.72	59.2143
1137.61	63.9223
1140.5	74.6641
1143.4	34.3488
1146.29	74.852
1149.18	104.378
1152.08	42.0061
1154.97	50.5122
1157.86	77.6958
1160.75	192.003
1163.65	131.041
1166.54	95.3315
1169.43	86.4328
1172.32	103.815
1175.22	128.27
1178.11	155.046
1181	151.189
1183.89	123.287
1186.79	44.0689
1189.68	40.2253
1192.57	57.9055
1195.47	87.8824
1198.36	42.831
1201.25	120.377
1204.14	76.8722
1207.04	150.825
1209.93	80.7229
1212.82	19.6976
1215.71	50.4626
1218.61	71.6302
1221.5	21.9947
1224.39	76.8245
1227.29	19.9623
1230.18	8.19656
1233.07	6.68231
1235.96	1.42886
