Measurement: Raman, 532 nm, unoriented, Raman Data Processed
Mineral: Larnite
Rruff sample: R070530
Ideal chemistry: -Ca_2_SiO_4_
Locality: Larne, County Antrim, Northern Ireland, UK
Source: Michael Scott
Description: Light gray massive
Raman shift (cm-1)	intensity
145.843	0
149.217	195.833
152.592	449.918
155.967	514.381
159.342	477.07
162.717	558.348
166.091	515.207
169.466	593.294
172.841	643.118
176.216	479.199
179.591	538.43
182.966	383.517
186.34	386.719
189.715	437.414
193.09	369.781
196.465	348.05
199.84	331.636
203.214	181.915
206.589	192.338
209.964	114.806
213.339	99.29
216.714	43.9941
220.089	10.4053
223.463	18.0752
226.838	22.1729
230.213	19.4858
233.588	22.7607
236.963	23.8105
240.338	42.8218
243.712	15.2544
247.087	34.8989
250.462	13.2427
253.837	40.8457
257.212	80.79
260.586	106.125
263.961	217.124
267.336	175.008
270.711	242.064
274.086	428.831
277.461	415.317
280.835	538.887
284.21	599.283
287.585	697.22
290.96	791.669
294.335	878.418
297.709	981.658
301.084	1129.53
304.459	1258.39
307.834	1326.12
311.209	1450.93
314.584	1494.01
317.958	1535.06
321.333	1523.35
324.708	1587.89
328.083	1333.89
331.458	1338.9
334.832	1256.56
338.207	1084.05
341.582	790.027
344.957	835.065
348.332	732.065
351.707	527.698
355.081	484.204
358.456	388.736
361.831	253.11
365.206	314.294
368.581	235.805
371.955	118.121
375.33	70.71
378.705	26.6221
382.08	1.81055
385.455	5.08545
388.829	94.4663
392.204	6.81885
395.579	59.978
398.954	72.0884
402.329	175.546
405.704	180.235
409.078	75.4106
412.453	176.027
415.828	141.083
419.203	246.382
422.578	378.926
425.952	509.611
429.327	685.31
432.702	988.938
436.077	1145.78
439.452	1371.15
442.827	1465.81
446.201	1482.83
449.576	1261.57
452.951	1004.52
456.326	791.727
459.701	603.063
463.075	556.76
466.45	409.502
469.825	411.458
473.2	450.768
476.575	526.642
479.95	478.796
483.324	496.508
486.699	547.101
490.074	478.392
493.449	442.944
496.824	423.422
500.199	316.179
503.573	373.121
506.948	295.917
510.323	323.099
513.698	388.091
517.073	429.555
520.447	457.205
523.822	514.79
527.197	447.4
530.572	473.868
533.947	379.096
537.322	373.502
540.696	248.739
544.071	262.655
547.446	156.286
550.821	16.4524
554.196	29.1392
557.57	11.5908
560.945	67.5164
564.32	12.72
567.695	40.0056
571.07	76.6975
574.444	51.2085
577.819	7.44263
581.194	67.1682
584.569	46.8977
587.944	1.36231
591.319	149.155
594.693	150.769
598.068	359.658
601.443	429.95
604.818	598.606
608.193	667.859
611.568	724.512
614.942	902.544
618.317	1036.93
621.692	1178.39
625.067	1393.18
628.442	1687.13
631.817	2143.36
635.191	2676.4
638.566	3469.82
641.941	4647.22
645.316	5944.75
648.691	7641.68
652.065	9347.49
655.44	11252.8
658.815	12932.3
662.19	14053.8
665.565	14390.7
668.939	13970
672.314	12775.3
675.689	11013.5
679.064	9182.98
682.439	7391.57
685.813	5613.19
689.188	4387.27
692.563	3310.43
695.938	2584.12
699.313	1926.09
702.688	1493.5
706.062	1112.21
709.437	832.327
712.812	619.223
716.187	552.133
719.562	310.743
722.937	183.201
726.311	94.4102
729.686	58.3218
733.061	4.85938
736.436	68.1797
739.811	58.1704
743.186	7.15186
746.56	13.3521
749.935	12.124
753.31	71.791
756.685	44.5598
760.06	39.1841
763.434	86.7334
766.809	28.9387
770.184	12.5459
773.559	85.415
776.934	75.478
780.308	59.4463
783.683	105.684
787.058	186.801
790.433	130.837
793.808	208.495
797.183	156.008
800.557	169.36
803.932	302.535
807.307	307.627
810.682	376.953
814.057	357.854
817.432	402.831
820.806	469.459
824.181	445.372
827.556	517.716
830.931	539.939
834.306	591.218
837.68	805.879
841.055	734.192
844.43	769.831
847.805	858.699
851.18	786.835
854.554	792.269
857.929	768.923
861.304	718.496
864.679	668.969
868.054	626.407
871.428	524.559
874.803	542.123
878.178	476.431
881.553	336.72
884.928	345.4
888.303	149.064
891.678	196.085
895.052	40.6602
898.427	58.3823
901.802	19.4287
905.177	24.2124
908.552	54.9761
911.926	11.6797
915.301	49.0703
918.676	24.8911
922.051	117.482
925.426	82.1357
928.801	105.378
932.175	51.438
935.55	112.103
938.925	194.68
942.3	443.643
945.675	700.918
949.049	767.704
952.424	1000
955.799	1072.75
959.174	1152.76
962.549	1288.85
965.923	1261.89
969.298	1335.73
972.673	1443.53
976.048	1676.84
979.423	1815.28
982.798	2021.7
986.172	2373.08
989.547	2719.68
992.922	3099.28
996.297	3464.81
999.672	3758.72
1003.05	3906.31
1006.42	4091.59
1009.8	4025.26
1013.17	4108.63
1016.55	4094.68
1019.92	3983.19
1023.29	3767.56
1026.67	3492.81
1030.05	3187.58
1033.42	2890.52
1036.8	2450.07
1040.17	2105.01
1043.54	1781.92
1046.92	1425.51
1050.29	1241.75
1053.67	958.042
1057.04	888.68
1060.42	778.424
1063.79	774.681
1067.17	944.905
1070.54	1028.35
1073.92	1149.68
1077.29	1039.62
1080.67	962.713
1084.04	811.301
1087.42	883.806
1090.79	941.105
1094.17	356.987
1097.54	42.0557
1100.92	13.3018
1104.29	107.864
1107.67	77.8945
1111.04	6.26269
1114.42	51.2993
1117.79	52.6401
1121.16	86.1103
1124.54	44.6416
1127.91	90.1299
1131.29	74.4956
1134.66	222.162
1138.04	142.267
1141.41	290.709
1144.79	301.084
1148.16	259.262
1151.54	351.99
1154.91	503.051
1158.29	346.466
1161.66	411.875
1165.04	329.45
1168.41	330.682
1171.79	329.79
1175.16	305.285
1178.54	269.175
1181.91	241.888
1185.29	247.411
1188.66	225.827
1192.04	257.806
1195.41	178.6
1198.79	175.861
1202.16	198.161
1205.54	208.638
1208.91	197.65
1212.29	77.5498
1215.66	173.628
1219.04	160
1222.41	137.894
1225.78	144.121
1229.16	107.097
1232.53	75.8979
1235.91	84.2974
1239.28	139.773
1242.66	183.984
1246.03	99.3564
1249.41	117.891
1252.78	200.918
1256.16	69.561
1259.53	61.563
1262.91	59.3071
1266.28	87.7529
1269.66	56.9258
1273.03	54.1328
1276.41	66.1489
1279.78	143.542
1283.16	97.6548
1286.53	117.036
1289.91	60.9951
1293.28	74.3691
1296.66	42.689
1300.03	130.133
1303.4	51.208
1306.78	0
