Measurement: Raman, 532 nm, unoriented, Raman Data Processed
Mineral: Lasalite
Rruff sample: R070476
Ideal chemistry: Na_2_Mg_2_(V_10_O_28_)20H_2_O
Locality: Vanadium Queen mine, Paradox Valley, San Juan County, Utah, USA
Source: Dakota Matrix Minerals
Description: Orange massive
Raman shift (cm-1)	intensity
138.584	0
141.477	1094
144.37	2778.76
147.263	2571.43
150.155	1081.12
153.048	588.079
155.941	1124.26
158.833	1964.78
161.726	2897.81
164.619	4153.77
167.512	6011.77
170.404	9175.45
173.297	11322.3
176.19	11356
179.082	9085.35
181.975	6361.93
184.868	4482.74
187.761	3046.21
190.653	1692.3
193.546	533.02
196.439	223.479
199.331	555.992
202.224	434.511
205.117	8.89209
208.009	832.416
210.902	1563.84
213.795	1877.11
216.688	1630.41
219.58	1478.15
222.473	1113.87
225.366	1246.88
228.258	1642.15
231.151	2359.17
234.044	3187.05
236.936	4261.64
239.829	5441.94
242.722	6644.52
245.614	7672.46
248.507	8232.88
251.4	8164.31
254.293	6905.41
257.185	5490.64
260.078	4588.08
262.971	4126.7
265.863	3879.12
268.756	3461.86
271.649	2876.47
274.541	2218.19
277.434	1602.06
280.327	1103.12
283.22	657.194
286.112	480.009
289.005	387.081
291.898	421.559
294.79	680.937
297.683	1231.06
300.576	1870.85
303.469	3079.22
306.361	4518.2
309.254	6022.06
312.147	7449.7
315.039	8492.4
317.932	8957.69
320.825	9084.01
323.717	8687.57
326.61	7428.19
329.503	5922.2
332.396	4366.16
335.288	3210.99
338.181	2375.68
341.074	1690.07
343.966	1193.23
346.859	795.988
349.752	634.528
352.644	467.857
355.537	389.405
358.43	325.624
361.322	329.518
364.215	286.669
367.108	129.502
370.001	389.288
372.893	4.21997
375.786	48.3699
378.679	90.459
381.572	113.833
384.464	147.522
387.357	66.5073
390.25	65.7246
393.142	21.2141
396.035	63.4929
398.928	134.872
401.82	235.856
404.713	374.282
407.606	443.338
410.498	608.58
413.391	622.765
416.284	765.275
419.177	807.798
422.069	843.332
424.962	995.016
427.855	1176.7
430.747	1381.29
433.64	1687.73
436.533	2134.14
439.425	2552.57
442.318	2920.83
445.211	3322.27
448.104	3443.95
450.996	3470.88
453.889	3275.55
456.782	2918.48
459.674	2486.36
462.567	2079.08
465.46	1742.77
468.353	1492.17
471.245	1214.51
474.138	959.446
477.031	668.907
479.923	479.559
482.816	305.643
485.709	222.741
488.601	67.0034
491.494	13.3472
494.387	83.6172
497.279	130.92
500.172	96.1807
503.065	82.4248
505.958	40.6826
508.85	121.46
511.743	263.866
514.636	387.132
517.528	644.062
520.421	880.483
523.314	1092.79
526.207	1307.11
529.099	1516.14
531.992	1645.51
534.885	1670.36
537.777	1624.47
540.67	1574.89
543.563	1430.58
546.455	1361.5
549.348	1182.99
552.241	1061.45
555.134	1077.87
558.026	1077.34
560.919	1196.62
563.812	1409.87
566.704	1793.6
569.597	2196.71
572.49	2763.23
575.382	3319.87
578.275	3884.6
581.168	4351.55
584.061	4752.54
586.953	4991.42
589.846	5065.3
592.739	5029.97
595.631	4846.42
598.524	4386.4
601.417	3978.86
604.309	3541.43
607.202	2977.19
610.095	2491.79
612.987	2045.86
615.88	1634.3
618.773	1338.54
621.666	1132.69
624.558	878.393
627.451	689.996
630.344	592.299
633.236	467.295
636.129	354.22
639.022	296.793
641.915	264.461
644.807	261.864
647.7	224.476
650.593	183.288
653.485	141.63
656.378	149.014
659.271	148.409
662.163	113.957
665.056	49.7998
667.949	88.8867
670.842	74.6514
673.734	30.1211
676.627	31.5737
679.52	7.7959
682.412	7.68359
685.305	35.5298
688.198	26.3755
691.091	65.1125
693.983	51.6853
696.876	65.844
699.769	64.0618
702.661	0.69751
705.554	6.34546
708.447	46.6899
711.339	7.62964
714.232	14.6755
717.125	56.9121
720.018	126.293
722.91	150.733
725.803	182.597
728.696	223.995
731.588	285.85
734.481	291.511
737.374	318.9
740.266	353.333
743.159	378.101
746.052	392.851
748.944	392.702
751.837	467.219
754.73	446.288
757.623	458.939
760.515	429.526
763.408	405.764
766.301	405.905
769.193	346.591
772.086	303.058
774.979	262.722
777.871	240.63
780.764	234.989
783.657	284.444
786.55	241.065
789.442	302.745
792.335	330.509
795.228	350.199
798.12	463.661
801.013	592.144
803.906	733.255
806.798	978.302
809.691	1235.64
812.584	1479
815.477	1786.2
818.369	2130.48
821.262	2592.83
824.155	3167.28
827.047	3835.05
829.94	4482.77
832.833	4983.73
835.726	5096.48
838.618	4720.79
841.511	3938.74
844.404	3039.52
847.296	2218.25
850.189	1626.93
853.082	1107.81
855.975	772.232
858.867	565.051
861.76	352.53
864.653	246.227
867.545	171.55
870.438	91.2593
873.331	47.4697
876.223	64.6714
879.116	8.23462
882.009	9.42212
884.902	26.27
887.794	16.5784
890.687	40.0508
893.58	54.7004
896.472	31.2014
899.365	20.6575
902.258	19.0098
905.15	52.6914
908.043	77.249
910.936	121.551
913.828	152.916
916.721	193.245
919.614	285.558
922.507	354.088
925.399	344.743
928.292	480.371
931.185	555.795
934.077	706.001
936.97	1012.52
939.863	1559.91
942.755	2345.84
945.648	3200.92
948.541	4111.1
951.434	4514.77
954.326	4486.03
957.219	4575.41
960.112	4559.56
963.004	4924.83
965.897	6144.7
968.79	7712.76
971.683	7836.99
974.575	5703.27
977.468	3968.82
980.361	3989.9
983.253	6206.08
986.146	10932.6
989.039	16224
991.931	20269.5
994.824	17820.2
997.717	9844.65
1000.61	4433.1
1003.5	2173.14
1006.39	1244.99
1009.29	807.821
1012.18	594.63
1015.07	393.363
1017.97	278.607
1020.86	166.907
1023.75	102.464
1026.64	67.2391
1029.54	59.3032
1032.43	41.0458
1035.32	6.92944
1038.21	11.1411
1041.11	24.3204
1044	20.665
1046.89	27.8213
1049.79	18.8933
1052.68	12.3346
1055.57	13.9222
1058.46	10.6221
1061.36	42.3472
1064.25	15.8037
1067.14	54.6757
1070.03	51.3835
1072.93	24.3633
1075.82	67.4988
1078.71	52.3182
1081.61	57.5018
1084.5	78.6941
1087.39	78.0834
1090.28	88.1528
1093.18	47.1958
1096.07	91.411
1098.96	72.9565
1101.85	68.6058
1104.75	53.5889
1107.64	69.5089
1110.53	57.1725
1113.42	60.227
1116.32	40.919
1119.21	44.5652
1122.1	3.36231
1125	18.677
1127.89	16.8422
1130.78	29.0663
1133.67	23.1197
1136.57	30.6513
1139.46	28.4364
1142.35	19.415
1145.24	39.4044
1148.14	23.8252
1151.03	34.9723
1153.92	42.0005
1156.82	34.5726
1159.71	38.3418
1162.6	46.52
1165.49	46.9373
1168.39	38.4248
1171.28	29.454
1174.17	17.2714
1177.06	32.0693
1179.96	57.7076
1182.85	36.9545
1185.74	42.59
1188.63	42.2692
1191.53	13.5854
1194.42	37.6293
1197.31	41.0702
1200.21	22.0076
1203.1	43.213
1205.99	24.2681
1208.88	28.5395
1211.78	17.1411
1214.67	13.2584
1217.56	24.8529
1220.45	42.5443
1223.35	27.2605
1226.24	35.3127
1229.13	31.9098
1232.03	27.1188
1234.92	38.594
1237.81	38.0609
1240.7	11.25
1243.6	11.9745
1246.49	0.575562
1249.38	15.8927
1252.28	5.23523
1255.17	1.11011
1258.06	9.59827
1260.95	24.2411
1263.85	22.1151
1266.74	3.8999
1269.63	27.0289
1272.52	50.7915
1275.42	4.37
1278.31	10.9498
1281.2	40.0569
1284.09	8.18518
1286.99	23.1113
1289.88	23.7764
1292.77	0
