Measurement: Raman, 785 nm, unoriented, Raman Data Processed
Mineral: Lasalite
Rruff sample: R070476
Ideal chemistry: Na_2_Mg_2_(V_10_O_28_)20H_2_O
Locality: Vanadium Queen mine, Paradox Valley, San Juan County, Utah, USA
Source: Dakota Matrix Minerals
Description: Orange massive
Raman shift (cm-1)	intensity
140.202	0
143.095	2330.51
145.988	5577.31
148.881	3731.09
151.773	696.914
154.666	102.126
157.559	1657.02
160.451	4944.71
163.344	8259.28
166.237	11562.1
169.13	15811.7
172.022	20730.2
174.915	23693.1
177.808	20897.8
180.7	14243.8
183.593	8712.31
186.486	5190.6
189.378	3033.46
192.271	1448.37
195.164	269.397
198.056	245.797
200.949	268.781
203.842	596.32
206.735	2092.08
209.627	4105.5
212.52	5332.82
215.413	4552.09
218.305	3251.49
221.198	1460.96
224.091	321.347
226.983	272.281
229.876	867.44
232.769	1780.8
235.662	3269.45
238.554	4550.91
241.447	5634.5
244.34	6539.1
247.232	7335.37
250.125	7816.09
253.018	7116.91
255.911	5615.31
258.803	4616.26
261.696	4093.72
264.589	3528.16
267.481	3006.13
270.374	2450.76
273.267	1998.34
276.159	1432.23
279.052	780.437
281.945	288.676
284.837	6.30518
287.73	184.669
290.623	181.767
293.516	23.7573
296.408	342.486
299.301	759.28
302.194	1416.91
305.086	2294.55
307.979	3374.69
310.872	4580.68
313.764	5575.12
316.657	6221.31
319.55	6558.33
322.442	6636.28
325.335	6123.41
328.228	5238.28
331.121	4163.7
334.013	3121.33
336.906	2425.19
339.799	1771.11
342.691	1258.1
345.584	837.996
348.477	525.536
351.37	305.86
354.262	210.737
357.155	199.141
360.048	192.499
362.94	225.833
365.833	239.966
368.726	198.765
371.618	139.601
374.511	57.7712
377.404	11.9446
380.296	0.336182
383.189	25.8723
386.082	29.5234
388.975	23.3025
391.867	27.2122
394.76	73.2429
397.653	93.6448
400.545	126.741
403.438	179.777
406.331	326.131
409.224	332.778
412.116	395.51
415.009	502.276
417.902	482.412
420.794	522.612
423.687	579.271
426.58	676.165
429.472	785.356
432.365	923.704
435.258	1077.66
438.151	1240.62
441.043	1405.94
443.936	1555.37
446.829	1781.39
449.721	1872.16
452.614	1873.13
455.507	1720.71
458.399	1523.04
461.292	1273.02
464.185	1069.97
467.077	892.374
469.97	698.719
472.863	577.07
475.756	444.215
478.648	333.38
481.541	244.011
484.434	145.367
487.326	99.0066
490.219	45.3235
493.112	29.1538
496.005	71.4895
498.897	6.0332
501.79	15.8931
504.683	15.0325
507.575	43.2529
510.468	5.22754
513.361	4.5415
516.253	58.3506
519.146	35.5042
522.039	11.8979
524.932	23.5022
527.824	119.832
530.717	191.017
533.61	257.341
536.502	497.223
539.395	402.111
542.288	494.995
545.18	597.574
548.073	671.418
550.966	756.396
553.858	822.207
556.751	917.481
559.644	1082
562.537	1120.54
565.429	1320.93
568.322	1558.92
571.215	1795.33
574.107	2138.48
577	2480.73
579.893	2889.64
582.785	3133.26
585.678	3478.6
588.571	3585.86
591.463	3655.41
594.356	3535.66
597.249	3292.67
600.142	3107.92
603.034	2794.54
605.927	2458.84
608.82	2034.75
611.712	1810.36
614.605	1509.05
617.498	1230.2
620.39	1054.65
623.283	856.66
626.176	680.179
629.069	525.201
631.961	408.079
634.854	319.559
637.747	248.062
640.639	177.57
643.532	93.7647
646.425	87.5532
649.317	41.989
652.21	28.928
655.103	0.746826
657.995	16.4609
660.888	5.31287
663.781	18.47
666.674	15.8109
669.566	22.7693
672.459	12.8253
675.352	1.12878
678.244	7.24646
681.137	2.8606
684.03	2.06555
686.923	11.5242
689.815	0.057739
692.708	7.83655
695.601	13.8507
698.493	31.462
701.386	14.8063
704.279	18.6747
707.171	0.960327
710.064	0.529419
712.957	14.5175
715.85	12.5579
718.742	6.78528
721.635	4.77014
724.528	4.02039
727.42	17.8473
730.313	29.7728
733.206	28.6555
736.098	11.2296
738.991	24.5371
741.884	40.156
744.777	60.3538
747.669	70.536
750.562	43.5698
753.455	53.6852
756.347	47.7712
759.24	68.7903
762.133	41.5552
765.025	51.5798
767.918	22.3908
770.811	42.1403
773.703	32.6867
776.596	47.1246
779.489	58.6043
782.382	71.0243
785.274	83.681
788.167	100.847
791.06	137.897
793.952	199.905
796.845	226.199
799.738	293.802
802.63	374.708
805.523	487.735
808.416	590.202
811.309	697.766
814.201	802.408
817.094	989.225
819.987	1151.41
822.879	1450.9
825.772	1729.65
828.665	2098.03
831.558	2533.46
834.45	2751.93
837.343	2756.5
840.236	2437.43
843.128	1948.95
846.021	1457.09
848.914	1064.09
851.806	704.879
854.699	519.549
857.592	357.16
860.484	254.648
863.377	186.827
866.27	112.838
869.163	59.9823
872.055	40.083
874.948	21.8794
877.841	13.1561
880.733	14.9249
883.626	3.51019
886.519	23.9974
889.411	19.4467
892.304	29.1387
895.197	13.5767
898.09	6.98712
900.982	1.18976
903.875	21.0201
906.768	22.1494
909.66	55.3263
912.553	88.0541
915.446	165.739
918.338	168.017
921.231	210.896
924.124	289.078
927.016	324.462
929.909	395.737
932.802	501.625
935.695	644.511
938.587	942.621
941.48	1444.87
944.373	2090.2
947.265	2830.89
950.158	3636.09
953.051	3613.71
955.943	3673.1
958.836	3676.02
961.729	3231.34
964.622	3568.39
967.514	5026.65
970.407	7023.99
973.3	6557.67
976.192	4198.24
979.085	2963.49
981.978	3266.15
984.87	5217.66
987.763	8946.43
990.656	14637.1
993.549	19095.3
996.441	13295.8
999.334	6167.99
1002.23	2757.62
1005.12	1581.84
1008.01	1052.17
1010.9	663.005
1013.8	402.28
1016.69	225.065
1019.58	139.767
1022.48	75.494
1025.37	54.6645
1028.26	23.4239
1031.15	0.791382
1034.05	12.8633
1036.94	20.4603
1039.83	4.73853
1042.72	9.7854
1045.62	3.1842
1048.51	2.19013
1051.4	4.45154
1054.3	2.04804
1057.19	9.68225
1060.08	0.902954
1062.97	6.47614
1065.87	1.67246
1068.76	17.2286
1071.65	8.09534
1074.54	14.2184
1077.44	20.5991
1080.33	19.7438
1083.22	19.8675
1086.12	28.0503
1089.01	41.0154
1091.9	26.7257
1094.79	45.2049
1097.69	51.8414
1100.58	19.9075
1103.47	46.0984
1106.36	47.6577
1109.26	32.6193
1112.15	43.6249
1115.04	46.3565
1117.93	23.2784
1120.83	32.8431
1123.72	33.419
1126.61	45.7501
1129.51	44.4626
1132.4	42.9487
1135.29	27.5749
1138.18	57.2559
1141.08	34.7815
1143.97	30.7361
1146.86	41.154
1149.75	18.6696
1152.65	38.2956
1155.54	15.8875
1158.43	15.3023
1161.33	9.42694
1164.22	24.8292
1167.11	13.6335
1170	11.6415
1172.9	24.9126
1175.79	25.2185
1178.68	25.7985
1181.57	23.5876
1184.47	20.2963
1187.36	1.98306
1190.25	2.22626
1193.14	17.4259
1196.04	22.4069
1198.93	31.3227
1201.82	20.9502
1204.72	26.2209
1207.61	15.0012
1210.5	16.4849
1213.39	3.90546
1216.29	11.2233
1219.18	21.986
1222.07	23.7527
1224.96	6.31317
1227.86	6.22629
1230.75	1.58267
1233.64	12.8273
1236.54	14.4185
1239.43	14.2841
1242.32	5.99567
1245.21	12.0879
1248.11	28.1732
1251	8.06671
1253.89	3.2923
1256.78	9.33676
1259.68	6.68848
1262.57	18.8578
