Measurement: Raman, 532 nm, unoriented, Raman Data Processed
Mineral: Laueite
Rruff sample: R060013
Ideal chemistry: Mn^2+^Fe^3+^_2_(PO_4_)_2_(OH)_2_8H_2_O
Locality: Hagendorf, Germany
Source: University of Arizona Mineral Museum
Description: Orange prismatic crystals associated with what appears to be accicular ferristrunzite
Measured chemistry: (Mn^2+^_0.54_Fe^2+^_0.35_Mg_0.11_)_Σ=1_Fe^3+^_2.00_(P_1.00_O_4_)_2_(OH)_2_·8H_2_O
Raman shift (cm-1)	intensity
131.494	0
134.868	2.26737
138.243	2.66758
141.618	0.113205
144.993	0.079521
148.368	4.68356
151.742	6.8716
155.117	14.8975
158.492	18.3517
161.867	26.0114
165.242	25.289
168.616	22.6791
171.991	25.3385
175.366	24.8721
178.741	20.8364
182.116	23.7682
185.49	28.1751
188.865	27.5119
192.24	23.3303
195.615	22.2034
198.99	22.6582
202.365	25.1537
205.739	18.9064
209.114	8.40202
212.489	1.84781
215.864	1.49408
219.239	1.5112
222.613	4.21462
225.988	6.75151
229.363	8.40592
232.738	11.2011
236.113	12.9992
239.488	23.6745
242.862	37.918
246.237	57.4526
249.612	74.5342
252.987	88.3257
256.362	109.534
259.736	124.825
263.111	106.672
266.486	67.8378
269.861	39.6182
273.236	28.3779
276.611	16.5741
279.985	7.67046
283.36	2.84783
286.735	1.55318
290.11	2.00596
293.485	2.47267
296.859	7.00295
300.234	9.0177
303.609	7.77171
306.984	6.24643
310.359	5.72368
313.733	7.19391
317.108	9.15252
320.483	14.7874
323.858	19.6415
327.233	30.8505
330.608	40.9196
333.982	47.6251
337.357	57.6789
340.732	57.5543
344.107	51.0521
347.482	44.9023
350.856	35.8224
354.231	30.1819
357.606	23.5027
360.981	18.8748
364.356	18.0114
367.731	16.494
371.105	14.5984
374.48	9.48701
377.855	5.74262
381.23	2.0542
384.605	0.270088
387.979	0.699951
391.354	0.245369
394.729	1.29713
398.104	4.7859
401.479	8.51865
404.853	9.74139
408.228	5.70281
411.603	4.20987
414.978	0.89473
418.353	1.00062
421.728	0.406319
425.102	0.142059
428.477	2.09688
431.852	4.08507
435.227	1.34076
438.602	4.61985
441.976	8.64492
445.351	10.2379
448.726	13.8204
452.101	20.209
455.476	27.8096
458.851	36.7519
462.225	46.5301
465.6	52.8223
468.975	52.891
472.35	43.2051
475.725	30.0909
479.099	19.8818
482.474	10.625
485.849	6.41447
489.224	4.23012
492.599	0.832458
495.974	2.27286
499.348	4.8867
502.723	7.55239
506.098	11.8156
509.473	18.2932
512.848	23.8449
516.222	30.9404
519.597	35.3042
522.972	34.3553
526.347	32.2087
529.722	25.3843
533.097	17.7594
536.471	14.0659
539.846	11.3256
543.221	13.3823
546.596	14.5612
549.971	14.0114
553.346	16.1543
556.72	15.2377
560.095	12.8819
563.47	11.3154
566.845	8.9519
570.22	7.98022
573.594	9.1085
576.969	8.25413
580.344	9.18012
583.719	7.97676
587.094	7.4258
590.468	6.06869
593.843	2.40196
597.218	0.544472
600.593	0.364784
603.968	1.02515
607.342	1.15587
610.717	0.775757
614.092	1.10912
617.467	1.82056
620.842	0.602676
624.217	2.2041
627.591	3.88976
630.966	2.45092
634.341	2.76682
637.716	2.26987
641.091	3.48597
644.466	2.392
647.84	2.36279
651.215	4.24853
654.59	1.93024
657.965	1.12914
661.34	1.27839
664.714	1.12847
668.089	1.59686
671.464	0.758583
674.839	0.069031
678.214	1.95708
681.588	1.21857
684.963	0.065559
688.338	0.855515
691.713	1.57989
695.088	1.55503
698.462	0.647095
701.837	1.70957
705.212	2.29425
708.587	1.37665
711.962	0.717506
715.337	1.16748
718.711	2.22764
722.086	0.82666
725.461	1.94703
728.836	2.02057
732.211	2.85705
735.586	2.53522
738.96	1.85193
742.335	2.72504
745.71	1.08487
749.085	0.817276
752.46	0.971291
755.834	1.58635
759.209	0.512604
762.584	1.11333
765.959	1.55733
769.334	0.78199
772.708	0.326668
776.083	0.263771
779.458	0.693626
782.833	1.54803
786.208	1.27414
789.582	1.79639
792.957	2.48438
796.332	0.805786
799.707	0.993279
803.082	1.8788
806.457	2.61814
809.831	2.75857
813.206	1.44634
816.581	2.42761
819.956	2.15185
823.331	1.51479
826.706	2.61316
830.08	1.80272
833.455	1.8401
836.83	2.15714
840.205	3.03427
843.58	2.83503
846.954	2.31295
850.329	3.81522
853.704	1.13496
857.079	2.02079
860.454	2.12427
863.828	2.66888
867.203	2.97933
870.578	3.43397
873.953	2.69404
877.328	2.60794
880.703	0.930191
884.077	1.68318
887.452	0.507629
890.827	1.08644
894.202	1.29598
897.577	0.95713
900.952	0.225868
904.326	0.392906
907.701	0.601761
911.076	1.22358
914.451	0.564125
917.826	0.325127
921.2	1.53644
924.575	0.6315
927.95	0.058334
931.325	0.518181
934.7	0.162758
938.074	1.05276
941.449	2.52214
944.824	4.47573
948.199	7.35548
951.574	13.6389
954.948	20.864
958.323	30.4838
961.698	50.4256
965.073	82.1397
968.448	126.88
971.823	184.69
975.197	246.009
978.572	289.195
981.947	271.912
985.322	198.73
988.697	117.804
992.072	74.0285
995.446	50.254
998.821	38.2713
1002.2	29.147
1005.57	28.5918
1008.95	28.9497
1012.32	24.4666
1015.7	14.7891
1019.07	8.099
1022.45	2.70058
1025.82	0.021935
1029.19	0.381119
1032.57	1.13416
1035.94	0.901443
1039.32	0.055206
1042.69	1.00523
1046.07	1.35791
1049.44	2.60373
1052.82	5.89091
1056.19	7.4818
1059.57	7.05312
1062.94	9.02605
1066.32	8.19282
1069.69	7.83125
1073.07	12.7999
1076.44	19.4681
1079.82	30.355
1083.19	46.251
1086.57	69.4784
1089.94	95.8255
1093.32	114.326
1096.69	120.287
1100.07	108.489
1103.44	81.3468
1106.82	52.5845
1110.19	35.4294
1113.57	22.4196
1116.94	15.9842
1120.31	11.6644
1123.69	7.80624
1127.06	6.11676
1130.44	3.81105
1133.81	3.45019
1137.19	1.66455
1140.56	1.50599
1143.94	1.40112
1147.31	1.30999
1150.69	0.349739
1154.06	1.16663
1157.44	0.449951
1160.81	0.586952
1164.19	0.842133
1167.56	1.01674
1170.94	0.925293
1174.31	2.03212
1177.69	2.13976
1181.06	2.24382
1184.44	1.84232
1187.81	0.895195
1191.19	0.922607
1194.56	2.9971
1197.93	2.14424
1201.31	2.39797
1204.68	2.82425
1208.06	3.47426
1211.43	1.37347
1214.81	2.53709
1218.18	0.715752
1221.56	2.41342
1224.93	2.68747
1228.31	1.49682
1231.68	1.26589
1235.06	1.69399
1238.43	1.88499
1241.81	0.700783
1245.18	1.41486
1248.56	1.96839
1251.93	1.41578
1255.31	1.87508
1258.68	0.878181
1262.06	1.54886
1265.43	1.47617
1268.81	1.66076
1272.18	0.143494
1275.56	2.46735
1278.93	1.87519
1282.31	1.55747
1285.68	0.854729
1289.06	1.16309
1292.43	1.76403
1295.81	0.582138
1299.18	0.145538
