Measurement: Raman, 780 nm, unoriented, Raman Data Processed
Mineral: Laueite
Rruff sample: R060013
Ideal chemistry: Mn^2+^Fe^3+^_2_(PO_4_)_2_(OH)_2_8H_2_O
Locality: Hagendorf, Germany
Source: University of Arizona Mineral Museum
Description: Orange prismatic crystals associated with what appears to be accicular ferristrunzite
Measured chemistry: (Mn^2+^_0.54_Fe^2+^_0.35_Mg_0.11_)_Σ=1_Fe^3+^_2.00_(P_1.00_O_4_)_2_(OH)_2_·8H_2_O
Raman shift (cm-1)	intensity
131.151	0
134.044	0.986729
136.936	0.683453
139.829	0.645542
142.722	0.191675
145.614	0.060781
148.507	0.844378
151.4	2.16441
154.292	4.54113
157.185	6.86941
160.078	8.54059
162.971	8.37612
165.863	7.2454
168.756	6.08374
171.649	5.46553
174.541	5.29007
177.434	5.53771
180.327	6.41837
183.22	7.64149
186.112	9.32471
189.005	8.61922
191.898	6.6228
194.79	5.52956
197.683	5.03961
200.576	5.56745
203.468	5.42987
206.361	4.68222
209.254	3.03119
212.147	2.02967
215.039	1.90349
217.932	2.2931
220.825	3.27615
223.717	4.34623
226.61	5.84534
229.503	6.61173
232.395	7.32816
235.288	7.95619
238.181	10.0036
241.073	12.7516
243.966	16.4569
246.859	19.7924
249.752	22.6209
252.644	23.7704
255.537	25.697
258.43	28.3362
261.322	26.6955
264.215	22.3197
267.108	14.7848
270	11.1733
272.893	9.02175
275.786	6.89072
278.679	4.42323
281.571	2.19171
284.464	0.513901
287.357	0.151787
290.249	0.608303
293.142	0.633701
296.035	0.058628
298.928	0.024218
301.82	0.243771
304.713	0.517326
307.606	0.935791
310.498	1.58307
313.391	1.90452
316.284	3.15712
319.176	4.46765
322.069	5.44721
324.962	7.04998
327.854	9.27988
330.747	11.3775
333.64	12.9063
336.533	14.3141
339.425	14.4175
342.318	14.159
345.211	13.1397
348.103	11.0736
350.996	9.55099
353.889	7.57972
356.781	5.50881
359.674	4.32671
362.567	3.33231
365.46	2.71331
368.352	2.1025
371.245	1.56867
374.138	1.02743
377.03	0.592257
379.923	0.160233
382.816	0.016987
385.709	0.091131
388.601	0.513217
391.494	1.1965
394.387	1.81555
397.279	2.66699
400.172	3.60424
403.065	4.17051
405.957	4.02472
408.85	3.96989
411.743	1.71877
414.635	0.810174
417.528	0.202175
420.421	0.214803
423.314	0.26792
426.206	0.268521
429.099	0.274707
431.992	0.081299
434.884	0.020443
437.777	0.071366
440.67	0.219051
443.562	0.660079
446.455	1.08021
449.348	2.02975
452.241	2.75741
455.133	3.88498
458.026	4.8113
460.919	5.79428
463.811	6.75688
466.704	7.63954
469.597	7.30437
472.49	6.58741
475.382	5.31821
478.275	4.20717
481.168	3.02268
484.06	2.77736
486.953	2.35982
489.846	2.38689
492.738	2.53453
495.631	3.18171
498.524	3.54131
501.416	4.58646
504.309	5.67194
507.202	6.75252
510.095	7.97341
512.987	9.25265
515.88	10.2665
518.773	11.1831
521.665	10.8872
524.558	10.4262
527.451	8.37771
530.343	6.60564
533.236	4.52595
536.129	2.84014
539.022	1.90531
541.914	1.13176
544.807	0.890261
547.7	0.88321
550.592	0.858675
553.485	0.945995
556.378	0.978693
559.27	1.173
562.163	1.24898
565.056	1.42926
567.949	1.72762
570.841	1.75744
573.734	2.40089
576.627	2.21593
579.519	2.77668
582.412	2.70813
585.305	2.42063
588.197	1.96977
591.09	1.4045
593.983	0.905146
596.875	0.34365
599.768	0.028193
602.661	0.120673
605.554	0.213691
608.446	0.179806
611.339	0.101759
614.232	0.039908
617.125	0.046972
620.017	0.089222
622.91	0.083175
625.803	0.171279
628.695	0.072941
631.588	0.164027
634.481	0.251127
637.373	0.273668
640.266	0.197613
643.159	0.379664
646.052	0.270317
648.944	0.442944
651.837	0.349095
654.73	0.457096
657.622	0.53884
660.515	0.620117
663.408	0.433876
666.3	0.411982
669.193	0.525994
672.086	0.612796
674.979	0.370311
677.871	0.324167
680.764	0.435749
683.657	0.333146
686.549	0.227079
689.442	0.316416
692.335	0.425792
695.227	0.484352
698.12	0.453336
701.013	0.472641
703.905	0.460794
706.798	0.35811
709.691	0.359423
712.584	0.581109
715.476	0.489129
718.369	0.212758
721.262	0.421695
724.154	0.285632
727.047	0.226907
729.94	0.1712
732.832	0.222403
735.725	0.16962
738.618	0.054363
741.511	0.102135
744.403	0.020839
747.296	0.023294
750.189	0.064332
753.081	0.128002
755.974	0.014253
758.867	0.228631
761.76	0.022789
764.652	0.234381
767.545	0.092535
770.438	0.00871
773.33	0.001866
776.223	0.117865
779.116	0.142032
782.008	0.023158
784.901	0.300533
787.794	0.242757
790.687	0.097468
793.579	0.351487
796.472	0.35933
799.365	0.575757
802.257	0.429209
805.15	0.490303
808.043	0.453905
810.935	0.384411
813.828	0.477714
816.721	0.493898
819.614	0.553634
822.506	0.440023
825.399	0.427948
828.292	0.369729
831.184	0.355105
834.077	0.394468
836.97	0.442558
839.862	0.380311
842.755	0.388485
845.648	0.362811
848.54	0.333629
851.433	0.281655
854.326	0.555852
857.219	0.383476
860.111	0.48479
863.004	0.498765
865.897	0.502014
868.789	0.522343
871.682	0.525597
874.575	0.602441
877.467	0.43841
880.36	0.532523
883.253	0.634937
886.146	0.569704
889.038	0.372165
891.931	0.292562
894.824	0.274823
897.716	0.217419
900.609	0.191515
903.502	0.248281
906.394	0.085131
909.287	0.095154
912.18	0.038516
915.073	0.097301
917.965	0.023496
920.858	0.016768
923.751	0.00713
926.643	0.182611
929.536	0.17941
932.429	0.04459
935.321	0.181311
938.214	0.07646
941.107	0.187327
944	0.244649
946.892	0.396817
949.785	0.91889
952.678	1.38939
955.57	2.41192
958.463	3.48891
961.356	5.40719
964.248	8.49996
967.141	12.1333
970.034	16.9692
972.927	22.0884
975.819	27.205
978.712	29.1745
981.605	26.6459
984.497	20.9123
987.39	14.63
990.283	10.4252
993.175	7.56262
996.068	5.97936
998.961	5.07039
1001.85	4.91559
1004.75	5.35982
1007.64	5.69874
1010.53	5.46438
1013.42	4.35976
1016.32	2.71159
1019.21	1.44511
1022.1	0.844303
1024.99	0.428028
1027.89	0.396615
1030.78	0.493948
1033.67	0.360996
1036.57	0.209632
1039.46	0.001186
1042.35	0.13833
1045.24	0.378547
1048.14	0.723725
1051.03	0.988697
1053.92	1.2187
1056.82	1.2672
1059.71	1.20784
1062.6	1.24211
1065.49	1.04838
1068.39	1.24833
1071.28	1.28944
1074.17	2.19081
1077.06	3.55593
1079.96	5.26452
1082.85	7.54323
1085.74	9.92856
1088.63	12.3987
1091.53	13.2674
1094.42	12.2762
1097.31	10.4274
1100.2	7.96049
1103.1	5.51674
1105.99	3.81483
1108.88	2.38957
1111.78	1.53672
1114.67	0.913148
1117.56	0.633104
1120.45	0.433467
1123.35	0.126387
1126.24	0.035792
1129.13	0.123852
1132.03	0.044387
1134.92	0.039098
1137.81	0.190519
1140.7	0.152998
1143.6	0.049582
1146.49	0.049567
1149.38	0.212561
1152.27	0.132076
1155.17	0.125915
1158.06	0.094904
1160.95	0.306778
1163.85	0.203879
1166.74	0.248163
1169.63	0.371063
1172.52	0.331993
1175.42	0.337525
1178.31	0.455096
1181.2	0.539552
1184.09	0.462965
1186.99	0.559891
1189.88	0.469877
1192.77	0.551358
1195.66	0.441764
1198.56	0.475556
1201.45	0.410341
1204.34	0.297235
1207.23	0.324049
1210.13	0.379612
1213.02	0.29171
1215.91	0.343506
1218.81	0.363193
1221.7	0.340748
1224.59	0.29181
1227.48	0.166595
1230.38	0.263699
1233.27	0.404693
1236.16	0.248658
1239.06	0.23326
1241.95	0.185621
1244.84	0.156164
1247.73	0.156495
1250.63	0.199337
1253.52	0.113685
1256.41	0.106737
1259.3	0.211203
1262.2	0.196712
1265.09	0.087758
1267.98	0.054161
1270.88	0.079792
1273.77	0.209574
1276.66	0.274065
1279.55	0.350473
1282.44	0.123358
1285.34	0.011873
