Measurement: Raman, 532 nm, unoriented, Raman Data Processed
Mineral: Laumontite
Rruff sample: R060114
Ideal chemistry: Ca(Si_4_Al_2_)O_12_4H_2_O
Locality: Pine Creek, Tungsten mine, Bishop, California, USA
Source: University of Arizona Mineral Museum
Description: White colored elongated prismatic single-crystals
Measured chemistry: Ca_1.00_(Si_4.00_Al_2.00_)O_12_Â·4H_2_O
Raman shift (cm-1)	intensity
150.528	0
153.421	8.99118
156.314	1.33298
159.207	0.044189
162.099	11.6658
164.992	11.849
167.885	14.8366
170.777	16.2331
173.67	10.9902
176.563	4.69611
179.455	1.10712
182.348	2.08865
185.241	2.0285
188.133	4.06091
191.026	15.2389
193.919	26.1897
196.812	33.8367
199.704	33.9627
202.597	31.0338
205.49	21.7371
208.382	20.7158
211.275	13.8454
214.168	10.7114
217.06	9.67908
219.953	6.6264
222.846	2.7084
225.739	1.18039
228.631	3.34103
231.524	2.17535
234.417	0.460724
237.309	2.14038
240.202	0.505707
243.095	2.5278
245.988	6.5665
248.88	6.66193
251.773	6.27103
254.666	15.5541
257.558	15.3957
260.451	17.1972
263.344	22.2546
266.236	30.0742
269.129	33.102
272.022	32.0312
274.915	35.9291
277.807	43.3509
280.7	52.2277
283.593	58.4186
286.485	72.8094
289.378	86.4117
292.271	104.192
295.163	117.288
298.056	131.488
300.949	152.199
303.842	181.824
306.734	209.037
309.627	225.357
312.52	213.831
315.412	179.845
318.305	150.178
321.198	140.981
324.091	143.449
326.983	128.963
329.876	99.0012
332.769	59.5683
335.661	38.8772
338.554	26.3707
341.447	20.7825
344.339	22.3212
347.232	18.7593
350.125	11.9712
353.018	7.28049
355.91	1.42581
358.803	3.08008
361.696	2.45151
364.588	6.37057
367.481	13.3698
370.374	20.1048
373.267	32.081
376.159	46.3994
379.052	55.5001
381.945	60.1379
384.837	43.176
387.73	24.5215
390.623	10.2719
393.515	5.52481
396.408	6.78097
399.301	8.30072
402.194	8.68463
405.086	14.7213
407.979	14.9903
410.872	13.4028
413.764	13.818
416.657	6.01642
419.55	0.641418
422.442	0.942932
425.335	0.413086
428.228	1.08749
431.121	1.0278
434.013	1.79099
436.906	0.282867
439.799	1.99161
442.691	3.85007
445.584	0.685303
448.477	7.88635
451.37	10.5937
454.262	18.0562
457.155	21.6606
460.048	29.31
462.94	35.7984
465.833	45.8078
468.726	52.6556
471.618	60.355
474.511	73.762
477.404	101.264
480.297	134.987
483.189	175.68
486.082	220.244
488.975	279.552
491.867	307.442
494.76	258.44
497.653	200.587
500.546	183.435
503.438	199.631
506.331	218.477
509.224	247.919
512.116	254.667
515.009	239.314
517.902	190.162
520.794	136.407
523.687	98.144
526.58	63.7039
529.472	41.8786
532.365	31.4675
535.258	21.7662
538.151	13.4767
541.043	8.38242
543.936	1.77429
546.829	3.06839
549.721	0.754478
552.614	1.17828
555.507	1.43094
558.399	2.00519
561.292	1.0227
564.185	1.77551
567.078	5.59689
569.97	8.9154
572.863	20.8595
575.756	35.7148
578.649	41.2802
581.541	55.5231
584.434	71.1302
587.327	78.3644
590.219	82.6691
593.112	73.9833
596.005	60.0341
598.897	41.0825
601.79	28.6251
604.683	19.0279
607.576	12.7914
610.468	10.2931
613.361	4.39166
616.254	3.09454
619.146	2.12805
622.039	2.60461
624.932	1.29022
627.824	2.38342
630.717	4.65558
633.61	1.67371
636.503	1.27936
639.395	3.25873
642.288	2.16827
645.181	1.17712
648.073	3.34137
650.966	3.21625
653.859	6.55951
656.751	9.1745
659.644	16.3787
662.537	24.5027
665.43	28.952
668.322	33.0092
671.215	37.0565
674.108	34.5207
677	27.156
679.893	19.4182
682.786	13.8011
685.678	8.78082
688.571	7.75964
691.464	8.32812
694.357	5.92596
697.249	10.0879
700.142	8.85663
703.035	7.20258
705.927	9.98334
708.82	12.4465
711.713	9.82416
714.606	5.77283
717.498	8.98016
720.391	2.0509
723.284	2.62305
726.176	1.31195
729.069	0.179993
731.962	2.43182
734.855	3.29541
737.747	3.07831
740.64	0.867126
743.533	1.72699
746.425	4.16797
749.318	0.408508
752.211	0.024292
755.103	0.556091
757.996	0.277466
760.889	4.33319
763.782	4.42761
766.674	4.00018
769.567	4.46423
772.46	3.97742
775.352	0.145508
778.245	1.44495
781.138	1.00372
784.03	2.65729
786.923	3.8678
789.816	3.25018
792.709	4.26373
795.601	5.31677
798.494	6.17371
801.387	8.42487
804.279	10.5485
807.172	16.0336
810.065	17.9566
812.957	21.0124
815.85	21.0343
818.743	17.965
821.636	10.2327
824.528	10.4789
827.421	8.21322
830.314	6.26361
833.206	6.18558
836.099	5.7293
838.992	5.3396
841.885	8.23804
844.777	5.37329
847.67	5.43811
850.563	4.7558
853.455	3.08606
856.348	4.9491
859.241	0.424744
862.134	0.70813
865.026	3.83148
867.919	1.755
870.812	0.154602
873.704	2.59723
876.597	3.9997
879.49	3.14734
882.382	1.80548
885.275	2.84985
888.168	0.58728
891.061	1.25635
893.953	1.63171
896.846	2.46942
899.739	0.122009
902.631	2.30182
905.524	4.99396
908.417	1.11743
911.309	2.25494
914.202	4.70843
917.095	6.44006
919.987	6.23486
922.88	9.21069
925.773	7.2486
928.666	7.08295
931.558	3.95898
934.451	5.06793
937.344	11.1609
940.236	11.7769
943.129	11.0466
946.022	10.8159
948.915	10.8574
951.807	9.36151
954.7	4.09161
957.593	4.0658
960.485	2.4331
963.378	2.1731
966.271	0.736145
969.163	0.3125
972.056	2.46777
974.949	1.93146
977.842	1.84332
980.734	3.34137
983.627	1.80505
986.52	5.24152
989.412	5.8316
992.305	9.00281
995.198	11.8482
998.091	14.5233
1000.98	17.3188
1003.88	18.6696
1006.77	20.5673
1009.66	29.0815
1012.55	28.847
1015.45	34.7725
1018.34	36.9688
1021.23	38.4508
1024.12	33.3806
1027.02	24.4147
1029.91	15.9476
1032.8	1.98157
1035.7	0.835938
1038.59	0.016907
1041.48	0.960815
1044.37	0.892273
1047.27	2.55194
1050.16	6.78546
1053.05	5.29163
1055.94	4.9245
1058.84	8.65326
1061.73	10.6633
1064.62	17.5251
1067.52	20.9888
1070.41	26.6019
1073.3	30.0336
1076.19	25.3133
1079.09	20.2835
1081.98	16.9526
1084.87	16.1906
1087.76	16.7379
1090.66	17.1831
1093.55	21.1312
1096.44	23.4406
1099.34	25.389
1102.23	31.4796
1105.12	26.729
1108.01	20.1562
1110.91	15.3568
1113.8	13.7411
1116.69	8.04413
1119.58	7.83862
1122.48	2.95294
1125.37	6.45471
1128.26	3.68616
1131.15	2.19806
1134.05	3.35046
1136.94	3.74414
1139.83	2.10205
1142.73	0.256592
1145.62	7.10626
1148.51	6.25269
1151.4	1.8194
1154.3	2.08881
1157.19	1.68677
1160.08	2.58417
1162.97	0.911987
1165.87	0.730957
1168.76	2.55603
1171.65	3.35175
1174.55	0.565125
1177.44	1.6477
1180.33	2.39563
1183.22	0.88208
1186.12	1.30098
1189.01	3.03519
1191.9	9.24762
1194.79	11.293
1197.69	15.7375
1200.58	14.7628
1203.47	5.31305
1206.37	7.63849
1209.26	4.35809
1212.15	6.28589
1215.04	5.55859
1217.94	4.78571
1220.83	6.52734
1223.72	5.52454
1226.61	3.21765
1229.51	3.23022
1232.4	5.16193
1235.29	4.1449
1238.18	1.50848
1241.08	2.4986
1243.97	2.98108
1246.86	3.37677
1249.76	2.37244
1252.65	0.520447
1255.54	3.89044
1258.43	1.22192
1261.33	1.66125
1264.22	0.456055
1267.11	2.7785
1270.01	3.36652
1272.9	5.33551
1275.79	7.97138
1278.68	1.5332
1281.58	1.32361
1284.47	4.16657
1287.36	3.47003
1290.25	4.69665
1293.15	5.36072
1296.04	2.14002
1298.93	3.38904
1301.82	0
