Measurement: Raman, 780 nm, unoriented, Raman Data Processed
Mineral: Laumontite
Rruff sample: R040020
Ideal chemistry: Ca(Si_4_Al_2_)O_12_4H_2_O
Locality: Pine Creek Tungsten mine, Bishop, Inyo County, California, USA
Source: University of Arizona Mineral Museum
Description: Pale gray long prism coated with smaller crystals
Measured chemistry: (Ca_0.99_K_0.01_)_Σ=1_(Si_4.01_Al_1.99_)O_12_·4H_2_O; H_2_O estimated by difference
Raman shift (cm-1)	intensity
181.291	0
184.184	1.4982
187.076	5.47476
189.969	20.6287
192.862	41.1715
195.755	63.6535
198.647	90.3135
201.54	93.9181
204.433	68.1048
207.325	55.3263
210.218	59.6111
213.111	61.1973
216.003	47.9117
218.896	31.1678
221.789	17.521
224.681	8.37537
227.574	1.41827
230.467	0.559982
233.36	0.237473
236.252	8.76189
239.145	3.65529
242.038	0.739014
244.93	4.11217
247.823	9.4431
250.716	19.9886
253.608	24.2023
256.501	29.2852
259.394	43.3085
262.287	52.8206
265.179	66.0428
268.072	75.9704
270.965	79.4977
273.858	88.7174
276.75	99.8232
279.643	120.461
282.536	143.178
285.428	174.841
288.321	209.051
291.214	245.315
294.106	274.37
296.999	304.126
299.892	341.039
302.784	405.823
305.677	489.031
308.57	554.292
311.462	547.916
314.355	464.352
317.248	357.149
320.141	293.464
323.033	279.061
325.926	284.415
328.819	232.659
331.711	152.771
334.604	90.9825
337.497	63.4644
340.389	54.4833
343.282	57.6346
346.175	63.72
349.068	51.4522
351.96	23.2828
354.853	1.35756
357.746	4.22142
360.638	4.77791
363.531	2.0107
366.424	13.0795
369.317	22.5982
372.209	40.2558
375.102	66.259
377.995	101.927
380.887	131.422
383.78	109.734
386.673	57.3311
389.565	21.7711
392.458	5.5927
395.351	2.16765
398.243	4.27669
401.136	10.0027
404.029	21.2038
406.922	31.0463
409.814	35.1895
412.707	26.4978
415.6	17.0969
418.492	4.84445
421.385	0.163803
424.278	0.443207
427.171	1.76039
430.063	2.16289
432.956	1.65221
435.849	2.27165
438.741	0.120407
441.634	0.532043
444.527	0.942429
447.419	5.74365
450.312	11.7442
453.205	18.5684
456.098	28.158
458.99	39.311
461.883	53.1457
464.776	69.3056
467.668	89.8234
470.561	109.796
473.454	136.024
476.346	180.036
479.239	227.985
482.132	298.396
485.024	399.26
487.917	549.62
490.81	716.629
493.703	699.768
496.595	495.1
499.488	383.693
502.381	362.325
505.273	391.995
508.166	447.248
511.059	489.769
513.952	489.558
516.844	421.109
519.737	312.106
522.63	212.869
525.522	142.089
528.415	91.0253
531.308	64.2824
534.2	42.8011
537.093	28.3312
539.986	17.7329
542.879	10.2669
545.771	6.00507
548.664	3.06465
551.557	1.41605
554.449	1.96295
557.342	0.586929
560.235	1.49678
563.127	1.34985
566.02	10.9345
568.913	20.1112
571.806	33.1341
574.698	52.3454
577.591	72.6788
580.484	99.27
583.376	128.264
586.269	159.59
589.162	182.052
592.054	179.824
594.947	147.938
597.84	106.922
600.732	69.8179
603.625	44.1333
606.518	28.8891
609.411	18.6213
612.303	10.2822
615.196	5.6682
618.089	1.86758
620.981	3.00298
623.874	1.42487
626.767	1.55905
629.659	1.2346
632.552	0.878372
635.445	0.853241
638.338	0.452896
641.23	0.155258
644.123	0.858398
647.016	0.56134
649.908	3.52618
652.801	9.08968
655.694	13.8354
658.587	21.2382
661.479	34.1651
664.372	46.1029
667.265	60.2188
670.157	73.7691
673.05	79.7595
675.943	68.2009
678.835	49.5862
681.728	32.7709
684.621	23.7181
687.514	18.0545
690.406	16.9567
693.299	15.2424
696.192	13.3644
699.084	14.5728
701.977	13.1807
704.87	14.7375
707.762	20.2302
710.655	21.2541
713.548	18.4283
716.44	13.9397
719.333	7.17113
722.226	3.13271
725.119	1.67658
728.011	0.534172
730.904	0.612183
733.797	1.54475
736.689	0.797653
739.582	1.2899
742.475	1.29566
745.367	0.633209
748.26	1.09555
751.153	0.955605
754.045	0.45269
756.938	0.239693
759.831	2.17879
762.724	3.90254
765.616	5.21904
768.509	3.91138
771.402	4.88277
774.294	2.68002
777.187	2.10989
780.08	1.19222
782.972	1.49901
785.865	2.06918
788.758	1.94025
791.651	3.51257
794.543	4.80124
797.436	5.49001
800.329	9.53033
803.221	11.5465
806.114	15.6936
809.007	21.9362
811.899	26.2386
814.792	31.6208
817.685	28.4655
820.578	21.8908
823.47	15.3458
826.363	11.4451
829.256	8.51096
832.148	4.48312
835.041	6.25334
837.934	4.42014
840.827	3.55553
843.719	4.09235
846.612	3.47608
849.505	2.54308
852.397	3.6761
855.29	2.6431
858.183	3.14265
861.075	2.50714
863.968	2.41015
866.861	4.03996
869.754	3.1057
872.646	2.75893
875.539	1.19144
878.432	3.25501
881.324	0.63105
884.217	0.823753
887.11	1.85317
890.002	0.243332
892.895	0.749725
895.788	0.326561
898.681	0.36364
901.573	0.852783
904.466	0.04631
907.359	0.24131
910.251	1.26934
913.144	0.486809
916.037	0.300125
918.929	1.77995
921.822	3.09141
924.715	5.34475
927.607	5.0651
930.5	2.3317
933.393	2.43353
936.286	2.86314
939.178	3.54279
942.071	3.1329
944.964	6.06422
947.856	6.65959
950.749	6.15996
953.642	3.67201
956.534	1.3246
959.427	0.378662
962.32	0.026207
965.213	1.08736
968.105	0.257568
970.998	1.03191
973.891	0.744019
976.783	0.16819
979.676	1.06873
982.569	0.894997
985.462	0.488228
988.354	4.38587
991.247	6.55357
994.14	9.52736
997.032	15.0901
999.925	18.5018
1002.82	20.3894
1005.71	23.5844
1008.6	26.7432
1011.5	30.7942
1014.39	40.0771
1017.28	42.6427
1020.17	48.2333
1023.07	47.5327
1025.96	39.2192
1028.85	24.1894
1031.74	13.4611
1034.64	6.67718
1037.53	1.76795
1040.42	2.21386
1043.32	0.739822
1046.21	0.069695
1049.1	1.50147
1051.99	1.25164
1054.89	2.06281
1057.78	7.3183
1060.67	11.7778
1063.56	15.6831
1066.46	21.8445
1069.35	28.004
1072.24	33.5662
1075.13	35.4215
1078.03	34.044
1080.92	29.7863
1083.81	29.7385
1086.71	26.4797
1089.6	29.7305
1092.49	33.0617
1095.38	35.4565
1098.28	38.2981
1101.17	42.212
1104.06	42.9164
1106.95	35.8815
1109.85	25.7862
1112.74	17.9894
1115.63	11.5816
1118.53	6.8736
1121.42	4.17186
1124.31	4.07062
1127.2	2.8092
1130.1	1.53373
1132.99	2.13478
1135.88	0.790154
1138.78	0.872482
1141.67	5.34221
1144.56	1.83646
1147.45	0.311203
1150.35	0.998482
1153.24	0.118217
1156.13	1.10509
1159.02	1.10294
1161.92	0.19503
1164.81	0.376122
1167.7	1.50151
1170.59	0.100891
1173.49	1.09866
1176.38	0.626251
1179.27	1.0181
1182.16	2.42925
1185.06	1.28698
1187.95	0.940742
1190.84	2.58612
1193.74	1.18124
1196.63	1.4515
1199.52	1.57343
1202.41	2.24517
1205.31	2.55521
1208.2	3.32661
1211.09	2.78744
1213.98	2.82119
1216.88	2.6954
1219.77	0.608955
1222.66	0.468994
1225.56	2.66094
1228.45	0.586342
1231.34	2.39139
1234.23	0.867371
1237.13	3.95767
1240.02	0.481796
1242.91	1.84862
1245.8	1.8765
1248.7	2.10242
1251.59	2.18778
1254.48	1.97182
1257.38	1.43789
1260.27	1.71857
1263.16	1.05451
1266.05	2.27219
1268.95	0.040802
1271.84	0.934624
