Measurement: Raman, 532 nm, unoriented, Raman Data Processed
Mineral: Laumontite
Rruff sample: R040020
Ideal chemistry: Ca(Si_4_Al_2_)O_12_4H_2_O
Locality: Pine Creek Tungsten mine, Bishop, Inyo County, California, USA
Source: University of Arizona Mineral Museum
Description: Pale gray long prism coated with smaller crystals
Measured chemistry: (Ca_0.99_K_0.01_)_Σ=1_(Si_4.01_Al_1.99_)O_12_·4H_2_O; H_2_O estimated by difference
Raman shift (cm-1)	intensity
194.651	0
197.543	17.4998
200.436	37.3904
203.329	40.6011
206.221	27.5173
209.114	33.0015
212.007	41.5898
214.9	52.5271
217.792	49.7461
220.685	35.7358
223.578	14.6057
226.47	13.8257
229.363	1.11963
232.256	10.2427
235.149	1.19311
238.041	11.824
240.934	11.6296
243.827	3.25391
246.719	7.13428
249.612	0.526367
252.505	14.3347
255.397	13.5835
258.29	26.398
261.183	44.9458
264.075	62.3335
266.968	80.2278
269.861	94.533
272.754	108.415
275.646	99.7393
278.539	116.489
281.432	136.709
284.324	159.657
287.217	198.653
290.11	251.418
293.002	308.001
295.895	360.349
298.788	431.359
301.681	529.327
304.573	669.68
307.466	816.962
310.359	904.047
313.251	870.655
316.144	779.297
319.037	708.113
321.93	730.206
324.822	817.206
327.715	788.394
330.608	556.47
333.5	326.946
336.393	189.501
339.286	126.249
342.178	103.715
345.071	87.384
347.964	80.676
350.856	47.8
353.749	20.9429
356.642	4.43066
359.535	4.28931
362.427	3.1167
365.32	24.6289
368.213	29.3962
371.105	48.8787
373.998	63.7978
376.891	88.5879
379.784	143.706
382.676	143.279
385.569	81.8894
388.462	26.1248
391.354	9.31372
394.247	5.49829
397.14	16.8611
400.032	33.6506
402.925	52.2998
405.818	64.1025
408.711	78.9482
411.603	58.1265
414.496	33.4419
417.389	1.54394
420.281	0.150879
423.174	1.29541
426.067	0.259521
428.959	3.20728
431.852	1.73755
434.745	10.6843
437.637	5.45557
440.53	9.87549
443.423	15.6379
446.316	32.4385
449.208	25.9304
452.101	53.273
454.994	63.5957
457.886	75.1321
460.779	114.694
463.672	141.76
466.565	167.783
469.457	188.192
472.35	182.769
475.243	197.403
478.135	243.084
481.028	318.3
483.921	422.797
486.813	572.19
489.706	787.609
492.599	936.988
495.491	804.379
498.384	655.686
501.277	651.807
504.17	746.044
507.062	878.811
509.955	1008.37
512.848	1072.6
515.74	998.971
518.633	789.576
521.526	563.434
524.418	388.165
527.311	256.946
530.204	173.878
533.097	118.619
535.989	91.5195
538.882	60.6233
541.775	42.5283
544.667	17.646
547.56	4.60522
550.453	0.144775
553.346	0.5271
556.238	3.13477
559.131	9.91577
562.024	4.78735
564.916	11.4065
567.809	27.6174
570.702	42.8364
573.594	64.2883
576.487	89.6287
579.38	146.868
582.273	185.039
585.165	253.68
588.058	306.502
590.951	338.183
593.843	286.562
596.736	221.06
599.629	153.151
602.521	104.512
605.414	78.166
608.307	56.5347
611.199	37.0952
614.092	14.956
616.985	5.44531
619.878	10.897
622.77	0.110352
625.663	12.3345
628.556	19.0845
631.448	4.125
634.341	3.61572
637.234	5.42871
640.126	15.8911
643.019	11.6562
645.912	12.3335
648.804	8.94141
651.697	10.9922
654.59	24.3794
657.483	31.4004
660.375	47.2183
663.268	76.7495
666.161	84.0322
669.053	102.175
671.946	128.767
674.839	101.754
677.731	77.4429
680.624	42.6289
683.517	14.999
686.41	1.80029
689.302	3.2456
692.195	17.627
695.088	25.5727
697.98	16.7319
700.873	24.1255
703.766	34.6797
706.659	40.3545
709.551	49.7383
712.444	42.4966
715.337	43.8179
718.229	33.0801
721.122	15.1572
724.015	16.582
726.907	6.85889
729.8	0.038574
732.693	1.09082
735.586	12.7144
738.478	15.481
741.371	9.55908
744.264	5.17481
747.156	1.95898
750.049	3.68408
752.942	0.442871
755.834	3.04736
758.727	3.16992
761.62	9.00391
764.513	18.1001
767.405	27.5469
770.298	27.3057
773.191	7.79004
776.083	9.9043
778.976	14.7764
781.869	22.585
784.761	24.7427
787.654	16.688
790.547	1.03613
793.439	7.06494
796.332	17.1426
799.225	10.1494
802.118	11.6069
805.01	20.8135
807.903	32.4766
810.796	49.6543
813.688	44.2954
816.581	38.1597
819.474	39.456
822.366	23.937
825.259	33.9082
828.152	17.9795
831.045	9.60352
833.937	10.8789
836.83	16.0879
839.723	17.4424
842.615	29.354
845.508	26.979
848.401	14.0586
851.293	3.06543
854.186	3.11084
857.079	15.8804
859.972	20.6025
862.864	15.6719
865.757	24.7886
868.65	25.584
871.542	20.5044
874.435	15.002
877.328	14.2568
880.221	7.92578
883.113	1.87695
886.006	20.9668
888.899	7.34717
891.791	8.88818
894.684	8.73779
897.577	21.0869
900.469	10.0054
903.362	21.9248
906.255	14.3071
909.148	11.5459
912.04	16.0444
914.933	18.7021
917.826	28.0742
920.718	36.5815
923.611	32.6279
926.504	37.481
929.396	24.5845
932.289	25.5742
935.182	18.1367
938.074	24.4033
940.967	30.5811
943.86	51.4248
946.753	67.4522
949.645	50.9243
952.538	29.8091
955.431	19.5322
958.323	11.2974
961.216	0.70166
964.109	5.11914
967.001	9.08496
969.894	3.54004
972.787	1.94629
975.68	5.17236
978.572	9.38232
981.465	12.0269
984.358	15.1646
987.25	14.4058
990.143	23.1948
993.036	31.6987
995.928	41.8491
998.821	54.0098
1001.71	56.7666
1004.61	60.6787
1007.5	89.8486
1010.39	111.106
1013.28	135.773
1016.18	161.234
1019.07	182.733
1021.96	206.882
1024.86	191.517
1027.75	137.003
1030.64	94.1655
1033.53	49.9556
1036.43	31.291
1039.32	20.3232
1042.21	1.83057
1045.1	5.14258
1048	2.29346
1050.89	2.69238
1053.78	3.41846
1056.67	11.981
1059.57	23.8516
1062.46	31.0806
1065.35	59.5264
1068.25	71.6191
1071.14	112.374
1074.03	136.273
1076.92	129.582
1079.82	127.772
1082.71	117.603
1085.6	100.201
1088.49	104.057
1091.39	107.579
1094.28	117.421
1097.17	125.528
1100.07	132.76
1102.96	158.769
1105.85	140.279
1108.74	114.148
1111.64	77.7964
1114.53	48.2329
1117.42	19.228
1120.31	11.9844
1123.21	14.6646
1126.1	15.7793
1128.99	3.11816
1131.88	10.0938
1134.78	9.13916
1137.67	6.39941
1140.56	2.89209
1143.46	3.3457
1146.35	10.5332
1149.24	12.52
1152.13	7.68213
1155.03	7.89453
1157.92	1.86328
1160.81	2.7959
1163.7	13.0483
1166.6	11.0234
1169.49	6.27881
1172.38	9.48975
1175.28	8.90283
1178.17	8.60107
1181.06	6.80127
1183.95	22.6802
1186.85	0.10791
1189.74	8.4375
1192.63	0.774414
1195.53	11.4604
1198.42	11.5771
1201.31	7.98828
1204.2	8.82764
1207.1	9.88428
1209.99	2.19629
1212.88	9.99072
1215.77	21.7207
1218.67	43.6816
1221.56	33.0474
1224.45	17.1963
1227.34	17.0864
1230.24	19.5557
1233.13	11.915
1236.02	15.2168
1238.91	3.49512
1241.81	0.583496
1244.7	8.58447
1247.59	27.7441
1250.49	20.0781
1253.38	15.8364
1256.27	7.67383
1259.16	5.18701
1262.06	19.6509
1264.95	26.9668
1267.84	7.58008
1270.73	17.4409
1273.63	14.6636
1276.52	10.9482
1279.41	9.4248
