Measurement: Raman, 780 nm, unoriented, Raman Data Processed
Mineral: Laumontite
Rruff sample: R060114
Ideal chemistry: Ca(Si_4_Al_2_)O_12_4H_2_O
Locality: Pine Creek, Tungsten mine, Bishop, California, USA
Source: University of Arizona Mineral Museum
Description: White colored elongated prismatic single-crystals
Measured chemistry: Ca_1.00_(Si_4.00_Al_2.00_)O_12_Â·4H_2_O
Raman shift (cm-1)	intensity
150.844	0
153.736	0.655258
156.629	0.714752
159.522	1.0977
162.414	3.02596
165.307	4.87248
168.2	6.57923
171.093	7.21211
173.985	5.47817
176.878	3.33916
179.771	2.01915
182.663	0.837955
185.556	0.36211
188.449	0.470901
191.341	1.92297
194.234	1.54309
197.127	2.18472
200.019	2.03218
202.912	2.23766
205.805	1.79084
208.697	1.52708
211.59	2.21764
214.483	1.95439
217.376	1.45901
220.268	1.58033
223.161	0.852688
226.054	0.817446
228.946	0.038538
231.839	0.575132
234.732	1.20965
237.625	1.15363
240.517	0.931126
243.41	1.48502
246.303	1.53801
249.195	1.08871
252.088	0.814241
254.981	0.083515
257.873	0.202837
260.766	0.203007
263.659	1.50606
266.551	1.84865
269.444	1.70435
272.337	2.85376
275.23	3.10562
278.122	3.41271
281.015	4.99642
283.908	7.09618
286.8	7.87369
289.693	9.42659
292.586	11.922
295.478	15.2002
298.371	18.121
301.264	21.557
304.157	26.8581
307.049	31.4157
309.942	35.1141
312.835	34.8326
315.727	30.2831
318.62	26.6308
321.513	26.6268
324.406	29.9563
327.298	28.3024
330.191	20.4095
333.084	12.5125
335.976	6.67634
338.869	3.50588
341.762	2.42516
344.654	1.69449
347.547	1.93728
350.44	0.382404
353.332	0.037687
356.225	0.143242
359.118	0.266605
362.01	0.405783
364.903	0.175833
367.796	1.29744
370.689	3.76207
373.581	3.68938
376.474	5.95839
379.367	6.26734
382.259	5.55524
385.152	5.19593
388.045	2.34054
390.938	1.41063
393.83	0.43712
396.723	0.804745
399.616	1.23856
402.508	1.47099
405.401	1.51601
408.294	2.0695
411.186	1.84899
414.079	1.43216
416.972	0.684029
419.865	0.395018
422.757	0.591799
425.65	0.331736
428.543	0.280191
431.435	0.311712
434.328	0.540636
437.221	0.01169
440.113	0.181011
443.006	0.867376
445.899	0.788931
448.791	0.964128
451.684	1.90667
454.577	3.64646
457.47	3.81145
460.362	4.44998
463.255	6.17141
466.148	7.96317
469.04	8.93393
471.933	10.0924
474.826	10.4726
477.719	12.1923
480.611	14.3832
483.504	19.0242
486.397	24.3296
489.289	31.7875
492.182	36.7996
495.075	33.406
497.967	27.1854
500.86	26.5102
503.753	28.9735
506.645	32.4267
509.538	36.4313
512.431	38.5842
515.323	36.5365
518.216	30.5556
521.109	21.7036
524.002	13.9471
526.894	9.81273
529.787	6.70158
532.68	5.11029
535.572	3.36878
538.465	1.83059
541.358	1.99835
544.25	0.852166
547.143	0.810373
550.036	1.03248
552.929	0.551016
555.821	0.001195
558.714	0.05555
561.607	0.594096
564.499	0.665977
567.392	0.362703
570.285	1.18505
573.178	2.2138
576.07	3.40089
578.963	4.43108
581.856	6.28627
584.748	8.02076
587.641	9.6071
590.534	10.9597
593.426	7.9673
596.319	7.35389
599.212	5.37279
602.105	2.5677
604.997	2.60295
607.89	1.33284
610.783	1.25813
613.675	0.097275
616.568	0.614629
619.461	0.049066
622.353	0.069291
625.246	0.255691
628.139	0.859874
631.031	0.454151
633.924	0.124004
636.817	0.533195
639.71	0.334686
642.602	0.090022
645.495	0.036671
648.388	1.156
651.28	0.645019
654.173	1.31593
657.066	1.73908
659.958	2.53193
662.851	2.68407
665.744	3.30025
668.636	3.86759
671.529	4.73376
674.422	4.3658
677.315	3.3813
680.207	2.06492
683.1	2.10069
685.993	1.7236
688.885	0.855788
691.778	0.47512
694.671	0.244591
697.563	0.172179
700.456	0.0649604
703.349	0.859169
706.242	1.93356
709.134	2.04572
712.027	2.18863
714.92	1.6778
717.812	1.28546
720.705	0.462137
723.598	0.718634
726.49	0.179233
729.383	0.347422
732.276	0.481251
735.169	0.362154
738.061	0.178479
740.954	0.444737
743.847	0.366857
746.739	0.438976
749.632	0.196472
752.525	0.274924
755.418	0.271399
758.31	0.151746
761.203	0.36727
764.096	0.434168
766.988	0.347319
769.881	1.02485
772.774	0.859149
775.666	0.392641
778.559	0.389896
781.452	0.780768
784.345	0.599324
787.237	0.829409
790.13	0.31893
793.023	0.761491
795.915	0.739846
798.808	1.19168
801.701	1.53246
804.593	1.28015
807.486	2.26677
810.379	2.06943
813.271	2.64508
816.164	2.51602
819.057	1.49025
821.949	1.41269
824.842	1.46917
827.735	1.36849
830.628	1.12187
833.52	0.955674
836.413	0.897407
839.306	1.37098
842.198	0.626464
845.091	1.22278
847.984	0.991812
850.876	1.44261
853.769	0.650478
856.662	1.80524
859.555	1.11428
862.447	1.07972
865.34	1.12893
868.233	1.02918
871.125	1.11764
874.018	0.281614
876.911	0.705391
879.803	1.11243
882.696	0.646953
885.589	0.27599
888.482	0.086278
891.374	0.127928
894.267	0.505652
897.16	0.942464
900.052	0.222834
902.945	1.09647
905.838	0.422244
908.731	0.561303
911.623	0.115587
914.516	0.832636
917.409	0.461932
920.301	1.07361
923.194	0.8206
926.087	1.95246
928.979	1.21683
931.872	1.8751
934.765	1.45164
937.658	1.30573
940.55	0.946815
943.443	1.72362
946.336	2.07058
949.228	1.98248
952.121	1.7511
955.014	0.832112
957.906	0.461072
960.799	0.837411
963.692	1.26963
966.584	0.152013
969.477	0.098678
972.37	0.06339
975.263	0.269205
978.155	0.646573
981.048	0.28237
983.941	0.295634
986.833	0.274092
989.726	1.14338
992.619	1.20762
995.511	2.35178
998.404	2.44799
1001.3	2.17421
1004.19	3.36132
1007.08	3.02057
1009.98	3.20395
1012.87	4.77616
1015.76	4.63763
1018.65	5.18894
1021.55	5.34636
1024.44	4.86805
1027.33	3.77829
1030.22	2.18005
1033.12	1.14581
1036.01	0.604136
1038.9	0.080936
1041.8	0.293509
1044.69	0.743832
1047.58	0.336767
1050.47	1.07412
1053.37	0.539701
1056.26	0.792429
1059.15	0.999922
1062.04	1.48486
1064.94	2.2211
1067.83	2.7336
1070.72	3.92148
1073.61	4.03602
1076.51	4.35161
1079.4	3.58923
1082.29	4.04217
1085.18	3.72214
1088.08	4.14422
1090.97	3.68491
1093.86	3.8484
1096.76	3.85125
1099.65	4.2609
1102.54	3.9165
1105.43	3.90094
1108.33	3.5666
1111.22	3.2599
1114.11	2.49971
1117.01	1.24528
1119.9	1.26843
1122.79	0.589225
1125.68	0.30161
1128.58	0.598254
1131.47	0.871599
1134.36	0.08926
1137.25	0.275495
1140.15	0.486012
1143.04	0.516883
1145.93	0.165595
1148.82	0.85283
1151.72	0.76264
1154.61	0.005433
1157.5	0.954328
1160.39	0.464201
1163.29	0.367343
1166.18	0.588675
1169.07	0.069481
1171.97	0.179583
1174.86	0.187343
1177.75	0.793863
1180.64	0.438405
1183.54	0.248797
1186.43	1.06453
1189.32	0.815351
1192.21	0.456266
1195.11	0.618721
1198	0.641865
1200.89	1.05384
1203.79	0.866606
1206.68	0.121982
1209.57	1.05859
1212.46	0.655033
1215.36	0.17041
1218.25	1.71145
1221.14	0.661677
1224.04	0.743398
1226.93	0.168931
1229.82	0.433561
1232.71	0.841308
1235.61	0.036181
1238.5	0.688988
1241.39	1.00508
1244.28	0.444414
1247.18	1.53296
1250.07	1.01061
1252.96	0.491223
1255.85	0.170288
1258.75	1.02692
1261.64	0.603492
1264.53	0.801378
1267.42	0.099179
1270.32	0.973507
1273.21	0.196931
1276.1	0.801539
1279	0.139798
1281.89	0.495799
1284.78	1.68333
