Measurement: Raman, 785 nm, unoriented, Raman Data Processed
Mineral: Laurite
Rruff sample: R060309
Ideal chemistry: RuS_2_
Locality: Verkhneivinsk, Ural Mountains, Russia
Source: Michael Scott
Description: Black colored metallic single crystal in the shape of a distorted pyritohedron
Raman shift (cm-1)	intensity
101.761	0
104.654	7.585
107.547	19.629
110.439	9.656
113.332	18.752
116.225	37.687
119.117	12.902
122.01	3.099
124.903	1.588
127.796	40.923
130.688	107.076
133.581	158.11
136.474	145.561
139.366	133.754
142.259	120.413
145.152	188.056
148.044	274.649
150.937	368.274
153.83	381.421
156.722	348.729
159.615	305.577
162.508	350.108
165.4	316.56
168.293	325.508
171.186	315.455
174.079	319.595
176.971	294.374
179.864	263.025
182.757	225.778
185.649	221.986
188.542	191.345
191.435	226.842
194.327	180.291
197.22	187.462
200.113	195.246
203.006	170.696
205.898	135.042
208.791	135.119
211.684	136.872
214.576	110.082
217.469	111.102
220.362	79.332
223.255	52.968
226.147	80.72
229.04	82.182
231.933	43.8
234.825	34.409
237.718	28.342
240.611	10.007
243.503	4.019
246.396	5.113
249.289	16.845
252.182	4.066
255.074	4.193
257.967	8.873
260.86	17.369
263.752	34.537
266.645	6.78
269.538	11.925
272.43	20.878
275.323	52.315
278.216	16.668
281.108	56.648
284.001	71.924
286.894	82.032
289.787	54.339
292.679	21.104
295.572	25.869
298.465	18.974
301.357	23.412
304.25	6.03
307.143	4.214
310.035	1.389
312.928	6.996
315.821	14.058
318.714	13.49
321.606	18.343
324.499	56.496
327.392	141.793
330.284	223.792
333.177	347.569
336.07	658.23
338.962	1350.79
341.855	3081.22
344.748	4355.72
347.641	7540.07
350.533	10863.8
353.426	12484.2
356.319	9788.64
359.211	4188
362.104	1580.55
364.997	877.513
367.889	591.574
370.782	427.404
373.675	388.245
376.568	382.018
379.46	459.851
382.353	515.466
385.246	422.759
388.138	384.862
391.031	408.503
393.924	406.149
396.816	413.326
399.709	388.032
402.602	362.631
405.495	282.107
408.387	230.422
411.28	146.914
414.173	79.406
417.065	2.479
419.958	13.478
422.851	20.787
425.743	15.321
428.636	12.923
431.529	26.662
434.422	35.752
437.314	46.692
440.207	68.42
443.1	78.038
445.992	66.085
448.885	64.55
451.778	51.683
454.671	41.57
457.563	25.413
460.456	3.572
463.349	10.262
466.241	18.801
469.134	23.931
472.027	29.567
474.919	19.008
477.812	1.751
480.705	6.145
483.597	20.773
486.49	3.462
489.383	34.971
492.276	4.358
495.168	14.144
498.061	27.283
500.954	12.162
503.846	45.405
506.739	44.451
509.632	29.536
512.524	27.652
515.417	39.546
518.31	42.455
521.203	27.847
524.095	40.978
526.988	53.54
529.881	29.796
532.773	49.258
535.666	44.462
538.559	36.367
541.451	38.163
544.344	48.271
547.237	38.872
550.13	15.604
553.022	29.729
555.915	46.153
558.808	34.465
561.7	48.179
564.593	65.267
567.486	6.755
570.378	40.887
573.271	28.29
576.164	29.56
579.057	41.001
581.949	5.268
584.842	39.636
587.735	2.914
590.627	14.369
593.52	31.263
596.413	38.744
599.305	42.04
602.198	31.298
605.091	38.724
607.984	42.998
610.876	33.507
613.769	31.843
616.662	17.943
619.554	36.66
622.447	26.993
625.34	22.774
628.232	23.561
631.125	5.275
634.018	29.54
636.911	4.582
639.803	6.733
642.696	13.48
645.589	13.117
648.481	26.776
651.374	1.926
654.267	3.998
657.159	24.697
660.052	34.541
662.945	28.67
665.838	0.603
668.73	36.684
671.623	25.43
674.516	16.83
677.408	23.304
680.301	32.26
683.194	15.548
686.086	53.049
688.979	23.404
691.872	27.208
694.765	42.813
697.657	23.67
700.55	15.51
703.443	23.03
706.335	14.665
709.228	21.817
712.121	21.886
715.013	28.905
717.906	0.161
720.799	25.677
723.692	26.303
726.584	6.001
729.477	15.763
732.37	27.003
735.262	13.539
738.155	34.509
741.048	18.367
743.94	37.362
746.833	40.967
749.726	53.045
752.619	56.567
755.511	27.593
758.404	36.908
761.297	35.522
764.189	41.171
767.082	39.688
769.975	29.46
772.867	77.78
775.76	50.439
778.653	34.008
781.545	60.952
784.438	41.853
787.331	51.534
790.224	49.14
793.116	64.374
796.009	63.163
798.902	65.868
801.794	33.074
804.687	52.821
807.58	76.529
810.472	45.971
813.365	64.913
816.258	27.069
819.151	48.714
822.043	34.065
824.936	23.559
827.829	18.903
830.721	11.347
833.614	17.448
836.507	1.66
839.399	10.949
842.292	0.923
845.185	15.514
848.078	1.433
850.97	9.599
853.863	29.665
856.756	11.479
859.648	12.031
862.541	12.024
865.434	25.023
868.326	3.948
871.219	1.717
874.112	16.786
877.005	24.889
879.897	28.287
882.79	2.902
885.683	2.675
888.575	16.912
891.468	10.96
894.361	30.001
897.253	40.92
900.146	23.149
903.039	21.712
905.932	33.172
908.824	52.325
911.717	21.984
914.61	14.763
917.502	42.744
920.395	26.725
923.288	28.417
926.18	39.765
929.073	16.251
931.966	55.164
934.859	11.494
937.751	14.98
940.644	31.507
943.537	40.735
946.429	21.327
949.322	20.115
952.215	32.316
955.107	38.227
958	3.563
960.893	19.224
963.786	8.273
966.678	40.347
969.571	29.11
972.464	18.089
975.356	5.101
978.249	6.987
981.142	29.671
984.034	6.86
986.927	6.69
989.82	19.212
992.713	21.064
995.605	21.648
998.498	32.127
1001.39	3.388
1004.28	7.312
1007.18	4.27
1010.07	19.361
1012.96	30.735
1015.85	25.195
1018.75	6.588
1021.64	25.127
1024.53	6.589
1027.42	14.615
1030.32	40.317
1033.21	23.211
1036.1	26.295
1039	20.474
1041.89	34.102
1044.78	0.428
1047.67	21.028
1050.57	18.667
1053.46	22.248
1056.35	4.754
1059.24	13.156
1062.14	6.534
1065.03	6.295
1067.92	12.934
1070.82	11.508
1073.71	9.969
1076.6	8.825
1079.49	39.659
1082.39	26.648
1085.28	10.176
1088.17	23.741
1091.06	8.369
1093.96	14.526
1096.85	18.236
1099.74	28.295
1102.63	14.277
1105.53	17.114
1108.42	7.486
1111.31	31.309
1114.21	36.924
1117.1	29.567
1119.99	30.976
1122.88	21.497
1125.78	35.557
1128.67	18.823
1131.56	44.225
1134.45	19.995
1137.35	18.97
1140.24	11.302
1143.13	12.007
1146.03	31.482
1148.92	21.268
1151.81	31.119
1154.7	30.939
1157.6	5.068
1160.49	35.781
1163.38	26.693
1166.27	23.301
1169.17	23.859
1172.06	44.281
1174.95	9.663
1177.85	19.058
1180.74	0.691
1183.63	21.82
1186.52	33.367
1189.42	34.153
1192.31	26.02
1195.2	32.794
1198.09	32.627
1200.99	38.513
1203.88	38.852
1206.77	32.13
1209.66	11.483
1212.56	18.815
1215.45	22.831
1218.34	20.797
1221.24	6.561
1224.13	9.419
1227.02	37.946
1229.91	26.942
1232.81	11.079
1235.7	30.915
1238.59	27.126
1241.48	29.146
1244.38	34.402
1247.27	30.581
1250.16	0.202
