Measurement: Raman, 532 nm, unoriented, Raman Data Processed
Mineral: Laurite
Rruff sample: R110120
Ideal chemistry: RuS_2_
Locality: Tambiano River, Riampinang, Kalimantan Selatan Province, Borneo Island, Indonesia
Source: Mark N Feinglos
Description: Loose aggregate of black grains associated with platinum R110126
Raman shift (cm-1)	intensity
182.577	0
185.469	1.6901
188.362	2.79944
191.255	0.565598
194.147	0.078217
197.04	1.95862
199.933	1.49904
202.825	3.48457
205.718	3.04575
208.611	4.51515
211.504	3.35033
214.396	3.80098
217.289	3.83696
220.182	4.46094
223.074	4.78126
225.967	4.11699
228.86	4.7738
231.752	2.15292
234.645	2.65194
237.538	1.57019
240.43	0.154114
243.323	0.667847
246.216	0.848953
249.109	0.83213
252.001	1.68317
254.894	2.17119
257.787	3.17247
260.679	2.54584
263.572	2.35685
266.465	4.02034
269.358	4.88798
272.25	5.37035
275.143	5.58538
278.036	6.64958
280.928	5.87651
283.821	5.00186
286.714	4.05729
289.606	2.99126
292.499	4.26769
295.392	3.11986
298.284	2.65043
301.177	0.896111
304.07	0.048622
306.963	1.44735
309.855	0.565308
312.748	1.00191
315.641	1.65803
318.533	3.06075
321.426	4.03548
324.319	8.79394
327.212	12.5387
330.104	19.2865
332.997	27.6431
335.89	36.8168
338.782	50.4553
341.675	69.1994
344.568	85.4871
347.46	100.912
350.353	114.05
353.246	125.313
356.139	130.414
359.031	123.567
361.924	96.9599
364.817	66.9082
367.709	48.0484
370.602	39.7642
373.495	34.2439
376.387	30.689
379.28	27.4595
382.173	23.1947
385.065	19.5605
387.958	18.9747
390.851	16.9871
393.744	19.2992
396.636	17.2722
399.529	15.3853
402.422	15.8024
405.314	13.3261
408.207	10.2391
411.1	7.05064
413.993	5.56992
416.885	2.24749
419.778	1.61422
422.671	0.034538
425.563	2.21403
428.456	2.10721
431.349	2.54704
434.241	1.76751
437.134	2.68238
440.027	2.90718
442.92	3.13012
445.812	2.60414
448.705	3.3655
451.598	1.17193
454.49	0.330093
457.383	0.064678
460.276	1.01077
463.168	0.464344
466.061	0.656082
468.954	1.14707
471.846	0.204517
474.739	0.491051
477.632	0.52351
480.525	0.292061
483.417	1.27998
486.31	1.66018
489.203	1.35215
492.095	1.18326
494.988	1.86326
497.881	1.98557
500.774	1.6629
503.666	1.72651
506.559	2.68994
509.452	2.82327
512.344	1.7024
515.237	1.93573
518.13	1.82986
521.022	2.92494
523.915	1.0412
526.808	2.89456
529.701	2.08836
532.593	2.73645
535.486	2.37151
538.379	2.29984
541.271	1.22349
544.164	2.22558
547.057	1.99569
549.949	2.34372
552.842	1.88274
555.735	2.15142
558.628	2.93602
561.52	3.32565
564.413	2.05665
567.306	2.57429
570.198	1.32585
573.091	1.6612
575.984	3.07933
578.876	1.5861
581.769	1.17809
584.662	2.30459
587.554	1.50315
590.447	1.44331
593.34	1.71173
596.232	1.91548
599.125	1.53882
602.018	1.642
604.911	0.69923
607.803	1.59063
610.696	2.12598
613.589	1.32974
616.481	0.536934
619.374	0.793991
622.267	0.01828
625.159	0.388653
628.052	0.203461
630.945	0.794075
633.838	1.62697
636.73	0.747623
639.623	0.505856
642.516	0.315525
645.408	0.203682
648.301	1.15542
651.194	0.724289
654.087	0.846661
656.979	0.045052
659.872	1.17301
662.765	0.615204
665.657	0.859886
668.55	0.718628
671.443	0.902817
674.335	0.431679
677.228	0.972275
680.121	2.03725
683.014	2.2403
685.906	1.72352
688.799	1.49877
691.692	1.86288
694.584	0.594887
697.477	1.80816
700.37	2.39761
703.263	1.54166
706.155	0.876785
709.048	1.05428
711.941	1.41564
714.833	0.355972
717.726	0.407661
720.619	0.691261
723.511	0.730019
726.404	0.451546
729.297	0.023697
732.189	0.430817
735.082	1.48162
737.975	1.87736
740.868	3.03785
743.76	1.77057
746.653	2.33912
749.546	2.43932
752.438	2.15213
755.331	2.63001
758.224	2.60779
761.116	2.32848
764.009	2.79017
766.902	3.48836
769.795	1.33069
772.687	1.38628
775.58	3.14769
778.473	3.6975
781.365	3.31763
784.258	2.92063
787.151	4.20288
790.043	2.53242
792.936	2.69517
795.829	3.07473
798.722	2.28733
801.614	3.2989
804.507	2.74262
807.4	2.78476
810.292	3.6617
813.185	3.55873
816.078	1.49801
818.971	2.65957
821.863	2.29512
824.756	3.26682
827.649	1.53825
830.541	1.8247
833.434	2.06869
836.327	1.06239
839.219	1.20548
842.112	0.887497
845.005	2.38065
847.898	2.30377
850.79	2.25281
853.683	2.92114
856.576	2.2224
859.468	3.23619
862.361	3.02075
865.254	3.63387
868.146	2.52126
871.039	1.68463
873.932	1.66514
876.824	2.5517
879.717	2.53642
882.61	1.29528
885.503	1.07661
888.395	0.033524
891.288	0.795631
894.181	0.37262
897.073	0.150925
899.966	0.151009
902.859	2.43217
905.751	0.609993
908.644	0.647415
911.537	0.370697
914.43	1.17725
917.322	0.331367
920.215	0.427773
923.108	1.00183
926	0.182503
928.893	0.239296
931.786	1.88215
934.678	0.743053
937.571	0.272491
940.464	0.925709
943.357	0.036057
946.249	0.398846
949.142	1.00866
952.035	1.31015
954.927	2.10383
957.82	1.27251
960.713	0.825287
963.606	0.568283
966.498	0.325092
969.391	1.4578
972.284	1.20813
975.176	0.523232
978.069	1.01293
980.962	1.60281
983.854	1.15326
986.747	0.537991
989.64	1.10083
992.533	0.563164
995.425	0.52906
998.318	1.21648
1001.21	2.11285
1004.1	0.749252
1007	1.4214
1009.89	1.4
1012.78	0.158962
1015.67	0.709923
1018.57	1.22808
1021.46	1.22877
1024.35	1.25974
1027.24	0.764328
1030.14	1.46785
1033.03	2.03442
1035.92	1.79067
1038.82	1.27083
1041.71	2.8051
1044.6	0.760841
1047.49	0.906918
1050.39	2.67171
1053.28	2.92298
1056.17	1.46708
1059.07	1.37424
1061.96	0.318169
1064.85	1.57053
1067.74	0.911224
1070.63	1.40556
1073.53	1.25526
1076.42	1.45402
1079.31	0.11013
1082.21	0.980175
1085.1	0.656288
1087.99	0.493599
1090.88	0.084679
1093.78	1.08976
1096.67	1.3413
1099.56	1.08658
1102.45	0.224174
1105.35	0.264706
1108.24	1.1419
1111.13	0.389107
1114.03	0.174595
1116.92	0.55788
1119.81	0.368565
1122.7	0.83194
1125.6	1.61285
1128.49	1.00578
1131.38	1.02701
1134.28	0.375591
1137.17	0.86356
1140.06	1.44828
1142.95	1.36513
1145.85	1.22296
1148.74	1.07219
1151.63	0.165222
1154.52	0.43116
1157.42	0.492622
1160.31	0.534126
1163.2	1.69319
1166.09	1.04232
1168.99	0.175385
1171.88	0.719406
1174.77	0.872643
1177.66	0.594994
1180.56	0.930836
1183.45	0.770844
1186.34	1.70658
1189.24	0.677505
1192.13	1.47035
1195.02	1.20532
1197.91	0.852039
1200.81	0.998714
1203.7	1.17627
1206.59	1.74225
1209.48	1.24205
1212.38	1.3151
1215.27	2.45235
1218.16	0.874958
1221.06	1.24463
1223.95	0.990776
1226.84	1.43405
1229.73	1.13349
1232.63	1.41706
1235.52	1.00135
1238.41	0.433712
1241.31	1.28361
1244.2	0.610607
1247.09	0.718109
1249.98	0.459946
1252.88	0.198433
1255.77	0.170006
1258.66	1.27892
1261.55	1.0973
1264.45	1.10742
1267.34	1.03043
1270.23	1.42161
1273.12	1.62312
1276.02	1.19418
1278.91	1.23576
1281.8	0.271797
1284.69	0.874413
1287.59	0.402557
1290.48	1.18529
1293.37	0.995537
1296.27	1.04547
1299.16	1.43152
1302.05	0.301041
