Measurement: Raman, 532 nm, unoriented, Raman Data Processed
Mineral: Laurelite
Rruff sample: R100035
Ideal chemistry: Pb_7_F_12_Cl_2_
Locality: Grand Reef mine, Klondyke, Aravaipa District, Graham County, Arizona, USA
Source: Natural History Museum of Los Angeles County
Description: Colorless fragments from the type specimen, associated with grandreefite R100012 and pseudograndreefite R100006.  Photos of type specimen are courtesy of LACMNH.
Raman shift (cm-1)	intensity
90.4922	0
93.867	7.0567
97.2418	49.3933
100.617	83.401
103.992	139.724
107.366	167.854
110.741	274.652
114.116	275.78
117.491	191.53
120.865	109.72
124.24	25.4775
127.615	33.6622
130.99	64.5607
134.365	43.5398
137.74	82.1356
141.114	267.289
144.489	368.496
147.864	574.757
151.239	917.039
154.614	1206.33
157.988	1351.25
161.363	1474.15
164.738	1646.76
168.113	1676.05
171.488	1644.79
174.863	1550.64
178.237	1476.59
181.612	1424
184.987	1369.35
188.362	1296.86
191.737	1214.62
195.112	1150.14
198.486	1113.04
201.861	1084.02
205.236	1056.53
208.611	1054.13
211.986	1075.83
215.36	1130.74
218.735	1229.48
222.11	1338.2
225.485	1445.44
228.86	1563.91
232.234	1665.87
235.609	1762.7
238.984	1781.59
242.359	1748.89
245.734	1648.38
249.109	1474.94
252.483	1248.39
255.858	1018.26
259.233	778.09
262.608	585.032
265.983	439.479
269.358	335.269
272.732	243.868
276.107	169.79
279.482	124.872
282.857	93.2649
286.232	58.4886
289.606	46.2035
292.981	27.2669
296.356	3.4198
299.731	9.70422
303.106	25.1956
306.481	27.3026
309.855	28.9065
313.23	29.6654
316.605	18.9482
319.98	15.3881
323.355	2.22778
326.729	6.14307
330.104	25.5369
333.479	26.6935
336.854	35.1626
340.229	57.6393
343.603	79.2249
346.978	99.7897
350.353	122.282
353.728	161.776
357.103	180.652
360.478	191.845
363.852	177.762
367.227	166.978
370.602	145.252
373.977	119.572
377.352	97.2062
380.726	77.3633
384.101	64.5147
387.476	54.8027
390.851	45.4336
394.226	30.9092
397.601	30.1277
400.975	29.8185
404.35	22.1497
407.725	29.6671
411.1	28.4955
414.475	37.4662
417.849	35.0453
421.224	32.9832
424.599	28.8016
427.974	30.1865
431.349	38.0999
434.724	35.593
438.098	32.4027
441.473	30.1158
444.848	26.3285
448.223	22.6205
451.598	16.1237
454.972	18.6232
458.347	19.5112
461.722	28.7793
465.097	25.0632
468.472	22.199
471.846	20.5452
475.221	22.2877
478.596	23.1425
481.971	31.5558
485.346	37.1199
488.721	30.2749
492.095	44.6919
495.47	61.2949
498.845	71.1775
502.22	78.5454
505.595	72.5424
508.969	63.0933
512.344	45.5395
515.719	18.792
519.094	5.76575
522.469	0.133179
525.844	2.43433
529.218	3.5293
532.593	1.47913
535.968	1.66284
539.343	4.64893
542.718	9.54431
546.092	5.33545
549.467	11.4628
552.842	16.6034
556.217	18.2314
559.592	22.4224
562.967	20.4104
566.341	22.6802
569.716	24.7837
573.091	24.4423
576.466	27.9206
579.841	27.8369
583.216	39.8622
586.59	47.0132
589.965	43.9789
593.34	65.3619
596.715	75.3837
600.09	83.2883
603.464	76.1258
606.839	73.8744
610.214	75.698
613.589	60.9271
616.964	44.4423
620.338	46.8682
623.713	29.8091
627.088	25.5242
630.463	17.8884
633.838	21.6954
637.212	16.2413
640.587	13.5261
643.962	12.5655
647.337	19.1326
650.712	25.9702
654.087	21.2194
657.461	16.391
660.836	25.1605
664.211	19.0933
667.586	10.7967
670.961	22.2231
674.335	13.3756
677.71	12.9215
681.085	7.9458
684.46	1.91138
687.835	10.3456
691.21	4.74377
694.584	2.14807
697.959	2.77197
701.334	8.80127
704.709	7.24048
708.084	0.269531
711.458	4.80847
714.833	6.66943
718.208	2.97656
721.583	2.83923
724.958	11.8138
728.332	15.048
731.707	15.8164
735.082	21.0012
738.457	21.1584
741.832	15.7244
745.207	17.015
748.581	14.8469
751.956	18.069
755.331	18.4525
758.706	12.0533
762.081	7.4353
765.456	6.30701
768.83	7.12488
772.205	11.5018
775.58	15.1582
778.955	11.7913
782.33	15.5398
785.704	5.86536
789.079	5.55078
792.454	13.1471
795.829	20.6603
799.204	22.7471
802.578	32.4844
805.953	55.1578
809.328	74.303
812.703	85.8368
816.078	75.1577
819.453	41.5066
822.827	33.4266
826.202	16.049
829.577	15.533
832.952	19.4083
836.327	18.3398
839.702	24.0867
843.076	43.5875
846.451	54.0903
849.826	88.7966
853.201	140.5
856.576	165.344
859.95	164.155
863.325	136.716
866.7	76.3144
870.075	39.0311
873.45	21.3857
876.824	16.9779
880.199	9.22192
883.574	3.58411
886.949	4.92773
890.324	1.12903
893.698	1.11963
897.073	0.209351
900.448	2.63965
903.823	0.586304
907.198	1.39441
910.573	4.13769
913.947	3.88245
917.322	1.03772
920.697	9.76062
924.072	4.88721
927.447	9.67969
930.822	4.95373
934.196	4.26282
937.571	0.886719
940.946	1.56262
944.321	4.47961
947.696	6.78918
951.07	1.74731
954.445	10.6053
957.82	8.15491
961.195	18.8418
964.57	23.0291
967.944	9.95801
971.319	14.4071
974.694	14.0327
978.069	17.4237
981.444	21.59
984.819	17.9521
988.193	27.5148
991.568	24.3959
994.943	20.6574
998.318	17.0309
1001.69	34.6124
1005.07	26.3344
1008.44	16.1018
1011.82	20.1339
1015.19	15.9967
1018.57	14.0185
1021.94	10.3591
1025.32	2.43225
1028.69	15.9431
1032.07	16.8839
1035.44	32.7882
1038.82	23.9156
1042.19	14.6812
1045.57	1.52002
1048.94	1.32812
1052.32	6.40662
1055.69	2.46704
1059.07	4.31665
1062.44	3.72827
1065.81	4.40088
1069.19	4.23755
1072.56	0.674561
1075.94	10.6614
1079.31	17.7139
1082.69	26.8018
1086.06	34.8335
1089.44	40.0654
1092.81	58.1863
1096.19	56.4021
1099.56	73.614
1102.94	77.6265
1106.31	95.7634
1109.69	102.736
1113.06	114.059
1116.44	112.817
1119.81	90.9011
1123.19	71.1116
1126.56	37.5686
1129.94	30.696
1133.31	27.2764
1136.68	29.1108
1140.06	26.4827
1143.43	20.8688
1146.81	32.5787
1150.18	42.8921
1153.56	46.2112
1156.93	49.6313
1160.31	42.4148
1163.68	48.2545
1167.06	38.1941
1170.43	29.3402
1173.81	29.0139
1177.18	13.0747
1180.56	18.8309
1183.93	14.6202
1187.31	8.76977
1190.68	0.279907
1194.06	1.14062
1197.43	4.53711
1200.81	8.9292
1204.18	5.18506
1207.56	3.30884
1210.93	6.30945
1214.31	6.89246
1217.68	0.848877
1221.06	4.45996
1224.43	9.12305
1227.81	19.9352
1231.18	24.6904
1234.56	32.9027
1237.93	34.6938
1241.31	26.6069
1244.68	39.921
1248.05	44.4584
1251.43	41.0255
1254.8	39.8268
1258.18	31.6047
1261.55	30.8756
1264.93	31.3425
1268.3	34.4646
1271.68	38.627
1275.05	24.0178
1278.43	20.1606
1281.8	9.53125
1285.18	0.32959
1288.55	7.26294
1291.93	1.05957
1295.3	6.39404
1298.68	11.9871
1302.05	9.14355
