Measurement: Raman, 780 nm, unoriented, Raman Data Processed
Mineral: Laurelite
Rruff sample: R100035
Ideal chemistry: Pb_7_F_12_Cl_2_
Locality: Grand Reef mine, Klondyke, Aravaipa District, Graham County, Arizona, USA
Source: Natural History Museum of Los Angeles County
Description: Colorless fragments from the type specimen, associated with grandreefite R100012 and pseudograndreefite R100006.  Photos of type specimen are courtesy of LACMNH.
Raman shift (cm-1)	intensity
92.4974	0
95.8722	31.2915
99.2471	74.9584
102.622	164.324
105.997	261.88
109.371	278.527
112.746	267.369
116.121	281.607
119.496	271.181
122.871	173.055
126.246	58.2567
129.62	4.65372
132.995	13.1339
136.37	11.5359
139.745	6.6373
143.12	2.20166
146.494	11.3386
149.869	23.218
153.244	44.7586
156.619	62.1824
159.994	77.1205
163.369	83.3907
166.743	80.5257
170.118	73.0886
173.493	69.1729
176.868	65.8225
180.243	61.3117
183.618	59.9453
186.992	60.2647
190.367	56.4096
193.742	48.7044
197.117	45.3251
200.492	47.7427
203.866	59.8187
207.241	77.8659
210.616	98.3649
213.991	129.517
217.366	164.94
220.74	208.311
224.115	247.311
227.49	289.833
230.865	326.027
234.24	353.763
237.615	365.007
240.989	362.38
244.364	340.157
247.739	298.592
251.114	245.655
254.489	191.992
257.863	142.899
261.238	102.421
264.613	70.6921
267.988	49.4254
271.363	33.5364
274.738	22.3984
278.112	14.0492
281.487	11.8634
284.862	6.41655
288.237	3.38187
291.612	0.265457
294.986	0.044113
298.361	1.3983
301.736	2.41457
305.111	2.8013
308.486	0.528625
311.861	1.66724
315.235	2.45787
318.61	0.695465
321.985	0.442276
325.36	0.420456
328.735	3.33183
332.109	4.84604
335.484	4.90317
338.859	5.86093
342.234	8.22456
345.609	8.8609
348.984	11.2478
352.358	7.44446
355.733	12.4766
359.108	12.3478
362.483	9.09163
365.858	7.74454
369.233	6.86678
372.607	5.14346
375.982	2.83546
379.357	0.155746
382.732	1.86054
386.106	3.10521
389.481	0.999847
392.856	2.6897
396.231	2.39719
399.606	3.09616
402.981	2.78664
406.355	4.13812
409.73	3.13025
413.105	5.10349
416.48	4.67248
419.855	5.24229
423.229	9.06949
426.604	6.14899
429.979	7.24379
433.354	5.27078
436.729	8.3969
440.104	7.36174
443.478	7.80776
446.853	5.59609
450.228	5.74692
453.603	4.70105
456.978	5.67032
460.353	6.99852
463.727	4.99808
467.102	5.98256
470.477	3.22737
473.852	5.30536
477.227	2.9586
480.601	5.17578
483.976	4.81192
487.351	5.64191
490.726	5.3049
494.101	4.60542
497.476	4.19576
500.85	5.37941
504.225	3.62942
507.6	5.62625
510.975	2.38692
514.35	1.64716
517.724	1.4807
521.099	2.49371
524.474	1.11467
527.849	2.01453
531.224	1.98326
534.598	0.337952
537.973	0.377426
541.348	1.10263
544.723	0.432297
548.098	2.44093
551.472	1.6409
554.847	0.368698
558.222	0.761292
561.597	0.158752
564.972	1.86414
568.347	1.2075
571.721	2.05267
575.096	3.4142
578.471	0.922516
581.846	2.31854
585.221	3.55069
588.596	2.74684
591.97	4.98646
595.345	3.58943
598.72	4.92648
602.095	4.3343
605.47	4.19498
608.845	3.34023
612.219	3.72313
615.594	3.98326
618.969	3.93426
622.344	1.11002
625.719	1.19835
629.093	3.08716
632.468	2.15439
635.843	3.03897
639.218	2.89607
642.593	1.42494
645.967	3.59439
649.342	2.72569
652.717	1.54373
656.092	2.09697
659.467	2.73389
662.842	2.57606
666.216	0.584076
669.591	3.4126
672.966	1.17932
676.341	1.31921
679.716	0.544647
683.091	2.23506
686.465	2.7113
689.84	2.81572
693.215	1.88069
696.59	1.66937
699.965	1.21745
703.339	0.637543
706.714	0.795685
710.089	0.906754
713.464	0.856842
716.839	1.82387
720.213	1.30534
723.588	0.081985
726.963	1.66882
730.338	2.28336
733.713	1.79418
737.087	1.75347
740.462	0.911392
743.837	2.13509
747.212	0.485657
750.587	2.67498
753.962	0.657761
757.336	2.23412
760.711	1.29859
764.086	2.00007
767.461	0.300522
770.836	1.42268
774.211	1.07079
777.585	0.759216
780.96	0.619339
784.335	1.18933
787.71	1.47791
791.085	3.23823
794.459	3.27089
797.834	2.34992
801.209	5.02086
804.584	2.18854
807.959	3.74314
811.333	4.34164
814.708	3.60869
818.083	2.34006
821.458	1.18169
824.833	0.773636
828.208	3.25952
831.582	3.29833
834.957	2.09672
838.332	2.01424
841.707	2.39287
845.082	4.89648
848.457	4.6514
851.831	6.25864
855.206	7.87662
858.581	6.82183
861.956	3.83368
865.331	3.77786
868.705	4.10418
872.08	2.59312
875.455	3.9493
878.83	4.11759
882.205	1.99544
885.58	2.20533
888.954	0.707306
892.329	1.45581
895.704	1.21757
899.079	0.595383
902.454	1.30367
905.828	1.71909
909.203	1.00752
912.578	1.12264
915.953	1.90665
919.328	2.3753
922.702	0.822266
926.077	1.53162
929.452	0.164391
932.827	0.430855
936.202	1.48477
939.577	1.73488
942.951	0.300804
946.326	0.532005
949.701	0.092018
953.076	0.374535
956.451	2.63374
959.825	1.44643
963.2	2.02201
966.575	3.56059
969.95	1.37584
973.325	0.666534
976.699	1.07012
980.074	2.00635
983.449	1.13809
986.824	0.87851
990.199	1.80096
993.574	2.0618
996.948	1.52002
1000.32	1.98771
1003.7	2.18069
1007.07	1.68436
1010.45	1.90709
1013.82	0.855026
1017.2	1.18123
1020.57	2.25275
1023.95	1.78096
1027.32	2.83883
1030.7	4.4636
1034.07	1.00885
1037.45	0.976662
1040.82	1.3646
1044.2	3.1807
1047.57	2.37569
1050.94	3.57391
1054.32	1.59178
1057.69	1.59872
1061.07	1.56605
1064.44	3.37287
1067.82	2.44722
1071.19	1.66077
1074.57	0.703957
1077.94	4.03636
1081.32	3.43869
1084.69	3.598
1088.07	3.27903
1091.44	4.78843
1094.82	5.65494
1098.19	5.56265
1101.57	6.37785
1104.94	6.42349
1108.32	8.12556
1111.69	6.57415
1115.07	6.09174
1118.44	6.06387
1121.82	5.00583
1125.19	3.48566
1128.57	4.5562
1131.94	1.62724
1135.32	2.2735
1138.69	1.29393
1142.07	0.47113
1145.44	0.358597
1148.82	1.4463
1152.19	1.29816
1155.57	0.396408
1158.94	1.35729
1162.31	0.000107
1165.69	1.48402
1169.06	1.45715
1172.44	0.472244
1175.81	0.145401
1179.19	2.44015
1182.56	1.65372
1185.94	1.23363
1189.31	2.49664
1192.69	1.45606
1196.06	3.63524
1199.44	3.75818
1202.81	5.22694
1206.19	7.64267
1209.56	8.63855
1212.94	12.1657
1216.31	15.5861
1219.69	18.6768
1223.06	21.6572
1226.44	32.2293
1229.81	36.3631
1233.19	37.7623
1236.56	42.28
1239.93	43.46
1243.31	40.2689
1246.68	40.2702
1250.06	39.3725
1253.43	38.6746
1256.81	36.1453
1260.18	40.2252
1263.56	35.7985
1266.93	27.0429
1270.31	22.3411
1273.68	17.1901
1277.06	10.1617
1280.43	2.59454
1283.81	0.701599
