Measurement: Raman, 780 nm, unoriented, Raman Data Processed
Mineral: Laurelite
Rruff sample: R100011
Ideal chemistry: Pb_7_F_12_Cl_2_
Locality: Grand Reef mine, Klondyke, Aravaipa District, Graham County, Arizona, USA
Source: William W. Pinch
Description: Both prismatic and acicular colorless crystals associated with aravaipaite R100032 and scotlandite R100043
Raman shift (cm-1)	intensity
92.4974	0
95.8722	47.0094
99.2471	142.688
102.622	312.477
105.997	504.351
109.371	550.727
112.746	502.138
116.121	532.398
119.496	535.81
122.871	364.006
126.246	115.434
129.62	16.8319
132.995	17.377
136.37	16.7224
139.745	19.1693
143.12	2.94177
146.494	25.7189
149.869	56.5444
153.244	100.3
156.619	138.748
159.994	154.787
163.369	162.116
166.743	155.025
170.118	136.754
173.493	123.897
176.868	106.136
180.243	102.36
183.618	106.264
186.992	109.916
190.367	103.901
193.742	84.3508
197.117	72.2699
200.492	74.0901
203.866	92.0284
207.241	128.396
210.616	170.374
213.991	235.06
217.366	313.555
220.74	406.702
224.115	498.898
227.49	603.768
230.865	697.246
234.24	773.444
237.615	826.87
240.989	839.461
244.364	809.991
247.739	748.201
251.114	635.583
254.489	507.392
257.863	379.249
261.238	272.524
264.613	186.67
267.988	132.649
271.363	84.4391
274.738	56.0908
278.112	32.8315
281.487	24.6493
284.862	11.5253
288.237	9.90485
291.612	2.49322
294.986	1.5838
298.361	5.20825
301.736	7.66589
305.111	8.79468
308.486	6.66608
311.861	5.15625
315.235	4.34271
318.61	0.106262
321.985	4.55023
325.36	1.75256
328.735	3.41821
332.109	6.06848
335.484	7.59393
338.859	12.4663
342.234	13.7756
345.609	16.9798
348.984	17.0851
352.358	18.8508
355.733	19.7952
359.108	18.6061
362.483	20.0255
365.858	16.0892
369.233	12.5195
372.607	10.7498
375.982	10.2766
379.357	8.29614
382.732	6.61578
386.106	7.97922
389.481	10.5244
392.856	12.2816
396.231	17.5405
399.606	20.2446
402.981	24.755
406.355	29.126
409.73	28.8246
413.105	28.7216
416.48	21.5332
419.855	23.0754
423.229	17.4276
426.604	14.5323
429.979	10.596
433.354	7.72076
436.729	7.74362
440.104	1.0405
443.478	2.65463
446.853	3.46033
450.228	4.0723
453.603	1.41019
456.978	0.605499
460.353	2.5495
463.727	5.79639
467.102	6.2688
470.477	7.37891
473.852	15.8926
477.227	17.4397
480.601	21.1114
483.976	24.2365
487.351	20.1241
490.726	14.8214
494.101	14.263
497.476	11.5822
500.85	10.8971
504.225	7.53955
507.6	9.82169
510.975	12.7617
514.35	13.0168
517.724	20.4459
521.099	22.1823
524.474	25.7737
527.849	18.0864
531.224	8.89404
534.598	9.05475
537.973	3.25839
541.348	0.244873
544.723	1.95425
548.098	1.65106
551.472	0.239716
554.847	2.05063
558.222	1.26901
561.597	3.29538
564.972	2.49912
568.347	8.21472
571.721	11.0254
575.096	12.5307
578.471	16.9399
581.846	22.7492
585.221	23.4541
588.596	25.4551
591.97	26.963
595.345	28.3781
598.72	29.4456
602.095	25.9827
605.47	25.947
608.845	20.2495
612.219	21.3184
615.594	16.5673
618.969	18.2418
622.344	13.8171
625.719	19.6025
629.093	20.2636
632.468	19.1996
635.843	17.2229
639.218	17.4475
642.593	16.311
645.967	12.496
649.342	7.42212
652.717	5.29312
656.092	3.11371
659.467	2.34473
662.842	0.441559
666.216	0.105804
669.591	1.03778
672.966	1.67612
676.341	0.333374
679.716	0.036407
683.091	0.161835
686.465	0.190491
689.84	3.57733
693.215	7.07861
696.59	9.99985
699.965	12.0974
703.339	12.1045
706.714	11.9623
710.089	11.0538
713.464	12.3072
716.839	8.26752
720.213	8.16251
723.588	5.24432
726.963	3.86752
730.338	7.14694
733.713	4.99133
737.087	8.53628
740.462	7.76199
743.837	10.5691
747.212	14.1401
750.587	16.9578
753.962	19.0919
757.336	18.7138
760.711	17.2534
764.086	18.2544
767.461	15.8492
770.836	12.9615
774.211	10.3434
777.585	3.56375
780.96	5.49793
784.335	1.23651
787.71	1.71164
791.085	2.93405
794.459	1.72314
797.834	2.19531
801.209	0.539703
804.584	1.92963
807.959	0.148163
811.333	0.845093
814.708	1.78171
818.083	4.09003
821.458	3.74069
824.833	0.983093
828.208	2.37778
831.582	1.95606
834.957	0.216431
838.332	0.629944
841.707	0.331482
845.082	3.10358
848.457	3.08853
851.831	6.10117
855.206	5.21326
858.581	3.77817
861.956	1.45367
865.331	5.09619
868.705	3.86734
872.08	2.4483
875.455	3.4902
878.83	2.05783
882.205	2.33405
885.58	8.35346
888.954	0.708099
892.329	0.221741
895.704	3.0098
899.079	3.15427
902.454	4.51321
905.828	3.90768
909.203	4.92142
912.578	1.49686
915.953	2.99936
919.328	2.75565
922.702	1.39127
926.077	0.970764
929.452	0.359467
932.827	1.92865
936.202	3.01175
939.577	0.475098
942.951	3.11746
946.326	0.714783
949.701	2.07129
953.076	1.01578
956.451	0.660767
959.825	2.88995
963.2	0.842224
966.575	2.4617
969.95	1.57111
973.325	3.448
976.699	2.80051
980.074	2.52734
983.449	5.24347
986.824	2.5903
990.199	5.14905
993.574	4.35489
996.948	0.725494
1000.32	2.72659
1003.7	3.43674
1007.07	2.7142
1010.45	2.4238
1013.82	0.37561
1017.2	1.31811
1020.57	3.67883
1023.95	2.05002
1027.32	2.08679
1030.7	4.7876
1034.07	1.33026
1037.45	2.29001
1040.82	1.80063
1044.2	3.2334
1047.57	2.26797
1050.94	3.10657
1054.32	3.35107
1057.69	2.64484
1061.07	4.48941
1064.44	0.888489
1067.82	1.80923
1071.19	1.71054
1074.57	2.67441
1077.94	2.64017
1081.32	6.12018
1084.69	3.89459
1088.07	5.22598
1091.44	4.68808
1094.82	7.26517
1098.19	6.21527
1101.57	6.06683
1104.94	8.2095
1108.32	6.84701
1111.69	8.99954
1115.07	8.94449
1118.44	8.27267
1121.82	8.32828
1125.19	9.59998
1128.57	8.67865
1131.94	6.18988
1135.32	5.96417
1138.69	3.23587
1142.07	3.24298
1145.44	2.87054
1148.82	3.11359
1152.19	2.26144
1155.57	0.345764
1158.94	4.05396
1162.31	3.71036
1165.69	5.2933
1169.06	5.01581
1172.44	3.64655
1175.81	3.0184
1179.19	6.53754
1182.56	4.56433
1185.94	3.91687
1189.31	3.78418
1192.69	0.116791
1196.06	1.7196
1199.44	3.11704
1202.81	0.034241
1206.19	1.83331
1209.56	0.143646
1212.94	0.293701
1216.31	1.55612
1219.69	0.277344
1223.06	0.364197
1226.44	0.343781
1229.81	1.05481
1233.19	2.11829
1236.56	5.06021
1239.93	2.47671
1243.31	3.41303
1246.68	4.84433
1250.06	5.76016
1253.43	7.82742
1256.81	7.77197
1260.18	5.76749
1263.56	8.69333
1266.93	9.62598
1270.31	8.25284
1273.68	4.24972
1277.06	3.25119
1280.43	3.2197
1283.81	3.52292
