Measurement: Raman, 532 nm, unoriented, Raman Data Processed
Mineral: Laurelite
Rruff sample: R100011
Ideal chemistry: Pb_7_F_12_Cl_2_
Locality: Grand Reef mine, Klondyke, Aravaipa District, Graham County, Arizona, USA
Source: William W. Pinch
Description: Both prismatic and acicular colorless crystals associated with aravaipaite R100032 and scotlandite R100043
Raman shift (cm-1)	intensity
90.4922	0
93.867	14.3535
97.2418	41.8335
100.617	72.3795
103.992	99.9761
107.366	123.858
110.741	206.147
114.116	174.006
117.491	108.813
120.865	46.3582
124.24	1.84562
127.615	39.9535
130.99	55.4211
134.365	16.2679
137.74	106.478
141.114	217.627
144.489	304.233
147.864	495.575
151.239	741.342
154.614	935.971
157.988	1068.14
161.363	1212.63
164.738	1347.48
168.113	1318.24
171.488	1223.8
174.863	1118.17
178.237	1042.65
181.612	980.331
184.987	947.102
188.362	898.225
191.737	862.996
195.112	840.94
198.486	827.423
201.861	809.952
205.236	818.814
208.611	863.831
211.986	953.468
215.36	1105.55
218.735	1301.78
222.11	1535.21
225.485	1791.17
228.86	2063.6
232.234	2313.99
235.609	2521.03
238.984	2650.47
242.359	2673.25
245.734	2546.4
249.109	2289.76
252.483	1932.97
255.858	1529.02
259.233	1142.71
262.608	827.095
265.983	593.739
269.358	417.141
272.732	290.741
276.107	198.184
279.482	134.464
282.857	91.5051
286.232	59.2991
289.606	39.2574
292.981	20.953
296.356	2.41693
299.731	13.5975
303.106	27.1885
306.481	30.2924
309.855	33.807
313.23	27.5964
316.605	21.614
319.98	8.77997
323.355	1.3158
326.729	8.8692
330.104	10.1079
333.479	22.3027
336.854	30.1815
340.229	43.9308
343.603	56.9825
346.978	68.9354
350.353	80.4827
353.728	96.3988
357.103	107.306
360.478	117.837
363.852	119.184
367.227	116.008
370.602	106.079
373.977	94.7486
377.352	84.7747
380.726	76.4272
384.101	70.0071
387.476	64.4554
390.851	61.0896
394.226	58.3413
397.601	50.0898
400.975	46.1662
404.35	49.015
407.725	50.0677
411.1	49.171
414.475	46.3793
417.849	39.96
421.224	37.5924
424.599	31.4474
427.974	33.3433
431.349	34.4973
434.724	27.9973
438.098	27.3413
441.473	22.3276
444.848	22.435
448.223	16.4666
451.598	16.6948
454.972	12.2928
458.347	12.4993
461.722	12.3432
465.097	11.5204
468.472	13.1659
471.846	12.5658
475.221	10.3844
478.596	11.8563
481.971	10.5193
485.346	12.9937
488.721	12.518
492.095	10.6969
495.47	8.40985
498.845	10.9183
502.22	5.13889
505.595	5.1897
508.969	6.53476
512.344	5.84674
515.719	8.56378
519.094	8.56198
522.469	6.5163
525.844	10.351
529.218	6.84598
532.593	0.050415
535.968	0.223145
539.343	3.51428
542.718	0.762329
546.092	1.58502
549.467	2.79276
552.842	1.33252
556.217	0.319977
559.592	3.06735
562.967	6.11557
566.341	5.0459
569.716	7.75787
573.091	8.46072
576.466	9.50104
579.841	12.2056
583.216	14.8199
586.59	15.5796
589.965	23.7355
593.34	21.2664
596.715	22.7094
600.09	25.903
603.464	25.3513
606.839	18.8125
610.214	21.1133
613.589	21.4694
616.964	14.3033
620.338	15.7673
623.713	16.138
627.088	20.2004
630.463	19.1529
633.838	19.4551
637.212	19.6079
640.587	14.5236
643.962	13.6708
647.337	12.4101
650.712	12.0305
654.087	10.2967
657.461	5.97598
660.836	8.26053
664.211	4.34555
667.586	4.07257
670.961	3.56781
674.335	1.50787
677.71	1.77808
681.085	2.73013
684.46	1.8613
687.835	1.37119
691.21	1.42401
694.584	0.646484
697.959	3.18192
701.334	4.10486
704.709	2.40231
708.084	5.47223
711.458	2.78272
714.833	5.39053
718.208	0.767975
721.583	2.32864
724.958	2.00739
728.332	3.15555
731.707	1.35599
735.082	1.18057
738.457	3.75891
741.832	4.12442
745.207	3.29614
748.581	6.50568
751.956	5.8432
755.331	6.74121
758.706	9.77918
762.081	6.13892
765.456	7.61414
768.83	6.0047
772.205	8.01254
775.58	3.76047
778.955	6.65408
782.33	0.536163
785.704	1.32916
789.079	0.553986
792.454	4.2503
795.829	0.43454
799.204	0.735809
802.578	5.08154
805.953	4.90308
809.328	5.8775
812.703	8.03488
816.078	4.35181
819.453	4.01016
822.827	5.12732
826.202	4.46713
829.577	3.08548
832.952	4.12393
836.327	4.02115
839.702	2.49875
843.076	1.88702
846.451	4.34616
849.826	2.73926
853.201	6.01007
856.576	8.93451
859.95	8.78183
863.325	7.59436
866.7	3.97516
870.075	3.98657
873.45	2.66415
876.824	0.262878
880.199	1.22833
883.574	0.189117
886.949	0.789459
890.324	1.71967
893.698	1.30106
897.073	1.40067
900.448	2.66425
903.823	0.34845
907.198	0.682709
910.573	0.129364
913.947	1.87131
917.322	1.49097
920.697	4.0639
924.072	4.24484
927.447	0.176086
930.822	2.12131
934.196	0.459656
937.571	1.56439
940.946	0.505127
944.321	0.686523
947.696	2.10367
951.07	4.16678
954.445	4.06949
957.82	2.00641
961.195	1.59308
964.57	2.28595
967.944	3.16647
971.319	3.19717
974.694	1.18436
978.069	4.41464
981.444	5.33951
984.819	5.57916
988.193	8.4007
991.568	4.59454
994.943	4.36804
998.318	3.02716
1001.69	4.97931
1005.07	4.9856
1008.44	2.24368
1011.82	4.17691
1015.19	4.13095
1018.57	4.11688
1021.94	4.01675
1025.32	1.86472
1028.69	3.3916
1032.07	3.20404
1035.44	6.64609
1038.82	4.55374
1042.19	1.6427
1045.57	4.52396
1048.94	0.292511
1052.32	2.5628
1055.69	4.44351
1059.07	1.18921
1062.44	1.2038
1065.81	1.56003
1069.19	1.27805
1072.56	2.35251
1075.94	2.12412
1079.31	1.42239
1082.69	1.17612
1086.06	0.359344
1089.44	1.74695
1092.81	1.93234
1096.19	4.31989
1099.56	4.03259
1102.94	4.18622
1106.31	7.02216
1109.69	6.6832
1113.06	5.09814
1116.44	6.8974
1119.81	5.15271
1123.19	5.37576
1126.56	7.8122
1129.94	5.04425
1133.31	5.77197
1136.68	2.95001
1140.06	3.37299
1143.43	4.28732
1146.81	3.90131
1150.18	2.01062
1153.56	4.85968
1156.93	6.22626
1160.31	3.23367
1163.68	1.5282
1167.06	3.06854
1170.43	4.08521
1173.81	4.02277
1177.18	3.96374
1180.56	3.84079
1183.93	3.23663
1187.31	4.10049
1190.68	2.06427
1194.06	1.2247
1197.43	4.83881
1200.81	0.336609
1204.18	1.06866
1207.56	2.54569
1210.93	2.81757
1214.31	2.83212
1217.68	2.15857
1221.06	0.839813
1224.43	0.160156
1227.81	3.50671
1231.18	3.09567
1234.56	3.13046
1237.93	2.18314
1241.31	1.02478
1244.68	3.30749
1248.05	2.33713
1251.43	3.246
1254.8	3.45789
1258.18	3.13104
1261.55	5.55374
1264.93	0.953369
1268.3	5.40332
1271.68	3.11371
1275.05	5.44553
1278.43	1.05902
1281.8	0.082611
1285.18	2.86365
1288.55	2.71579
1291.93	3.25073
1295.3	0.417084
1298.68	6.34564
1302.05	1.74753
