Measurement: Raman, 532 nm, unoriented, Raman Data Processed
Mineral: Lausenite
Rruff sample: X070004
Ideal chemistry: Fe^3+^_2_(SO_4_)_3_5H_2_O
Locality: United Verde Mine, Gerome, Arizona, USA
Source: University of Arizona Mineral Museum
Description: Small white fibrous crystal aggregates stored in a sealed glass tube. Type specimen
Raman shift (cm-1)	intensity
187.267	0
190.16	7.83203
193.052	282.043
195.945	1113.94
198.838	1872.91
201.731	2694.23
204.623	3263.04
207.516	4011.91
210.409	4208.69
213.301	2635.8
216.194	1091.57
219.087	485.715
221.979	215.301
224.872	247.379
227.765	670.695
230.657	529.098
233.55	848.613
236.443	1295.78
239.336	1594.11
242.228	1992.16
245.121	2231.23
248.014	2584.08
250.906	2835.7
253.799	3266.18
256.692	3681.37
259.584	4183.62
262.477	4615.66
265.37	5301.99
268.263	6449.81
271.155	7385.61
274.048	8558.25
276.941	9792.62
279.833	10923.8
282.726	11325.5
285.619	10242.8
288.512	8316.62
291.404	6790.27
294.297	5268.86
297.19	3978.54
300.082	3276.09
302.975	2814.58
305.868	2328.52
308.76	2059.84
311.653	1548.66
314.546	1205.38
317.438	761.434
320.331	757.293
323.224	577.262
326.117	412.812
329.009	204.578
331.902	64.2852
334.795	4.16406
337.687	136.496
340.58	104.066
343.473	41.707
346.365	66.4102
349.258	2.70312
352.151	13.2969
355.044	10.4844
357.936	37.875
360.829	270.519
363.722	226.91
366.614	93.4648
369.507	283.094
372.4	267.496
375.293	323.984
378.185	306.254
381.078	253.305
383.971	325.863
386.863	239.019
389.756	73.5742
392.649	133.731
395.541	217.246
398.434	155.301
401.327	278.938
404.219	417.402
407.112	540.473
410.005	433.898
412.898	581.5
415.79	664.176
418.683	558.715
421.576	531.004
424.469	685.262
427.361	617.562
430.254	758.106
433.147	874.801
436.039	969.375
438.932	1274.18
441.825	1422.81
444.717	1673.26
447.61	1777.27
450.503	1875.94
453.396	2028.96
456.288	1934
459.181	1979.46
462.074	2140.39
464.966	1804.69
467.859	1725
470.752	1574.24
473.644	1690.77
476.537	1665.4
479.43	1761.19
482.322	2200.2
485.215	2610.98
488.108	3091.25
491.001	3605.13
493.893	4236.95
496.786	4770.73
499.679	5008.89
502.571	4924.66
505.464	4358.27
508.357	3422.62
511.25	2445.82
514.142	1501.94
517.035	1278.13
519.928	567.883
522.82	378.977
525.713	124.469
528.606	16.6992
531.498	98.957
534.391	85.1484
537.284	88.2109
540.177	142.164
543.069	110.125
545.962	97.0352
548.855	0.371094
551.747	84.9023
554.64	196.461
557.533	80.0977
560.425	95.8164
563.318	291.961
566.211	125.383
569.104	121.5
571.996	448.117
574.889	565.348
577.782	625.402
580.674	746.398
583.567	1137.65
586.46	1631.32
589.352	2136.94
592.245	2367.64
595.138	2697.93
598.031	2892.72
600.923	2856.39
603.816	2516.67
606.709	2249.7
609.601	1876.18
612.494	1784.53
615.387	1609.81
618.279	1608.21
621.172	1393.62
624.065	1484.32
626.958	1695.93
629.85	1593.69
632.743	1448.66
635.636	1512.39
638.528	1272.29
641.421	1132.79
644.314	1032.57
647.207	801.559
650.099	805.523
652.992	667
655.885	741.406
658.777	418.383
661.67	585.773
664.563	436.648
667.455	443.949
670.348	400.332
673.241	310.027
676.134	269.43
679.026	356.981
681.919	165.551
684.812	125.769
687.704	50.4688
690.597	159.875
693.49	88.0195
696.382	229.43
699.275	73.4297
702.168	93.7422
705.061	91.5625
707.953	55.1016
710.846	214.144
713.739	45.8203
716.631	21.957
719.524	49.7461
722.417	49.8477
725.309	157.301
728.202	4.73828
731.095	14.5625
733.987	68.3477
736.88	208.41
739.773	97.0117
742.666	60.1758
745.558	116.773
748.451	130.441
751.344	203.863
754.236	246.984
757.129	328.766
760.022	250.949
762.915	130.688
765.807	379.402
768.7	360.305
771.593	222.031
774.485	126.508
777.378	439.836
780.271	247.227
783.163	502.18
786.056	299.012
788.949	328.617
791.842	183.957
794.734	267
797.627	111.656
800.52	220.519
803.412	524.977
806.305	178.231
809.198	25.9922
812.091	307.973
814.983	361.93
817.876	108.113
820.769	186.137
823.661	78.8203
826.554	79.2695
829.447	73.9453
832.339	85.8008
835.232	11.1406
838.125	121.316
841.018	95.7656
843.91	84.793
846.803	172.434
849.696	89.9336
852.588	27.7305
855.481	23.6094
858.374	119.207
861.266	124.777
864.159	98.3867
867.052	280.289
869.944	38.8477
872.837	79.0703
875.73	124.484
878.623	139.203
881.515	165.781
884.408	205.312
887.301	297.875
890.193	198.984
893.086	200.445
895.979	156.008
898.871	62
901.764	229.297
904.657	79.2656
907.55	198.461
910.442	254.32
913.335	226.219
916.228	134.383
919.12	221.594
922.013	203.93
924.906	137.047
927.798	127.43
930.691	151.102
933.584	20.5859
936.477	80.3828
939.369	88.1797
942.262	65.5
945.155	174.156
948.047	62.9844
950.94	107.281
953.833	7.4375
956.726	115.562
959.618	72.1953
962.511	180.188
965.404	40.5234
968.296	98.6484
971.189	278.305
974.082	314.242
976.974	712.672
979.867	714.859
982.76	1293.57
985.653	1571.65
988.545	2122.88
991.438	2598.35
994.331	3274.8
997.223	3738.07
1000.12	4766.27
1003.01	6204.82
1005.9	8839.91
1008.79	12415.1
1011.69	16790.3
1014.58	23203.1
1017.47	30678.2
1020.37	38014.7
1023.26	42416.8
1026.15	37176.6
1029.04	25818
1031.94	19426.5
1034.83	16787.6
1037.72	13226.4
1040.61	9575.62
1043.51	7170.83
1046.4	5110.38
1049.29	4100.76
1052.18	3198.62
1055.08	2460.66
1057.97	1267.41
1060.86	829.805
1063.76	290.953
1066.65	48.625
1069.54	149.227
1072.43	42.7812
1075.33	130.602
1078.22	507.203
1081.11	882.688
1084	1546.03
1086.9	1911.16
1089.79	2373.77
1092.68	2476.87
1095.58	2584.21
1098.47	2225.6
1101.36	1693.86
1104.25	1543.96
1107.15	1602.61
1110.04	1557.09
1112.93	1341.49
1115.82	1081.12
1118.72	898.484
1121.61	590.594
1124.5	346.406
1127.39	156.375
1130.29	57.2422
1133.18	144.781
1136.07	18.0938
1138.97	188.414
1141.86	3.82031
1144.75	45.5156
1147.64	129.133
1150.54	359.758
1153.43	572.305
1156.32	750.031
1159.21	1145.92
1162.11	1163.24
1165	1307.6
1167.89	1565.56
1170.79	1649.87
1173.68	1789.34
1176.57	2218
1179.46	2124.95
1182.36	2289.41
1185.25	2400.98
1188.14	2990.59
1191.03	3569.73
1193.93	4576.52
1196.82	5346.62
1199.71	5673.76
1202.61	4884.63
1205.5	3550.73
1208.39	2244.11
1211.28	1572.85
1214.18	978.547
1217.07	417.734
1219.96	428.641
1222.85	472.055
1225.75	180.039
1228.64	68.0234
1231.53	21.2109
1234.42	101.703
1237.32	26.4453
1240.21	17.4688
1243.1	85.8828
1246	55.4062
1248.89	64.1172
1251.78	294.141
1254.67	235.156
1257.57	48.1406
1260.46	463.672
1263.35	312.664
1266.24	400.328
1269.14	233.812
1272.03	446.227
1274.92	441.422
1277.82	395.641
1280.71	415.367
1283.6	451.531
1286.49	208.008
1289.39	15.6641
1292.28	17.1797
1295.17	271.461
1298.06	88.9766
1300.96	12.4609
