Measurement: Raman, 785 nm, unoriented, Raman Data Processed
Mineral: Lausenite
Rruff sample: X070004
Ideal chemistry: Fe^3+^_2_(SO_4_)_3_5H_2_O
Locality: United Verde Mine, Gerome, Arizona, USA
Source: University of Arizona Mineral Museum
Description: Small white fibrous crystal aggregates stored in a sealed glass tube. Type specimen
Raman shift (cm-1)	intensity
140.304	0
143.197	13.9238
146.089	325.249
148.982	910.905
151.875	1193.57
154.768	908.602
157.66	448.471
160.553	382.951
163.446	469.297
166.338	731.072
169.231	897.367
172.124	1045.52
175.017	963.974
177.909	1060.46
180.802	1008.72
183.695	1079.92
186.587	1112.33
189.48	1159.29
192.373	1156.86
195.265	1290.4
198.158	1501.93
201.051	1626.26
203.944	1588.95
206.836	1511.97
209.729	1608.81
212.622	1430.48
215.514	1021.08
218.407	777.185
221.3	630.951
224.192	467.304
227.085	419.653
229.978	411.027
232.87	398.762
235.763	441.341
238.656	463.148
241.549	497.351
244.441	498.546
247.334	609.43
250.227	668.223
253.119	672.239
256.012	655.611
258.905	629.79
261.798	615.549
264.69	689.744
267.583	810.924
270.476	1070.08
273.368	1324.95
276.261	1620.8
279.154	1936.18
282.046	2252.27
284.939	2166.18
287.832	1920.34
290.724	1493.4
293.617	1061.91
296.51	740.185
299.403	488.809
302.295	363.906
305.188	298.19
308.081	217.731
310.973	21.9365
313.866	3.97949
316.759	89.8682
319.651	106.612
322.544	86.8106
325.437	76.3291
328.33	25.918
331.222	4.20996
334.115	7.06152
337.008	37.1836
339.9	66.3672
342.793	31.4023
345.686	163.086
348.579	201.33
351.471	140.531
354.364	202.644
357.257	266.99
360.149	267.253
363.042	238.913
365.935	203.69
368.827	190.142
371.72	314.001
374.613	275.106
377.505	162.731
380.398	204.097
383.291	114.224
386.184	107.166
389.076	87.3398
391.969	8.56445
394.862	85.7588
397.754	75.4004
400.647	64.7051
403.54	62.0391
406.433	176.977
409.325	57.1309
412.218	139.849
415.111	136.829
418.003	131.722
420.896	88.1875
423.789	156.148
426.681	159.303
429.574	82.4033
432.467	133.932
435.36	167.971
438.252	179.303
441.145	290.057
444.038	226.764
446.93	262.068
449.823	320.093
452.716	312.728
455.608	375.931
458.501	383.847
461.394	291.853
464.286	263.522
467.179	288.519
470.072	214.273
472.965	118.994
475.857	99.9463
478.75	119.278
481.643	178.942
484.535	278.203
487.428	382.704
490.321	506.754
493.214	568.973
496.106	741.469
498.999	781.023
501.892	809.827
504.784	757.309
507.677	676.171
510.57	468.056
513.462	327.483
516.355	141.69
519.248	72.1904
522.14	70.2891
525.033	17.9614
527.926	24.1221
530.819	36.4487
533.711	17.771
536.604	20.7227
539.497	1.19971
542.389	28.0962
545.282	22.1182
548.175	2.39551
551.067	11.3799
553.96	15.6392
556.853	57.835
559.745	51.669
562.638	101.001
565.531	89.061
568.424	73.7148
571.316	117.745
574.209	65.9365
577.102	144.917
579.994	203.473
582.887	236.136
585.78	266.468
588.673	311.41
591.565	477.888
594.458	484.425
597.351	511.661
600.243	571.612
603.136	565.856
606.029	502.963
608.921	454.67
611.814	447.544
614.707	441.509
617.6	412.605
620.492	281.006
623.385	369.962
626.278	295.935
629.17	383.753
632.063	376.117
634.956	309.182
637.848	302.282
640.741	221.457
643.634	203.428
646.527	212.059
649.419	71.7749
652.312	155.184
655.205	100.258
658.097	157.527
660.99	70.3003
663.883	115.149
666.775	94.7935
669.668	105.523
672.561	62.1235
675.454	116.796
678.346	68.02
681.239	31.772
684.132	16.5215
687.024	19.9507
689.917	40.2647
692.81	46.5015
695.702	69.9653
698.595	1.84277
701.488	129.328
704.381	40.6362
707.273	49.8667
710.166	16.8369
713.059	23.2109
715.951	2.73047
718.844	66.2041
721.737	110.182
724.63	105.866
727.522	64.4707
730.415	11.4609
733.308	9.59424
736.2	33.2578
739.093	86.2163
741.986	77.9565
744.878	73.0215
747.771	69.8452
750.664	65.2568
753.557	56.6714
756.449	15.9893
759.342	80.5444
762.235	85.3018
765.127	76.0142
768.02	19.562
770.913	156.227
773.805	54.7334
776.698	45.9922
779.591	40.604
782.484	36.8188
785.376	85.562
788.269	43.5342
791.162	113.336
794.054	154.749
796.947	111.821
799.84	67.7114
802.732	70.4131
805.625	74.6392
808.518	134.205
811.41	41.8906
814.303	103.54
817.196	16.8852
820.089	89.2788
822.981	47.1152
825.874	35.9766
828.767	96.9644
831.659	22.248
834.552	29.9165
837.445	8.74805
840.337	38.3994
843.23	67.7935
846.123	60.8169
849.016	30.2715
851.908	0.095703
854.801	6.40527
857.694	77.3569
860.586	65.9062
863.479	50.3833
866.372	43.5185
869.264	62.6519
872.157	43.2847
875.05	80.0806
877.943	124.098
880.835	34.4819
883.728	9.27832
886.621	9.21875
889.513	70.0547
892.406	71.7144
895.299	83.0688
898.192	75.0034
901.084	95.4824
903.977	36.0361
906.87	42.6133
909.762	91.4609
912.655	42.3184
915.548	35.3799
918.44	64.4277
921.333	12.0894
924.226	107.109
927.119	75.0869
930.011	97.3564
932.904	111.269
935.797	89.3921
938.689	92.4224
941.582	13.4346
944.475	79.1387
947.367	93.0718
950.26	25.8633
953.153	80.2578
956.045	62.1538
958.938	20.5259
961.831	15.748
964.724	11.7012
967.616	2.69922
970.509	32.918
973.402	16.8818
976.294	45.3633
979.187	0.197266
982.08	23.2695
984.972	102.782
987.865	9.51367
990.758	118.493
993.651	212.349
996.543	255.095
999.436	280.942
1002.33	395.709
1005.22	612.913
1008.11	980.519
1011.01	1566.52
1013.9	2429.67
1016.79	3637.43
1019.68	4889.92
1022.58	6424.43
1025.47	7119.48
1028.36	5263.37
1031.26	3651.31
1034.15	3095.1
1037.04	2675.34
1039.93	2299.94
1042.83	1910.58
1045.72	1308.55
1048.61	1093.57
1051.51	1113.33
1054.4	791.66
1057.29	370.307
1060.18	182.31
1063.08	46.9048
1065.97	26.8882
1068.86	14.5752
1071.75	5.68457
1074.65	59.186
1077.54	76.0161
1080.43	194.203
1083.32	266.746
1086.22	341.043
1089.11	471.715
1092	513.51
1094.89	514.599
1097.79	577.793
1100.68	502.88
1103.57	451.937
1106.47	466.679
1109.36	554.877
1112.25	390.148
1115.14	403.28
1118.04	297.964
1120.93	237.37
1123.82	236.356
1126.71	156.54
1129.61	37.8301
1132.5	127.601
1135.39	33.418
1138.29	11.3096
1141.18	27.8809
1144.07	22.5859
1146.96	68.3691
1149.86	18.2383
1152.75	4.12109
1155.64	177.308
1158.53	69.9082
1161.43	201.234
1164.32	273.937
1167.21	204.835
1170.11	241.82
1173	267.935
1175.89	184.067
1178.78	133.031
1181.68	101.482
1184.57	39.6895
1187.46	127.419
1190.35	137.754
1193.25	143.132
1196.14	192.795
1199.03	237.121
1201.92	270.733
1204.82	68.0029
