Measurement: Raman, 780 nm, unoriented, Raman Data Processed
Mineral: Lavenite
Rruff sample: R120044
Ideal chemistry: (Na,Ca)_2_(Mn^2+^,Fe^2+^)(Zr,Ti,Nb)(Si_2_O_7_)(O,OH,F)_2_
Locality: Mont Saint-Hilaire, Rouville RCM, Montérégie, Québec, Canada
Source: Donald Doell
Description: Prismatic yellowish-orange on black amphibole
Raman shift (cm-1)	intensity
105.103	0
108.478	3.31833
111.852	12.4215
115.227	32.1119
118.602	43.4382
121.977	54.6734
125.352	57.266
128.726	57.7559
132.101	57.4521
135.476	54.0667
138.851	48.3933
142.226	42.2216
145.601	31.8449
148.975	23.7033
152.35	18.0163
155.725	13.8957
159.1	9.47452
162.475	9.69168
165.85	7.03305
169.224	4.56259
172.599	2.46164
175.974	0.750183
179.349	1.34378
182.724	1.7102
186.098	0.031281
189.473	0.710236
192.848	2.63486
196.223	4.24939
199.598	10.8203
202.972	17.6549
206.347	23.9345
209.722	28.1472
213.097	34.23
216.472	36.8492
219.847	39.7221
223.221	36.1638
226.596	34.5903
229.971	29.2614
233.346	23.255
236.721	19.1263
240.095	13.9916
243.47	8.96384
246.845	6.38568
250.22	4.07147
253.595	0.369324
256.969	0.272278
260.344	0.437836
263.719	0.520874
267.094	2.12235
270.469	4.72754
273.844	7.6608
277.218	14.964
280.593	23.2979
283.968	34.9892
287.343	44.3544
290.718	58.8512
294.092	67.7963
297.467	74.291
300.842	77.6251
304.217	73.3638
307.592	66.6523
310.967	55.0063
314.341	44.4898
317.716	31.8461
321.091	21.9917
324.466	8.90808
327.841	4.83353
331.216	0.543274
334.59	2.6557
337.965	2.72376
341.34	2.34711
344.715	1.45779
348.09	4.31067
351.464	5.94418
354.839	9.87344
358.214	16.6684
361.589	24.2256
364.964	29.5941
368.339	40.4774
371.713	47.7402
375.088	50.6587
378.463	55.2368
381.838	56.4358
385.213	57.468
388.587	53.5381
391.962	52.541
395.337	47.6506
398.712	42.8648
402.087	41.4035
405.462	41.8896
408.836	38.4249
412.211	37.5624
415.586	36.6028
418.961	38.7657
422.336	38.9149
425.71	37.4434
429.085	34.4682
432.46	32.0148
435.835	27.8064
439.21	27.8957
442.584	24.6653
445.959	21.979
449.334	22.6867
452.709	20.7924
456.084	21.0198
459.459	29.2581
462.833	27.5205
466.208	28.0788
469.583	29.0291
472.958	29.1042
476.333	25.6182
479.707	24.8454
483.082	22.1535
486.457	18.6584
489.832	17.5202
493.207	13.6375
496.582	10.5478
499.956	4.93048
503.331	1.67325
506.706	2.33267
510.081	1.46326
513.456	3.47553
516.83	3.06021
520.205	1.87399
523.58	1.48206
526.955	1.15787
530.33	4.34894
533.705	10.5573
537.079	14.1429
540.454	20.9079
543.829	20.0048
547.204	22.6862
550.579	24.0678
553.953	21.2907
557.328	18.7486
560.703	15.1539
564.078	14.7812
567.453	11.3166
570.827	10.4734
574.202	8.26669
577.577	7.7319
580.952	4.65814
584.327	4.33292
587.702	6.77628
591.076	6.47647
594.451	11.929
597.826	10.1037
601.201	7.01364
604.576	7.60947
607.951	5.21432
611.325	9.54913
614.7	10.9935
618.075	14.2429
621.45	12.8033
624.825	14.2044
628.199	14.7627
631.574	15.9006
634.949	15.1152
638.324	13.6346
641.699	10.7711
645.073	9.71234
648.448	8.81979
651.823	9.5874
655.198	10.3043
658.573	13.4174
661.948	11.1445
665.322	14.6903
668.697	10.3536
672.072	5.37988
675.447	3.11935
678.822	0.75174
682.197	0.6819
685.571	0.487595
688.946	1.67708
692.321	1.22241
695.696	1.21205
699.071	1.39299
702.445	4.45683
705.82	4.24269
709.195	5.11587
712.57	3.49184
715.945	1.60504
719.319	2.20122
722.694	0.430649
726.069	1.25003
729.444	0.223938
732.819	0.067062
736.193	0.873734
739.568	1.33035
742.943	0.562515
746.318	1.74802
749.693	2.28952
753.068	4.75546
756.442	7.29578
759.817	9.02878
763.192	18.7517
766.567	18.5986
769.942	22.8012
773.317	27.9857
776.691	30.9848
780.066	31.2163
783.441	34.6585
786.816	31.9977
790.191	30.5917
793.565	28.6439
796.94	23.6639
800.315	20.4221
803.69	17.7279
807.065	14.4725
810.439	11.3069
813.814	11.9773
817.189	14.5095
820.564	19.0262
823.939	25.4055
827.314	36.3785
830.688	48.1704
834.063	61.9103
837.438	76.0297
840.813	81.9904
844.188	75.794
847.562	61.8406
850.937	47.6159
854.312	33.9078
857.687	24.4916
861.062	18.6336
864.437	12.7724
867.811	8.48235
871.186	4.05337
874.561	1.58037
877.936	1.88374
881.311	0.949448
884.686	0.4953
888.06	0.203094
891.435	4.03572
894.81	3.86482
898.185	8.41881
901.56	9.11853
904.934	13.5183
908.309	16.1457
911.684	19.5662
915.059	22.6314
918.434	22.9317
921.808	25.0631
925.183	26.6167
928.558	24.9357
931.933	25.4196
935.308	22.5207
938.683	17.4643
942.057	11.2776
945.432	6.12033
948.807	3.11838
952.182	1.43124
955.557	0.959534
958.932	2.16641
962.306	0.914734
965.681	1.76801
969.056	0.859283
972.431	1.42355
975.806	4.77188
979.18	7.02414
982.555	11.832
985.93	15.6959
989.305	20.3889
992.68	27.8766
996.054	24.5765
999.429	28.9305
1002.8	30.8329
1006.18	31.9419
1009.55	26.9552
1012.93	29.1573
1016.3	25.6139
1019.68	24.3415
1023.05	24.2526
1026.43	24.8945
1029.8	22.5853
1033.18	24.714
1036.55	26.724
1039.93	27.5261
1043.3	28.4563
1046.68	31.206
1050.05	34.6511
1053.43	37.0517
1056.8	40.0975
1060.18	44.5485
1063.55	47.9546
1066.93	48.7552
1070.3	48.4074
1073.67	46.8752
1077.05	43.3666
1080.42	40.8498
1083.8	33.662
1087.17	32.0668
1090.55	28.2178
1093.92	27.514
1097.3	16.1488
1100.67	12.2817
1104.05	5.58258
1107.42	7.17218
1110.8	0.079285
1114.17	4.60632
1117.55	2.8999
1120.92	2.88946
1124.3	2.66437
1127.67	7.31262
1131.05	19.1122
1134.42	27.0015
1137.8	34.0615
1141.17	44.1252
1144.55	49.1826
1147.92	59.7649
1151.3	57.8631
1154.67	65.8385
1158.05	64.0848
1161.42	67.5126
1164.8	59.9252
1168.17	60.5337
1171.55	48.5787
1174.92	42.9377
1178.3	24.0311
1181.67	7.06921
1185.04	0.215576
1188.42	6.4812
1191.79	1.20581
1195.17	1.76794
1198.54	27.9281
1201.92	56.7229
1205.29	101.28
1208.67	151.481
1212.04	226.24
1215.42	312.948
1218.79	409.834
1222.17	519.141
1225.54	627.795
1228.92	741.903
1232.29	856.299
1235.67	930.631
1239.04	970.005
1242.42	961.816
1245.79	898.005
1249.17	785.656
1252.54	633.501
1255.91	470.649
1259.29	329.549
1262.66	205.444
1266.04	113.638
1269.41	47.7371
1272.79	19.3186
1276.16	1.82007
1279.54	5.21069
1282.91	6.85498
