Measurement: Raman, 532 nm, unoriented, Raman Data Processed
Mineral: Lavenite
Rruff sample: R120044
Ideal chemistry: (Na,Ca)_2_(Mn^2+^,Fe^2+^)(Zr,Ti,Nb)(Si_2_O_7_)(O,OH,F)_2_
Locality: Mont Saint-Hilaire, Rouville RCM, Montérégie, Québec, Canada
Source: Donald Doell
Description: Prismatic yellowish-orange on black amphibole
Raman shift (cm-1)	intensity
203.79	0
206.682	1.75911
209.575	3.58397
212.468	5.08749
215.36	5.61735
218.253	3.91051
221.146	3.52512
224.038	2.89464
226.931	0.87793
229.824	2.96935
232.717	3.59914
235.609	6.55434
238.502	9.00919
241.395	10.9655
244.287	12.5167
247.18	16.3824
250.073	21.1945
252.965	20.2736
255.858	21.7537
258.751	22.906
261.644	23.6206
264.536	23.6066
267.429	22.3683
270.322	23.8129
273.214	24.6706
276.107	23.6751
279	25.2387
281.892	25.4633
284.785	25.5418
287.678	26.6379
290.571	27.8841
293.463	32.6543
296.356	31.0909
299.249	32.329
302.141	31.3916
305.034	27.6168
307.927	25.0626
310.82	22.5254
313.712	19.6237
316.605	15.2077
319.498	12.4413
322.39	8.83052
325.283	8.14456
328.176	4.3441
331.068	4.06326
333.961	3.17523
336.854	4.4325
339.747	3.43468
342.639	3.32071
345.532	2.90294
348.425	1.27628
351.317	1.72113
354.21	2.20343
357.103	1.56111
359.995	0.31842
362.888	0.951797
365.781	1.05385
368.673	1.31996
371.566	1.51305
374.459	0.462509
377.352	1.15851
380.244	0.014755
383.137	0.947266
386.03	2.05858
388.922	6.01814
391.815	6.66071
394.708	8.76521
397.601	10.9734
400.493	12.6951
403.386	16.1464
406.279	19.5166
409.171	19.8261
412.064	22.9605
414.957	21.9818
417.849	20.8882
420.742	20.5329
423.635	19.7692
426.527	18.1807
429.42	19.3212
432.313	18.7091
435.206	18.4119
438.098	18.7337
440.991	15.989
443.884	13.7895
446.776	13.3833
449.669	10.9768
452.562	9.97432
455.454	8.52812
458.347	8.3219
461.24	10.083
464.133	9.07321
467.025	9.09993
469.918	8.74754
472.811	7.22308
475.703	6.1181
478.596	5.90814
481.489	3.84212
484.382	3.07059
487.274	0.719513
490.167	0.797012
493.06	0.538818
495.952	0.807465
498.845	0.32515
501.738	0.172958
504.63	0.138931
507.523	1.38673
510.416	1.31741
513.308	2.54628
516.201	2.7075
519.094	3.34607
521.987	5.54828
524.879	6.38991
527.772	7.78235
530.665	9.38699
533.557	11.1335
536.45	13.0127
539.343	16.4644
542.236	19.12
545.128	18.9978
548.021	19.8749
550.914	19.1652
553.806	18.3763
556.699	15.3872
559.592	15.3851
562.484	14.2086
565.377	14.8793
568.27	15.2034
571.163	14.8258
574.055	15.5907
576.948	14.7582
579.841	14.6196
582.733	14.3419
585.626	13.9913
588.519	15.2251
591.411	15.8726
594.304	16.2245
597.197	13.7197
600.09	10.7031
602.982	7.32005
605.875	5.52416
608.768	2.08847
611.66	0.357498
614.553	0.480484
617.446	0.372375
620.338	0.565262
623.231	0.070374
626.124	0.332367
629.016	2.6814
631.909	2.55875
634.802	3.30386
637.695	2.16159
640.587	1.55042
643.48	2.44533
646.373	4.31313
649.265	5.29834
652.158	7.45725
655.051	10.8144
657.943	12.8062
660.836	14.8908
663.729	17.507
666.622	17.9948
669.514	16.2561
672.407	13.6397
675.3	11.933
678.192	10.3176
681.085	11.0075
683.978	11.3602
686.87	12.2729
689.763	13.8209
692.656	14.9072
695.549	15.1159
698.441	15.6452
701.334	15.3972
704.227	13.0829
707.119	14.0615
710.012	12.9371
712.905	12.3041
715.798	7.12071
718.69	5.04028
721.583	3.11462
724.476	2.03772
727.368	0.536438
730.261	0.202209
733.154	0.095566
736.046	1.04445
738.939	1.63911
741.832	1.24483
744.725	0.195343
747.617	0.843842
750.51	1.67384
753.403	6.04166
756.295	9.09187
759.188	14.187
762.081	19.5722
764.973	27.4715
767.866	33.2244
770.759	40.1922
773.652	47.699
776.544	53.8776
779.437	58.0721
782.33	62.2014
785.222	61.5622
788.115	60.4811
791.008	55.4252
793.9	51.2799
796.793	45.0575
799.686	38.9851
802.578	32.0688
805.471	28.8501
808.364	23.508
811.257	19.6262
814.149	17.8621
817.042	17.8137
819.935	20.9937
822.827	26.414
825.72	35.8249
828.613	48.6048
831.505	68.6246
834.398	81.7344
837.291	97.6524
840.184	107.855
843.076	103.635
845.969	92.1598
848.862	72.8316
851.754	53.8671
854.647	38.2851
857.54	26.7694
860.433	19.3288
863.325	15.4216
866.218	9.65358
869.111	7.79082
872.003	2.57588
874.896	0.275513
877.789	0.795975
880.681	3.34228
883.574	1.32254
886.467	0.358704
889.36	2.45931
892.252	3.93567
895.145	4.36371
898.038	6.08409
900.93	6.49445
903.823	9.77881
906.716	12.6598
909.608	16.1272
912.501	17.0465
915.394	20.3883
918.287	23.9832
921.179	29.6723
924.072	31.487
926.965	34.7377
929.857	36.2349
932.75	37.1442
935.643	32.5541
938.535	28.0477
941.428	22.4694
944.321	15.897
947.213	10.3541
950.106	6.29335
952.999	3.93335
955.892	0.581635
958.784	0.043243
961.677	0.426605
964.57	0.209579
967.462	0.436325
970.355	0.469513
973.248	0.352341
976.14	0.947266
979.033	0.938156
981.926	2.12215
984.819	4.21231
987.711	6.06374
990.604	9.6004
993.497	13.3555
996.389	18.1774
999.282	21.3068
1002.17	24.4817
1005.07	25.7505
1007.96	24.5398
1010.85	25.6928
1013.75	21.493
1016.64	17.7566
1019.53	15.7926
1022.42	13.8114
1025.32	11.6979
1028.21	11.6395
1031.1	10.4479
1033.99	10.9302
1036.89	11.1486
1039.78	10.4109
1042.67	9.99976
1045.57	12.3054
1048.46	11.3557
1051.35	11.1854
1054.24	9.28676
1057.14	11.0662
1060.03	8.67227
1062.92	8.8199
1065.81	5.21108
1068.71	6.38271
1071.6	5.61501
1074.49	6.15689
1077.38	3.99403
1080.28	4.89644
1083.17	4.37598
1086.06	5.26428
1088.96	4.0087
1091.85	3.12997
1094.74	2.39293
1097.63	1.44194
1100.53	0.912292
1103.42	0.469482
1106.31	0.316452
1109.2	0.702606
1112.1	0.326981
1114.99	0.55661
1117.88	0.104874
1120.78	0.635742
1123.67	0.084183
1126.56	0.028
1129.45	0.587769
1132.35	0.795013
1135.24	0.65274
1138.13	0.891327
1141.02	1.33052
1143.92	1.97276
1146.81	1.15431
1149.7	0.55719
1152.6	0.950958
1155.49	1.75465
1158.38	2.39088
1161.27	1.56906
1164.17	2.83833
1167.06	1.99083
1169.95	1.08679
1172.84	1.65163
1175.74	5.20647
1178.63	1.79915
1181.52	0.726318
1184.41	3.75501
1187.31	1.06027
1190.2	1.00436
1193.09	1.5137
1195.99	1.75468
1198.88	2.09471
1201.77	0.800079
1204.66	1.93395
1207.56	1.25063
1210.45	2.03093
1213.34	2.65143
1216.23	0.355988
1219.13	1.87305
1222.02	0.127167
1224.91	0.759094
1227.81	1.32248
1230.7	1.54997
1233.59	1.83609
1236.48	0.739471
1239.38	0.365829
1242.27	0.576965
1245.16	0.551666
1248.05	0.724655
1250.95	0.946838
1253.84	0.896515
1256.73	1.94621
1259.62	0.261642
1262.52	2.55351
1265.41	2.88769
1268.3	2.38567
1271.2	1.82841
1274.09	1.03198
1276.98	1.1878
1279.87	1.43172
1282.77	0.766174
1285.66	0.164032
1288.55	1.60191
1291.44	2.06165
1294.34	0.69223
1297.23	0.060532
1300.12	1.75346
1303.02	0
