Measurement: Raman, 532 nm, unoriented, Raman Data Processed
Mineral: Lavendulan
Rruff sample: R141212
Ideal chemistry: NaCaCu^2+^_5_(As^5+^O_4_)_4_Cl5H_2_O
Locality: Alice May mine, Ravensthorpe, Western Australia, Australia
Source: James Shigley
Description: Sprays of blue bladed crystals
Raman shift (cm-1)	intensity
100.39	0
103.765	3.6869
107.139	19.2667
110.514	38.9981
113.889	55.8725
117.264	64.7542
120.639	60.1601
124.013	51.5397
127.388	61.9443
130.763	79.2159
134.138	68.3259
137.513	24.137
140.888	3.09042
144.262	2.17616
147.637	1.96564
151.012	2.26393
154.387	8.45811
157.762	20.8249
161.137	34.7959
164.511	47.5449
167.886	54.1807
171.261	63.7535
174.636	81.4886
178.011	86.007
181.385	59.6501
184.76	27.7419
188.135	15.046
191.51	13.4594
194.885	17.2148
198.26	22.3863
201.634	24.2627
205.009	21.8032
208.384	20.9821
211.759	25.388
215.133	34.8424
218.508	46.3655
221.883	65.0529
225.258	75.3291
228.633	44.3253
232.008	15.3477
235.382	3.36519
238.757	1.20812
242.132	2.23882
245.507	0.659607
248.882	0.903229
252.256	5.72221
255.631	8.72545
259.006	13.9011
262.381	15.5359
265.756	19.3078
269.131	23.0386
272.505	30.7415
275.88	38.3019
279.255	34.3855
282.63	22.8329
286.005	14.4524
289.38	8.5676
292.754	5.53928
296.129	5.72669
299.504	3.86671
302.879	4.734
306.254	5.18729
309.628	7.59028
313.003	10.2195
316.378	10.7576
319.753	10.4436
323.128	10.3682
326.502	11.555
329.877	14.0952
333.252	17.931
336.627	22.5389
340.002	28.0828
343.377	34.1828
346.751	31.2547
350.126	22.9793
353.501	11.2319
356.876	3.43321
360.251	0.847233
363.625	1.27257
367	0.384823
370.375	1.77407
373.75	3.16417
377.125	1.67733
380.5	1.56642
383.874	3.88794
387.249	7.02364
390.624	11.292
393.999	17.4827
397.374	20.6356
400.748	21.2903
404.123	19.1227
407.498	12.761
410.873	8.29896
414.248	5.59609
417.623	2.02745
420.997	0.442211
424.372	0.789417
427.747	0.306038
431.122	0.357822
434.497	1.18982
437.872	1.91247
441.246	3.67887
444.621	5.74891
447.996	6.73132
451.371	5.49529
454.745	6.32634
458.12	5.39211
461.495	4.15293
464.87	5.86206
468.245	7.12395
471.62	10.3102
474.994	12.4812
478.369	13.1141
481.744	10.9352
485.119	6.6154
488.494	2.05537
491.868	0.194672
495.243	0.192238
498.618	0.558697
501.993	0.385395
505.368	1.16051
508.743	3.25868
512.117	6.08539
515.492	10.0332
518.867	16.6831
522.242	27.7914
525.617	44.9988
528.991	70.3713
532.366	104.704
535.741	153.152
539.116	206.893
542.491	252.614
545.866	261.73
549.24	219.026
552.615	154.499
555.99	102.016
559.365	70.4635
562.74	50.1695
566.115	35.839
569.489	26.6343
572.864	19.2899
576.239	13.5211
579.614	8.52249
582.989	6.59706
586.363	5.6114
589.738	3.31365
593.113	2.23114
596.488	0.937313
599.863	0.517456
603.237	0.84156
606.612	0.005131
609.987	0.222355
613.362	0.821701
616.737	0.244396
620.112	0.264137
623.486	0.717999
626.861	0.857834
630.236	0.104969
633.611	0.848167
636.986	2.312
640.361	2.66284
643.735	3.03448
647.11	3.03889
650.485	3.74343
653.86	3.49423
657.235	5.02213
660.609	6.03666
663.984	6.60195
667.359	7.0278
670.734	7.24549
674.109	7.35834
677.484	8.35716
680.858	9.1651
684.233	8.70386
687.608	7.74368
690.983	8.34508
694.357	6.71299
697.732	7.00832
701.107	6.12254
704.482	5.20454
707.857	5.15863
711.232	4.66418
714.606	3.7338
717.981	2.30598
721.356	1.4611
724.731	0.26305
728.106	0.342098
731.481	0.04945
734.855	0.876148
738.23	1.29298
741.605	0.845242
744.98	0.47998
748.355	1.66583
751.729	3.97452
755.104	7.30145
758.479	11.3371
761.854	16.1796
765.229	23.6762
768.604	34.6448
771.978	46.6636
775.353	57.3148
778.728	58.2373
782.103	50.5196
785.478	38.7935
788.852	33.4962
792.227	34.7635
795.602	42.5895
798.977	52.9709
802.352	51.9418
805.726	32.8948
809.101	14.9887
812.476	3.7879
815.851	2.0433
819.226	4.13923
822.601	1.61695
825.975	5.01733
829.35	13.8471
832.725	28.2928
836.1	55.9863
839.475	104.745
842.85	180.91
846.224	284.811
849.599	408.431
852.974	487.337
856.349	438.905
859.724	294.43
863.098	170.842
866.473	105.913
869.848	85.3241
873.223	85.7842
876.598	102.395
879.972	128.76
883.347	157.947
886.722	163.286
890.097	141.719
893.472	97.9188
896.847	55.5486
900.221	30.7334
903.596	18.3225
906.971	18.0347
910.346	24.9101
913.721	40.7224
917.096	61.5664
920.47	82.5978
923.845	96.5449
927.22	90.0447
930.595	61.0605
933.97	33.387
937.344	16.7746
940.719	5.54317
944.094	1.28356
947.469	0.339111
950.844	0.474449
954.218	1.30588
957.593	0.855865
960.968	1.19166
964.343	0.53302
967.718	0.742088
971.092	0.010723
974.467	2.04268
977.842	1.4972
981.217	3.84576
984.592	3.80904
987.967	4.94113
991.341	4.32563
994.716	5.61764
998.091	6.91157
1001.47	7.7133
1004.84	7.54234
1008.22	8.02141
1011.59	7.31584
1014.97	7.47359
1018.34	7.30971
1021.72	6.88014
1025.09	6.26258
1028.46	6.10589
1031.84	5.50758
1035.21	5.11824
1038.59	4.45522
1041.96	5.04866
1045.34	4.17887
1048.71	3.5827
1052.09	4.27651
1055.46	4.62226
1058.84	4.15706
1062.21	3.04894
1065.59	2.79567
1068.96	2.59061
1072.34	2.3828
1075.71	1.8407
1079.09	2.54633
1082.46	2.38543
1085.84	2.64724
1089.21	1.74545
1092.59	1.94259
1095.96	1.57802
1099.34	1.43342
1102.71	1.33244
1106.09	1.01386
1109.46	0.153664
1112.84	0.311478
1116.21	0.135553
1119.58	0.185316
1122.96	0.41049
1126.33	0.485912
1129.71	1.19913
1133.08	1.03146
1136.46	0.352859
1139.83	0.269943
1143.21	0.085922
1146.58	0.879032
1149.96	0.788246
1153.33	0.649248
1156.71	0.751593
1160.08	0.112347
1163.46	0.846994
1166.83	0.68276
1170.21	0.15052
1173.58	0.277319
1176.96	0.060612
1180.33	0.444279
1183.71	1.07396
1187.08	1.30445
1190.46	0.464943
1193.83	0.258524
1197.2	0.86466
1200.58	0.510555
1203.95	0.971306
1207.33	1.30086
1210.7	0.128595
1214.08	0.620054
1217.45	1.08441
1220.83	0.446461
1224.2	1.11043
1227.58	1.52165
1230.95	0.395733
1234.33	0.655565
1237.7	1.17814
1241.08	1.23578
1244.45	1.3291
1247.83	0.95989
1251.2	1.05911
1254.58	1.24615
1257.95	1.27069
1261.33	0.111603
1264.7	1.3528
1268.08	1.30154
1271.45	1.20972
1274.83	0.821394
1278.2	0.967722
1281.58	0.437399
1284.95	1.03132
1288.33	0.722139
1291.7	1.15657
1295.08	0.166586
1298.45	1.03728
1301.83	0
