Measurement: Raman, 532 nm, unoriented, Raman Data Processed
Mineral: Lavendulan
Rruff sample: R060716
Ideal chemistry: NaCaCu^2+^_5_(As^5+^O_4_)_4_Cl5H_2_O
Locality: Guanaco, Antofagasta Province, Chile
Source: Bob Jenkins
Description: Rosettes of blue platy crystals associated with dark green lammerite, R060715
Raman shift (cm-1)	intensity
130.201	0
133.576	8.7207
136.951	289.225
140.325	386.037
143.7	43.9565
147.075	80.1724
150.45	430.61
153.824	394.456
157.199	1572.5
160.574	3000.58
163.949	4117.36
167.324	5976.3
170.699	8854.98
174.073	10427.4
177.448	8390.08
180.823	4249.93
184.198	2236.25
187.573	1759.17
190.947	1605.89
194.322	1080
197.697	633.549
201.072	611.183
204.447	957.34
207.822	1256.42
211.196	1167.7
214.571	1858.96
217.946	3031.06
221.321	4809.54
224.696	4154.66
228.07	1166.44
231.445	234.352
234.82	34.7493
238.195	84.1113
241.57	17.7761
244.945	197.939
248.319	395.438
251.694	580.564
255.069	688.924
258.444	809.413
261.819	978.844
265.193	1221.2
268.568	1473.79
271.943	1600.42
275.318	1564.09
278.693	1304.95
282.068	1095.27
285.442	738.627
288.817	433.604
292.192	228.75
295.567	15.7832
298.942	86.509
302.316	51.5786
305.691	29.7903
309.066	172.057
312.441	286.978
315.816	429.962
319.19	557.319
322.565	687.223
325.94	896.508
329.315	1171.66
332.69	1466.03
336.065	1855.26
339.439	2151.38
342.814	2146.37
346.189	1841.37
349.564	1228.58
352.939	644.146
356.313	258.985
359.688	37.3
363.063	23.4983
366.438	11.604
369.813	64.5339
373.188	131.393
376.562	188.518
379.937	285.31
383.312	396.341
386.687	572.217
390.062	694.447
393.436	736.825
396.811	683.852
400.186	712.144
403.561	706.347
406.936	677.961
410.31	634.335
413.685	527.272
417.06	477.647
420.435	358.204
423.81	380.275
427.185	333.982
430.559	405.373
433.934	419.532
437.309	422.842
440.684	377.093
444.059	424.262
447.433	310.498
450.808	210.682
454.183	54.7444
457.558	25.2017
460.933	74.9463
464.307	17.8618
467.682	101.092
471.057	300.006
474.432	585.966
477.807	792.233
481.181	758.433
484.556	570.518
487.931	347.398
491.306	207.791
494.681	87.9844
498.056	30.8657
501.43	6.96167
504.805	52.273
508.18	206.49
511.555	387.779
514.93	725.833
518.305	1117.67
521.679	1792.13
525.054	2744.59
528.429	4248.89
531.804	6181.46
535.179	8411.12
538.553	10715.7
541.928	12169.7
545.303	11982.5
548.678	10097.7
552.053	7460.45
555.427	5163.91
558.802	3555.81
562.177	2503.53
565.552	1753.62
568.927	1237.6
572.302	922.298
575.676	617.688
579.051	438.086
582.426	295.381
585.801	190.974
589.176	137.825
592.55	67.0564
595.925	22.8418
599.3	8.75708
602.675	18.3064
606.05	25.8423
609.424	46.1787
612.799	1.14429
616.174	23.6575
619.549	15.697
622.924	78.5293
626.299	114.933
629.673	93.9246
633.048	110.85
636.423	170.07
639.798	156.6
643.173	200.286
646.547	214.987
649.922	284.561
653.297	329.179
656.672	332.106
660.047	382.47
663.422	411.691
666.796	508.914
670.171	543.062
673.546	585.504
676.921	557.809
680.296	652.957
683.67	595.784
687.045	619.17
690.42	545.679
693.795	472.743
697.17	442.543
700.544	363.74
703.919	335.702
707.294	256.606
710.669	206.534
714.044	157.816
717.419	121.494
720.793	65.2063
724.168	35.1773
727.543	24.5742
730.918	36.4045
734.293	54.6111
737.667	74.4055
741.042	108.374
744.417	15.7717
747.792	8.95264
751.167	70.0596
754.542	239.011
757.916	396.935
761.291	635.519
764.666	998.773
768.041	1516.78
771.416	2206.55
774.79	2722.47
778.165	2885.66
781.54	2442.02
784.915	1810.99
788.29	1456.36
791.664	1584.88
795.039	2071.15
798.414	2701.43
801.789	2796.75
805.164	2053.04
808.539	1087.35
811.913	412.914
815.288	3.39209
818.663	131.198
822.038	62.8745
825.413	387.968
828.787	1047.36
832.162	2210.72
835.537	3965.96
838.912	6616.79
842.287	11274.5
845.661	16135.9
849.036	22482.6
852.411	27094.5
855.786	24963.1
859.161	17002
862.536	9875.44
865.91	6180.65
869.285	4657.83
872.66	4654.86
876.035	5566.09
879.41	7035.27
882.784	8690.42
886.159	9628.28
889.534	9173.01
892.909	7193.12
896.284	5088.29
899.659	3725.93
903.033	3263.47
906.408	3187.11
909.783	2840.02
913.158	2091.44
916.533	1259.36
919.907	673.646
923.282	348.126
926.657	149.528
930.032	4.51074
933.407	63.0081
936.781	79.2622
940.156	75.0076
943.531	81.2978
946.906	37.7207
950.281	58.9484
953.656	20.0907
957.03	74.3094
960.405	129.122
963.78	171.057
967.155	180.763
970.53	203.977
973.904	225.963
977.279	260.272
980.654	275.943
984.029	295.524
987.404	312.739
990.779	330.286
994.153	319.699
997.528	318.95
1000.9	248.778
1004.28	232.477
1007.65	225.885
1011.03	184.529
1014.4	155.398
1017.78	152.374
1021.15	161.379
1024.53	162.995
1027.9	177.697
1031.28	120.43
1034.65	139.329
1038.03	142.367
1041.4	108.961
1044.78	105.128
1048.15	91.3036
1051.53	75.0336
1054.9	79.9243
1058.28	67.218
1061.65	71.6976
1065.02	70.9874
1068.4	49.6603
1071.77	96.7445
1075.15	74.8032
1078.52	33.5575
1081.9	70.3949
1085.27	60.2563
1088.65	24.7318
1092.02	38.7369
1095.4	66.2322
1098.77	61.4864
1102.15	66.4131
1105.52	10.4028
1108.9	23.5998
1112.27	15.8655
1115.65	4.92957
1119.02	24.5654
1122.4	6.34961
1125.77	21.3104
1129.15	0.196289
1132.52	4.98303
1135.9	3.33911
1139.27	3.64258
1142.64	14.4033
1146.02	4.91614
1149.39	2.27063
1152.77	1.49182
1156.14	38.9679
1159.52	16.1682
1162.89	18.7435
1166.27	0.339966
1169.64	21.7197
1173.02	13.9226
1176.39	26.6593
1179.77	21.5142
1183.14	24.4452
1186.52	14.3991
1189.89	19.4548
1193.27	47.3264
1196.64	13.7288
1200.02	41.7144
1203.39	13.4696
1206.77	17.799
1210.14	24.0004
1213.52	26.5275
1216.89	12.0028
1220.27	1.80066
1223.64	0.809204
1227.02	20.4491
1230.39	25.7929
1233.77	24.9992
1237.14	49.9169
1240.52	50.7841
1243.89	27.656
1247.26	25.0088
1250.64	37.2759
1254.01	35.2375
1257.39	33.2444
1260.76	36.9263
1264.14	19.972
1267.51	19.7634
1270.89	29.7357
1274.26	21.9885
1277.64	46.817
1281.01	18.921
1284.39	30.1031
1287.76	0.021606
