Measurement: Raman, 532 nm, unoriented, Raman Data Processed
Mineral: Lavinskyite
Rruff sample: R141115
Ideal chemistry: K(LiCu^2+^)Cu^2+^_6_(Si_4_O_11_)_2_(OH)_4_
Locality: Wessels mine, South Africa
Source: Jaco and Tania Janse van Nieuwenhuizen
Description: Greenish blue or light blue platy crystals, associated with dark blue scottyite (R141116) and blue wesselsite (with cleavage)
Measured chemistry: (K_0.98_Sr_0.01_)_Σ=0.99_(Li_1.25_Cu_0.71_Na_0.08_)_Σ=2.04_Cu_6_(Si_4.03_O_11_)_2_(OH)_4_; (Lavinskyite is the dark grey material in the image, associated with light grey R141116 scottyite)
Raman shift (cm-1)	intensity
98.9434	0
102.318	0.480072
105.693	11.8741
109.068	47.3976
112.443	0.853455
115.817	14.8567
119.192	24.1083
122.567	7.629
125.942	29.0441
129.317	14.5426
132.692	38.777
136.066	32.0576
139.441	74.9114
142.816	114.408
146.191	128.671
149.566	176.292
152.94	209.894
156.315	187.772
159.69	157.644
163.065	136.357
166.44	51.7814
169.815	1.06921
173.189	4.82611
176.564	5.73041
179.939	1.6293
183.314	11.7967
186.689	38.9741
190.064	69.4265
193.438	104.431
196.813	146.919
200.188	183.787
203.563	251.021
206.938	313.926
210.312	348.388
213.687	314.463
217.062	263.685
220.437	223.841
223.812	204.78
227.186	201.33
230.561	200.202
233.936	197.05
237.311	203.211
240.686	195.04
244.06	179.667
247.435	160.165
250.81	130.887
254.185	114.826
257.56	92.0541
260.935	76.444
264.309	66.8589
267.684	52.2809
271.059	43.2423
274.434	37.5216
277.809	28.5537
281.183	19.3237
284.558	13.4258
287.933	2.21664
291.308	2.83685
294.683	0.427124
298.058	0.006531
301.432	0.979599
304.807	9.53223
308.182	20.0792
311.557	29.6181
314.932	38.4809
318.307	39.8502
321.681	46.5978
325.056	59.331
328.431	65.2864
331.806	67.5764
335.181	85.1825
338.555	84.6428
341.93	93.092
345.305	84.6338
348.68	63.939
352.055	41.6869
355.43	31.1434
358.804	10.2013
362.179	1.60246
365.554	3.35103
368.929	8.18047
372.304	6.98282
375.678	4.49223
379.053	9.46887
382.428	15.739
385.803	32.8175
389.178	50.9751
392.553	76.2576
395.927	91.8112
399.302	104.034
402.677	117.986
406.052	135.78
409.427	156.068
412.801	184.993
416.176	214.703
419.551	238.647
422.926	271.287
426.301	281.207
429.675	308.478
433.05	336.543
436.425	362.361
439.8	373.662
443.175	369.464
446.55	330.957
449.924	271.237
453.299	210.755
456.674	158.464
460.049	116.516
463.424	79.0702
466.798	51.3167
470.173	36.6323
473.548	31.0008
476.923	23.5108
480.298	38.2973
483.673	35.1983
487.047	48.527
490.422	67.9887
493.797	91.1787
497.172	109.297
500.547	128.026
503.921	121.228
507.296	98.8442
510.671	64.768
514.046	39.113
517.421	18.7981
520.795	5.16528
524.17	0.693832
527.545	3.85515
530.92	6.60376
534.295	2.5045
537.67	2.32114
541.044	13.2592
544.419	26.8246
547.794	44.3589
551.169	61.7972
554.544	68.0664
557.918	76.6013
561.293	72.4698
564.668	80.4749
568.043	81.6175
571.418	76.0935
574.793	68.5313
578.167	61.1432
581.542	43.4327
584.917	35.6795
588.292	22.9627
591.667	11.8112
595.042	10.2791
598.416	2.38343
601.791	2.13009
605.166	1.56711
608.541	2.32052
611.916	0.920448
615.29	2.75755
618.665	5.47304
622.04	6.60217
625.415	6.38504
628.79	6.51606
632.164	10.9034
635.539	15.6926
638.914	15.3719
642.289	26.1523
645.664	22.8798
649.039	37.3279
652.413	42.6924
655.788	51.5573
659.163	69.0317
662.538	92.3006
665.913	125.836
669.288	178.336
672.662	259.604
676.037	352.142
679.412	473.607
682.787	530.671
686.162	450.244
689.536	284.34
692.911	173.749
696.286	103.857
699.661	72.6248
703.036	61.2886
706.41	47.4359
709.785	34.4194
713.16	35.2913
716.535	18.9217
719.91	15.5869
723.284	7.91235
726.659	0.03389
730.034	0.286713
733.409	1.26443
736.784	3.13297
740.159	2.76308
743.533	6.23486
746.908	13.1529
750.283	20.8672
753.658	33.0631
757.033	43.4647
760.408	61.4926
763.782	72.4201
767.157	69.3423
770.532	57.4729
773.907	48.7799
777.282	27.7105
780.656	15.1648
784.031	17.3913
787.406	6.53432
790.781	8.22693
794.156	3.93514
797.53	0.736282
800.905	3.76785
804.28	3.63362
807.655	1.07515
811.03	1.38489
814.405	5.19302
817.779	8.99033
821.154	10.3282
824.529	14.8676
827.904	12.2668
831.279	16.552
834.654	12.7872
838.028	19.2854
841.403	15.2027
844.778	13.7563
848.153	10.8382
851.528	7.94508
854.902	10.4725
858.277	7.91209
861.652	6.74796
865.027	5.58885
868.402	7.50755
871.777	3.24065
875.151	1.70473
878.526	0.251282
881.901	11.2446
885.276	6.17766
888.651	18.9189
892.025	14.292
895.4	18.5793
898.775	18.0809
902.15	12.7938
905.525	21.9967
908.899	21.5264
912.274	30.5386
915.649	36.3406
919.024	33.5568
922.399	28.5639
925.774	20.4922
929.148	15.2845
932.523	5.71104
935.898	5.47663
939.273	0.877075
942.648	4.10333
946.023	6.69664
949.397	0.282749
952.772	3.02341
956.147	2.54983
959.522	12.4547
962.896	22.7923
966.271	26.6513
969.646	24.9909
973.021	40.68
976.396	46.6614
979.771	48.3171
983.145	44.1967
986.52	48.5259
989.895	48.0871
993.27	49.7366
996.645	48.3228
1000.02	37.043
1003.39	29.7755
1006.77	28.4
1010.14	25.0698
1013.52	22.8819
1016.89	15.4879
1020.27	16.8467
1023.64	16.1394
1027.02	16.4118
1030.39	21.1216
1033.77	33.5845
1037.14	41.3126
1040.52	40.2251
1043.89	42.3801
1047.27	48.7563
1050.64	42.8677
1054.02	35.3833
1057.39	22.5055
1060.77	17.9325
1064.14	19.1971
1067.52	19.8855
1070.89	21.8356
1074.27	29.4671
1077.64	45.778
1081.02	59.633
1084.39	76.8011
1087.77	75.3712
1091.14	72.0008
1094.51	54.9517
1097.89	31.2474
1101.26	24.7628
1104.64	10.9761
1108.01	15.2344
1111.39	7.82945
1114.76	6.12834
1118.14	0.650806
1121.51	1.02852
1124.89	1.80637
1128.26	0.0961
1131.64	0.463745
1135.01	1.00372
1138.39	2.46313
1141.76	2.38358
1145.14	1.11559
1148.51	2.55335
1151.89	1.63278
1155.26	8.09773
1158.64	6.56151
1162.01	12.1276
1165.38	9.05299
1168.76	4.57259
1172.13	4.89477
1175.51	3.75765
1178.88	9.74698
1182.26	7.98852
1185.63	6.58918
1189.01	7.28337
1192.38	6.22578
1195.76	6.92171
1199.13	4.94035
1202.51	4.69383
1205.88	8.49818
1209.26	7.71676
1212.63	8.32902
1216.01	2.32225
1219.38	7.20748
1222.76	2.86215
1226.13	6.2753
1229.51	7.06412
1232.88	11.2481
1236.26	7.78099
1239.63	9.47987
1243.01	9.8842
1246.38	7.09208
1249.76	3.31809
1253.13	5.84738
1256.51	6.29607
1259.88	5.94662
1263.26	4.47487
1266.63	1.91688
1270.01	0.95211
1273.38	2.97738
1276.76	3.16628
1280.13	7.82028
1283.5	0.809731
1286.88	0.030899
1290.25	3.86824
1293.63	2.56652
1297	4.70585
1300.38	2.82072
