Measurement: Raman, 514 nm, unoriented, Raman Data Processed
Mineral: Lawsonite
Rruff sample: R050042
Ideal chemistry: CaAl_2_Si_2_O_7_(OH)_2_H_2_O
Locality: California, USA
Source: University of Arizona Mineral Museum
Description: White to colorless fragments
Measured chemistry: (Ca_0.98_Fe^2+^_0.02_)Al_2.00_Si_2.00_O_7_(OH)_2_Â·H_2_O
Raman shift (cm-1)	intensity
83.614	0
87.798	163.904
91.981	502.385
96.161	541.98
100.34	627.062
104.516	1045.88
108.691	4239.29
112.864	4912.55
117.034	3380.34
121.203	1872.51
125.369	1387.8
129.534	1171.78
133.696	903.843
137.857	646.386
142.016	238.689
146.172	169.334
150.327	257.983
154.48	516.519
158.63	688.416
162.779	808.767
166.926	890.378
171.07	738.528
175.213	716.436
179.354	632.967
183.493	589.496
187.63	513.915
191.765	453.805
195.898	411.352
200.029	542.437
204.158	545.829
208.285	350.218
212.41	70.313
216.533	175.823
220.654	132.262
224.773	184.623
228.891	156.903
233.006	130.143
237.119	42.799
241.231	20.003
245.34	165.477
249.448	275.06
253.553	483.73
257.657	790.157
261.758	1296.59
265.858	1965.36
269.956	3063.06
274.052	4799.39
278.146	5524.27
282.237	5117.64
286.327	4123.22
290.416	3479.73
294.502	2646.32
298.586	1799.17
302.668	1311.44
306.749	1190.36
310.827	1206.13
314.903	1327.07
318.978	1813.54
323.051	2511.76
327.121	3349.74
331.19	3078.86
335.257	2212.71
339.322	1392.11
343.385	1062.12
347.446	1028.25
351.505	1128.46
355.563	1234.74
359.618	1370.09
363.672	1439.48
367.723	1468.93
371.773	1409.42
375.821	1342.49
379.866	1038.28
383.91	1044.06
387.952	1092.83
391.992	1082.58
396.031	1565.38
400.067	2312.01
404.101	2475.43
408.134	1758.95
412.165	1111.69
416.193	800.99
420.22	714.225
424.245	790.374
428.268	852.424
432.289	727.372
436.309	823.221
440.326	810.973
444.342	1001.63
448.355	1167.21
452.367	1156.71
456.377	1472.34
460.385	1643.23
464.391	1433.68
468.395	1109.17
472.398	816.339
476.398	547.889
480.397	460.985
484.394	358.711
488.389	427.402
492.382	432.357
496.373	522.563
500.362	674.534
504.349	693.62
508.335	713.805
512.319	703.373
516.3	678.127
520.28	694.815
524.259	709.192
528.235	852.993
532.209	929.476
536.182	1165.97
540.152	1479.81
544.121	1976.16
548.088	2704.02
552.053	4202.38
556.017	6489.21
559.978	9551.4
563.938	11282.8
567.895	9712.13
571.851	7247.42
575.805	5300.62
579.758	3774.72
583.708	2745.37
587.657	1741.65
591.603	1233.48
595.548	842.207
599.491	577.845
603.432	359.392
607.372	218.847
611.309	80.211
615.245	47.253
619.179	6.639
623.111	48.577
627.041	119.93
630.97	134.219
634.896	112.473
638.821	165.587
642.744	99.574
646.665	38.277
650.584	37.51
654.502	90.201
658.418	43.645
662.331	60.343
666.244	177.965
670.154	406.518
674.062	636.004
677.969	908.428
681.874	1450.79
685.777	2643.11
689.678	4872.37
693.577	7703.58
697.475	8722.76
701.371	6005.88
705.265	3336.95
709.157	1708.17
713.047	1071.85
716.936	602.66
720.823	472.678
724.708	304.153
728.591	162.127
732.472	204.796
736.352	144.419
740.23	246.001
744.106	223.544
747.98	212.055
751.853	375.537
755.723	415.995
759.592	344.432
763.459	559.854
767.325	631.142
771.188	692.006
775.05	692.504
778.91	955.402
782.768	1121.83
786.625	1280.76
790.479	1270.23
794.332	1412.51
798.183	1466.72
802.033	1520.78
805.88	1383.89
809.726	1530.53
813.57	1462.22
817.413	1324.52
821.253	1236.06
825.092	949.783
828.929	821.725
832.764	576.948
836.598	547.442
840.429	315.191
844.259	267.191
848.088	191.496
851.914	60.018
855.739	81.741
859.562	17.214
863.383	48.947
867.203	35.441
871.02	69.72
874.836	0.192
878.65	23.608
882.463	102.837
886.274	170.559
890.083	256.521
893.89	397.706
897.695	672.143
901.499	1159.81
905.301	1860.79
909.102	2850.85
912.9	4091.21
916.697	4819.81
920.492	4552.63
924.285	4793.66
928.077	5842.93
931.867	8408.51
935.655	12004.6
939.442	13779.2
943.226	12070.4
947.009	8914.23
950.791	6874.14
954.57	5951.53
958.348	6328.81
962.124	5964.9
965.899	4897.15
969.671	3694.8
973.442	2793.68
977.211	2295.57
980.979	1703.77
984.745	1313.54
988.509	1122.46
992.271	1027.31
996.032	893.747
999.791	888.028
1003.55	835.372
1007.3	761.62
1011.06	791.324
1014.81	722.479
1018.56	655.38
1022.31	725.604
1026.06	488.793
1029.8	699.482
1033.55	583.079
1037.29	639.353
1041.03	1063.58
1044.77	1307.9
1048.5	1656.17
1052.24	1717.89
1055.97	1348.92
1059.7	969.07
1063.43	723.86
1067.16	439.991
1070.89	521.176
1074.61	318.405
1078.34	334.185
1082.06	281.029
1085.78	192.569
1089.5	263.328
1093.21	111.908
1096.93	38.721
1100.64	140.374
1104.35	6.491
1108.06	89.517
1111.77	62.33
1115.48	4.65
1119.18	34.929
1122.89	6.87
1126.59	11.728
1130.29	18.239
1133.99	12.549
1137.68	35.103
1141.38	43.405
1145.07	7.501
1148.76	11.116
1152.45	53.429
1156.14	101.409
1159.83	37.507
1163.51	56.363
1167.19	19.033
1170.88	57.013
1174.56	26.543
1178.23	28.549
1181.91	46.386
1185.59	47.421
1189.26	45.261
1192.93	1.261
1196.6	83.628
1200.27	118.426
1203.94	7.109
1207.6	127.314
1211.27	114.125
1214.93	137.723
1218.59	116.9
1222.25	106.581
1225.9	52.464
1229.56	152.406
1233.21	225.673
1236.86	347.221
1240.51	231.872
1244.16	209.774
1247.81	161.2
1251.45	142.144
1255.1	107.729
1258.74	32.053
1262.38	68.395
1266.02	121.586
1269.66	119.946
1273.29	107.664
1276.93	119.474
1280.56	115.148
1284.19	124.022
1287.82	141.104
1291.45	136.97
1295.07	71.418
1298.7	95.75
1302.32	20.068
1305.94	36.946
1309.56	43.338
1313.18	113.117
1316.8	143.264
1320.41	66.128
1324.02	6.112
1327.63	149.25
1331.24	165.182
1334.85	146.272
1338.46	149.973
1342.06	97.136
1345.67	172.172
1349.27	176.074
1352.87	161.722
1356.47	94.629
1360.07	120.26
1363.66	85.57
1367.25	212.404
1370.85	113.539
1374.44	159.575
1378.03	65.436
1381.61	50.971
1385.2	165.451
1388.78	219.006
1392.37	70.407
1395.95	110.829
1399.53	102.458
1403.1	117.653
1406.68	2.167
1410.26	26.146
1413.83	6.732
1417.4	121.603
1420.97	97.76
1424.54	104.125
1428.1	45.671
1431.67	59.482
1435.23	104.181
1438.8	92.523
1442.36	167.56
1445.91	277.778
1449.47	187.361
1453.03	102.732
1456.58	145.323
1460.13	138.482
1463.68	102.601
1467.23	138.855
1470.78	128.236
1474.33	237.639
1477.87	98.031
1481.42	65.418
1484.96	55.036
1488.5	140.006
1492.04	126.173
1495.57	0.867
