Measurement: Raman, 785 nm, unoriented, Raman Data Processed
Mineral: Lawsonite
Rruff sample: R050042
Ideal chemistry: CaAl_2_Si_2_O_7_(OH)_2_H_2_O
Locality: California, USA
Source: University of Arizona Mineral Museum
Description: White to colorless fragments
Measured chemistry: (Ca_0.98_Fe^2+^_0.02_)Al_2.00_Si_2.00_O_7_(OH)_2_Â·H_2_O
Raman shift (cm-1)	intensity
129.697	0
132.59	154.893
135.483	173.892
138.376	39.0395
141.268	8.34882
144.161	91.9638
147.054	201.158
149.946	300.545
152.839	282.497
155.732	151.326
158.625	127.243
161.517	148.003
164.41	172.52
167.303	161.139
170.195	144.881
173.088	125.159
175.981	128.527
178.873	105.367
181.766	99.596
184.659	88.7254
187.552	66.211
190.444	64.8222
193.337	23.2445
196.23	43.6528
199.122	46.7048
202.015	40.7875
204.908	38.136
207.8	9.51306
210.693	9.12933
213.586	3.76758
216.478	3.71045
219.371	1.13232
222.264	0.120667
225.157	14.3142
228.049	13.0883
230.942	6.65021
233.835	8.86115
236.727	30.503
239.62	14.8805
242.513	29.3719
245.405	70.355
248.298	92.2434
251.191	107.37
254.084	177.453
256.976	192.07
259.869	329.332
262.762	463.494
265.654	658.927
268.547	906.562
271.44	1239.21
274.332	1565.78
277.225	1793.36
280.118	1735.84
283.011	1509.53
285.903	1353.37
288.796	1281.8
291.689	1067.76
294.581	778.324
297.474	501.344
300.367	391.755
303.26	309.91
306.152	239.811
309.045	263.79
311.938	297.123
314.83	356.727
317.723	476.376
320.616	642.663
323.508	817.384
326.401	955.686
329.294	927.383
332.187	682.902
335.079	396
337.972	250.233
340.865	132.57
343.757	64.808
346.65	23.1945
349.543	14.6065
352.435	10.4294
355.328	20.1058
358.221	20.9131
361.113	27.1295
364.006	0.169739
366.899	10.2416
369.792	11.229
372.684	2.25153
375.577	15.4093
378.47	1.05188
381.362	26.4305
384.255	9.50598
387.148	88.0828
390.041	189.435
392.933	331.498
395.826	504.869
398.719	752.165
401.611	850.422
404.504	747.977
407.397	464.478
410.289	269.58
413.182	157.501
416.075	81.9557
418.967	81.7418
421.86	86.3088
424.753	99.9189
427.646	149.187
430.538	137.134
433.431	129.038
436.324	91.0628
439.216	109.044
442.109	138.881
445.002	166.588
447.894	135.414
450.787	128.476
453.68	91.6776
456.573	91.074
459.465	103.036
462.358	103.046
465.251	118.188
468.143	92.0947
471.036	106.028
473.929	86.7679
476.822	24.778
479.714	22.6992
482.607	34.3362
485.5	22.9498
488.392	9.81854
491.285	28.7612
494.178	54.9185
497.07	53.573
499.963	68.499
502.856	99.4507
505.748	91.723
508.641	97.5038
511.534	96.6359
514.427	100.906
517.319	107.168
520.212	123.357
523.105	146.137
525.997	178.206
528.89	228.195
531.783	287.751
534.676	344.527
537.568	427.127
540.461	581.832
543.354	738.361
546.246	1008.82
549.139	1369.05
552.032	1889.76
554.924	2533.23
557.817	3259.59
560.71	3835.32
563.602	3983.08
566.495	3557.82
569.388	2766.2
572.281	2149.09
575.173	1659.16
578.066	1263.55
580.959	941.357
583.851	699.853
586.744	515.041
589.637	370.004
592.529	275.273
595.422	214.776
598.315	163.304
601.208	104.518
604.1	62.3218
606.993	64.4917
609.886	31.4996
612.778	15.9284
615.671	7.8494
618.564	1.28369
621.457	12.6737
624.349	10.7683
627.242	27.1317
630.135	14.1517
633.027	7.70941
635.92	14.9373
638.813	10.4954
641.705	1.20825
644.598	1.91596
647.491	5.64661
650.384	16.6697
653.276	42.4307
656.169	55.389
659.062	52.1135
661.954	66.2375
664.847	109.781
667.74	123.826
670.632	188.306
673.525	229.071
676.418	320.658
679.311	472.889
682.203	679.696
685.096	961.397
687.989	1396.86
690.881	1887.16
693.774	2261
696.667	2184.72
699.559	1633.22
702.452	1058.74
705.345	621.649
708.237	396.897
711.13	252.98
714.023	152.629
716.916	113.764
719.808	84.5697
722.701	46.8516
725.594	4.55588
728.486	24.9878
731.379	6.5546
734.272	11.1343
737.164	13.6342
740.057	18.6009
742.95	1.84067
745.843	8.65375
748.735	22.5163
751.628	20.6074
754.521	19.9736
757.413	22.2764
760.306	43.6182
763.199	57.2526
766.091	65.7152
768.984	112.444
771.877	127.327
774.77	148.338
777.662	180.803
780.555	218.916
783.448	251.353
786.34	280.357
789.233	306.37
792.126	327.921
795.019	363.604
797.911	383.664
800.804	383.88
803.697	402.974
806.589	384.235
809.482	387.279
812.375	382.063
815.267	357.272
818.16	328.033
821.053	314.376
823.946	279.553
826.838	259.292
829.731	225.773
832.624	160.391
835.516	132.435
838.409	114.991
841.302	81.8667
844.194	59.7176
847.087	49.4506
849.98	26.9763
852.872	14.8067
855.765	4.52557
858.658	9.72885
861.551	14.9203
864.443	0.027618
867.336	25.836
870.229	3.92599
873.121	6.87625
876.014	8.11908
878.907	1.07599
881.799	9.60455
884.692	11.2374
887.585	17.8448
890.478	75.2778
893.37	71.4334
896.263	143.393
899.156	211.136
902.048	289.958
904.941	431.169
907.834	626.915
910.726	855.87
913.619	997.133
916.512	1093.32
919.405	1036.06
922.297	1072.35
925.19	1300.43
928.083	1689.35
930.975	2220.2
933.868	2820.23
936.761	3226.64
939.654	3192.57
942.546	2681.58
945.439	2121.32
948.332	1654.32
951.224	1467.95
954.117	1376.68
957.01	1382.33
959.902	1320.84
962.795	1114.26
965.688	914.203
968.581	712.29
971.473	561.931
974.366	401.456
977.259	331.331
980.151	241.505
983.044	175.609
985.937	143.763
988.829	71.4565
991.722	70.5774
994.615	48.3031
997.508	41.1448
1000.4	11.3654
1003.29	1.80203
1006.19	21.5257
1009.08	4.98444
1011.97	11.7968
1014.86	4.8335
1017.76	9.51062
1020.65	19.8523
1023.54	8.18524
1026.43	10.408
1029.33	7.54791
1032.22	10.4401
1035.11	5.19852
1038.01	54.0086
1040.9	44.5451
1043.79	87.1348
1046.68	137.44
1049.58	152.983
1052.47	134.446
1055.36	115.066
1058.25	76.0395
1061.15	49.872
1064.04	45.7699
1066.93	27.8909
1069.83	34.0712
1072.72	1.28812
1075.61	12.5844
1078.5	23.7986
1081.4	27.7436
1084.29	1.10861
1087.18	12.572
1090.07	19.6993
1092.97	3.61325
1095.86	29.1964
1098.75	17.7761
1101.64	15.0995
1104.54	35.0776
1107.43	5.91742
1110.32	25.2664
1113.21	25.1597
1116.11	18.5429
1119	25.9084
1121.89	45.8256
1124.79	52.1927
1127.68	44.2134
1130.57	62.2998
1133.46	62.2127
1136.36	69.5233
1139.25	80.5768
1142.14	105.013
1145.04	114.193
1147.93	94.519
1150.82	68.8563
1153.71	55.5796
1156.61	68.3834
1159.5	36.5688
1162.39	29.4423
1165.28	21.1979
1168.18	29.5258
1171.07	20.0198
1173.96	20.5873
1176.86	36.4442
1179.75	13.1301
1182.64	6.08258
1185.53	19.6637
1188.43	1.41354
1191.32	15.333
1194.21	6.34338
1197.1	37.1425
1200	37.7343
1202.89	85.0689
1205.78	91.3775
1208.67	125.37
1211.57	100.371
1214.46	80.4088
1217.35	75.1226
1220.24	27.1861
1223.14	15.8334
1226.03	0.300751
1228.92	7.53192
