Measurement: Raman, 532 nm, unoriented, Raman Data Processed
Mineral: Lawsonite
Rruff sample: R050042
Ideal chemistry: CaAl_2_Si_2_O_7_(OH)_2_H_2_O
Locality: California, USA
Source: University of Arizona Mineral Museum
Description: White to colorless fragments
Measured chemistry: (Ca_0.98_Fe^2+^_0.02_)Al_2.00_Si_2.00_O_7_(OH)_2_Â·H_2_O
Raman shift (cm-1)	intensity
136.163	0
139.537	33.9799
142.912	49.1851
146.287	119.713
149.662	222.924
153.037	313.373
156.411	350.462
159.786	363.859
163.161	351.995
166.536	369.2
169.911	373.598
173.286	357.621
176.66	337.796
180.035	305.36
183.41	304.582
186.785	300.28
190.16	222.751
193.535	177.972
196.909	112.829
200.284	102.08
203.659	69.7498
207.034	58.9614
210.409	29.7981
213.783	4.44995
217.158	6.19116
220.533	17.4601
223.908	24.4841
227.283	31.23
230.657	15.3959
234.032	11.8273
237.407	33.0248
240.782	35.3816
244.157	100.053
247.532	94.3702
250.906	201.497
254.281	290.572
257.656	425.758
261.031	660.033
264.406	1035.44
267.781	1503.05
271.155	2068.01
274.53	2641.68
277.905	2869.43
281.28	2460.22
284.655	2137.21
288.029	1854.43
291.404	1424.34
294.779	751.775
298.154	313.151
301.529	104.407
304.904	21.8914
308.278	20.8677
311.653	43.0894
315.028	132.056
318.403	391.67
321.778	618.962
325.152	893.611
328.527	841.224
331.902	489.61
335.277	129.954
338.652	12.321
342.026	50.5894
345.401	10.0627
348.776	185.496
352.151	441.691
355.526	662.884
358.901	989.33
362.275	1220.09
365.65	1362.72
369.025	1450.84
372.4	1405.55
375.775	1338.29
379.149	1181.95
382.524	1061.85
385.899	1064.88
389.274	1068.19
392.649	1267.89
396.024	1552.76
399.398	1751.22
402.773	1673.29
406.148	1129.67
409.523	557.252
412.898	347.775
416.272	172.353
419.647	121.416
423.022	148.187
426.397	197.389
429.772	271.162
433.147	279.224
436.521	434.107
439.896	576.202
443.271	785.076
446.646	914.155
450.021	1016.63
453.396	1019.6
456.77	975.676
460.145	798.585
463.52	518.729
466.895	264.111
470.27	153.544
473.644	54.081
477.019	11.4424
480.394	78.1731
483.769	49.8852
487.144	65.3219
490.519	19.0671
493.893	49.3937
497.268	131.012
500.643	185.712
504.018	193.624
507.393	243.554
510.767	268.159
514.142	283.047
517.517	327.311
520.892	373.502
524.267	431.108
527.641	559.712
531.016	713.021
534.391	927.87
537.766	1167.55
541.141	1578.62
544.516	2150.66
547.89	3052.71
551.265	4382.35
554.64	6108.2
558.015	7723.4
561.39	8587.82
564.764	7917
568.139	6366.99
571.514	5056.22
574.889	4157.11
578.264	3388.76
581.639	2705.2
585.013	1988.72
588.388	1406.3
591.763	991.441
595.138	668.149
598.513	483.272
601.888	338.075
605.262	245.973
608.637	143.013
612.012	91.9443
615.387	41.3171
618.762	22.5132
622.136	11.6912
625.511	0.95459
628.886	9.64331
632.261	31.6348
635.636	9.2489
639.01	19.7407
642.385	4.01709
645.76	27.3168
649.135	64.7205
652.51	68.5029
655.885	123.064
659.259	200.636
662.634	301.008
666.009	430.011
669.384	549.487
672.759	778.637
676.134	1210.26
679.508	1936.14
682.883	3117.16
686.258	4838.24
689.633	6595.48
693.008	7799.46
696.382	7382.21
699.757	5026.27
703.132	3002.19
706.507	1722.87
709.882	1057.79
713.256	674.574
716.631	447.924
720.006	291.353
723.381	170.745
726.756	109.051
730.131	95.8994
733.505	37.7116
736.88	10.8495
740.255	17.4946
743.63	11.5791
747.005	5.1001
750.38	43.8417
753.754	53.1837
757.129	81.3257
760.504	104.095
763.879	158.468
767.254	235.32
770.628	278.519
774.003	364.853
777.378	405.658
780.753	468.478
784.128	530.985
787.503	580.102
790.877	671.352
794.252	706.448
797.627	785.488
801.002	802.916
804.377	784.027
807.751	766.721
811.126	752.66
814.501	721.545
817.876	652.827
821.251	581.587
824.625	460.234
828	385.193
831.375	278.454
834.75	237.917
838.125	161.947
841.5	140.9
844.874	120.068
848.249	92.9528
851.624	74.3889
854.999	26.7609
858.374	9.9198
861.749	12.1099
865.123	24.535
868.498	32.1803
871.873	21.4112
875.248	11.7257
878.623	7.85303
881.997	3.69751
885.372	39.5332
888.747	111.555
892.122	244.856
895.497	419.858
898.871	595.608
902.246	973.775
905.621	1440.89
908.996	1938.7
912.371	2503.45
915.746	2760.15
919.12	2965.72
922.495	3477.43
925.87	4670.49
929.245	6508.53
932.62	8617.45
935.995	9983.29
939.369	9609.02
942.744	7751.94
946.119	5760.48
949.494	4529.88
952.869	3833.76
956.243	3605.95
959.618	3213.97
962.993	2632.21
966.368	1978.95
969.743	1459.93
973.117	1051.74
976.492	788.434
979.867	542.138
983.242	435.32
986.617	260.151
989.992	242.588
993.366	161.235
996.741	106.849
1000.12	66.8074
1003.49	12.1702
1006.87	24.199
1010.24	19.2202
1013.62	6.80957
1016.99	40.8538
1020.37	21.2078
1023.74	27.7721
1027.12	10.7246
1030.49	32.798
1033.86	98.0676
1037.24	129.4
1040.61	264.585
1043.99	431.092
1047.36	511.426
1050.74	383.237
1054.11	276.638
1057.49	177.993
1060.86	106.692
1064.24	43.585
1067.61	42.656
1070.99	21.8823
1074.36	13.2754
1077.74	15.53
1081.11	7.49255
1084.49	29.4554
1087.86	17.7515
1091.24	13.0909
1094.61	26.3145
1097.99	38.4128
1101.36	0.503662
1104.73	18.3689
1108.11	21.7878
1111.48	40.0769
1114.86	57.2825
1118.23	55.9353
1121.61	59.8788
1124.98	69.95
1128.36	43.749
1131.73	43.1089
1135.11	36.0004
1138.48	37.521
1141.86	63.2633
1145.23	63.5149
1148.61	88.3136
1151.98	50.0154
1155.36	73.6415
1158.73	85.9458
1162.11	39.0807
1165.48	74.3562
1168.86	35.3995
1172.23	51.7382
1175.61	35.9417
1178.98	38.3509
1182.36	55.2683
1185.73	11.5939
1189.11	29.8859
1192.48	68.3418
1195.86	64.5769
1199.23	79.1604
1202.61	49.196
1205.98	35.3943
1209.36	36.5566
1212.73	29.8746
1216.1	50.2769
1219.48	20.8987
1222.85	28.8833
1226.23	1.93652
1229.6	2.41724
1232.98	4.32849
1236.35	20.8497
1239.73	26.9231
1243.1	20.5199
1246.48	44.0094
1249.85	13.3346
1253.23	35.4427
1256.6	20.6084
1259.98	44.1833
1263.35	17.2492
1266.73	14.5944
1270.1	23.6193
1273.48	30.3138
1276.85	29.3059
1280.23	10.7172
1283.6	56.5231
1286.98	94.3312
1290.35	16.4204
1293.72	31.684
1297.1	9.93689
1300.47	80.3678
1303.85	25.3633
1307.22	35.3818
