Measurement: Raman, 532 nm, unoriented, Raman Data Processed
Mineral: Lazulite
Rruff sample: R050110
Ideal chemistry: MgAl_2_(PO_4_)_2_(OH)_2_
Locality: Rapid Creek, Yukon Territory, Canada
Source: Rock Currier
Description: Azure-blue stubby crystals with complex terminations
Measured chemistry: (Mg_0.84_Fe_0.16_)Al_2.00_(P_1.00_O_4_)_2_(OH)_2_
Raman shift (cm-1)	intensity
143.638	0
146.531	66.7644
149.423	12.8699
152.316	13.121
155.209	48.2487
158.101	6.93854
160.994	49.2752
163.887	46.1867
166.78	127.736
169.672	376.972
172.565	1012.13
175.458	1146.56
178.35	1351.53
181.243	1698.52
184.136	2224.18
187.028	3339.48
189.921	5384.77
192.814	2390.13
195.707	1034
198.599	381.83
201.492	171.688
204.385	89.5577
207.277	120.793
210.17	214.857
213.063	261.349
215.955	286.092
218.848	427.928
221.741	671.933
224.633	809.794
227.526	265.796
230.419	3.71643
233.312	33.2322
236.204	74.0359
239.097	231.43
241.99	355.222
244.882	552.378
247.775	745.993
250.668	1026.37
253.56	1519.29
256.453	759.569
259.346	329.575
262.239	231.627
265.131	314.882
268.024	356.07
270.917	458.792
273.809	555.913
276.702	690.017
279.595	919.671
282.488	922.567
285.38	520.913
288.273	194.416
291.166	56.5132
294.058	17.8276
296.951	58.9663
299.844	89.9352
302.736	19.335
305.629	91.5733
308.522	185.979
311.414	298.76
314.307	465.931
317.2	738.694
320.093	1114.26
322.985	989.44
325.878	530.936
328.771	442.94
331.663	547.595
334.556	672.675
337.449	780.814
340.341	992.777
343.234	1290.5
346.127	1345.13
349.019	906.912
351.912	504.664
354.805	313.724
357.698	316.239
360.59	354.618
363.483	516.787
366.376	685.325
369.268	857.052
372.161	1131.47
375.054	1498.33
377.947	1528.33
380.839	1032.2
383.732	579.138
386.625	305.175
389.517	258.736
392.41	290.384
395.303	337.71
398.195	595.068
401.088	801.397
403.981	1040.45
406.873	1444.2
409.766	2397.76
412.659	3858.58
415.552	1747.16
418.444	658.173
421.337	537.875
424.23	680.998
427.122	786.451
430.015	362.225
432.908	53.6823
435.8	37.5478
438.693	40.1948
441.586	37.7895
444.479	13.7878
447.371	43.723
450.264	96.7663
453.157	134.613
456.049	183.151
458.942	253.248
461.835	287.409
464.727	256.907
467.62	241.908
470.513	275.71
473.406	379.917
476.298	481.366
479.191	452.822
482.084	211.782
484.976	88.0122
487.869	23.5761
490.762	30.8043
493.654	13.084
496.547	22.0253
499.44	4.40485
502.332	14.7714
505.225	23.9559
508.118	10.2408
511.011	33.2903
513.903	48.058
516.796	47.2286
519.689	74.7488
522.581	83.4959
525.474	104.408
528.367	110.582
531.26	139.443
534.152	98.2513
537.045	130.007
539.938	108.19
542.83	54.9647
545.723	60.7256
548.616	4.90845
551.508	9.35913
554.401	4.7467
557.294	2.93927
560.187	10.473
563.079	37.0571
565.972	74.249
568.865	116.434
571.757	134.293
574.65	242.572
577.543	336.969
580.435	308.925
583.328	201.71
586.221	145.758
589.114	217.149
592.006	297.423
594.899	437.797
597.792	631.854
600.684	903.616
603.577	1174.22
606.47	1277
609.362	1286.12
612.255	1403.33
615.148	1363.14
618.04	1497.39
620.933	1621.35
623.826	1574.42
626.719	1407.03
629.611	1362.45
632.504	1275.95
635.397	1191.6
638.289	1091.98
641.182	1063.95
644.075	1082.46
646.967	1042.75
649.86	775.838
652.753	498.292
655.646	309.663
658.538	181.427
661.431	116.459
664.324	108.531
667.216	95.3027
670.109	55.18
673.002	12.1088
675.894	2.65057
678.787	3.78964
681.68	10.6903
684.572	10.9895
687.465	12.5511
690.358	11.0887
693.251	2.54324
696.143	0.898041
699.036	29.8302
701.929	51.8705
704.821	48.9398
707.714	65.2872
710.607	114.025
713.5	115.388
716.392	157.621
719.285	202.981
722.178	271.279
725.07	384.839
727.963	488.089
730.856	655.873
733.748	788.73
736.641	923.568
739.534	957.132
742.427	878.196
745.319	698.691
748.212	487.209
751.105	351.075
753.997	239.58
756.89	140.839
759.783	110.509
762.675	95.7111
765.568	53.8511
768.461	52.5336
771.354	44.7502
774.246	15.838
777.139	19.5549
780.032	14.748
782.924	38.4862
785.817	20.6665
788.71	24.2227
791.602	21.2401
794.495	0.47934
797.388	5.89993
800.28	12.4565
803.173	9.39215
806.066	10.6155
808.959	2.99509
811.851	8.8457
814.744	1.49847
817.637	6.97452
820.529	6.73309
823.422	6.41968
826.315	14.4096
829.207	30.2188
832.1	35.9699
834.993	43.9751
837.885	38.5337
840.778	65.1233
843.671	43.7854
846.564	63.1678
849.456	64.6694
852.349	78.3727
855.242	79.5885
858.134	86.6076
861.027	69.0366
863.92	80.4948
866.812	58.029
869.705	73.4694
872.598	44.8649
875.491	30.8745
878.383	32.361
881.276	29.504
884.169	14.0506
887.061	34.6265
889.954	24.1716
892.847	23.1351
895.74	34.3332
898.632	38.1891
901.525	34.5468
904.418	33.3434
907.31	48.1681
910.203	43.9026
913.096	58.2088
915.988	96.6527
918.881	66.7236
921.774	85.9739
924.667	85.7265
927.559	78.8992
930.452	82.8313
933.345	83.3582
936.237	77.1377
939.13	86.0255
942.023	60.1942
944.915	51.4128
947.808	34.7883
950.701	12.2462
953.593	33.4684
956.486	16.7753
959.379	0.827057
962.271	4.05438
965.164	0.540436
968.057	6.87219
970.95	0.463043
973.842	38.09
976.735	28.9943
979.628	14.1036
982.52	2.0661
985.413	13.2818
988.306	33.054
991.198	101.205
994.091	138.401
996.984	229.644
999.877	283.68
1002.77	379.035
1005.66	469.366
1008.55	547.864
1011.45	679.594
1014.34	889.25
1017.23	967.607
1020.12	779.683
1023.02	512.404
1025.91	285.622
1028.8	236.647
1031.7	178.344
1034.59	215.58
1037.48	378.709
1040.37	627.65
1043.27	1155.43
1046.16	1992.44
1049.05	3273.26
1051.94	4638.81
1054.84	6183.55
1057.73	7204.14
1060.62	6472.77
1063.52	3936.69
1066.41	1936.16
1069.3	903.487
1072.19	449.341
1075.09	230.764
1077.98	158.808
1080.87	183.098
1083.77	295.379
1086.66	471.123
1089.55	654.04
1092.44	763.76
1095.34	817.031
1098.23	874.546
1101.12	840.728
1104.01	545.851
1106.91	218.449
1109.8	32.8704
1112.69	12.1974
1115.59	1.19702
1118.48	55.8587
1121.37	215.686
1124.26	468.096
1127.15	824.901
1130.05	1227.86
1132.94	1666.16
1135.83	1876.23
1138.73	1497.45
1141.62	939.517
1144.51	524.095
1147.4	266.721
1150.3	151.407
1153.19	88.5465
1156.08	37.2807
1158.97	14.89
1161.87	0.314331
1164.76	12.4374
1167.65	9.84747
1170.55	7.37518
1173.44	9.7558
1176.33	10.1287
1179.22	11.8987
1182.12	25.4194
1185.01	2.12213
1187.9	2.86523
1190.8	15.5921
1193.69	2.56103
1196.58	11.8649
1199.47	18.3025
1202.37	63.3857
1205.26	67.4801
1208.15	115.561
1211.04	117.199
1213.94	122.98
1216.83	112.89
1219.72	132.681
1222.61	132.635
1225.51	107.356
1228.4	74.8632
1231.29	78.2729
1234.18	66.0622
1237.08	51.3975
1239.97	53.1571
1242.86	24.5578
1245.76	25.7065
1248.65	42.2649
1251.54	48.0636
1254.43	30.0526
1257.33	29.5812
1260.22	31.9223
1263.11	48.678
1266.01	40.5524
1268.9	42.9887
1271.79	36.0882
1274.68	34.2374
1277.58	1.02609
1280.47	6.75131
1283.36	19.0082
1286.25	1.62289
1289.15	23.2152
1292.04	17.5793
1294.93	0
