Measurement: Raman, 780 nm, unoriented, Raman Data Processed
Mineral: Lazulite
Rruff sample: R050110
Ideal chemistry: MgAl_2_(PO_4_)_2_(OH)_2_
Locality: Rapid Creek, Yukon Territory, Canada
Source: Rock Currier
Description: Azure-blue stubby crystals with complex terminations
Measured chemistry: (Mg_0.84_Fe_0.16_)Al_2.00_(P_1.00_O_4_)_2_(OH)_2_
Raman shift (cm-1)	intensity
166.235	0
169.127	1.53833
172.02	239.201
174.913	274.871
177.806	556.43
180.698	916.838
183.591	1538.62
186.484	2781.24
189.376	6068.6
192.269	4272.35
195.162	1983.99
198.055	725.752
200.947	307.273
203.84	100.161
206.733	10.0016
209.625	32.3795
212.518	61.205
215.411	97.676
218.304	196.296
221.196	449.76
224.089	759.165
226.982	460.143
229.874	65.5574
232.767	42.395
235.66	45.1986
238.552	13.974
241.445	142.625
244.338	333.607
247.231	536.438
250.123	883.266
253.016	1637.04
255.909	1129.33
258.801	352.148
261.694	150.737
264.587	95.7377
267.479	138.41
270.372	261.595
273.265	411.745
276.158	613.476
279.05	994.022
281.943	1284.22
284.836	887.795
287.728	447.926
290.621	194.639
293.514	73.4432
296.406	4.59863
299.299	57.1521
302.192	89.7362
305.084	16.983
307.977	112.029
310.87	303.608
313.763	484.541
316.655	830.166
319.548	1447.13
322.441	1592.21
325.333	1006.54
328.226	741.253
331.119	699.895
334.012	810.45
336.904	900.606
339.797	1094.9
342.69	1492.12
345.582	1684.75
348.475	1510.82
351.368	1098.12
354.26	883.856
357.153	795.197
360.046	729.572
362.938	726.414
365.831	842.062
368.724	1020.18
371.617	1262.24
374.509	1697.97
377.402	2053.95
380.295	1692.44
383.187	1042.67
386.08	713.417
388.973	659.346
391.865	660.511
394.758	567.048
397.651	489.768
400.544	635.392
403.436	925.606
406.329	1379.84
409.222	2374.29
412.115	5001.6
415.007	3541.4
417.9	1261.29
420.793	713.231
423.685	812.449
426.578	1102.66
429.471	737.364
432.363	212.079
435.256	48.7159
438.149	29.4153
441.041	63.7217
443.934	41.2905
446.827	43.7092
449.72	9.69665
452.612	57.9058
455.505	135.713
458.398	178.84
461.29	168.232
464.183	122.567
467.076	20.5674
469.969	69.3621
472.861	157.987
475.754	299.492
478.647	412.308
481.539	222.98
484.432	122.223
487.325	15.3007
490.217	45.7484
493.11	95.4581
496.003	115.181
498.896	109.593
501.788	107.719
504.681	102.084
507.574	123.437
510.466	152.146
513.359	213.782
516.252	232.061
519.144	267.591
522.037	279.55
524.93	281.965
527.822	275.015
530.715	250.308
533.608	242.297
536.501	205.709
539.393	158.359
542.286	122.333
545.179	71.3118
548.071	14.9489
550.964	13.2345
553.857	51.0131
556.75	7.33069
559.642	10.0193
562.535	7.15527
565.428	49.2573
568.32	57.713
571.213	78.4364
574.106	93.0901
576.998	197.371
579.891	196.128
582.784	171.668
585.677	56.0424
588.569	17.6855
591.462	35.8478
594.355	130.706
597.247	281.115
600.14	461.072
603.033	771.047
605.926	929.241
608.818	1067.03
611.711	1214.61
614.604	1279.39
617.496	1379.01
620.389	1662.84
623.282	1735.73
626.174	1458.46
629.067	1317
631.96	1232.06
634.852	1191.89
637.745	1063.48
640.638	1070.28
643.531	1155.28
646.423	1234.99
649.316	1010.22
652.209	680.722
655.101	411.751
657.994	266.645
660.887	220.108
663.779	182.09
666.672	158.28
669.565	140.2
672.458	53.2396
675.35	47.4778
678.243	19.3672
681.136	10.2514
684.028	36.4371
686.921	5.90967
689.814	7.6568
692.707	8.68158
695.599	22.5855
698.492	40.0173
701.385	70.3662
704.277	100.786
707.17	111.075
710.063	146.984
712.955	158.047
715.848	160.865
718.741	158.173
721.634	172.378
724.526	200.197
727.419	267.422
730.312	355.658
733.204	475.715
736.097	587.112
738.99	716.477
741.882	675.105
744.775	573.161
747.668	417.011
750.561	280.064
753.453	166.257
756.346	100.55
759.239	72.7159
762.131	34.6367
765.024	6.81909
767.917	23.3557
770.809	37.0472
773.702	20.5142
776.595	22.9598
779.487	32.604
782.38	15.7015
785.273	27.0436
788.166	16.5567
791.058	17.9854
793.951	28.0925
796.844	20.1039
799.736	13.7679
802.629	1.95709
805.522	9.60877
808.415	5.06622
811.307	1.68146
814.2	7.92169
817.093	3.33197
819.985	2.36151
822.878	1.80109
825.771	13.8206
828.663	2.57391
831.556	15.973
834.449	22.5739
837.342	26.5143
840.234	14.9578
843.127	24.7778
846.02	28.7953
848.912	41.2911
851.805	40.8127
854.698	62.1266
857.591	48.1812
860.483	62.2593
863.376	69.3446
866.269	73.2201
869.161	66.6675
872.054	58.5355
874.947	50.5008
877.839	49.9208
880.732	39.1346
883.625	45.4747
886.518	19.4247
889.41	40.1962
892.303	52.4241
895.196	52.4332
898.088	51.6882
900.981	43.8773
903.874	59.1965
906.766	70.3722
909.659	91.1196
912.552	86.6859
915.444	68.0568
918.337	97.0129
921.23	108.653
924.123	112.455
927.015	110.515
929.908	108.666
932.801	114.755
935.693	117.463
938.586	91.1816
941.479	87.0001
944.371	70.1733
947.264	71.3361
950.157	45.6495
953.05	43.6895
955.942	22.0438
958.835	10.2548
961.728	26.702
964.62	20.7133
967.513	8.42645
970.406	11.9594
973.298	13.7789
976.191	14.5979
979.084	24.2582
981.977	18.2892
984.869	9.935
987.762	0.333435
990.655	26.3455
993.547	52.7221
996.44	106.214
999.333	193.633
1002.23	276.589
1005.12	372.138
1008.01	457.601
1010.9	591.767
1013.8	879.817
1016.69	1086.19
1019.58	1016.23
1022.47	669.774
1025.37	367.536
1028.26	237.181
1031.15	175.833
1034.05	160.564
1036.94	212.398
1039.83	384.66
1042.72	687.298
1045.62	1274.4
1048.51	2146.37
1051.4	3749.7
1054.29	5867.32
1057.19	7812.19
1060.08	7655.86
1062.97	5173.4
1065.87	2661.58
1068.76	1299.84
1071.65	630.374
1074.54	320.24
1077.44	183.203
1080.33	192.2
1083.22	250.558
1086.11	362.361
1089.01	509.293
1091.9	642.398
1094.79	685.902
1097.68	797.014
1100.58	813.062
1103.47	588.419
1106.36	360.518
1109.26	116.374
1112.15	28.5825
1115.04	21.6542
1117.93	68.4853
1120.83	163.616
1123.72	341.889
1126.61	680.024
1129.5	1159.28
1132.4	1786.64
1135.29	2245.17
1138.18	1924.72
1141.08	1272.86
1143.97	870.491
1146.86	451.152
1149.75	272.128
1152.65	235.332
1155.54	138.762
1158.43	103.87
1161.32	75.5947
1164.22	50.6249
1167.11	35.1226
1170	13.6169
1172.89	35.0016
1175.79	33.5269
1178.68	21.3854
1181.57	22.3782
1184.47	10.3591
1187.36	10.898
1190.25	46.6765
1193.14	33.6967
1196.04	33.7075
1198.93	70.234
1201.82	91.5426
1204.71	133.889
1207.61	157.567
1210.5	160.613
1213.39	175.923
1216.29	185.118
1219.18	157.833
1222.07	135.109
1224.96	113.049
1227.86	89.1774
1230.75	82.9394
1233.64	60.1008
1236.53	3.18317
1239.43	28.9847
1242.32	20.5861
1245.21	23.4518
1248.11	26.3466
1251	26.4495
1253.89	51.6938
1256.78	68.7047
1259.68	39.9802
1262.57	41.2524
1265.46	34.9247
1268.35	12.6675
1271.25	17.7936
1274.14	29.8877
1277.03	32.0944
1279.92	21.8149
1282.82	15.5845
