Measurement: Raman, 532 nm, unoriented, Raman Data Processed
Mineral: Lazulite
Rruff sample: R060494
Ideal chemistry: MgAl_2_(PO_4_)_2_(OH)_2_
Locality: Champion mine, White Mountains, Mono County, California, USA
Source: Michael Scott
Description: Dark-blue coarsely crystalline mass
Measured chemistry: (Mg_0.67_Fe^2+^_0.33_)_Î£=1_Al_2.00_(P_1.00_O_4_)_2_(OH)_2_
Raman shift (cm-1)	intensity
153.824	0
156.716	20.797
159.609	13.649
162.502	9.516
165.394	125.004
168.287	278.01
171.18	557.959
174.072	499.293
176.965	312.237
179.858	687.998
182.751	1862.06
185.643	3881.33
188.536	7047.37
191.429	9545.46
194.321	3498.83
197.214	1344.07
200.107	898.764
202.999	356.868
205.892	258.136
208.785	188.336
211.678	159.424
214.57	305.006
217.463	547.925
220.356	957.859
223.248	1178.78
226.141	784.406
229.034	203.526
231.926	3.152
234.819	40.712
237.712	36.337
240.605	145.528
243.497	550.38
246.39	1386.36
249.283	2127.19
252.176	3667.56
255.068	3022.03
257.961	1068.45
260.854	583.712
263.746	396.511
266.639	409.485
269.532	547.348
272.424	768.797
275.317	1324.36
278.21	1859.01
281.103	2282.25
283.995	1773.69
286.888	964.545
289.781	395.172
292.673	169.88
295.566	26.22
298.459	23.601
301.351	105.636
304.244	76.644
307.137	15.021
310.03	104.634
312.922	202.583
315.815	469.009
318.708	795.707
321.6	1058.04
324.493	718.008
327.386	631.111
330.278	675.47
333.171	809.888
336.064	1032.94
338.957	1405.07
341.849	1836.2
344.742	2216.3
347.635	1910.86
350.527	1183.71
353.42	832.684
356.313	644.113
359.205	577.295
362.098	538.92
364.991	766.538
367.884	1112.66
370.776	1636.92
373.669	2268.29
376.562	2928.05
379.454	2718.36
382.347	1633.58
385.24	977.724
388.132	707.185
391.025	730.847
393.918	638.57
396.81	449.466
399.703	566.929
402.596	1370.09
405.489	2453.76
408.381	4429.09
411.274	8550.45
414.167	8242.66
417.06	2321.39
419.952	1158.03
422.845	1062.5
425.738	1226.11
428.63	929.011
431.523	292.746
434.416	41.405
437.308	48.392
440.201	58.326
443.094	60.91
445.987	22.573
448.879	65.198
451.772	119.334
454.665	216.81
457.557	387.44
460.45	522.728
463.343	560.205
466.235	710.135
469.128	935.505
472.021	1422.38
474.914	2050.75
477.806	2278.1
480.699	1628.65
483.592	812.938
486.484	355.737
489.377	191.638
492.27	101.878
495.162	19.079
498.055	17.649
500.948	2.765
503.841	25.314
506.733	21.712
509.626	44.138
512.519	90.494
515.411	116.799
518.304	133.87
521.197	200.912
524.089	181.042
526.982	182.313
529.875	265.195
532.768	292.103
535.66	326.936
538.553	245.712
541.446	223.813
544.338	116.085
547.231	85.581
550.124	0.73
553.016	43.991
555.909	38.328
558.802	2.539
561.695	21.948
564.587	15.002
567.48	142.887
570.373	203.48
573.265	244.837
576.158	416.141
579.051	535.075
581.943	342.123
584.836	214.989
587.729	220.798
590.622	277.439
593.514	423.926
596.407	824.849
599.3	1239.23
602.192	1919.83
605.085	2615.2
607.978	3070.61
610.87	3858.35
613.763	3691.61
616.656	3424.78
619.549	3399.14
622.441	3442.57
625.334	3452.44
628.227	3690.32
631.119	4180.85
634.012	4490.35
636.905	4457.01
639.797	4593.69
642.69	4702.46
645.583	4503.05
648.476	3684.8
651.368	2529.82
654.261	1535.69
657.154	1022.5
660.046	629.376
662.939	452.731
665.832	329.741
668.724	257.256
671.617	192.075
674.51	111.329
677.403	35.404
680.295	51.093
683.188	9.082
686.081	10.777
688.973	55.976
691.866	27.205
694.759	6.656
697.652	9.144
700.544	31.849
703.437	41.731
706.33	202.431
709.222	181.578
712.115	148.106
715.008	149.823
717.901	164.149
720.793	208.191
723.686	202.456
726.579	213.719
729.471	288.9
732.364	380.78
735.257	485.192
738.149	589.681
741.042	615.265
743.935	561.37
746.828	441.139
749.72	305.464
752.613	137.891
755.506	81.919
758.398	41.75
761.291	34.448
764.184	4.721
767.076	0.914
769.969	4.301
772.862	24.869
775.755	11.928
778.647	40.162
781.54	40.483
784.433	52.005
787.325	48.278
790.218	22.656
793.111	61.934
796.003	37.672
798.896	12.505
801.789	7.952
804.682	16.042
807.574	28.986
810.467	4.416
813.36	7.719
816.252	23.574
819.145	4.808
822.038	25.61
824.93	18.171
827.823	3.599
830.716	37.476
833.609	84.637
836.501	66.426
839.394	89.321
842.287	103.265
845.179	108.645
848.072	169.238
850.965	162.207
853.857	173.989
856.75	196.348
859.643	128.945
862.536	192.74
865.428	180.522
868.321	183.694
871.214	137.404
874.106	109.016
876.999	94.932
879.892	112.447
882.784	70.635
885.677	130.611
888.57	113.136
891.463	108.201
894.355	129.837
897.248	132.323
900.141	136.311
903.033	162.672
905.926	141.779
908.819	124.446
911.711	181.519
914.604	209.602
917.497	193.307
920.39	201.091
923.282	187.66
926.175	183.179
929.068	229.092
931.96	206.062
934.853	168.178
937.746	121.318
940.638	130.706
943.531	101.647
946.424	78.835
949.317	61.434
952.209	20.698
955.102	47.874
957.995	2.176
960.888	13.463
963.78	33.608
966.673	42.59
969.566	46.31
972.458	33.675
975.351	45.475
978.244	22.203
981.136	16.195
984.029	100.398
986.922	241.273
989.815	388.781
992.707	690.836
995.6	965.974
998.493	1225.47
1001.38	1348.85
1004.28	1277.24
1007.17	1153.87
1010.06	1181.68
1012.96	1351.99
1015.85	1629.71
1018.74	1500.9
1021.63	833.624
1024.53	415.033
1027.42	149.561
1030.31	89.354
1033.2	140.427
1036.1	399.354
1038.99	859.564
1041.88	1645.87
1044.78	3210.13
1047.67	5603.75
1050.56	9297.95
1053.45	14069.6
1056.35	17755.7
1059.24	16430.3
1062.13	10429.7
1065.03	5226.14
1067.92	2448.3
1070.81	1087.74
1073.7	479.457
1076.6	262.638
1079.49	233.436
1082.38	481.644
1085.27	930.922
1088.17	1691.04
1091.06	2665.9
1093.95	3760.81
1096.84	5179.32
1099.74	6015.89
1102.63	4834.93
1105.52	2748.26
1108.41	1318.66
1111.31	533.898
1114.2	313.62
1117.09	73.021
1119.99	72.598
1122.88	207.947
1125.77	633.62
1128.66	1224.54
1131.56	2085.15
1134.45	2914.38
1137.34	3373.74
1140.23	1858.51
1143.13	959.946
1146.02	479.536
1148.91	177.559
1151.81	67.854
1154.7	20.554
1157.59	26.771
1160.48	26.457
1163.38	43.13
1166.27	60.192
1169.16	50.477
1172.06	26.969
1174.95	26.446
1177.84	77.777
1180.73	48.143
1183.62	129.226
1186.52	72.894
1189.41	2.449
1192.3	11.544
1195.2	23.194
1198.09	42.011
1200.98	103.325
1203.87	156.166
1206.77	224.576
1209.66	302.155
1212.55	345.325
1215.44	378.007
1218.34	374.341
1221.23	374.626
1224.12	313.946
1227.02	234.51
1229.91	204.086
1232.8	152.232
1235.69	118.508
1238.59	116.319
1241.48	138.157
1244.37	89.136
1247.27	72.856
1250.16	98.771
1253.05	84.674
1255.94	89.341
1258.84	112.286
1261.73	96.547
1264.62	71.996
1267.51	63.907
1270.41	61.49
1273.3	62.559
1276.19	74.948
1279.09	62.896
1281.98	45.754
1284.87	10.677
1287.76	27.963
1290.66	32.225
1293.55	14.314
