Measurement: Raman, 532 nm, unoriented, Raman Data Processed
Mineral: Lazurite
Rruff sample: R040023
Ideal chemistry: Na_3_Ca(Si_3_Al_3_)O_12_S
Locality: Chile
Source: University of Arizona Mineral Museum
Description: Blue fine-grained massive
Measured chemistry: (Na_0.99_K_0.01_)_6_(Ca_0.99_Na_0.01_)_2_Al_6.00_Si_6.00_O_24_[(SO_4_)_0.67_S_0.32_Cl_0.01_]_2_
Raman shift (cm-1)	intensity
138.725	0
141.618	1.58118
144.511	6.73364
147.403	19.411
150.296	17.2942
153.189	12.9015
156.081	12.942
158.974	12.471
161.867	17.8835
164.76	28.7207
167.652	32.0654
170.545	24.459
173.438	21.9615
176.33	8.96545
179.223	9.3866
182.116	8.70349
185.008	3.01379
187.901	5.63037
190.794	3.59436
193.686	4.94775
196.579	2.21887
199.472	4.72168
202.365	1.01086
205.257	5.51184
208.15	0.701416
211.043	1.7478
213.935	2.73608
216.828	11.7031
219.721	23.2449
222.613	30.5975
225.506	49.8733
228.399	59.2777
231.292	71.693
234.184	93.6357
237.077	125.994
239.97	164.134
242.862	211.624
245.755	270.438
248.648	337.063
251.541	408.382
254.433	451.887
257.326	459.904
260.219	398.413
263.111	313.374
266.004	233.261
268.897	179.475
271.789	148.018
274.682	125.252
277.575	127.58
280.467	126.768
283.36	129.973
286.253	129.328
289.146	119.752
292.038	104.786
294.931	83.1749
297.824	56.9236
300.716	42.3509
303.609	39.5293
306.502	41.6406
309.394	39.2602
312.287	36.3648
315.18	36.3916
318.073	56.1921
320.965	67.9209
323.858	54.3567
326.751	59.8306
329.643	65.3529
332.536	64.6973
335.429	65.329
338.322	56.6664
341.214	45.7865
344.107	32.0936
347	17.5238
349.892	7.2981
352.785	2.66321
355.678	4.03271
358.57	2.20886
361.463	1.41943
364.356	0.284058
367.248	2.93726
370.141	4.15649
373.034	6.078
375.926	15.3351
378.819	1.021
381.712	8.16003
384.605	14.5295
387.497	12.082
390.39	11.6133
393.283	21.1401
396.175	24.0862
399.068	54.0831
401.961	49.511
404.853	51.0295
407.746	58.4633
410.639	55.8096
413.532	51.0344
416.424	31.8047
419.317	30.8118
422.21	20.6428
425.102	25.1116
427.995	21.7659
430.888	22.1909
433.781	19.354
436.673	11.1665
439.566	17.3667
442.459	19.5454
445.351	16.7515
448.244	4.38354
451.137	1.59619
454.029	1.61255
456.922	0.919678
459.815	1.95532
462.707	1.89478
465.6	2.53735
468.493	4.83447
471.386	5.56421
474.278	2.96655
477.171	9.39893
480.064	1.96533
482.956	1.48047
485.849	8.25098
488.742	7.77368
491.635	16.4485
494.527	27.5647
497.42	35.2866
500.313	44.0867
503.205	67.6182
506.098	82.3787
508.991	96.1521
511.883	120.677
514.776	160.936
517.669	222.728
520.562	327.887
523.454	506.038
526.347	813.258
529.24	1271.36
532.132	1900.93
535.025	2723.8
537.918	3686.29
540.81	4792.2
543.703	5778.69
546.596	6016.91
549.489	4898.99
552.381	2913
555.274	1420.66
558.167	785.258
561.059	534.255
563.952	419.058
566.845	373.849
569.737	360.815
572.63	377.551
575.523	407.684
578.415	439.341
581.308	431.512
584.201	398.269
587.094	318.036
589.986	249.813
592.879	173.552
595.772	109.612
598.664	80.8235
601.557	39.5637
604.45	29.6626
607.342	18.0666
610.235	4.7312
613.128	0.77002
616.021	4.16675
618.913	14.106
621.806	3.62402
624.699	24.3928
627.591	42.9722
630.484	62.3565
633.377	91.6604
636.269	108.734
639.162	74.2576
642.055	32.0698
644.948	9.57788
647.84	2.92944
650.733	2.42651
653.626	1.53906
656.518	4.16748
659.411	9.99463
662.304	1.68359
665.197	7.76562
668.089	0.067139
670.982	3.521
673.875	12.3569
676.767	14.0647
679.66	14.2546
682.553	5.34814
685.445	10.155
688.338	5.49487
691.231	20.416
694.124	23.7666
697.016	12.3579
699.909	16.9529
702.802	16.6785
705.694	16.9341
708.587	22.2151
711.48	23.5
714.372	19.4373
717.265	14.8242
720.158	7.55542
723.051	15.343
725.943	13.2561
728.836	5.08228
731.729	2.56079
734.621	6.64917
737.514	7.23096
740.407	1.63794
743.299	0.305176
746.192	4.52515
749.085	1.6355
751.977	6.79272
754.87	0.30127
757.763	1.59644
760.656	1.79175
763.548	10.0862
766.441	18.4045
769.334	11.6975
772.226	20.7175
775.119	31.1733
778.012	41.2224
780.904	62.0474
783.797	88.2214
786.69	103.304
789.582	124.487
792.475	151.345
795.368	173.613
798.261	197.693
801.153	206.47
804.046	211.414
806.939	194.408
809.831	178.872
812.724	153.399
815.617	121.561
818.51	109.835
821.402	88.2822
824.295	91.1494
827.188	80.5713
830.08	77.5061
832.973	84.0034
835.866	81.4966
838.758	72.9558
841.651	65.77
844.544	57.2695
847.437	39.499
850.329	34.5918
853.222	19.042
856.115	23.4224
859.007	23.1045
861.9	21.3101
864.793	13.1377
867.685	15.5877
870.578	11.6841
873.471	12.7446
876.364	3.58618
879.256	0.087646
882.149	4.26123
885.042	12.0615
887.934	1.08838
890.827	7.42139
893.72	1.19922
896.612	7.75806
899.505	4.28052
902.398	6.97827
905.29	10.9756
908.183	9.57642
911.076	1.61548
913.969	4.04053
916.861	0.420654
919.754	4.28345
922.647	3.5022
925.539	1.97803
928.432	2.82544
931.325	2.70825
934.217	0.365479
937.11	0.926025
940.003	2.05322
942.896	4.94629
945.788	3.36108
948.681	2.50195
951.574	15.8306
954.466	19.2532
957.359	38.3455
960.252	55.3298
963.144	87.4065
966.037	152.316
968.93	243.716
971.823	221.055
974.715	96.9941
977.608	51.0151
980.501	60.7668
983.393	59.7034
986.286	56.8555
989.179	57.092
992.072	45.7063
994.964	34.8662
997.857	23.8752
1000.75	16.9375
1003.64	0.889893
1006.53	4.12549
1009.43	3.3169
1012.32	3.30225
1015.21	5.08911
1018.11	3.81519
1021	2.05151
1023.89	3.19604
1026.78	5.35352
1029.68	3.56787
1032.57	4.68335
1035.46	14.7932
1038.36	34.7134
1041.25	48.021
1044.14	78.7085
1047.03	65.8467
1049.93	69.2971
1052.82	72.7427
1055.71	93.2112
1058.6	117.366
1061.5	158.261
1064.39	203.158
1067.28	273.353
1070.17	363.264
1073.07	486.628
1075.96	623.637
1078.85	798.479
1081.74	979.782
1084.64	1149.32
1087.53	1305.24
1090.42	1389.12
1093.32	1377.04
1096.21	1274.72
1099.1	1073.99
1101.99	845.797
1104.89	635.609
1107.78	495.018
1110.67	404.188
1113.57	361.691
1116.46	333.93
1119.35	318.185
1122.24	300.596
1125.14	262.447
1128.03	217.975
1130.92	177.353
1133.81	130.692
1136.71	93.197
1139.6	67.0896
1142.49	50.2717
1145.38	38.3496
1148.28	31.3816
1151.17	14.4006
1154.06	12.1714
1156.95	2.50147
1159.85	9.39014
1162.74	2.21069
1165.63	13.4731
1168.53	13.5901
1171.42	0.202148
1174.31	5.55664
1177.2	2.72656
1180.1	0.994873
1182.99	0.69165
1185.88	2.52417
1188.78	4.34961
1191.67	1.2395
1194.56	2.88696
1197.45	6.55884
1200.35	7.10596
1203.24	3.63184
1206.13	0.698242
1209.02	0.458252
1211.92	1.13037
1214.81	1.87085
1217.7	11.5881
1220.6	16.9309
1223.49	14.0886
1226.38	11.03
1229.27	6.62891
1232.17	10.6912
1235.06	11.3027
1237.95	8.59229
1240.84	2.45557
1243.74	18.3071
1246.63	26.1594
1249.52	14.1758
1252.41	15.8635
1255.31	13.2466
1258.2	18.9072
1261.09	22.8586
1263.98	16.3767
1266.88	12.8479
1269.77	4.42261
1272.66	10.4202
1275.56	4.91797
1278.45	6.42065
1281.34	4.68555
1284.23	13.0713
1287.13	2.50244
1290.02	2.26123
