Measurement: Raman, 780 nm, unoriented, Raman Data Processed
Mineral: Lazurite
Rruff sample: R040023
Ideal chemistry: Na_3_Ca(Si_3_Al_3_)O_12_S
Locality: Chile
Source: University of Arizona Mineral Museum
Description: Blue fine-grained massive
Measured chemistry: (Na_0.99_K_0.01_)_6_(Ca_0.99_Na_0.01_)_2_Al_6.00_Si_6.00_O_24_[(SO_4_)_0.67_S_0.32_Cl_0.01_]_2_
Raman shift (cm-1)	intensity
131.633	0
134.526	2.79492
137.418	0.210083
140.311	8.68896
143.204	1.5293
146.096	7.04932
148.989	4.06091
151.882	11.3507
154.775	5.8562
157.667	8.06567
160.56	5.76794
163.453	5.61536
166.345	7.22034
169.238	8.95886
172.131	4.87634
175.024	4.93738
177.916	1.07544
180.809	10.525
183.702	0.293335
186.594	2.1831
189.487	1.18652
192.38	8.39038
195.272	3.52344
198.165	3.59009
201.058	2.7533
203.951	1.32056
206.843	2.88086
209.736	9.04797
212.629	15.606
215.521	13.439
218.414	17.6311
221.307	20.8297
224.199	24.5211
227.092	23.6075
229.985	25.1448
232.877	23.4099
235.77	16.7777
238.663	15.0124
241.556	14.3611
244.448	9.11279
247.341	12.8072
250.234	11.7859
253.126	6.40259
256.019	10.6938
258.912	7.10986
261.805	7.40552
264.697	4.05029
267.59	6.79187
270.483	8.00769
273.375	17.7692
276.268	13.5531
279.161	19.1807
282.053	15.2793
284.946	23.7003
287.839	26.5875
290.731	25.4334
293.624	28.8192
296.517	33.9729
299.41	34.5636
302.302	34.7142
305.195	38.3398
308.088	23.2599
310.98	20.0536
313.873	19.2189
316.766	25.0718
319.659	21.663
322.551	21.8824
325.444	21.4147
328.337	19.905
331.229	20.6771
334.122	27.4016
337.015	22.3433
339.907	13.9469
342.8	10.4582
345.693	2.98315
348.586	0.444824
351.478	3.04419
354.371	0.102417
357.264	0.602173
360.156	0.565063
363.049	0.191406
365.942	2.59253
368.834	0.038208
371.727	0.793579
374.62	7.84106
377.512	4.75073
380.405	8.43372
383.298	7.328
386.191	17.8617
389.083	18.3662
391.976	30.2625
394.869	40.0195
397.761	52.4966
400.654	59.1206
403.547	62.5891
406.44	69.7384
409.332	75.9014
412.225	70.7478
415.118	58.6242
418.01	43.7268
420.903	33.7965
423.796	31.4951
426.688	30.7999
429.581	30.1228
432.474	30.2256
435.366	31.8678
438.259	30.4586
441.152	29.1661
444.045	22.4515
446.937	25.9205
449.83	22.373
452.723	12.2037
455.615	9.83166
458.508	8.04248
461.401	6.01843
464.293	3.03857
467.186	1.04785
470.079	2.51318
472.972	2.45154
475.864	0.693726
478.757	0.022949
481.65	0.582886
484.542	0.154907
487.435	0.415771
490.328	0.658569
493.221	0.900513
496.113	1.00317
499.006	0.114868
501.899	1.58398
504.791	2.34375
507.684	3.74097
510.577	4.63489
513.469	3.86316
516.362	15.6462
519.255	25.2285
522.148	37.4257
525.04	59.7809
527.933	93.1323
530.826	137.864
533.718	184.449
536.611	226.936
539.504	271.399
542.396	305.981
545.289	310.6
548.182	249.469
551.074	144.167
553.967	65.0835
556.86	26.3148
559.753	7.9696
562.645	8.14392
565.538	4.56055
568.431	2.92188
571.323	7.26978
574.216	11.6947
577.109	12.6447
580.001	13.118
582.894	13.3696
585.787	10.2526
588.68	5.60913
591.572	1.94202
594.465	1.40454
597.358	0.026611
600.25	1.49963
603.143	5.20544
606.036	6.59985
608.928	9.86145
611.821	12.7863
614.714	16.0182
617.607	21.731
620.499	33.2587
623.392	36.5613
626.285	47.4968
629.177	56.0705
632.07	73.8072
634.963	80.9048
637.856	77.1676
640.748	43.0874
643.641	23.1078
646.534	11.4607
649.426	7.40131
652.319	8.97034
655.212	6.62518
658.104	7.06891
660.997	7.66815
663.89	7.71558
666.783	0.846008
669.675	4.32825
672.568	7.30396
675.461	2.93872
678.353	2.15778
681.246	1.81238
684.139	4.57794
687.031	0.840271
689.924	3.73492
692.817	0.66864
695.71	2.45196
698.602	3.1308
701.495	1.53302
704.388	2.82764
707.28	1.39343
710.173	4.38727
713.066	2.27301
715.958	1.07526
718.851	4.63965
721.744	5.7973
724.636	5.84875
727.529	5.51843
730.422	7.21967
733.314	11.6262
736.207	8.6167
739.1	8.14166
741.993	10.7224
744.885	4.38348
747.778	4.09711
750.671	4.35577
753.563	9.41339
756.456	3.96857
759.349	4.78516
762.241	6.98865
765.134	6.00098
768.027	0.511963
770.92	1.39923
773.812	1.26276
776.705	5.35974
779.598	3.50281
782.49	5.21899
785.383	3.49438
788.276	4.29059
791.168	6.45508
794.061	12.1118
796.954	6.54065
799.847	5.21246
802.739	5.12183
805.632	0.25116
808.525	0.262146
811.417	6.42328
814.31	7.58765
817.203	1.71759
820.096	6.25067
822.988	3.8017
825.881	1.88483
828.774	0.932922
831.666	1.48126
834.559	6.50385
837.452	2.22906
840.344	0.902039
843.237	2.87817
846.13	1.98834
849.023	0.310181
851.915	0.630493
854.808	5.30487
857.701	2.67474
860.593	6.63727
863.486	1.93689
866.379	4.11877
869.271	5.74872
872.164	6.84821
875.057	5.44281
877.949	4.05218
880.842	6.21149
883.735	7.3338
886.628	13.2845
889.52	10.6884
892.413	11.53
895.306	8.79877
898.198	5.75409
901.091	3.09393
903.984	4.69214
906.876	1.54291
909.769	4.92096
912.662	3.35327
915.555	0.232971
918.447	0.56897
921.34	1.30847
924.233	0.700806
927.125	4.64038
930.018	0.314026
932.911	1.06018
935.803	2.50678
938.696	2.70215
941.589	3.43878
944.482	1.16528
947.374	0.848022
950.267	3.14771
953.16	9.12341
956.052	20.2379
958.945	32.9822
961.838	45.7646
964.731	62.8247
967.623	99.2438
970.516	131.543
973.409	73.7824
976.301	43.835
979.194	34.704
982.087	37.2075
984.979	38.6502
987.872	40.2272
990.765	36.124
993.658	30.5614
996.55	25.9719
999.443	20.2543
1002.34	14.4611
1005.23	13.3267
1008.12	13.0223
1011.01	12.4322
1013.91	12.5631
1016.8	10.9633
1019.69	14.4109
1022.58	11.1548
1025.48	8.30768
1028.37	7.96588
1031.26	8.17004
1034.15	8.59393
1037.05	7.74445
1039.94	12.9019
1042.83	17.7701
1045.73	18.2686
1048.62	8.89539
1051.51	1.17029
1054.4	1.12866
1057.3	0.105957
1060.19	2.24011
1063.08	0.214417
1065.97	1.56574
1068.87	2.09784
1071.76	3.25995
1074.65	6.72846
1077.55	11.8627
1080.44	15.0183
1083.33	24.0389
1086.22	32.1504
1089.12	33.8442
1092.01	39.1469
1094.9	40.2297
1097.8	37.3043
1100.69	40.1828
1103.58	37.632
1106.47	34.4879
1109.37	29.353
1112.26	29.0934
1115.15	24.2217
1118.04	18.8203
1120.94	9.85352
1123.83	5.68994
1126.72	1.7041
