Measurement: Raman, 532 nm, unoriented, Raman Data Processed
Mineral: Lazulite
Rruff sample: R050269
Ideal chemistry: MgAl_2_(PO_4_)_2_(OH)_2_
Locality: Horsjoberg, Varmland, Sweden
Source: Marcus Origlieri
Description: Deep-blue indistinct crystals
Measured chemistry: (Mg_0.69_Fe_0.25_Mn_0.01_)Al_2.00_(P_1.00_O_4_)_2_(OH)_2_
Raman shift (cm-1)	intensity
143.646	0
146.538	1.71365
149.431	0.860619
152.324	0.219879
155.216	0.017002
158.109	1.71604
161.002	1.2237
163.895	3.0747
166.787	5.12641
169.68	12.4519
172.573	26.2697
175.465	33.1581
178.358	38.3509
181.251	49.9554
184.143	69.0032
187.036	107.798
189.929	160.854
192.822	122.652
195.714	54.8351
198.607	25.6921
201.5	15.4803
204.392	10.9356
207.285	9.41437
210.178	8.27804
213.071	7.40246
215.963	7.85351
218.856	9.2151
221.749	10.7378
224.641	6.55129
227.534	1.95307
230.427	0.917549
233.319	0.277977
236.212	2.25037
239.105	4.43588
241.998	9.40857
244.89	15.1286
247.783	24.1945
250.676	41.2236
253.568	53.707
256.461	32.0851
259.354	17.148
262.246	13.8377
265.139	14.2891
268.032	17.1293
270.924	21.6583
273.817	28.2003
276.71	39.1799
279.603	49.4941
282.495	47.4464
285.388	28.8114
288.281	13.7174
291.173	5.46009
294.066	0.547256
296.959	1.77597
299.851	1.728
302.744	2.09497
305.637	0.09288
308.529	2.71971
311.422	6.6008
314.315	13.336
317.208	23.6191
320.1	32.815
322.993	31.7698
325.886	24.2503
328.778	23.1238
331.671	26.1705
334.564	29.9885
337.457	33.7324
340.349	39.3526
343.242	46.4387
346.135	44.6324
349.027	33.5246
351.92	24.0273
354.813	17.3469
357.705	14.0163
360.598	14.3562
363.491	15.5503
366.384	19.5432
369.276	26.7649
372.169	34.6277
375.062	45.0185
377.954	45.2511
380.847	33.6694
383.74	21.5504
386.632	12.0436
389.525	9.88316
392.418	8.71394
395.31	13.0694
398.203	21.8973
401.096	30.4691
403.989	47.8142
406.881	86.9074
409.774	169.527
412.667	257.643
415.559	162.435
418.452	56.6897
421.345	35.488
424.238	33.4258
427.13	31.8859
430.023	16.2577
432.916	5.36319
435.808	0.024815
438.701	1.2526
441.594	1.00274
444.486	0.423553
447.379	0.273197
450.272	0.796696
453.164	3.07752
456.057	4.98286
458.95	6.23087
461.843	7.22198
464.735	5.8414
467.628	7.15491
470.521	9.65775
473.413	15.2126
476.306	20.1069
479.199	18.0373
482.091	9.61251
484.984	2.73685
487.877	0.030521
490.77	1.20544
493.662	0.661911
496.555	0.830692
499.448	0.331112
502.34	0.96516
505.233	2.3678
508.126	4.55722
511.019	6.51403
513.911	7.34126
516.804	8.87926
519.697	9.25858
522.589	9.14343
525.482	9.15272
528.375	8.76569
531.267	8.53824
534.16	8.29367
537.053	8.15572
539.946	6.69615
542.838	4.73111
545.731	3.35661
548.624	1.2644
551.516	0.188873
554.409	0.205597
557.302	0.277718
560.194	0.734966
563.087	1.07936
565.98	2.63018
568.872	2.97884
571.765	3.2303
574.658	4.08711
577.551	4.27827
580.443	3.35479
583.336	0.837719
586.229	1.01687
589.121	0.690765
592.014	2.46619
594.907	6.41185
597.799	11.7858
600.692	17.3894
603.585	24.7571
606.477	29.4146
609.37	35.0308
612.263	41.2266
615.156	42.8686
618.048	45.4946
620.941	46.6624
623.834	46.3813
626.726	43.6948
629.619	43.7379
632.512	45.9545
635.404	46.6323
638.297	48.0811
641.19	49.9764
644.083	50.5164
646.975	46.6969
649.868	36.6066
652.761	25.3855
655.653	17.896
658.546	13.1142
661.439	10.1932
664.332	8.50237
667.224	6.61289
670.117	4.85985
673.01	3.27421
675.902	1.93546
678.795	1.19319
681.688	0.155989
684.58	0.141932
687.473	0.465902
690.366	0.677479
693.259	0.962896
696.151	0.0769
699.044	1.11378
701.937	2.0531
704.829	1.93922
707.722	3.85334
710.615	4.30953
713.507	5.16775
716.4	5.95958
719.293	5.87961
722.186	7.16715
725.078	8.4849
727.971	10.8027
730.864	12.7961
733.756	15.0243
736.649	17.0672
739.542	20.3057
742.434	20.8614
745.327	16.4592
748.22	11.7661
751.112	9.40669
754.005	5.38592
756.898	3.3181
759.791	1.74929
762.683	0.697575
765.576	0.262573
768.469	0.356987
771.361	0.763294
774.254	0.750113
777.147	0.64089
780.04	0.668049
782.932	0.477573
785.825	0.830858
788.718	0.657974
791.61	0.235804
794.503	0.593027
797.396	0.488884
800.288	0.589514
803.181	0.374962
806.074	0.124617
808.966	0.132227
811.859	0.540302
814.752	0.729769
817.645	0.956793
820.537	0.058655
823.43	0.873091
826.323	1.41903
829.215	1.93545
832.108	3.18359
835.001	4.48132
837.894	4.85654
840.786	6.90158
843.679	7.93522
846.572	8.59548
849.464	9.85315
852.357	10.1297
855.25	9.73156
858.142	9.22113
861.035	8.85849
863.928	7.28803
866.821	6.1778
869.713	4.702
872.606	3.04525
875.499	2.68522
878.391	1.64629
881.284	1.8374
884.177	1.15433
887.069	0.822294
889.962	1.49593
892.855	0.794944
895.747	1.35201
898.64	1.52443
901.533	1.39555
904.426	1.23849
907.318	1.7168
910.211	2.02085
913.104	3.29545
915.996	2.71123
918.889	3.8004
921.782	4.02659
924.674	4.37137
927.567	4.2589
930.46	3.64293
933.353	3.06374
936.245	3.9125
939.138	3.32931
942.031	3.08727
944.923	2.70028
947.816	2.53693
950.709	1.51512
953.601	1.52181
956.494	1.56342
959.387	0.645372
962.28	0.386091
965.172	0.188738
968.065	0.131973
970.958	0.953661
973.85	0.553181
976.743	0.897619
979.636	1.31768
982.528	0.648661
985.421	0.101568
988.314	0.11467
991.207	1.80813
994.099	3.14298
996.992	5.92
999.885	9.20488
1002.78	13.2915
1005.67	17.5322
1008.56	23.228
1011.46	29.4085
1014.35	35.8968
1017.24	36.8003
1020.13	28.9667
1023.03	19.5319
1025.92	13.2747
1028.81	9.9683
1031.7	9.43779
1034.6	10.411
1037.49	18.3335
1040.38	31.0507
1043.28	56.4779
1046.17	91.3115
1049.06	144.164
1051.95	212.199
1054.85	276.411
1057.74	292.415
1060.63	223.212
1063.52	132.898
1066.42	71.4464
1069.31	37.8287
1072.2	21.8627
1075.1	13.387
1077.99	9.73834
1080.88	9.90039
1083.77	11.1213
1086.67	14.2381
1089.56	18.9597
1092.45	24.185
1095.34	31.7337
1098.24	38.3171
1101.13	35.276
1104.02	23.8835
1106.91	10.9182
1109.81	3.46164
1112.7	0.877491
1115.59	1.0237
1118.48	3.51618
1121.38	9.29672
1124.27	18.1803
1127.16	28.5059
1130.06	45.5279
1132.95	64.0629
1135.84	72.4584
1138.73	56.9948
1141.63	33.9564
1144.52	19.6995
1147.41	12.0073
1150.31	6.38457
1153.2	4.53968
1156.09	2.8679
1158.98	2.38683
1161.88	1.65102
1164.77	1.19849
1167.66	0.7432
1170.55	0.256529
1173.45	1.24209
1176.34	1.58606
1179.23	0.911585
1182.12	0.754833
1185.02	0.289881
1187.91	0.254353
1190.8	0.070393
1193.7	0.604652
1196.59	1.01655
1199.48	1.9317
1202.37	3.49641
1205.27	5.59466
1208.16	7.40673
1211.05	7.59723
1213.94	7.26791
1216.84	6.61165
1219.73	6.27921
1222.62	6.27939
1225.52	4.77595
1228.41	4.76244
1231.3	3.387
1234.19	3.00769
1237.09	2.38087
1239.98	1.36655
1242.87	0.800225
1245.76	0.641483
1248.66	1.29118
1251.55	1.59168
1254.44	2.21269
1257.34	2.38676
1260.23	2.17694
1263.12	2.70644
1266.01	1.93563
1268.91	1.81667
1271.8	1.72245
1274.69	1.08295
1277.58	1.00682
1280.48	1.0078
1283.37	0.457315
1286.26	0.422243
