Measurement: Raman, 514 nm, unoriented, Raman Data Processed
Mineral: Lazulite
Rruff sample: R050269
Ideal chemistry: MgAl_2_(PO_4_)_2_(OH)_2_
Locality: Horsjoberg, Varmland, Sweden
Source: Marcus Origlieri
Description: Deep-blue indistinct crystals
Measured chemistry: (Mg_0.69_Fe_0.25_Mn_0.01_)Al_2.00_(P_1.00_O_4_)_2_(OH)_2_
Raman shift (cm-1)	intensity
85.009	0
89.193	481.003
93.375	1895.15
97.554	3643.83
101.732	2573.67
105.908	621.626
110.082	60.863
114.254	95.566
118.424	225.119
122.592	388.448
126.758	494.089
130.922	691.396
135.083	477.662
139.243	716.607
143.401	678.084
147.557	705.761
151.711	604.552
155.863	570.709
160.013	564.341
164.161	653.562
168.308	835.265
172.452	1294.04
176.594	1252.98
180.734	1848.45
184.872	3333.42
189.008	5334.86
193.143	4560.27
197.275	2496.97
201.405	1687.52
205.534	1542.27
209.66	1512.33
213.784	1187.28
217.907	1128.8
222.027	905.373
226.146	665.686
230.263	225.719
234.377	120.52
238.49	19.177
242.601	219.786
246.709	626.182
250.816	1233.44
254.921	1371.96
259.024	824.566
263.125	407.75
267.224	288.505
271.321	155.395
275.416	1.932
279.51	132.492
283.601	4.853
287.69	118.168
291.778	88.306
295.863	119.714
299.947	96.496
304.029	181.803
308.108	42.752
312.186	159.88
316.262	414.162
320.336	674.094
324.408	880.686
328.478	984.755
332.546	1570.13
336.612	2202.55
340.677	3430.76
344.739	4376.84
348.799	3585.16
352.858	2327.31
356.915	1580.6
360.969	1182.09
365.022	1275.75
369.073	1470.62
373.122	1789.02
377.169	2182.13
381.215	1681.68
385.258	1065.78
389.299	645.456
393.339	554.104
397.376	433.798
401.412	255.299
405.446	272.585
409.478	642.545
413.508	758.314
417.536	249.393
421.562	63.418
425.586	104.242
429.609	56.246
433.629	263.603
437.648	42.12
441.665	144.502
445.68	202.342
449.693	357.259
453.704	627.611
457.713	1178.54
461.721	2486.32
465.726	2812.84
469.73	1912.94
473.731	1729.38
477.731	1282.2
481.729	790.428
485.725	303.039
489.72	79.985
493.712	99.09
497.703	139.24
501.691	144.599
505.678	266.768
509.663	200.211
513.646	287.157
517.627	587.472
521.607	461.179
525.584	458.265
529.56	405.832
533.534	209.816
537.506	523.39
541.476	242.292
545.444	300.069
549.41	171.245
553.375	197.28
557.337	236.569
561.298	148.786
565.257	220.212
569.214	325.521
573.17	272.302
577.123	457.346
581.075	476.223
585.024	183.603
588.972	205.96
592.918	77.793
596.863	441.793
600.805	865.744
604.746	1200.68
608.685	1516.2
612.621	1576.39
616.557	1784.2
620.49	1660.2
624.421	1609.2
628.351	2020.59
632.279	1978.19
636.205	1401.02
640.129	1387.35
644.051	1354.9
647.972	947.812
651.89	437.486
655.807	569.998
659.722	408.98
663.636	360.318
667.547	162.326
671.457	75.67
675.365	30.941
679.271	7.105
683.175	144.18
687.077	102.295
690.978	7.303
694.877	137.129
698.774	231.867
702.669	119.184
706.562	432.508
710.454	470.424
714.344	244.021
718.232	72.83
722.118	625.488
726.002	507.285
729.885	1140.02
733.766	1150
737.645	1822.7
741.522	2020.59
745.397	2131.92
749.271	1567.73
753.143	828.156
757.013	605.99
760.881	762.844
764.748	368.158
768.613	220.936
772.476	159.959
776.337	372.572
780.196	464.926
784.054	220.559
787.91	182.037
791.764	103.922
795.616	478.127
799.467	105.936
803.316	538.148
807.163	505.598
811.008	581.971
814.851	157.174
818.693	56.852
822.533	155.955
826.371	202.352
830.208	407.262
834.042	26.254
837.875	339.602
841.706	418.426
845.536	367.35
849.363	42.975
853.189	24.658
857.013	307.861
860.836	255.051
864.656	310.398
868.475	435.812
872.292	253.945
876.108	5.303
879.922	72.568
883.733	135.58
887.544	58.881
891.352	28.488
895.159	147.367
898.964	288.523
902.767	11.945
906.568	107.789
910.368	100.768
914.166	12.652
917.962	167.113
921.757	20.342
925.55	150.656
929.341	74.604
933.13	36.932
936.918	21.455
940.703	7.613
944.488	241.609
948.27	240.846
952.051	403.641
955.83	516.391
959.607	397.619
963.383	980.506
967.156	979.066
970.928	378.76
974.699	188.801
978.468	103.465
982.234	26.635
986	473.24
989.763	508.176
993.525	519.582
997.285	738.902
1001.04	1181.15
1004.8	1158.9
1008.55	972.32
1012.31	1639
1016.06	1495.84
1019.81	1434.65
1023.56	1303.92
1027.31	1294.49
1031.05	1320.9
1034.79	956.906
1038.53	1235.1
1042.27	1556.74
1046.01	2399.34
1049.75	4331.03
1053.48	6682.48
1057.22	8636.34
1060.95	6599.91
1064.68	4069.54
1068.4	2828
1072.13	1844.67
1075.86	1504.56
1079.58	1604.01
1083.3	1275.03
1087.02	1419.98
1090.74	1240.29
1094.45	1381.49
1098.17	1793.27
1101.88	1678.79
1105.59	1490.48
1109.3	859.227
1113.01	605.133
1116.71	898.215
1120.42	610.383
1124.12	883.527
1127.82	1252.5
1131.52	1930.24
1135.22	2037.14
1138.91	2346.32
1142.61	1220.26
1146.3	1114.11
1149.99	896.73
1153.68	864.547
1157.37	288.945
1161.06	652.562
1164.74	589.281
1168.42	769.223
1172.1	169.574
1175.78	342.461
1179.46	434.715
1183.14	496.582
1186.81	219.906
1190.48	327.691
1194.15	145.809
1197.83	251.172
1201.49	179.449
1205.16	749.977
1208.82	121.746
1212.49	619.875
1216.15	592.855
1219.81	410.281
1223.46	538.852
1227.12	619.152
1230.78	468.738
1234.43	425.176
1238.08	421.863
1241.73	467.008
1245.38	128.965
1249.03	176.578
1252.67	264.668
1256.31	319.32
1259.95	342.473
1263.6	427.426
1267.23	606.184
1270.87	23.805
1274.51	331.316
1278.14	156.426
1281.77	174.098
1285.4	148.957
1289.03	334.414
