Measurement: Raman, 514 nm, unoriented, Raman Data Processed
Mineral: Lazurite
Rruff sample: R040023
Ideal chemistry: Na_3_Ca(Si_3_Al_3_)O_12_S
Locality: Chile
Source: University of Arizona Mineral Museum
Description: Blue fine-grained massive
Measured chemistry: (Na_0.99_K_0.01_)_6_(Ca_0.99_Na_0.01_)_2_Al_6.00_Si_6.00_O_24_[(SO_4_)_0.67_S_0.32_Cl_0.01_]_2_
Raman shift (cm-1)	intensity
135.083	0
139.243	91.4321
143.401	50.1982
147.557	1.65625
151.711	61.0239
155.863	98.6807
160.013	144.523
164.161	225.744
168.308	161.133
172.452	72.938
176.594	103.228
180.734	144.711
184.872	22.9473
189.008	70.9863
193.143	188.434
197.275	221.915
201.405	222.518
205.534	573.416
209.66	165.504
213.784	38.873
217.907	218.22
222.027	261.184
226.146	340.226
230.263	437.227
234.377	435.515
238.49	645.766
242.601	1110.1
246.709	1810.95
250.816	2561.82
254.921	2760.49
259.024	2206.76
263.125	1789.13
267.224	1091.89
271.321	786.988
275.416	692.207
279.51	728.078
283.601	718.928
287.69	764.382
291.778	580.981
295.863	696.611
299.947	791.265
304.029	315.661
308.108	272.992
312.186	218.033
316.262	489.467
320.336	399.467
324.408	258.911
328.478	426.845
332.546	414.267
336.612	452.17
340.677	229.504
344.739	137.096
348.799	4.38769
352.858	74.8545
356.915	26.3457
360.969	66.4014
365.022	46.415
369.073	45.3184
373.122	76.9619
377.169	53.8477
381.215	121.268
385.258	40.085
389.299	117.762
393.339	62.0312
397.376	237.753
401.412	334.15
405.446	438.922
409.478	668.715
413.508	550.106
417.536	334.353
421.562	280.78
425.586	222.471
429.609	298.544
433.629	121.25
437.648	295.604
441.665	373.867
445.68	361.693
449.693	279.915
453.704	154.755
457.713	372.077
461.721	509.913
465.726	549.8
469.73	764.314
473.731	612.242
477.731	844.085
481.729	915.821
485.725	1017.92
489.72	889.801
493.712	1038.16
497.703	1102.1
501.691	1270.41
505.678	1394.84
509.663	1740.83
513.646	2260.47
517.627	2668.95
521.607	3349.04
525.584	4942.86
529.56	8334.78
533.534	13987.4
537.506	24598.7
541.476	38728.7
545.444	42098.2
549.41	29796.6
553.375	14004.8
557.337	7062.84
561.298	4852.4
565.257	3927.26
569.214	3728.96
573.17	4034.11
577.123	4718.15
581.075	4645.17
585.024	4826.75
588.972	3785.56
592.918	2983.33
596.863	2444.62
600.805	1861.56
604.746	1776.39
608.685	1290.69
612.621	1216.39
616.557	1107.49
620.49	1305.11
624.421	1428.81
628.351	1343.48
632.279	2343.81
636.205	2182.96
640.129	1455
644.051	866.072
647.972	559.053
651.89	657.643
655.807	208.82
659.722	235.582
663.636	367.953
667.547	42.0117
671.457	456.676
675.365	316.019
679.271	358.24
683.175	3.35352
687.077	202.238
690.978	395.93
694.877	283.613
698.774	240.029
702.669	67.4805
706.562	359.443
710.454	219.162
714.344	161.389
718.232	6.64453
722.118	150.815
726.002	227.973
729.885	251.484
733.766	265.551
737.645	26.9629
741.522	458.982
745.397	293.613
749.271	273.66
753.143	583.758
757.013	36.459
760.881	151.01
764.748	747.248
768.613	332.152
772.476	242.986
776.337	405.65
780.196	451.201
784.054	788.783
787.91	1275.81
791.764	1368.34
795.616	1380.24
799.467	1538.38
803.316	1356.46
807.163	1047.72
811.008	1378.25
814.851	1094.86
818.693	1029.76
822.533	1218.12
826.371	936.232
830.208	1271.59
834.042	864.027
837.875	498.846
841.706	807.84
845.536	557.248
849.363	616.731
853.189	551.148
857.013	560.394
860.836	311.871
864.656	198.941
868.475	333.166
872.292	575.787
876.108	660.293
879.922	962.121
883.733	250.295
887.544	265.727
891.352	335.309
895.159	179.297
898.964	112.053
902.767	188.356
906.568	428.406
910.368	113.912
914.166	464.559
917.962	326.805
921.757	270.25
925.55	452.109
929.341	4.09375
933.13	178.816
936.918	135.984
940.703	107.59
944.488	83.0977
948.27	460.246
952.051	7.875
955.83	50.8984
959.607	411.008
963.383	347.461
967.156	2758.49
970.928	3326.09
974.699	1446.28
978.468	943.152
982.234	1007.71
986	376.906
989.763	861.734
993.525	897.234
997.285	919.356
1001.04	120.184
1004.8	612.793
1008.55	477.961
1012.31	504.871
1016.06	1089.49
1019.81	850.977
1023.56	996.168
1027.31	722.059
1031.05	1045.54
1034.79	446.613
1038.53	1025.31
1042.27	1761.69
1046.01	1952.77
1049.75	1753.69
1053.48	1903.93
1057.22	2233.18
1060.95	2080.05
1064.68	2672.38
1068.4	2964.49
1072.13	3865.33
1075.86	4966.82
1079.58	6355.05
1083.3	8018
1087.02	9738.52
1090.74	10705.3
1094.45	10849.2
1098.17	9154.42
1101.88	7425.18
1105.59	5515.68
1109.3	4671.06
1113.01	4162.32
1116.71	3505.48
1120.42	3716.59
1124.12	3616.69
1127.82	2866.23
1131.52	2639.22
1135.22	1653.14
1138.91	954.594
1142.61	1134.47
1146.3	1172.54
1149.99	1055.1
1153.68	961.344
1157.37	1192.62
1161.06	1004.9
1164.74	722.191
1168.42	194.5
1172.1	369.844
1175.78	130.227
1179.46	161.609
1183.14	519.957
1186.81	769.266
1190.48	572.535
1194.15	731.113
1197.83	443.949
1201.49	767.352
1205.16	51.7617
1208.82	408.934
1212.49	257.434
1216.15	250.356
1219.81	358.41
1223.46	395.121
1227.12	347.371
1230.78	646.309
1234.43	221.957
1238.08	97.3711
1241.73	574.609
1245.38	428.754
1249.03	559.852
1252.67	247.469
1256.31	330.051
1259.95	56.8242
1263.6	330.43
1267.23	481.004
1270.87	561.785
1274.51	92.9414
1278.14	240.309
1281.77	374.422
1285.4	9.15234
1289.03	65.6016
1292.66	428.898
