Measurement: Raman, 780 nm, unoriented, Raman Data Processed
Mineral: Lazulite
Rruff sample: R050269
Ideal chemistry: MgAl_2_(PO_4_)_2_(OH)_2_
Locality: Horsjoberg, Varmland, Sweden
Source: Marcus Origlieri
Description: Deep-blue indistinct crystals
Measured chemistry: (Mg_0.69_Fe_0.25_Mn_0.01_)Al_2.00_(P_1.00_O_4_)_2_(OH)_2_
Raman shift (cm-1)	intensity
143.777	0
146.67	0.461151
149.563	0.748417
152.455	0.103758
155.348	0.41663
158.241	0.565485
161.133	0.265942
164.026	0.739544
166.919	2.29633
169.811	7.00373
172.704	10.9506
175.597	12.8452
178.49	16.8753
181.382	23.4767
184.275	32.3653
187.168	52.4182
190.06	75.069
192.953	44.0613
195.846	18.2573
198.738	6.9221
201.631	4.50017
204.524	1.9381
207.417	0.933346
210.309	0.30431
213.202	0.398251
216.095	0.445005
218.987	1.85918
221.88	2.31822
224.773	1.95479
227.666	0.125269
230.558	0.437347
233.451	1.05773
236.344	1.71345
239.236	1.87533
242.129	4.20365
245.022	8.49703
247.914	12.5714
250.807	21.1173
253.7	21.605
256.592	9.95343
259.485	6.35495
262.378	7.57158
265.271	8.95986
268.163	13.0916
271.056	18.9872
273.949	25.9304
276.841	35.2084
279.734	39.5756
282.627	32.7604
285.519	18.8197
288.412	8.57469
291.305	2.99741
294.198	0.13681
297.09	1.2792
299.983	0.735641
302.876	0.604546
305.768	0.765095
308.661	3.37712
311.554	6.57528
314.447	9.43681
317.339	15.615
320.232	17.5162
323.125	12.1782
326.017	5.84249
328.91	3.58131
331.803	2.25789
334.695	2.19422
337.588	2.16837
340.481	2.05704
343.373	2.27837
346.266	2.21424
349.159	0.700115
352.052	1.62448
354.944	1.42664
357.837	2.93248
360.73	2.90381
363.622	4.72665
366.515	6.8126
369.408	10.6507
372.3	15.8911
375.193	19.2114
378.086	19.3031
380.979	10.9431
383.871	5.2652
386.764	3.64799
389.657	3.50827
392.549	9.38823
395.442	22.1006
398.335	26.8257
401.228	37.2664
404.12	57.5554
407.013	92.2494
409.906	163.695
412.798	216.385
415.691	104.353
418.584	44.3293
421.476	33.6897
424.369	32.3962
427.262	25.4754
430.154	12.2287
433.047	4.37548
435.94	1.13857
438.833	0.049688
441.725	0.548967
444.618	0.641582
447.511	0.092613
450.403	0.689062
453.296	1.32723
456.189	3.13157
459.082	3.17261
461.974	2.82799
464.867	2.40809
467.76	3.66108
470.652	7.63553
473.545	12.0274
476.438	14.1143
479.33	10.8887
482.223	5.4622
485.116	1.56648
488.009	0.4694
490.901	0.416201
493.794	0.481749
496.687	0.209837
499.579	0.088139
502.472	0.945019
505.365	1.94142
508.257	2.17922
511.15	3.33238
514.043	3.52279
516.936	3.65839
519.828	3.02864
522.721	3.68263
525.614	3.57212
528.506	4.4729
531.399	4.50086
534.292	4.05083
537.184	4.17347
540.077	3.04512
542.97	2.22766
545.862	1.89664
548.755	1.09033
551.648	1.1695
554.541	1.46067
557.433	1.03581
560.326	0.28022
563.219	0.50338
566.111	1.0443
569.004	0.767706
571.897	0.391928
574.789	0.049389
577.682	0.338406
580.575	0.179283
583.468	0.170784
586.36	0.00248
589.253	0.723068
592.146	1.67191
595.038	2.45653
597.931	3.56586
600.824	5.92992
603.716	7.67059
606.609	9.85547
609.502	13.1727
612.394	13.8782
615.287	14.279
618.18	14.9352
621.073	14.7402
623.965	15.2771
626.858	16.8292
629.751	18.7889
632.643	21.95
635.536	23.9466
638.429	27.2307
641.322	29.2263
644.214	30.7221
647.107	27.867
650	20.7253
652.892	14.3364
655.785	9.39633
658.678	6.76955
661.57	4.87928
664.463	3.12334
667.356	2.42328
670.249	1.91449
673.141	0.910949
676.034	0.529665
678.927	0.219766
681.819	0.083601
684.712	0.100191
687.605	0.490575
690.497	0.163983
693.39	0.432998
696.283	0.092891
699.176	0.503293
702.068	0.866338
704.961	1.21776
707.854	0.839644
710.746	1.09347
713.639	1.1331
716.532	1.24994
719.424	1.8847
722.317	1.59533
725.21	0.751801
728.102	1.69688
730.995	1.94891
733.888	1.7775
736.781	1.71955
739.673	1.79868
742.566	0.911052
745.459	1.14739
748.351	0.875974
751.244	0.964349
754.137	0.448298
757.029	0.934855
759.922	0.44094
762.815	0.476825
765.708	0.478672
768.6	0.250994
771.493	0.74281
774.386	0.899446
777.278	0.498249
780.171	1.13871
783.064	1.04818
785.957	0.626751
788.849	1.708
791.742	1.08581
794.635	1.17838
797.527	0.454665
800.42	0.68535
803.313	1.41382
806.205	1.13987
809.098	1.87378
811.991	1.51651
814.884	0.593349
817.776	0.743196
820.669	1.15109
823.562	1.21874
826.454	1.52209
829.347	2.05976
832.24	1.83222
835.132	2.69581
838.025	3.48038
840.918	3.40844
843.811	4.41059
846.703	4.14492
849.596	4.29114
852.489	4.5678
855.381	4.73873
858.274	4.31433
861.167	4.41773
864.059	3.3076
866.952	2.78028
869.845	2.58335
872.737	2.49378
875.63	1.60221
878.523	0.913821
881.416	1.35619
884.308	0.944198
887.201	0.968782
890.094	0.412986
892.986	0.848585
895.879	0.185645
898.772	0.581657
901.665	0.48874
904.557	0.848636
907.45	0.541912
910.343	0.610779
913.235	0.868199
916.128	0.852517
919.021	1.06056
921.913	0.679724
924.806	1.186
927.699	1.23588
930.591	1.53431
933.484	1.20898
936.377	1.486
939.27	1.30424
942.162	0.623561
945.055	0.584925
947.948	0.898759
950.84	0.359826
953.733	0.292233
956.626	0.941689
959.519	0.571632
962.411	0.235996
965.304	0.074933
968.197	0.01335
971.089	0.098602
973.982	0.406706
976.875	0.136995
979.767	0.707038
982.66	0.205627
985.553	0.84483
988.446	0.311007
991.338	0.065961
994.231	1.00774
997.124	1.7536
1000.02	2.40835
1002.91	3.13179
1005.8	4.497
1008.69	4.99099
1011.59	6.82284
1014.48	7.53658
1017.37	7.19632
1020.26	5.74036
1023.16	3.64957
1026.05	3.26396
1028.94	3.45281
1031.84	5.87174
1034.73	9.54606
1037.62	16.3857
1040.51	28.5092
1043.41	44.0532
1046.3	68.5644
1049.19	97.4054
1052.09	130.661
1054.98	157.46
1057.87	149.764
1060.76	106.493
1063.66	61.1967
1066.55	32.3841
1069.44	18.0811
1072.33	9.76774
1075.23	5.86311
1078.12	3.52041
1081.01	4.06203
1083.9	3.73285
1086.8	5.98259
1089.69	9.86018
1092.58	13.3531
1095.47	17.281
1098.37	21.2059
1101.26	18.3402
1104.15	11.4676
1107.05	5.55772
1109.94	2.10463
1112.83	1.0354
1115.72	2.42208
1118.62	4.50707
1121.51	8.98272
1124.4	14.5961
1127.3	20.9259
1130.19	30.4298
1133.08	39.1402
1135.97	36.0664
1138.87	25.6471
1141.76	15.4019
1144.65	8.26839
1147.54	5.00723
1150.44	2.57965
1153.33	2.08751
1156.22	1.17707
1159.12	1.01783
1162.01	1.13904
1164.9	0.400867
1167.79	0.339601
1170.69	0.534406
1173.58	0.358799
1176.47	0.827762
1179.36	0.334592
1182.26	0.885429
1185.15	0.185128
1188.04	0.244991
1190.93	0.114902
1193.83	0.718068
1196.72	0.0439
1199.61	1.38473
1202.51	1.47426
1205.4	1.76892
1208.29	1.8939
1211.18	3.00067
1214.08	2.36573
1216.97	1.92754
1219.86	2.11247
1222.75	2.20111
1225.65	1.88949
1228.54	1.65527
1231.43	1.44182
1234.33	1.01524
1237.22	0.947243
1240.11	0.959355
1243	0.73564
1245.9	1.13766
1248.79	0.220994
1251.68	0.930786
1254.57	0.704823
1257.47	0.646691
1260.36	1.63066
1263.25	0.692489
1266.14	0.865188
1269.04	0.316329
1271.93	1.06474
1274.82	0.479267
1277.71	0.874452
1280.61	0.368531
1283.5	0.386598
1286.39	0
