Measurement: Raman, 532 nm, unoriented, Raman Data Processed
Mineral: Leadhillite
Rruff sample: R050642
Ideal chemistry: Pb_4_(SO_4_)(CO_3_)_2_(OH)_2_
Locality: Mammoth mine, Tiger, Pinal County, Arizona, USA
Source: University of Arizona Mineral Museum
Description: Blue hexagonal prisms associated with transparent platy molybdophyllite and susannite
Raman shift (cm-1)	intensity
152.815	0
155.708	53.9825
158.601	194.831
161.494	345.562
164.386	434.813
167.279	531.209
170.172	636.145
173.064	696.05
175.957	712.605
178.85	604.367
181.743	530.676
184.635	420.357
187.528	324.88
190.421	259.098
193.313	183.626
196.206	151.907
199.099	132.445
201.991	115.159
204.884	95.5117
207.777	76.7899
210.669	60.0957
213.562	62.5812
216.455	50.8213
219.348	39.3008
222.24	29.3461
225.133	28.7104
228.026	0.75621
230.918	28.2803
233.811	10.3712
236.704	7.33563
239.597	19.8703
242.489	0.917679
245.382	13.3972
248.275	7.81982
251.167	13.6347
254.06	30.2569
256.953	41.1985
259.846	51.5448
262.738	76.771
265.631	61.4234
268.524	45.2865
271.416	67.4827
274.309	44.6098
277.202	42.6074
280.094	38.2775
282.987	32.4561
285.88	29.1319
288.772	17.3235
291.665	18.4439
294.558	28.1624
297.451	30.2605
300.343	14.7998
303.236	17.17
306.129	10.6192
309.021	26.1927
311.914	21.6676
314.807	27.0033
317.7	17.2855
320.592	45.0722
323.485	0.233418
326.378	0.859123
329.27	16.8075
332.163	10.0655
335.056	8.7961
337.948	6.18905
340.841	7.29796
343.734	4.83083
346.627	2.54215
349.519	17.587
352.412	36.9034
355.305	59.4955
358.197	64.1957
361.09	97.625
363.983	95.0217
366.875	94.1489
369.768	74.6909
372.661	59.8716
375.553	42.7973
378.446	47.3404
381.339	88.9314
384.232	66.2041
387.124	123.845
390.017	134.718
392.91	146.22
395.802	201.035
398.695	253.92
401.588	282.592
404.481	369.465
407.373	404.874
410.266	529.922
413.159	628.098
416.051	807.016
418.944	913.205
421.837	1014.02
424.729	1092.88
427.622	1195.3
430.515	1112.84
433.408	1008.36
436.3	855.97
439.193	728.864
442.086	604.954
444.978	473.74
447.871	447.292
450.764	427.928
453.656	429.287
456.549	433.579
459.442	388.349
462.335	358.368
465.227	266.753
468.12	228.499
471.013	154.648
473.905	107.81
476.798	52.7417
479.691	49.8643
482.584	29.2628
485.476	22.9848
488.369	3.24098
491.262	7.85873
494.154	1.87385
497.047	5.46033
499.94	6.46952
502.832	1.71195
505.725	3.68118
508.618	13.4103
511.51	4.66374
514.403	2.10049
517.296	7.9864
520.189	3.80103
523.081	6.58359
525.974	8.35637
528.867	39.1005
531.759	10.8211
534.652	35.0353
537.545	35.4955
540.438	28.7108
543.33	14.593
546.223	28.5956
549.116	27.1915
552.008	40.451
554.901	20.4077
557.794	33.2685
560.686	41.9063
563.579	28.6738
566.472	22.9875
569.365	25.5786
572.257	40.2271
575.15	25.1789
578.043	44.5072
580.935	47.8859
583.828	32.3935
586.721	66.1178
589.613	76.0464
592.506	118.061
595.399	149.856
598.292	112.877
601.184	142.894
604.077	153.344
606.97	117.468
609.862	110.047
612.755	106.26
615.648	117.079
618.54	114.827
621.433	129.097
624.326	97.4956
627.219	125.82
630.111	105.637
633.004	79.4986
635.897	74.6108
638.789	54.7519
641.682	48.3864
644.575	39.907
647.467	7.3587
650.36	21.6437
653.253	5.71536
656.146	6.93272
659.038	22.4884
661.931	18.4692
664.824	3.18042
667.716	23.0056
670.609	32.0873
673.502	50.7214
676.394	49.8182
679.287	42.9561
682.18	14.8781
685.073	29.2756
687.965	10.1561
690.858	28.7558
693.751	34.3096
696.643	40.8097
699.536	39.948
702.429	44.3722
705.322	58.7108
708.214	43.4036
711.107	22.2571
714	44.0205
716.892	0.747215
719.785	5.72994
722.678	17.9699
725.57	14.5878
728.463	24.6508
731.356	9.53692
734.249	23.4336
737.141	35.6611
740.034	0.309273
742.927	31.069
745.819	1.76649
748.712	14.161
751.605	19.3539
754.497	15.4822
757.39	0.650482
760.283	5.39033
763.176	12.0721
766.068	8.22239
768.961	31.8378
771.854	4.28243
774.746	4.69159
777.639	31.6915
780.532	25.6161
783.424	0.101288
786.317	27.6369
789.21	24.3404
792.102	28.5297
794.995	40.9994
797.888	31.4212
800.781	41.1029
803.673	58.2787
806.566	36.3149
809.459	38.6145
812.351	72.7283
815.244	37.2859
818.137	38.0698
821.029	52.4617
823.922	62.2371
826.815	45.7512
829.708	52.5351
832.6	65.7572
835.493	50.6693
838.386	68.5092
841.278	20.6368
844.171	51.9022
847.064	72.3687
849.957	80.2156
852.849	101.59
855.742	102.796
858.635	109.762
861.527	105.56
864.42	79.4308
867.313	77.3458
870.205	73.8589
873.098	71.9095
875.991	74.3966
878.884	55.2203
881.776	76.0345
884.669	34.7213
887.562	45.3066
890.454	56.6404
893.347	40.8177
896.24	15.1747
899.133	46.242
902.025	28.2751
904.918	46.0573
907.811	18.614
910.703	13.369
913.596	15.2006
916.489	12.5603
919.381	4.98663
922.274	1.64072
925.167	1.35295
928.059	5.09641
930.952	25.7822
933.845	35.5674
936.738	45.0149
939.63	95.3387
942.523	119.624
945.416	253.526
948.308	351.291
951.201	574.896
954.094	888.024
956.986	1338.88
959.879	1836.43
962.772	2329.23
965.665	2361.84
968.557	1794.51
971.45	1072.04
974.343	545.739
977.235	351.88
980.128	203.876
983.021	70.2578
985.913	41.9785
988.806	51.4627
991.699	32.6437
994.592	21.5762
997.484	35.5314
1000.38	46.1352
1003.27	5.68495
1006.16	67.5118
1009.05	47.6905
1011.95	72.3083
1014.84	80.9703
1017.73	39.8957
1020.63	9.84407
1023.52	46.8712
1026.41	23.0322
1029.3	27.2043
1032.2	5.24439
1035.09	0.803055
1037.98	11.6095
1040.88	89.9224
1043.77	410.582
1046.66	1125.68
1049.55	2499.62
1052.45	3299.34
1055.34	3652.45
1058.23	1941.06
1061.12	383.898
1064.02	83.3634
1066.91	97.0648
1069.8	41.6723
1072.69	55.7625
1075.59	64.8224
1078.48	80.262
1081.37	81.6883
1084.27	98.7344
1087.16	122.9
1090.05	100.177
1092.94	118.111
1095.84	154.972
1098.73	147.69
1101.62	150.762
1104.51	122.32
1107.41	138.278
1110.3	103.473
1113.19	102.45
1116.09	85.9759
1118.98	55.3504
1121.87	30.3167
1124.76	33.6121
1127.66	32.5762
1130.55	18.051
1133.44	25.2481
1136.33	2.52445
1139.23	29.8999
1142.12	0.519821
1145.01	0.765274
1147.9	25.6001
1150.8	8.56147
1153.69	8.96471
1156.58	26.224
1159.48	49.1204
1162.37	48.5447
1165.26	58.5701
1168.15	47.5642
1171.05	72.2092
1173.94	79.9495
1176.83	69.7899
1179.72	32.9541
1182.62	72.934
1185.51	53.2492
1188.4	23.6884
1191.3	47.326
1194.19	5.79693
1197.08	31.7796
1199.97	26.1992
1202.87	47.7952
1205.76	11.1239
1208.65	12.6097
1211.54	0.523252
1214.44	5.40823
1217.33	8.79531
1220.22	0.57848
1223.12	16.6122
1226.01	4.03392
1228.9	32.801
1231.79	29.7654
1234.69	23.5906
1237.58	28.4793
1240.47	69.2752
1243.36	33.8967
1246.26	9.51679
1249.15	43.3682
1252.04	19.7239
1254.93	46.4918
1257.83	44.5693
1260.72	30.3513
1263.61	34.6473
1266.51	21.5033
1269.4	50.6748
1272.29	21.829
1275.18	44.0826
1278.08	29.2426
1280.97	38.244
1283.86	24.3184
1286.76	23.9636
1289.65	53.7212
1292.54	52.1874
1295.43	77.9139
1298.33	19.4836
1301.22	40.141
1304.11	2.51976
1307	0
