Measurement: Raman, 532 nm, unoriented, Raman Data Processed
Mineral: Leadhillite
Rruff sample: R060047
Ideal chemistry: Pb_4_(SO_4_)(CO_3_)_2_(OH)_2_
Locality: Tsumeb mine, Tsumeb, Otavi District, Oshikoto, Namibia
Source: University of Arizona Mineral Museum
Description: Grayish-blue cleavage fragment
Measured chemistry: Pb_4.00_(S_1.00_O_4_)(CO_3_)_2_(OH)_2_
Raman shift (cm-1)	intensity
131.432	0
134.806	70.6956
138.181	64.6206
141.556	103.798
144.931	84.269
148.306	30.541
151.68	17.7402
155.055	10.0535
158.43	103.245
161.805	186.804
165.18	277.447
168.554	312.305
171.929	297.953
175.304	246.795
178.679	167.363
182.054	106.397
185.429	69.8492
188.803	58.7552
192.178	118.86
195.553	152.923
198.928	162.51
202.303	180.995
205.678	187.356
209.052	189.908
212.427	175.044
215.802	172.751
219.177	158.676
222.552	143.742
225.926	133.788
229.301	124.764
232.676	121.259
236.051	135.722
239.426	143.287
242.8	142.073
246.175	139.144
249.55	143.049
252.925	154.28
256.3	164.48
259.675	183.459
263.049	201.331
266.424	205.676
269.799	196.987
273.174	159.551
276.549	115.713
279.923	68.485
283.298	33.4526
286.673	5.6987
290.048	8.49054
293.423	15.2412
296.798	18.8281
300.172	13.9667
303.547	6.74106
306.922	3.13687
310.297	3.42835
313.672	11.8091
317.046	7.75369
320.421	16.4944
323.796	15.2876
327.171	19.4031
330.546	20.9067
333.921	22.554
337.295	29.5222
340.67	35.6109
344.045	43.0912
347.42	59.6122
350.795	75.0377
354.169	94.6775
357.544	122.324
360.919	140.201
364.294	159.544
367.669	146.349
371.043	123.48
374.418	110.479
377.793	104.758
381.168	113.841
384.543	129.754
387.918	156.505
391.292	189.596
394.667	229.485
398.042	277.296
401.417	334.502
404.792	406.137
408.166	507.027
411.541	618.708
414.916	764.092
418.291	883.148
421.666	980.946
425.041	1102.37
428.415	1172.45
431.79	1094.4
435.165	910.153
438.54	763.101
441.915	632.649
445.289	455.937
448.664	325.946
452.039	240.635
455.414	187.092
458.789	158.088
462.163	131.115
465.538	114.754
468.913	99.607
472.288	67.8844
475.663	35.7398
479.038	10.9363
482.412	2.07155
485.787	9.47598
489.162	13.6372
492.537	11.456
495.912	9.57381
499.286	5.39336
502.661	1.77105
506.036	2.48127
509.411	7.46857
512.786	10.9645
516.16	14.9209
519.535	16.683
522.91	21.142
526.285	23.3707
529.66	26.5658
533.034	30.0961
536.409	33.6773
539.784	34.8953
543.159	36.8157
546.534	36.4256
549.909	32.3762
553.283	29.8659
556.658	26.6108
560.033	24.5779
563.408	21.5985
566.783	21.584
570.158	21.3856
573.532	20.7568
576.907	22.5062
580.282	27.3111
583.657	34.0371
587.032	43.8086
590.406	57.2628
593.781	75.6384
597.156	95.0044
600.531	108.802
603.906	104.044
607.28	82.4117
610.655	62.5856
614.03	48.4161
617.405	41.7086
620.78	35.559
624.155	30.0088
627.529	24.0841
630.904	21.4352
634.279	14.6664
637.654	12.2571
641.029	7.32165
644.404	3.82457
647.778	1.7086
651.153	0.731346
654.528	2.45174
657.903	1.10888
661.278	0.230293
664.652	3.80511
668.027	12.6921
671.402	24.0652
674.777	50.0649
678.152	90.9754
681.526	84.0913
684.901	28.774
688.276	13.5715
691.651	13.7139
695.026	17.4238
698.4	30.1986
701.775	51.2948
705.15	74.5162
708.525	42.8315
711.9	12.2964
715.275	0.647217
718.649	0.575592
722.024	0.35144
725.399	0.991081
728.774	0.149002
732.149	0.663528
735.524	1.53937
738.898	0.296951
742.273	1.00916
745.648	0.406822
749.023	0.470566
752.398	0.883324
755.772	0.010963
759.147	0.853745
762.522	0.070969
765.897	0.28833
769.272	0.37748
772.646	0.767853
776.021	0.886192
779.396	1.83335
782.771	0.772156
786.146	3.23961
789.52	3.24786
792.895	5.02246
796.27	7.18624
799.645	8.46605
803.02	10.3004
806.395	11.8177
809.769	13.4645
813.144	14.4413
816.519	14.3098
819.894	15.7209
823.269	15.3053
826.644	41.6174
830.018	19.9108
833.393	22.8894
836.768	28.93
840.143	22.4961
843.518	18.4167
846.892	23.2394
850.267	41.4686
853.642	70.0106
857.017	65.429
860.392	85.0218
863.766	48.3499
867.141	20.0109
870.516	16.9292
873.891	16.3915
877.266	14.5147
880.641	14.0626
884.015	14.0625
887.39	14.258
890.765	15.0252
894.14	12.5949
897.515	12.1607
900.889	9.85284
904.264	7.0877
907.639	3.80156
911.014	0.303719
914.389	0.975388
917.764	3.07338
921.138	2.35983
924.513	1.40631
927.888	2.77402
931.263	9.00495
934.638	21.3167
938.012	44.6328
941.387	82.6277
944.762	145.822
948.137	248.549
951.512	411.345
954.886	659.74
958.261	973.706
961.636	1341.35
965.011	1711.34
968.386	1627.49
971.761	886.162
975.135	441.464
978.51	245.054
981.885	136.519
985.26	79.7019
988.635	46.7429
992.01	28.7362
995.384	16.3097
998.759	13.5646
1002.13	9.92229
1005.51	10.7216
1008.88	6.42268
1012.26	6.88037
1015.63	3.22583
1019.01	2.64432
1022.38	3.37732
1025.76	5.26999
1029.13	7.0119
1032.51	16.6104
1035.88	30.2998
1039.26	128.978
1042.63	343.462
1046.01	930.263
1049.38	1994.47
1052.76	3404.3
1056.13	4770.34
1059.51	1497.55
1062.88	207.575
1066.26	109.333
1069.63	89.9117
1073.01	97.0536
1076.38	97.8402
1079.76	107.927
1083.13	114.438
1086.5	117.569
1089.88	120.436
1093.25	123.421
1096.63	123.544
1100	121.946
1103.38	114.076
1106.75	106.078
1110.13	94.8768
1113.5	79.3905
1116.88	66.749
1120.25	49.0569
1123.63	39.8313
1127	28.2209
1130.38	18.8828
1133.75	12.9391
1137.13	8.06406
1140.5	4.56969
1143.88	1.23149
1147.25	1.44022
1150.63	1.71973
1154	2.53047
1157.38	1.61088
1160.75	1.13568
1164.12	0.250336
1167.5	2.4398
1170.88	4.68
1174.25	5.08305
1177.62	7.20123
1181	6.93323
1184.37	6.92622
1187.75	5.99787
1191.12	7.9979
1194.5	8.19546
1197.87	7.40501
1201.25	8.84209
1204.62	10.0111
1208	10.1906
1211.37	8.54385
1214.75	7.63919
1218.12	5.99245
1221.5	5.71905
1224.87	3.22987
1228.25	2.93304
1231.62	3.03174
1235	1.97154
1238.37	2.56323
1241.75	1.6531
1245.12	1.05859
1248.49	2.2347
1251.87	2.90685
1255.24	2.11938
1258.62	2.72856
1261.99	3.33318
1265.37	3.20914
1268.74	2.50866
1272.12	2.32425
1275.49	1.99585
1278.87	0.975731
1282.24	0.723129
1285.62	0.252029
1288.99	0.179276
1292.37	1.05306
1295.74	1.50704
1299.12	1.3514
1302.49	0.401161
