Measurement: Raman, 780 nm, unoriented, Raman Data Processed
Mineral: Leadhillite
Rruff sample: R060047
Ideal chemistry: Pb_4_(SO_4_)(CO_3_)_2_(OH)_2_
Locality: Tsumeb mine, Tsumeb, Otavi District, Oshikoto, Namibia
Source: University of Arizona Mineral Museum
Description: Grayish-blue cleavage fragment
Measured chemistry: Pb_4.00_(S_1.00_O_4_)(CO_3_)_2_(OH)_2_
Raman shift (cm-1)	intensity
126.884	0
129.776	18.0961
132.669	35.6304
135.562	43.323
138.455	66.2917
141.347	55.8952
144.24	32.7845
147.133	4.35675
150.025	8.79987
152.918	2.59497
155.811	29.4526
158.703	58.8065
161.596	98.5472
164.489	118.237
167.382	128.604
170.274	132.164
173.167	118.915
176.06	100.816
178.952	85.3799
181.845	70.2776
184.738	63.8352
187.631	87.4904
190.523	101.309
193.416	110.64
196.309	111.324
199.201	113.034
202.094	111.683
204.987	111.54
207.879	112.072
210.772	106.369
213.665	102.632
216.558	101.145
219.45	92.509
222.343	88.4793
225.236	83.4841
228.128	79.2156
231.021	78.345
233.914	79.8254
236.806	82.1816
239.699	74.8474
242.592	68.0931
245.484	61.0212
248.377	55.2328
251.27	47.6483
254.163	43.6301
257.055	39.2843
259.948	35.0841
262.841	32.2056
265.733	29.0093
268.626	24.1928
271.519	18.1884
274.411	13.248
277.304	6.21405
280.197	3.53028
283.089	1.80122
285.982	3.37646
288.875	5.11634
291.768	4.67694
294.66	5.131
297.553	2.9756
300.446	0.639557
303.338	1.89416
306.231	3.2309
309.124	6.05677
312.017	5.17862
314.909	5.9798
317.802	6.69994
320.695	7.2813
323.587	6.6211
326.48	6.68503
329.373	6.58739
332.265	6.31918
335.158	7.41396
338.051	7.68578
340.943	6.69081
343.836	8.74841
346.729	8.27411
349.622	8.97786
352.514	12.2484
355.407	17.2895
358.3	20.0243
361.192	25.7296
364.085	27.0656
366.978	22.2978
369.87	17.4395
372.763	12.0459
375.656	9.86566
378.549	12.1726
381.441	17.7712
384.334	25.1996
387.227	32.562
390.119	41.3806
393.012	51.9864
395.905	63.3797
398.798	79.4602
401.69	98.2934
404.583	114.511
407.476	138.276
410.368	174.579
413.261	204.463
416.154	233.399
419.046	255.611
421.939	270.324
424.832	282.532
427.724	295.662
430.617	273.701
433.51	244.017
436.402	222.594
439.295	203.423
442.188	175.823
445.081	134.72
447.973	96.6407
450.866	71.6253
453.759	53.7947
456.651	43.8235
459.544	34.6652
462.437	30.8612
465.329	30.5
468.222	28.9857
471.115	20.9997
474.008	15.0119
476.9	7.44971
479.793	1.29468
482.686	0.132797
485.578	2.76487
488.471	3.24851
491.364	3.11271
494.257	2.56708
497.149	2.18345
500.042	0.533051
502.935	0.313217
505.827	0.990883
508.72	1.53566
511.613	2.40706
514.505	3.61276
517.398	4.37498
520.291	5.07699
523.183	5.8749
526.076	7.32602
528.969	7.75475
531.862	8.69072
534.754	9.51736
537.647	10.7018
540.54	11.4167
543.432	11.6145
546.325	11.7817
549.218	11.161
552.111	10.4242
555.003	10.1951
557.896	8.99926
560.789	7.35355
563.681	6.46047
566.574	6.68654
569.467	5.91719
572.359	6.57569
575.252	6.11311
578.145	6.75112
581.038	7.97607
583.93	9.31668
586.823	12.3991
589.716	14.9224
592.608	18.7987
595.501	23.9237
598.394	29.2798
601.286	30.1059
604.179	28.3753
607.072	21.3165
609.964	17.7053
612.857	14.5294
615.75	12.0306
618.643	10.7477
621.535	9.92447
624.428	8.99177
627.321	7.51133
630.213	6.02149
633.106	5.09023
635.999	3.24383
638.891	3.18371
641.784	1.37114
644.677	0.730507
647.569	0.722275
650.462	0.049961
653.355	0.877506
656.248	0.153849
659.14	0.149458
662.033	0.763519
664.926	2.98425
667.818	4.82314
670.711	8.96267
673.604	18.9038
676.496	44.1236
679.389	71.0333
682.282	33.6341
685.175	11.6665
688.067	5.25562
690.96	3.0216
693.853	3.98161
696.745	4.71249
699.638	10.1438
702.531	22.2427
705.423	25.5742
708.316	13.762
711.209	4.497
714.102	0.514399
716.994	0.103891
719.887	0.526163
722.78	0.528793
725.672	0.21594
728.565	0.116352
731.458	0.226051
734.351	0.063025
737.243	0.132421
740.136	0.885378
743.029	0.478075
745.921	0.178171
748.814	0.069479
751.707	0.797003
754.599	0.171553
757.492	0.009577
760.385	0.242775
763.278	0.400286
766.17	0.164234
769.063	0.209431
771.956	0.06514
774.848	0.60475
777.741	0.738329
780.634	0.929905
783.526	0.281723
786.419	1.30652
789.312	0.51996
792.204	1.56352
795.097	1.62415
797.99	2.43508
800.883	2.49475
803.775	2.88351
806.668	3.52668
809.561	3.21759
812.453	3.39457
815.346	3.47512
818.239	3.80251
821.131	3.78823
824.024	3.44284
826.917	3.70189
829.809	4.13235
832.702	4.23946
835.595	5.42885
838.488	4.68839
841.38	3.3434
844.273	3.45649
847.166	5.42474
850.058	8.71371
852.951	13.7703
855.844	13.6267
858.736	16.9902
861.629	16.0571
864.522	6.63139
867.415	4.8243
870.307	3.93562
873.2	3.63691
876.093	3.86656
878.985	3.36086
881.878	3.03554
884.771	2.47158
887.663	3.20267
890.556	3.4942
893.449	3.03708
896.342	3.293
899.234	3.11669
902.127	1.50736
905.02	0.814068
907.912	2.17611
910.805	0.033531
913.698	1.25576
916.591	0.924761
919.483	1.05906
922.376	0.777279
925.269	0.340477
928.161	1.03444
931.054	2.40971
933.947	5.29081
936.839	10.1669
939.732	18.9373
942.625	30.4241
945.518	48.7307
948.41	75.0118
951.303	114.833
954.196	164.832
957.088	230.538
959.981	313.163
962.874	403.695
965.766	468.714
968.659	389.205
971.552	239.11
974.444	144.167
977.337	87.0406
980.23	54.3178
983.122	34.8966
986.015	22.9836
988.908	15.5788
991.801	11.5399
994.693	8.78954
997.586	6.10895
1000.48	5.77298
1003.37	4.98696
1006.26	5.41732
1009.16	5.58767
1012.05	3.68968
1014.94	2.78858
1017.84	1.80312
1020.73	0.021427
1023.62	1.95064
1026.51	1.1923
1029.41	2.22216
1032.3	3.18227
1035.19	7.93538
1038.08	21.021
1040.98	50.7831
1043.87	122.034
1046.76	254.637
1049.65	638.572
1052.55	926.249
1055.44	1555.75
1058.33	537.862
1061.22	74.4449
1064.12	28.9893
1067.01	17.7673
1069.9	14.7867
1072.8	13.6148
1075.69	14.2828
1078.58	14.2352
1081.47	14.8411
1084.37	16.3351
1087.26	16.2641
1090.15	16.8197
1093.05	17.0744
1095.94	17.2275
1098.83	17.1756
1101.72	17.0394
1104.62	16.2252
1107.51	14.2742
1110.4	14.1817
1113.29	11.3856
1116.19	9.06385
1119.08	7.41139
1121.97	6.20582
1124.87	4.62534
1127.76	6.18216
1130.65	2.13895
1133.54	0.803371
1136.44	0.897526
1139.33	0.359259
1142.22	0.292843
1145.11	0.00976
1148.01	0.209991
1150.9	0.613565
1153.79	0.241611
1156.68	0.050228
1159.58	0.135864
1162.47	0.521463
1165.36	1.06895
1168.26	0.849873
1171.15	1.65164
1174.04	1.77296
1176.93	1.67868
1179.83	1.99479
1182.72	2.11219
1185.61	2.35776
1188.5	1.95816
1191.4	1.90329
1194.29	2.37696
1197.18	2.51747
1200.08	2.42169
1202.97	2.65148
1205.86	2.04581
1208.75	1.70117
1211.65	1.38975
1214.54	0.925234
1217.43	0.828844
1220.32	1.35104
1223.22	0.360064
1226.11	0.672222
1229	0.414579
1231.89	0.868273
1234.79	0.789511
1237.68	1.37288
1240.57	1.55328
1243.46	0.807003
1246.36	1.50922
1249.25	1.8013
1252.14	1.36609
1255.04	0.972548
1257.93	2.41065
1260.82	0.691643
1263.71	0.374342
1266.61	0.164015
1269.5	0.193274
1272.39	0.350206
1275.29	0.189037
1278.18	0.296442
1281.07	0.061661
