Measurement: Raman, 785 nm, unoriented, Raman Data Processed
Mineral: Leadhillite
Rruff sample: R050642
Ideal chemistry: Pb_4_(SO_4_)(CO_3_)_2_(OH)_2_
Locality: Mammoth mine, Tiger, Pinal County, Arizona, USA
Source: University of Arizona Mineral Museum
Description: Blue hexagonal prisms associated with transparent platy molybdophyllite and susannite
Raman shift (cm-1)	intensity
145.091	0
147.984	22.8724
150.877	20.8033
153.769	24.6167
156.662	149.526
159.555	377.73
162.447	581.254
165.34	834.69
168.233	1090.35
171.126	1161.81
174.018	1184.18
176.911	1031.65
179.804	809.845
182.696	606.108
185.589	457.755
188.482	375.187
191.374	336.409
194.267	260.592
197.16	221.213
200.053	167.648
202.945	105.404
205.838	96.221
208.731	77.0062
211.623	66.7678
214.516	61.8772
217.409	71.0437
220.301	47.5106
223.194	38.9808
226.087	18.6281
228.98	11.5869
231.872	8.86163
234.765	20.6211
237.658	11.5005
240.55	31.4376
243.443	26.4865
246.336	50.6907
249.228	79.949
252.121	111.466
255.014	158.776
257.906	220.678
260.799	245.29
263.692	304.297
266.585	315.926
269.477	290.182
272.37	279.656
275.263	216.056
278.155	176.885
281.048	146.952
283.941	92.8914
286.833	74.0151
289.726	46.6723
292.619	20.3575
295.512	7.49561
298.404	4.79785
301.297	6.95697
304.19	25.2588
307.082	5.08658
309.975	7.83377
312.868	13.6552
315.76	3.44937
318.653	3.58252
321.546	14.1534
324.439	4.40668
327.331	2.87763
330.224	1.07361
333.117	0.344971
336.009	0.847687
338.902	5.16501
341.795	9.62936
344.688	33.3773
347.58	56.2082
350.473	75.3105
353.366	113.911
356.258	149.153
359.151	194.241
362.044	201.499
364.936	194.003
367.829	163.791
370.722	142.755
373.615	145.98
376.507	139.414
379.4	138.05
382.293	131.696
385.185	149.01
388.078	168.191
390.971	197.656
393.863	205.744
396.756	254.101
399.649	268.436
402.542	311.393
405.434	355.661
408.327	424.826
411.22	560.532
414.112	713.117
417.005	890.908
419.898	1087.81
422.79	1312.49
425.683	1475.17
428.576	1485.48
431.469	1287.04
434.361	1009.43
437.254	791.686
440.147	615.221
443.039	531.88
445.932	465.202
448.825	468.917
451.717	499.212
454.61	536.438
457.503	481.792
460.396	364.374
463.288	283.024
466.181	207.687
469.074	137.668
471.966	90.0317
474.859	39.9307
477.752	26.5651
480.645	0.095169
483.537	4.63341
486.43	4.75203
489.323	9.00784
492.215	9.78546
495.108	1.16217
498.001	10.0695
500.893	1.37636
503.786	2.4631
506.679	1.91608
509.572	0.112183
512.464	3.2901
515.357	0.010338
518.25	4.78686
521.142	2.42846
524.035	12.788
526.928	21.9421
529.82	16.2311
532.713	13.6531
535.606	17.9073
538.498	13.0991
541.391	21.2345
544.284	26.2638
547.177	22.8545
550.069	31.3762
552.962	20.6976
555.855	18.3289
558.747	11.4472
561.64	18.4638
564.533	27.1723
567.425	10.9076
570.318	15.2547
573.211	25.7834
576.104	21.1355
578.996	23.6259
581.889	23.5029
584.782	45.0898
587.674	63.8961
590.567	79.1748
593.46	117.748
596.352	129.52
599.245	138.977
602.138	128.107
605.031	101.461
607.923	85.7361
610.816	75.1874
613.709	73.2894
616.601	67.4057
619.494	69.8165
622.387	66.3381
625.279	71.5304
628.172	67.4765
631.065	57.1094
633.958	41.732
636.85	41.9228
639.743	26.0475
642.636	19.505
645.528	4.17109
648.421	13.332
651.314	7.80178
654.206	2.1048
657.099	3.64146
659.992	6.91622
662.885	5.37148
665.777	9.98904
668.67	19.356
671.563	44.499
674.455	93.6847
677.348	130.641
680.241	78.6318
683.133	24.8818
686.026	27.087
688.919	26.4338
691.812	14.0051
694.704	22.0496
697.597	27.3159
700.49	32.0916
703.382	30.481
706.275	7.82072
709.168	19.0891
712.06	1.44087
714.953	0.524551
717.846	3.38957
720.739	4.81462
723.631	13.704
726.524	0.48909
729.417	3.16863
732.309	4.48409
735.202	1.50375
738.095	6.72559
740.987	11.8997
743.88	6.34536
746.773	20.9991
749.666	5.77498
752.558	4.38731
755.451	13.2096
758.344	13.4312
761.236	5.42306
764.129	4.28971
767.022	13.5593
769.914	12.2456
772.807	2.95533
775.7	7.65211
778.593	5.58208
781.485	12.2705
784.378	14.193
787.271	11.038
790.163	11.0788
793.056	13.7671
795.949	18.9384
798.841	24.2214
801.734	22.882
804.627	21.4364
807.52	23.6805
810.412	11.1414
813.305	38.8098
816.198	38.4905
819.09	26.6405
821.983	24.198
824.876	41.8886
827.768	28.1882
830.661	25.1884
833.554	39.7353
836.447	40.5665
839.339	38.9217
842.232	45.6959
845.125	37.427
848.018	55.6533
850.91	75.1112
853.803	76.5493
856.696	75.2985
859.588	105.874
862.481	54.8274
865.374	43.5699
868.266	38.3263
871.159	41.5888
874.052	37.4759
876.945	27.6793
879.837	30.0777
882.73	33.3298
885.623	35.9093
888.515	28.3457
891.408	21.3054
894.301	13.8434
897.193	17.5392
900.086	21.3065
902.979	14.245
905.872	14.4476
908.764	2.26449
911.657	4.06055
914.55	10.0186
917.442	1.46395
920.335	6.78377
923.228	4.24897
926.12	5.50223
929.013	3.26031
931.906	19.5191
934.799	31.3383
937.691	62.8749
940.584	92.6867
943.477	183.058
946.369	267.541
949.262	420.511
952.155	654.869
955.047	1018.07
957.94	1555.42
960.833	2257.34
963.726	2767.81
966.618	2439.94
969.511	1366.37
972.404	723.917
975.296	401.613
978.189	259.835
981.082	152.161
983.974	104.88
986.867	77.6557
989.76	39.1544
992.653	28.4728
995.545	39.8358
998.438	25.4174
1001.33	36.1891
1004.22	45.2523
1007.12	55.629
1010.01	64.819
1012.9	57.657
1015.79	54.7374
1018.69	24.4416
1021.58	13.5521
1024.47	6.89529
1027.37	14.3885
1030.26	4.93561
1033.15	4.18611
1036.04	3.55308
1038.94	16.5008
1041.83	122.618
1044.72	558.803
1047.61	1572.2
1050.51	3053.89
1053.4	3865.22
1056.29	3488.01
1059.18	351.817
1062.08	70.1018
1064.97	35.4327
1067.86	16.2532
1070.76	15.463
1073.65	29.2584
1076.54	40.6379
1079.43	38.4647
1082.33	44.6433
1085.22	36.5215
1088.11	61.2066
1091	63.9658
1093.9	61.6225
1096.79	75.4874
1099.68	77.8743
1102.58	73.789
1105.47	60.506
1108.36	54.1049
1111.25	45.692
1114.15	37.3223
1117.04	32.7154
1119.93	17.7986
1122.82	13.4373
1125.72	7.886
1128.61	6.92368
1131.5	0.140015
1134.39	7.43759
1137.29	1.18036
1140.18	5.65775
1143.07	2.9935
1145.97	8.40933
1148.86	0.707932
1151.75	7.99928
1154.64	6.36951
1157.54	9.12758
1160.43	13.4553
1163.32	12.1164
1166.21	7.01355
1169.11	12.9676
1172	3.88991
1174.89	24.0127
1177.79	33.3213
1180.68	15.9564
1183.57	14.2613
1186.46	27.2216
1189.36	14.284
1192.25	10.0851
1195.14	17.0251
1198.03	13.904
1200.93	5.79799
1203.82	4.50349
1206.71	10.0999
1209.61	13.1314
1212.5	2.16926
1215.39	1.31731
1218.28	17.8985
1221.18	11.5499
1224.07	18.5141
1226.96	12.7362
1229.85	7.79849
1232.75	6.5644
1235.64	4.67927
1238.53	13.9134
1241.42	22.5644
1244.32	19.7262
1247.21	11.0803
1250.1	7.54114
1252.99	10.5497
1255.89	5.8885
1258.78	20.9714
1261.67	8.54645
1264.57	12.8628
1267.46	14.5801
1270.35	12.1786
1273.24	0
