Measurement: Raman, 532 nm, unoriented, Raman Data Processed
Mineral: Lefontite
Rruff sample: R140074
Ideal chemistry: Fe^2+^_2_Al_2_Be(PO_4_)_2_(OH)_6_
Locality: Galiléia, Minas Gerais, Brazil
Source: Bob Jenkins
Description: Reddish brown elongated crystals (to be named as lefontite, with the ideal formula Fe2Al2Be(PO4)2.(OH)6). Associated with ushkovite (R060954), atencioite, rockbridgeite, and albite.
Measured chemistry: (Fe_1.02_Mn_0.81_Ca_0.13_Mg_0.04_)_Σ=2.00_Al_1.99_(Be_1.02_Li_0.08_)(P_0.99_O_4_)_2_(OH)_6_. The BeO and Li2O contents were taken from R140428, which were determined by ICP-MS.
Raman shift (cm-1)	intensity
115.335	0
118.71	10.8936
122.085	9.9054
125.46	14.841
128.835	15.1619
132.209	16.1431
135.584	17.788
138.959	19.7062
142.334	8.78839
145.709	3.80151
149.084	1.01941
152.458	1.336
155.833	1.12024
159.208	3.59796
162.583	0.478027
165.958	3.89697
169.333	10.2588
172.707	13.3536
176.082	26.6035
179.457	35.9
182.832	49.0823
186.207	62.4954
189.581	76.7388
192.956	83.9736
196.331	94.4039
199.706	100.715
203.081	102.608
206.455	103.38
209.83	102.205
213.205	99.1181
216.58	99.2651
219.955	90.9186
223.329	84.564
226.704	71.3078
230.079	57.9453
233.454	45.5726
236.829	33.9081
240.204	29.0749
243.578	18.4687
246.953	12.2885
250.328	6.76996
253.703	2.67084
257.078	4.03552
260.452	6.46851
263.827	3.5636
267.202	7.31451
270.577	14.2847
273.952	19.2517
277.327	25.6541
280.701	37.9487
284.076	41.7505
287.451	51.3976
290.826	55.2266
294.201	61.8293
297.575	63.9022
300.95	60.8439
304.325	61.6773
307.7	60.2317
311.075	56.1958
314.45	51.3108
317.824	45.6523
321.199	35.8713
324.574	28.0507
327.949	23.0516
331.324	16.2471
334.699	13.6202
338.073	12.2943
341.448	7.48712
344.823	6.07642
348.198	2.04468
351.573	0.681519
354.947	1.76617
358.322	1.27911
361.697	2.0387
365.072	2.44659
368.447	3.74774
371.822	2.61847
375.196	0.87561
378.571	6.76959
381.946	10.7828
385.321	20.6453
388.696	29.2737
392.07	35.5419
395.445	46.5048
398.82	60.1169
402.195	76.6696
405.57	91.3865
408.945	100.591
412.319	113.642
415.694	122.88
419.069	133.757
422.444	135.483
425.818	130.172
429.193	126.433
432.568	118.54
435.943	110.139
439.318	107.773
442.693	106.634
446.067	105.544
449.442	109.747
452.817	113.191
456.192	119.918
459.567	120.665
462.942	114.894
466.316	104.109
469.691	92.377
473.066	75.5465
476.441	57.939
479.816	45.1475
483.19	37.8723
486.565	33.5913
489.94	28.4273
493.315	24.271
496.69	20.1379
500.065	19.9289
503.439	20.5186
506.814	19.9113
510.189	19.6708
513.564	16.2989
516.939	15.0544
520.313	8.19141
523.688	5.46661
527.063	3.63837
530.438	2.50385
533.813	3.63733
537.188	6.375
540.562	8.13245
543.937	3.86993
547.312	3.2652
550.687	8.27148
554.062	13.3502
557.436	25.3322
560.811	41.8501
564.186	56.5577
567.561	73.0098
570.936	88.4073
574.311	103.846
577.685	111.053
581.06	116.531
584.435	123.159
587.81	129.058
591.185	134.196
594.559	136.225
597.934	136.695
601.309	132.131
604.684	120.728
608.059	108.941
611.433	93.1448
614.808	77.095
618.183	60.2713
621.558	53.3179
624.933	45.8781
628.308	46.4159
631.682	46.334
635.057	50.782
638.432	54.1227
641.807	54.8626
645.182	59.8607
648.557	60.1055
651.931	59.2593
655.306	52.9525
658.681	45.5477
662.056	40.2211
665.431	33.4547
668.805	27.3166
672.18	19.5767
675.555	15.5737
678.93	11.7907
682.305	7.88431
685.679	7.22607
689.054	6.59195
692.429	3.8233
695.804	3.68487
699.179	5.43671
702.553	3.09851
705.928	4.52969
709.303	2.24728
712.678	2.02771
716.053	2.83899
719.428	0.110901
722.802	0.203827
726.177	0.994202
729.552	1.4715
732.927	1.95563
736.302	3.99329
739.677	0.418976
743.051	2.82965
746.426	1.44653
749.801	0.834381
753.176	2.05042
756.551	1.89319
759.925	3.79828
763.3	3.97199
766.675	4.81793
770.05	5.38532
773.425	7.5206
776.799	7.86703
780.174	11.3484
783.549	12.5829
786.924	12.4207
790.299	15.1688
793.674	16.8332
797.048	15.8899
800.423	17.639
803.798	17.3802
807.173	20.2351
810.548	20.7683
813.923	21.2197
817.297	22.4871
820.672	23.2178
824.047	23.77
827.422	22.7739
830.797	24.181
834.171	24.2792
837.546	24.4361
840.921	24.8114
844.296	25.5166
847.671	23.9165
851.045	20.8364
854.42	19.8557
857.795	15.0541
861.17	15.2198
864.545	13.9098
867.92	10.6214
871.294	9.58615
874.669	3.78436
878.044	3.00449
881.419	0.960785
884.794	2.71127
888.168	2.41482
891.543	3.29639
894.918	3.54748
898.293	4.32803
901.668	3.81522
905.043	0.962189
908.417	1.96368
911.792	7.41919
915.167	15.3785
918.542	22.0845
921.917	31.3336
925.291	44.2298
928.666	54.1268
932.041	67.5672
935.416	76.8864
938.791	87.3672
942.165	98.2494
945.54	106.393
948.915	115.824
952.29	126.266
955.665	134.973
959.04	148.504
962.414	169.023
965.789	195.522
969.164	226.519
972.539	259.833
975.914	288.892
979.288	313.835
982.663	332.97
986.038	342.51
989.413	353.21
992.788	345.47
996.163	334.208
999.537	319.341
1002.91	297.191
1006.29	268.915
1009.66	241.764
1013.04	210.37
1016.41	184.067
1019.79	159.863
1023.16	135.497
1026.54	113.178
1029.91	94.2022
1033.29	72.3807
1036.66	61.4908
1040.04	47.3531
1043.41	34.1606
1046.79	23.8979
1050.16	14.1283
1053.53	6.19543
1056.91	2.664
1060.28	1.43375
1063.66	3.65765
1067.03	4.28549
1070.41	1.60892
1073.78	4.13886
1077.16	0.27063
1080.53	0.927399
1083.91	3.35248
1087.28	1.68576
1090.66	5.99036
1094.03	6.65469
1097.41	9.40521
1100.78	11.7812
1104.16	15.1078
1107.53	16.5207
1110.91	20.5491
1114.28	20.3272
1117.66	19.3053
1121.03	19.7748
1124.41	17.8012
1127.78	15.0599
1131.15	11.9865
1134.53	9.21567
1137.9	7.62772
1141.28	6.20282
1144.65	4.95993
1148.03	1.77319
1151.4	0.736969
1154.78	1.59378
1158.15	1.49728
1161.53	0.048584
1164.9	1.3349
1168.28	0.799622
1171.65	2.0625
1175.03	0.368744
1178.4	1.81577
1181.78	1.85422
1185.15	2.89609
1188.53	2.36469
1191.9	3.45093
1195.28	4.53641
1198.65	5.26239
1202.03	3.59456
1205.4	6.71599
1208.78	7.2769
1212.15	8.20477
1215.53	8.45563
1218.9	8.30969
1222.28	10.8661
1225.65	9.26311
1229.03	8.38078
1232.4	10.0092
1235.78	8.6805
1239.15	9.2767
1242.52	9.54843
1245.9	9.61945
1249.27	8.04777
1252.65	10.1067
1256.02	8.94319
1259.4	7.65254
1262.77	6.75317
1266.15	5.68311
1269.52	5.59898
1272.9	4.79065
1276.27	4.72067
1279.65	3.60109
1283.02	2.57094
1286.4	1.24779
1289.77	2.65082
1293.15	1.00395
1296.52	0.084183
1299.9	0.175568
