Measurement: Raman, 532 nm, unoriented, Raman Data Processed
Mineral: Lefontite
Rruff sample: R140428
Ideal chemistry: Fe^2+^_2_Al_2_Be(PO_4_)_2_(OH)_6_
Locality: João Teodoro mine, Linópolis district, Divino das Laranjeiras, Minas Gerais, Brazil
Source: Michael Scott
Description: Brown prismatic crystals, associated with light-brown greifensteinite (R060588), dark green acicular gormanite (R080075), and white fine-grained leucophosphite. Type sample: lefontite with the ideal chemical formula Fe2Al2Be(PO4)2.(OH)6.
Measured chemistry: (Fe_1.51_Mn_0.39_Mg_0.06_Ca_0.03_)_Σ=1.99_Al_1.99_(Be_1.02_Li_0.08_)(P_0.99_O_4_)_2_(OH)_6_. The BeO and Li2O were determined by ICP-MS.
Raman shift (cm-1)	intensity
110.514	0
113.889	30.6732
117.264	40.7164
120.639	31.0216
124.013	30.2458
127.388	28.8309
130.763	34.5482
134.138	27.7462
137.513	15.7733
140.888	7.26685
144.262	0.73407
147.637	1.70551
151.012	6.43677
154.387	2.58594
157.762	0.332397
161.137	8.96222
164.511	22.887
167.886	33.676
171.261	48.8387
174.636	65.1029
178.011	81.5843
181.385	98.1741
184.76	115.87
188.135	130.892
191.51	142.432
194.885	144.359
198.26	145.46
201.634	137.772
205.009	125.388
208.384	110.906
211.759	98.4454
215.133	87.6293
218.508	80.363
221.883	77.4205
225.258	68.4125
228.633	60.7636
232.008	54.4061
235.382	47.7299
238.757	40.435
242.132	33.7788
245.507	28.0155
248.882	19.6799
252.256	16.8008
255.631	17.756
259.006	17.431
262.381	17.5105
265.756	18.1684
269.131	18.353
272.505	20.461
275.88	27.6069
279.255	27.3092
282.63	31.8159
286.005	39.5748
289.38	50.9512
292.754	63.8429
296.129	73.9359
299.504	75.9094
302.879	77.4089
306.254	73.8072
309.628	73.1127
313.003	61.9275
316.378	53.1736
319.753	40.4238
323.128	29.7832
326.502	24.2365
329.877	14.0394
333.252	4.43518
336.627	0.046814
340.002	2.89099
343.377	5.75824
346.751	5.98505
350.126	4.92444
353.501	2.19513
356.876	2.94775
360.251	12.3558
363.625	34.0275
367	56.9703
370.375	80.4507
373.75	110.668
377.125	141.456
380.5	167.194
383.874	177.491
387.249	185.443
390.624	185.094
393.999	178.313
397.374	171.301
400.748	169.044
404.123	168.748
407.498	164.538
410.873	165.941
414.248	172.838
417.623	182.32
420.997	189.49
424.372	187.245
427.747	180.666
431.122	164.623
434.497	144.429
437.872	123.784
441.246	102.018
444.621	78.9625
447.996	59.4089
451.371	44.9291
454.745	34.1932
458.12	27.6423
461.495	21.1092
464.87	16.4004
468.245	6.97626
471.62	0.595154
474.994	3.02539
478.369	1.67444
481.744	9.68213
485.119	27.0521
488.494	50.0801
491.868	70.5008
495.243	84.965
498.618	98.5455
501.993	103.143
505.368	100.286
508.743	89.3947
512.117	71.0954
515.492	48.4155
518.867	31.9796
522.242	14.1109
525.617	7.27704
528.991	1.29962
532.366	3.45862
535.741	2.29169
539.116	2.76837
542.491	2.54999
545.866	10.8559
549.24	18.7818
552.615	24.9655
555.99	30.4214
559.365	32.9976
562.74	34.1168
566.115	27.571
569.489	25.4186
572.864	26.4991
576.239	31.1072
579.614	45.0366
582.989	61.6422
586.363	94.4272
589.738	134.557
593.113	186.121
596.488	241.135
599.863	290.747
603.237	309.027
606.612	290.43
609.987	243.99
613.362	183.755
616.737	132.444
620.112	89.4697
623.486	59.8001
626.861	40.1998
630.236	28.9968
633.611	27.6863
636.986	19.6694
640.361	15.7277
643.735	15.6508
647.11	16.6592
650.485	15.1919
653.86	13.0126
657.235	5.40949
660.609	4.87073
663.984	0.022522
667.359	1.38367
670.734	2.67194
674.109	0.751892
677.484	0.186462
680.858	2.11829
684.233	8.34406
687.608	12.1693
690.983	17.4989
694.357	21.5437
697.732	27.7416
701.107	26.8454
704.482	29.4349
707.857	29.1828
711.232	30.1541
714.606	30.419
717.981	28.61
721.356	26.9545
724.731	26.4437
728.106	25.2431
731.481	18.2375
734.855	13.0503
738.23	9.84085
741.605	4.94836
744.98	4.94437
748.355	3.17322
751.729	2.47736
755.104	1.31091
758.479	0.05722
761.854	0.199585
765.229	0.412781
768.604	0.342224
771.978	0.304626
775.353	1.96707
778.728	2.23492
782.103	2.40402
785.478	5.58145
788.852	7.56604
792.227	9.04874
795.602	12.1332
798.977	13.9157
802.352	15.6222
805.726	19.5014
809.101	24.6278
812.476	25.806
815.851	28.753
819.226	29.3946
822.601	33.8948
825.975	32.6566
829.35	32.6585
832.725	33.4693
836.1	34.6911
839.475	36.9271
842.85	36.7559
846.224	39.37
849.599	37.6615
852.974	40.4163
856.349	41.303
859.724	44.7499
863.098	44.3958
866.473	44.6825
869.848	44.3697
873.223	43.606
876.598	39.3083
879.972	36.3563
883.347	31.4112
886.722	28.8561
890.097	23.8383
893.472	22.6834
896.847	17.0448
900.221	13.7144
903.596	9.11527
906.971	2.7016
910.346	0.29071
913.721	1.50049
917.096	5.55987
920.47	4.15949
923.845	6.66992
927.22	1.98972
930.595	3.74396
933.97	2.84726
937.344	1.49014
940.719	5.05618
944.094	7.52112
947.469	17.3788
950.844	31.8117
954.218	49.3068
957.593	81.507
960.968	129.863
964.343	192.038
967.718	257.063
971.092	299.075
974.467	306.799
977.842	284.954
981.217	255.907
984.592	225.448
987.967	198.405
991.341	169.532
994.716	149.622
998.091	135.605
1001.47	127.707
1004.84	116.601
1008.22	107.78
1011.59	101.923
1014.97	90.6542
1018.34	81.0751
1021.72	69.3015
1025.09	51.9567
1028.46	47.5102
1031.84	38.0424
1035.21	33.9802
1038.59	33.4301
1041.96	40.1511
1045.34	52.6968
1048.71	60.5727
1052.09	72.718
1055.46	81.1244
1058.84	85.3196
1062.21	83.0886
1065.59	80.5409
1068.96	77.5102
1072.34	66.4193
1075.71	54.9074
1079.09	44.0247
1082.46	34.5281
1085.84	27.0863
1089.21	21.1818
1092.59	25.7349
1095.96	29.2058
1099.34	38.4739
1102.71	44.2089
1106.09	52.6395
1109.46	59.0723
1112.84	65.2753
1116.21	61.827
1119.58	60.1813
1122.96	54.4468
1126.33	47.8503
1129.71	37.8464
1133.08	27.5079
1136.46	18.1121
1139.83	10.3767
1143.21	3.48474
1146.58	4.37137
1149.96	5.04922
1153.33	4.94983
1156.71	6.75507
1160.08	5.78882
1163.46	5.17481
1166.83	0.206909
1170.21	3.50601
1173.58	9.18887
1176.96	13.1416
1180.33	16.4228
1183.71	24.4167
1187.08	27.0684
1190.46	32.0361
1193.83	34.4408
1197.2	37.7398
1200.58	37.3928
1203.95	38.9145
1207.33	39.861
1210.7	37.8994
1214.08	35.3751
1217.45	33.3229
1220.83	28.5353
1224.2	27.0184
1227.58	23.0971
1230.95	22.2996
1234.33	21.3159
1237.7	21.0895
1241.08	21.5373
1244.45	20.0978
1247.83	21.6859
1251.2	22.5857
1254.58	19.3754
1257.95	19.7656
1261.33	16.8168
1264.7	14.5511
1268.08	12.4411
1271.45	10.7481
1274.83	9.65491
1278.2	8.08044
1281.58	5.14456
1284.95	5.12115
1288.33	3.52576
1291.7	0.362854
1295.08	0.462982
1298.45	1.97809
1301.83	0
