Measurement: Raman, 785 nm, unoriented, Raman Data Processed
Mineral: Legrandite
Rruff sample: R040151
Ideal chemistry: Zn^2+^_2_As^5+^O_4_(OH)H_2_O
Locality: Mapimi, Durango, Mexico
Source: University of Arizona Mineral Museum
Description: Yellow crystal fragments; same material used in McLean et al. (1971) study
Measured chemistry: Zn_1.88_Fe^2+^_0.04_As_1.03_O_4_(OH)Â·H_2_O
Raman shift (cm-1)	intensity
156.214	0
159.107	196.111
161.999	934.792
164.892	977.288
167.785	552.574
170.677	300.734
173.57	136.719
176.463	11.8953
179.356	34.6946
182.248	13.2712
185.141	65.4951
188.034	153.853
190.926	373.691
193.819	643.555
196.712	795.686
199.604	754.38
202.497	524.166
205.39	395.826
208.282	555.418
211.175	743.473
214.068	768.706
216.961	671.403
219.853	614.786
222.746	754.5
225.639	1017.17
228.531	1075.97
231.424	787.491
234.317	564.754
237.209	637.493
240.102	926.332
242.995	1012.91
245.888	870.167
248.78	746.421
251.673	767.017
254.566	996.153
257.458	1304.15
260.351	1519.83
263.244	1993.84
266.137	2676.09
269.029	3511.31
271.922	3946.99
274.815	3472.15
277.707	2654.13
280.6	1888.05
283.493	1471.2
286.385	1195.41
289.278	876.316
292.171	584.992
295.063	309.008
297.956	115.019
300.849	16.8525
303.742	20.3436
306.634	15.6532
309.527	25.2567
312.42	64.4393
315.312	49.4862
318.205	32.9469
321.098	2.97266
323.99	17.1843
326.883	25.3669
329.776	10.9591
332.669	12.5054
335.561	6.19324
338.454	94.7611
341.347	228.024
344.239	433.276
347.132	738.638
350.025	1127.42
352.918	1522.26
355.81	1733.06
358.703	1654.98
361.596	1214.04
364.488	788.66
367.381	406.056
370.274	247.335
373.166	210.142
376.059	289.895
378.952	494.357
381.844	746.49
384.737	997.214
387.63	1271.43
390.523	1366.41
393.415	1174.72
396.308	815.775
399.201	489.106
402.093	251.423
404.986	99.5181
407.879	4.67224
410.772	13.8162
413.664	11.4073
416.557	37.7286
419.45	76.7242
422.342	167.373
425.235	188.456
428.128	224.988
431.02	188.053
433.913	178.023
436.806	139.08
439.699	122.676
442.591	133.255
445.484	192.223
448.377	331.617
451.269	453.459
454.162	513.641
457.055	517.974
459.947	396.104
462.84	306.398
465.733	239.573
468.625	197.731
471.518	144.032
474.411	111.326
477.304	95.3699
480.196	80.1803
483.089	68.8907
485.982	59.3986
488.874	66.6107
491.767	50.691
494.66	27.3246
497.553	20.032
500.445	16.1074
503.338	32.0579
506.231	21.4797
509.123	25.7044
512.016	10.9588
514.909	18.1267
517.802	14.7802
520.694	22.0096
523.587	24.3858
526.48	81.2534
529.372	134.022
532.265	196.91
535.158	235.797
538.05	213.521
540.943	164.993
543.836	95.5777
546.729	83.8914
549.621	40.0195
552.514	33.4466
555.407	29.6112
558.299	38.3871
561.192	25.7348
564.085	21.29
566.977	36.1721
569.87	25.662
572.763	30.4088
575.655	14.6039
578.548	9.30084
581.441	14.8999
584.333	1.12176
587.226	1.70154
590.119	6.8573
593.012	10.161
595.904	3.95917
598.797	3.59277
601.69	1.25244
604.582	9.87201
607.475	9.66614
610.368	0.415955
613.26	16.791
616.153	3.58899
619.046	15.4127
621.939	24.9627
624.831	41.2519
627.724	43.0063
630.617	48.1357
633.509	69.6741
636.402	90.573
639.295	111.198
642.188	137.871
645.08	177.823
647.973	240.145
650.866	296.67
653.758	376.72
656.651	394.918
659.544	384.089
662.436	283.304
665.329	220.796
668.222	182.788
671.115	141.618
674.007	142.137
676.9	144.899
679.793	108.466
682.685	134.917
685.578	135.544
688.471	139.607
691.363	147.567
694.256	143.263
697.149	168.683
700.042	173.369
702.934	208.619
705.827	210.847
708.72	219.113
711.612	214.573
714.505	197.796
717.398	197.932
720.29	168.114
723.183	148.553
726.076	136.24
728.968	127.487
731.861	100.905
734.754	90.27
737.647	91.9725
740.539	50.9399
743.432	36.9449
746.325	32.4074
749.217	11.0132
752.11	18.8409
755.003	22.5748
757.895	58.3479
760.788	72.8779
763.681	65.1827
766.574	45.9148
769.466	28.4635
772.359	31.9335
775.252	107.942
778.144	215.997
781.037	293.136
783.93	344.406
786.822	355.609
789.715	322.203
792.608	294.022
795.501	180.619
798.393	125.451
801.286	24.7111
804.179	27.3557
807.071	54.0449
809.964	117.321
812.857	170.448
815.75	272.827
818.642	494.041
821.535	747.856
824.428	914.782
827.32	1115.37
830.213	1448.33
833.106	1913.57
835.998	2523.19
838.891	3199.45
841.784	3884.86
844.677	4760.9
847.569	6075.9
850.462	8170.17
853.355	11337.4
856.247	15598.4
859.14	18183.9
862.033	14680.1
864.925	9085.17
867.818	5719.85
870.711	4377.78
873.604	3673.9
876.496	3244.62
879.389	2564.48
882.282	1906.77
885.174	1366.04
888.067	1333.17
890.96	1700.04
893.852	2548.26
896.745	3956.85
899.638	5320.22
902.53	5063.59
905.423	3442.85
908.316	2025.76
911.209	1176.46
914.101	795.642
916.994	591.919
919.887	538.249
922.779	604.162
925.672	620.413
928.565	511.766
931.457	343.676
934.35	170.015
937.243	68.4856
940.136	2.42584
943.028	44.4973
945.921	51.6428
948.814	63.1774
951.706	64.6152
954.599	30.7532
957.492	34.2576
960.385	20.8271
963.277	0.44104
966.17	8.63092
969.063	48.8165
971.955	56.6544
974.848	81.6688
977.741	107.95
980.633	119.619
983.526	134.102
986.419	156.483
989.312	156.791
992.204	177.257
995.097	186.702
997.99	209.808
1000.88	223.411
1003.77	216.868
1006.67	216.72
1009.56	204.983
1012.45	209.671
1015.35	205.397
1018.24	199.232
1021.13	208.736
1024.02	188.874
1026.92	210.814
1029.81	199.747
1032.7	198.52
1035.6	168.558
1038.49	156.316
1041.38	129.663
1044.27	118.403
1047.17	103.243
1050.06	97.8348
1052.95	94.8574
1055.84	89.3285
1058.74	69.9593
1061.63	72.7907
1064.52	57.3063
1067.41	54.955
1070.31	62.27
1073.2	65.2633
1076.09	40.9909
1078.98	43.1594
1081.88	30.8951
1084.77	33.0751
1087.66	27.6231
1090.56	40.0637
1093.45	29.3721
1096.34	23.3633
1099.23	19.9074
1102.13	11.2842
1105.02	12.1146
1107.91	4.12094
1110.81	0.221832
1113.7	10.7203
1116.59	1.45038
1119.48	5.91364
1122.38	2.54227
1125.27	18.1444
1128.16	6.88638
1131.05	4.1413
1133.95	2.03738
1136.84	22.4803
1139.73	0.014923
1142.62	2.82544
1145.52	3.30618
1148.41	2.96332
1151.3	2.41803
1154.19	13.0937
1157.09	9.95377
1159.98	0.275299
1162.87	0.844513
1165.77	2.04416
1168.66	10.8172
1171.55	1.07107
1174.44	15.1938
1177.34	4.23907
1180.23	7.39392
1183.12	3.83714
1186.02	1.03088
1188.91	10.2661
1191.8	0.346252
1194.69	3.69321
1197.59	4.33041
1200.48	6.27736
1203.37	12.4739
1206.26	5.23964
1209.16	12.0761
1212.05	24.15
1214.94	20.6744
1217.84	16.6988
1220.73	8.89795
1223.62	12.0406
1226.51	13.9369
1229.41	8.7243
1232.3	19.4183
1235.19	3.07517
1238.08	13.4466
1240.98	7.59966
