Measurement: Raman, 514 nm, unoriented, Raman Data Processed
Mineral: Legrandite
Rruff sample: R040151
Ideal chemistry: Zn^2+^_2_As^5+^O_4_(OH)H_2_O
Locality: Mapimi, Durango, Mexico
Source: University of Arizona Mineral Museum
Description: Yellow crystal fragments; same material used in McLean et al. (1971) study
Measured chemistry: Zn_1.88_Fe^2+^_0.04_As_1.03_O_4_(OH)Â·H_2_O
Raman shift (cm-1)	intensity
72.445	0
76.635	3527.41
80.823	595.072
85.009	1653.91
89.193	117.936
93.375	78.825
97.554	429.998
101.732	391.381
105.908	325.706
110.082	187.997
114.254	529.861
118.424	731.069
122.592	941.857
126.758	114.977
130.922	187.063
135.083	0.241
139.243	458.199
143.401	480.975
147.557	259.748
151.711	144.559
155.863	878.407
160.013	3856.15
164.161	5470.14
168.308	2530.39
172.452	1442.89
176.594	1165.58
180.734	1814.82
184.872	2057.24
189.008	2397.2
193.143	2596.69
197.275	1797.24
201.405	1101.59
205.534	471.377
209.66	347.471
213.784	503.436
217.907	520.632
222.027	752
226.146	1304.51
230.263	1363.16
234.377	1055.94
238.49	1115.57
242.601	1215.07
246.709	675.458
250.816	352.705
254.921	149.406
259.024	76.162
263.125	161.261
267.224	273.065
271.321	421.688
275.416	393.708
279.51	245.079
283.601	103.727
287.69	67.312
291.778	13.818
295.863	100.065
299.947	124.556
304.029	29.062
308.108	114.371
312.186	51.919
316.262	38.603
320.336	51.445
324.408	62.593
328.478	21.599
332.546	3.461
336.612	75.404
340.677	100.221
344.739	287.917
348.799	502.386
352.858	824.808
356.915	748.961
360.969	607.619
365.022	548.113
369.073	472.493
373.122	535.79
377.169	1016.09
381.215	1495.41
385.258	1968.72
389.299	2294.96
393.339	1931.43
397.376	1551.97
401.412	1295.3
405.446	1230.93
409.478	1214.56
413.508	1606.22
417.536	2093.32
421.562	2937.81
425.586	3832.62
429.609	4430.44
433.629	4238.65
437.648	3577.48
441.665	2693
445.68	2435.2
449.693	2582.66
453.704	3011.16
457.713	3636
461.721	3929.49
465.726	3955.55
469.73	3508.77
473.731	2475.52
477.731	1571.27
481.729	1153.95
485.725	773.047
489.72	876.416
493.712	783.541
497.703	1062.82
501.691	1543.28
505.678	1669.11
509.663	1382.78
513.646	1029.39
517.627	721.588
521.607	582.018
525.584	532.606
529.56	420.106
533.534	338.934
537.506	389.031
541.476	274.342
545.444	87.547
549.41	164.515
553.375	238.044
557.337	238.815
561.298	123.534
565.257	224.1
569.214	112.315
573.17	140.991
577.123	126.979
581.075	43.417
585.024	125.341
588.972	168.679
592.918	6.906
596.863	74.652
600.805	8.001
604.746	64.087
608.685	24.771
612.621	45.105
616.557	32.535
620.49	85.508
624.421	139.075
628.351	114.7
632.279	4.792
636.205	41.916
640.129	18.493
644.051	179.83
647.972	176.925
651.89	20.808
655.807	118.432
659.722	146.798
663.636	78.904
667.547	17.217
671.457	55.354
675.365	121.586
679.271	19.512
683.175	24.112
687.077	14.535
690.978	114.736
694.877	129.345
698.774	49.165
702.669	19.087
706.562	24.456
710.454	11.851
714.344	101.408
718.232	164.628
722.118	69.248
726.002	66.73
729.885	67.521
733.766	8.245
737.645	80.217
741.522	147.634
745.397	46.693
749.271	15.172
753.143	238.765
757.013	168.299
760.881	73.409
764.748	266.046
768.613	471.922
772.476	285.748
776.337	293.337
780.196	565.339
784.054	428.069
787.91	536.939
791.764	557.84
795.616	477.914
799.467	728.789
803.316	759.743
807.163	815.242
811.008	1001.9
814.851	1200.98
818.693	1983.81
822.533	3029.08
826.371	2737.82
830.208	2382.37
834.042	2471.88
837.875	2744.22
841.706	3552.25
845.536	5142.25
849.363	8099.78
853.189	15519.6
857.013	31360.8
860.836	45616.7
864.656	29014.8
868.475	15545.5
872.292	10407.6
876.108	8926.63
879.922	7471.48
883.733	6671.35
887.544	6575.96
891.352	8955.94
895.159	15317.1
898.964	28060.8
902.767	35544.4
906.568	23808.3
910.368	13476.4
914.166	8604.88
917.962	6299.69
921.757	4953.9
925.55	4388.29
929.341	3759.91
933.13	3217.79
936.918	2793.92
940.703	1998.32
944.488	1677.93
948.27	1405.39
952.051	1025.06
955.83	835.495
959.607	755.742
963.383	613.788
967.156	612.263
970.928	428.218
974.699	444.285
978.468	360.2
982.234	386.293
986	52.307
989.763	219.42
993.525	385.682
997.285	440.604
1001.04	153.986
1004.8	274.464
1008.55	234.604
1012.31	325.322
1016.06	337.783
1019.81	322.31
1023.56	552.476
1027.31	650.896
1031.05	526.584
1034.79	452.836
1038.53	349.061
1042.27	402.817
1046.01	344.908
1049.75	219.117
1053.48	446.21
1057.22	280.905
1060.95	282.097
1064.68	267.655
1068.4	123.746
1072.13	283.734
1075.86	161.063
1079.58	157.797
1083.3	243.37
1087.02	240.993
1090.74	194.448
1094.45	59.412
1098.17	50.754
1101.88	49.814
1105.59	17.433
1109.3	105.332
1113.01	33.54
1116.71	26.062
1120.42	18.735
1124.12	242.353
1127.82	119.666
1131.52	94.105
1135.22	176.482
1138.91	69.056
1142.61	16.21
1146.3	14.272
1149.99	142.594
1153.68	95.087
1157.37	145.222
1161.06	169.884
1164.74	177.838
1168.42	227.407
1172.1	127.956
1175.78	57.062
1179.46	8.708
1183.14	199.049
1186.81	165.706
1190.48	262.65
1194.15	378.193
1197.83	209.9
1201.49	313.154
1205.16	99.91
1208.82	199.703
1212.49	178.984
1216.15	206.086
1219.81	351.385
1223.46	184.338
1227.12	367.797
1230.78	267.346
1234.43	228.895
1238.08	310.297
1241.73	112.559
1245.38	240.176
1249.03	415.627
1252.67	352.514
1256.31	375.664
1259.95	453.674
1263.6	118.193
1267.23	194.244
1270.87	236.113
1274.51	98.82
1278.14	116.666
1281.77	167.021
1285.4	45.797
1289.03	62.455
1292.66	147.424
1296.28	62.301
1299.91	77.283
1303.53	78.695
1307.15	87.912
1310.77	5.225
1314.38	68.053
1318	81.264
1321.61	145.668
1325.23	160.793
1328.84	100.18
1332.45	8.699
1336.06	88.379
1339.66	133.914
1343.27	255.199
1346.87	247.84
1350.47	323.588
1354.07	450.797
1357.67	193.621
1361.26	264.75
1364.86	387.643
1368.45	340.939
1372.04	144.879
1375.63	320.533
1379.22	141.162
1382.81	404.996
1386.39	331.438
1389.98	384.719
1393.56	178.65
1397.14	341.938
1400.72	298.768
1404.3	360.857
1407.87	443.699
1411.45	509.961
1415.02	320.086
1418.59	482.016
1422.16	362.02
1425.73	495.375
1429.29	604.074
1432.86	434.979
1436.42	422.135
1439.98	525.162
1443.54	643.139
1447.1	609.861
1450.66	497.084
1454.21	523.076
1457.77	328.361
1461.32	400.629
1464.87	393.715
1468.42	487.281
1471.96	479.428
1475.51	613.652
1479.06	391.697
1482.6	713.643
1486.14	448.863
1489.68	267.623
1493.22	234.463
1496.75	273.783
1500.29	465.201
1503.82	118.221
1507.35	290.926
1510.88	175.789
1514.41	449.689
1517.94	337.633
1521.46	96.283
1524.99	0
