Measurement: Raman, 532 nm, unoriented, Raman Data Processed
Mineral: Legrandite
Rruff sample: R040151
Ideal chemistry: Zn^2+^_2_As^5+^O_4_(OH)H_2_O
Locality: Mapimi, Durango, Mexico
Source: University of Arizona Mineral Museum
Description: Yellow crystal fragments; same material used in McLean et al. (1971) study
Measured chemistry: Zn_1.88_Fe^2+^_0.04_As_1.03_O_4_(OH)Â·H_2_O
Raman shift (cm-1)	intensity
150.626	0
154.001	108.267
157.376	408.718
160.75	1332.68
164.125	2314.88
167.5	999.5
170.875	253.805
174.25	32.8319
177.625	75.2299
180.999	162.024
184.374	387.01
187.749	368.826
191.124	690.631
194.499	1015.73
197.874	966.076
201.248	642.263
204.623	195.546
207.998	228.727
211.373	437.935
214.748	459.941
218.122	382.019
221.497	504.324
224.872	923.075
228.247	1149.01
231.622	783.453
234.996	388.803
238.371	443.754
241.746	689.751
245.121	540.119
248.496	312.25
251.871	241.594
255.245	338.133
258.62	524.498
261.995	734.232
265.37	1233.69
268.745	1903.06
272.12	2411.43
275.494	2190.86
278.869	1471.67
282.244	1026.88
285.619	796.421
288.994	654.167
292.368	453.125
295.743	198.093
299.118	84.1021
302.493	14.4736
305.868	0.092285
309.243	26.5548
312.617	72.4393
315.992	41.1948
319.367	7.26562
322.742	25.1038
326.117	31.5239
329.491	37.2449
332.866	52.4115
336.241	5.56372
339.616	111.406
342.991	244.749
346.365	518.725
349.74	856.004
353.115	1184.14
356.49	1383.13
359.865	1214.74
363.24	813.082
366.614	419.032
369.989	234.82
373.364	212.457
376.739	415.964
380.114	696.811
383.488	1039.35
386.863	1330.1
390.238	1421.39
393.613	1111.35
396.988	684.989
400.363	323.949
403.737	126.913
407.112	33.7983
410.487	43.8689
413.862	145.629
417.237	351.158
420.611	627.207
423.986	913.191
427.361	1161.76
430.736	1312.78
434.111	1187.92
437.486	930.694
440.86	684.695
444.235	647.99
447.61	769.238
450.985	960.749
454.36	1183.57
457.735	1177.96
461.109	1078.09
464.484	1008.1
467.859	892.176
471.234	631.717
474.609	418.056
477.983	182.595
481.358	65.7219
484.733	5.30066
488.108	21.4701
491.483	16.5138
494.858	0.887695
498.232	86.5497
501.607	188.826
504.982	260.394
508.357	171.355
511.732	74.8535
515.106	8.59363
518.481	36.0399
521.856	9.15698
525.231	26.3861
528.606	117.739
531.981	223.013
535.355	264.377
538.73	225.525
542.105	121.147
545.48	45.1562
548.855	7.96082
552.229	13.2815
555.604	8.17828
558.979	21.4028
562.354	6.70001
565.729	8.07611
569.104	3.6192
572.478	5.72919
575.853	9.91498
579.228	19.8349
582.603	4.10211
585.978	1.89441
589.352	9.6839
592.727	14.381
596.102	27.0327
599.477	16.8558
602.852	1.31439
606.227	35.3004
609.601	32.0768
612.976	37.5134
616.351	34.0588
619.726	31.7259
623.101	56.7689
626.476	55.9274
629.85	68.7459
633.225	101.941
636.6	106.059
639.975	154.548
643.35	205.315
646.724	261.844
650.099	349.234
653.474	415.089
656.849	457.896
660.224	417.701
663.598	311.01
666.973	234.223
670.348	192.726
673.723	176.804
677.098	182.424
680.472	182.915
683.847	160.73
687.222	171.408
690.597	191.027
693.972	205.353
697.347	220.427
700.721	237.584
704.096	251.337
707.471	280.928
710.846	288.12
714.221	285.618
717.596	281.824
720.97	264.598
724.345	256.032
727.72	227.721
731.095	200.001
734.47	166.365
737.844	121.842
741.219	122.586
744.594	98.8861
747.969	104.138
751.344	63.9208
754.719	31.347
758.093	5.40906
761.468	24.879
764.843	44.9987
768.218	39.603
771.593	10.9947
774.967	33.5107
778.342	150.185
781.717	168.001
785.092	202.744
788.467	139.95
791.842	120.822
795.216	25.6335
798.591	42.3367
801.966	150.316
805.341	62.8088
808.716	32.1272
812.091	111.115
815.465	360.146
818.84	702.855
822.215	1108.41
825.59	1312.81
828.965	1437.98
832.339	1843.85
835.714	2500.7
839.089	3471.52
842.464	4782.08
845.839	6854.6
849.213	10561.2
852.588	16633.6
855.963	25364.9
859.338	33278.9
862.713	27724.7
866.087	15527.5
869.462	10103.4
872.837	8331.24
876.212	7255.55
879.587	5663.64
882.962	4130.14
886.337	3603.81
889.711	4461.19
893.086	6999.26
896.461	11474.7
899.836	16562.2
903.211	15508.7
906.585	9469.27
909.96	5307.02
913.335	3296.14
916.71	2356.47
920.085	1967.65
923.46	1890.48
926.834	1773.78
930.209	1329.1
933.584	858.037
936.959	489.665
940.334	297.294
943.708	112.606
947.083	26.3658
950.458	65.1125
953.833	97.4611
957.208	80.4396
960.582	93.3334
963.957	79.3629
967.332	41.2599
970.707	1.38611
974.082	37.8461
977.457	51.0308
980.831	88.9872
984.206	113.459
987.581	174.351
990.956	185.355
994.331	220.485
997.705	233.03
1001.08	263.483
1004.46	292.89
1007.83	326.363
1011.21	349.23
1014.58	358.969
1017.95	354.558
1021.33	380.872
1024.7	381.494
1028.08	385.92
1031.45	406.099
1034.83	327.334
1038.2	266.871
1041.58	237.597
1044.95	212.624
1048.33	178.459
1051.7	170.956
1055.08	156.468
1058.45	125.932
1061.83	114.85
1065.2	102.075
1068.58	68.1971
1071.95	94.222
1075.33	88.2127
1078.7	90.1948
1082.08	69.9907
1085.45	51.9343
1088.83	56.0574
1092.2	51.9121
1095.58	43.5941
1098.95	24.9782
1102.33	37.4929
1105.7	14.5626
1109.07	20.6736
1112.45	24.6303
1115.82	18.7288
1119.2	11.7427
1122.57	11.2045
1125.95	7.74365
1129.32	1.07971
1132.7	10.1984
1136.07	1.7254
1139.45	17.7258
1142.82	1.32849
1146.2	4.65485
1149.57	1.4541
1152.95	23.5427
1156.32	17.6063
1159.7	16.5465
1163.07	3.64447
1166.45	25.0479
1169.82	2.98267
1173.2	32.1986
1176.57	28.5739
1179.95	8.36774
1183.32	12.7116
1186.69	6.39441
1190.07	28.9258
1193.44	5.91602
1196.82	18.3606
1200.19	7.16309
1203.57	9.57635
1206.94	3.55615
1210.32	10.6401
1213.69	24.8739
1217.07	12.984
1220.44	22.9001
1223.82	27.4834
1227.19	19.0952
1230.57	20.6473
1233.94	35.9121
1237.32	20.7427
1240.69	7.8103
1244.07	20.8571
1247.44	37.7758
1250.82	31.2733
1254.19	23.2332
1257.57	31.9812
1260.94	28.2759
1264.32	22.8213
1267.69	19.9373
1271.07	21.0441
1274.44	32.3908
1277.82	36.0263
1281.19	40.7126
1284.57	32.0005
1287.94	28.3354
1291.32	25.2651
1294.69	32.5444
1298.06	56.2225
1301.44	14.4617
1304.81	32.1652
1308.19	22.6727
1311.56	0.377136
1314.94	0
