Measurement: Raman, 780 nm, unoriented, Raman Data Processed
Mineral: Leifite
Rruff sample: R060219
Ideal chemistry: Na_7_Be_2_(Si_15_Al_3_)O_39_(F,OH)_2_
Locality: Mont Saint-Hilaire, Rouville County, Quebec, Canada
Source: Royal Ontario Museum
Description: Colorless hexagonal prism
Raman shift (cm-1)	intensity
146.306	0
149.199	0.44696
152.092	3.42883
154.984	11.1786
157.877	19.3459
160.77	31.3019
163.662	42.2442
166.555	45.5549
169.448	42.3551
172.341	32.7934
175.233	21.9956
178.126	12.4219
181.019	9.5195
183.911	6.64371
186.804	7.54311
189.697	5.71243
192.589	12.4183
195.482	19.5799
198.375	28.5062
201.268	41.396
204.16	53.5712
207.053	60.8731
209.946	63.3614
212.838	60.1986
215.731	61.6769
218.624	56.4583
221.517	39.7246
224.409	19.1494
227.302	4.84635
230.195	1.0007
233.087	3.99433
235.98	1.63725
238.873	2.20831
241.765	7.68363
244.658	16.8523
247.551	27.3148
250.444	37.3214
253.336	52.3706
256.229	62.221
259.122	68.0285
262.014	65.8109
264.907	61.2131
267.8	56.1142
270.692	59.3169
273.585	70.6761
276.478	88.8308
279.37	113.416
282.263	142.43
285.156	156.722
288.049	148.866
290.941	124.838
293.834	106.84
296.727	102.955
299.619	96.7379
302.512	82.5494
305.405	59.8336
308.298	35.5883
311.19	22.4112
314.083	13.1457
316.976	8.72543
319.868	5.83857
322.761	3.40724
325.654	0.831879
328.546	2.13879
331.439	1.79426
334.332	1.33994
337.224	0.325821
340.117	1.02956
343.01	3.93922
345.903	9.75583
348.795	16.8178
351.688	24.8741
354.581	34.5163
357.473	41.9291
360.366	49.4409
363.259	61.0468
366.151	76.3361
369.044	94.5356
371.937	115.81
374.83	137.762
377.722	166.068
380.615	196.491
383.508	214.856
386.4	222.666
389.293	207.498
392.186	178.749
395.079	145.183
397.971	117.368
400.864	95.9571
403.757	80.9416
406.649	73.4078
409.542	71.2297
412.435	67.6359
415.327	56.2087
418.22	37.8687
421.113	22.794
424.005	11.5593
426.898	6.60187
429.791	1.09529
432.684	3.65665
435.576	5.94878
438.469	1.85327
441.362	4.51357
444.254	19.2576
447.147	24.2819
450.04	26.2132
452.933	35.6138
455.825	54.9519
458.718	80.8314
461.611	108.065
464.503	133.247
467.396	164.944
470.289	182.766
473.181	150.013
476.074	94.1876
478.967	82.9314
481.86	113.799
484.752	182.707
487.645	277.245
490.538	417.405
493.43	650.899
496.323	1045.74
499.216	1490.45
502.108	1425.79
505.001	890.31
507.894	507.31
510.786	314.564
513.679	217.173
516.572	160.053
519.465	123.664
522.357	101.318
525.25	93.4864
528.143	90.4773
531.035	82.6579
533.928	61.1577
536.821	35.4659
539.713	18.3299
542.606	10.2096
545.499	3.18387
548.392	0.445175
551.284	0.746826
554.177	2.59203
557.07	1.73422
559.962	1.80376
562.855	0.700352
565.748	0.323833
568.64	2.04607
571.533	4.97999
574.426	8.11612
577.319	12.2441
580.211	16.9925
583.104	15.9819
585.997	10.1194
588.889	3.66465
591.782	0.229103
594.675	1.02257
597.567	0.057289
600.46	0.090008
603.353	0.138618
606.246	1.22729
609.138	1.31934
612.031	1.65147
614.924	2.72626
617.816	1.79629
620.709	1.72421
623.602	2.59026
626.495	4.38932
629.387	6.76813
632.28	8.71885
635.173	9.01106
638.065	9.51422
640.958	10.2408
643.851	12.2177
646.743	11.6267
649.636	12.3825
652.529	10.129
655.422	9.62458
658.314	7.5181
661.207	5.54014
664.1	6.02476
666.992	5.27585
669.885	5.2934
672.778	6.03494
675.67	7.67114
678.563	9.80354
681.456	9.85229
684.348	13.1759
687.241	15.8298
690.134	19.6984
693.027	22.0912
695.919	30.6328
698.812	36.9879
701.705	40.7045
704.597	40.1641
707.49	37.1831
710.383	33.3764
713.275	27.9226
716.168	23.9057
719.061	20.6932
721.954	17.3396
724.846	10.9503
727.739	6.38336
730.632	3.45418
733.524	2.81836
736.417	0.841846
739.31	1.06256
742.202	1.04962
745.095	0.852661
747.988	0.634148
750.881	1.66009
753.773	0.362156
756.666	0.559612
759.559	0.292191
762.451	2.81983
765.344	4.02978
768.237	4.75718
771.13	7.65168
774.022	10.3528
776.915	12.135
779.808	13.3956
782.7	14.3363
785.593	13.3964
788.486	9.53658
791.378	5.0051
794.271	2.65003
797.164	1.06728
800.057	0.331512
802.949	0.537064
805.842	0.506912
808.735	0.320713
811.627	0.478039
814.52	2.10713
817.413	3.3904
820.305	5.69598
823.198	9.45179
826.091	13.3299
828.984	17.9397
831.876	25.2033
834.769	33.2297
837.662	34.9083
840.554	29.0093
843.447	19.2194
846.34	12.2732
849.232	9.21112
852.125	6.27455
855.018	5.00678
857.91	4.15604
860.803	5.07817
863.696	4.41796
866.589	3.44441
869.481	3.53555
872.374	2.36753
875.267	2.03741
878.159	2.7887
881.052	1.5994
883.945	3.11553
886.837	2.57655
889.73	2.6608
892.623	2.00298
895.516	2.68725
898.408	2.85876
901.301	1.87931
904.194	1.22316
907.086	2.16392
909.979	1.60591
912.872	1.07994
915.764	0.968269
918.657	0.05549
921.55	1.4826
924.443	0.447592
927.335	1.50502
930.228	0.257265
933.121	0.032078
936.013	1.81827
938.906	0.792637
941.799	0.981945
944.692	0.930883
947.584	0.634483
950.477	2.82142
953.37	7.08326
956.262	8.15574
959.155	11.5066
962.048	15.3094
964.94	15.2711
967.833	12.7609
970.726	9.7472
973.619	6.10433
976.511	5.14861
979.404	3.12802
982.297	1.24589
985.189	3.61232
988.082	2.55263
990.975	3.18524
993.867	3.6019
996.76	3.76622
999.653	6.03801
1002.54	9.53861
1005.44	13.928
1008.33	18.6072
1011.22	22.3195
1014.12	25.5348
1017.01	27.0771
1019.9	26.4516
1022.79	27.8439
1025.69	31.489
1028.58	32.2937
1031.47	33.0059
1034.37	30.8605
1037.26	28.2069
1040.15	23.3491
1043.04	19.6485
1045.94	15.8377
1048.83	13.6938
1051.72	12.4718
1054.61	9.97245
1057.51	8.52942
1060.4	5.06871
1063.29	4.25171
1066.18	1.14457
1069.08	0.125843
1071.97	1.31745
1074.86	0.961529
1077.76	0.477242
1080.65	0.038822
1083.54	3.81609
1086.43	6.17756
1089.33	8.32875
1092.22	10.0514
1095.11	13.169
1098.01	13.394
1100.9	17.5394
1103.79	21.8668
1106.68	25.3009
1109.58	35.5399
1112.47	50.3166
1115.36	70.5809
1118.25	100.264
1121.15	149.542
1124.04	209.681
1126.93	206.008
1129.82	135.092
1132.72	84.7914
1135.61	61.6777
1138.5	50.3796
1141.39	45.8673
1144.29	41.8368
1147.18	40.7954
1150.07	36.4314
1152.97	29.122
1155.86	21.9704
1158.75	15.3101
1161.64	9.97288
1164.54	6.1191
1167.43	2.21829
1170.32	0.641296
1173.21	0.605026
1176.11	3.34144
1179	0.441055
1181.89	2.32257
1184.79	6.06149
1187.68	8.9082
1190.57	13.5817
1193.46	14.3213
1196.36	21.7557
1199.25	27.8368
1202.14	31.0603
1205.03	35.6048
1207.93	41.1089
1210.82	46.9887
1213.71	50.0037
1216.61	57.6366
1219.5	58.9982
1222.39	59.4351
1225.28	59.6585
1228.18	56.3002
1231.07	52.4994
1233.96	46.4342
1236.85	41.1996
1239.75	35.7416
1242.64	28.4643
1245.53	24.5717
1248.42	18.6487
1251.32	15.1291
1254.21	10.7716
1257.1	7.83153
1260	5.49123
1262.89	4.81175
1265.78	1.57484
1268.67	0.028305
1271.57	0.338104
1274.46	0.103043
1277.35	0.372482
1280.24	1.27681
1283.14	0.165054
