Measurement: Raman, 532 nm, unoriented, Raman Data Processed
Mineral: Leifite
Rruff sample: R060219
Ideal chemistry: Na_7_Be_2_(Si_15_Al_3_)O_39_(F,OH)_2_
Locality: Mont Saint-Hilaire, Rouville County, Quebec, Canada
Source: Royal Ontario Museum
Description: Colorless hexagonal prism
Raman shift (cm-1)	intensity
145.593	0
148.968	1.6221
152.343	25.5846
155.718	59.0835
159.092	80.675
162.467	99.8905
165.842	109.867
169.217	105.368
172.592	88.1919
175.966	62.3735
179.341	39.7516
182.716	27.7135
186.091	22.4239
189.466	26.282
192.84	38.0983
196.215	51.2326
199.59	69.8954
202.965	95.8101
206.34	118.881
209.715	124.621
213.089	105.74
216.464	87.9865
219.839	68.6243
223.214	40.5262
226.589	12.7139
229.964	3.39931
233.338	8.2339
236.713	3.49306
240.088	7.46773
243.463	22.4185
246.838	44.2496
250.212	72.3742
253.587	99.3375
256.962	124.902
260.337	129.546
263.712	113.951
267.086	97.1235
270.461	89.7033
273.836	98.4206
277.211	118.782
280.586	150.352
283.961	183.696
287.335	199.359
290.71	178.208
294.085	151.886
297.46	144.567
300.835	137.462
304.209	110.764
307.584	67.6134
310.959	36.8019
314.334	19.3718
317.709	8.71519
321.084	3.36136
324.458	0.128983
327.833	3.01623
331.208	4.2825
334.583	2.53423
337.958	1.50297
341.332	9.85359
344.707	20.9942
348.082	36.0071
351.457	55.8108
354.832	77.386
358.207	98.026
361.581	121.583
364.956	155.949
368.331	196.241
371.706	247.09
375.08	304.132
378.455	371.119
381.83	437.261
385.205	475.279
388.58	467.744
391.955	408.544
395.329	321.087
398.704	251.455
402.079	200.69
405.454	167.909
408.829	155.769
412.204	151.645
415.578	132.721
418.953	92.0392
422.328	50.6929
425.703	23.7136
429.078	6.60135
432.452	3.511
435.827	11.1757
439.202	8.89714
442.577	4.31723
445.952	29.6404
449.327	47.6448
452.701	67.5416
456.076	114.859
459.451	183.793
462.826	257.019
466.201	321.616
469.575	378.714
472.95	367.025
476.325	244.147
479.7	176.465
483.075	246.111
486.45	457.687
489.824	787.788
493.199	1268.52
496.574	2010.78
499.949	2868.85
503.324	2822.19
506.698	1631.27
510.073	874.646
513.448	542.295
516.823	383.619
520.198	295.788
523.572	255.307
526.947	249.403
530.322	250.521
533.697	215.01
537.072	132.171
540.447	66.8136
543.821	32.6819
547.196	14.3107
550.571	3.78713
553.946	0.457535
557.321	2.5956
560.695	4.71064
564.07	2.79059
567.445	2.39688
570.82	5.77254
574.195	14.6199
577.569	23.5937
580.944	31.6367
584.319	31.9672
587.694	17.2431
591.069	3.44897
594.443	2.10007
597.818	2.16826
601.193	0.5364
604.568	0.410774
607.943	1.5993
611.318	3.58684
614.692	7.6974
618.067	6.32857
621.442	6.71861
624.817	11.4401
628.192	12.6681
631.567	17.0883
634.941	19.8493
638.316	21.3786
641.691	21.8876
645.066	24.1214
648.441	25.0856
651.815	24.8012
655.19	19.896
658.565	16.6151
661.94	13.6193
665.315	12.4489
668.689	12.5116
672.064	13.4199
675.439	15.6145
678.814	18.7539
682.189	23.0931
685.564	28.4221
688.938	36.5687
692.313	47.8201
695.688	62.2233
699.063	77.8515
702.438	85.647
705.812	83.0726
709.187	72.728
712.562	61.2214
715.937	49.5353
719.312	38.7697
722.687	27.7853
726.061	17.8571
729.436	8.80631
732.811	4.11679
736.186	1.01763
739.561	0.695717
742.936	0.342133
746.31	1.36208
749.685	2.11796
753.06	1.07882
756.435	0.198677
759.81	3.26003
763.184	4.64659
766.559	9.11044
769.934	13.5863
773.309	17.7018
776.684	23.6961
780.058	28.3255
783.433	31.2935
786.808	28.693
790.183	21.4879
793.558	14.6556
796.933	10.4441
800.307	9.44574
803.682	7.68605
807.057	8.26013
810.432	11.0285
813.807	22.4568
817.181	26.4626
820.556	30.951
823.931	37.8496
827.306	48.7218
830.681	60.8625
834.056	73.8963
837.43	83.7956
840.805	79.9154
844.18	61.9116
847.555	47.9739
850.93	39.0206
854.304	37.0021
857.679	35.5571
861.054	34.2959
864.429	34.3805
867.804	38.6217
871.178	22.5572
874.553	34.3338
877.928	33.2835
881.303	32.2339
884.678	32.0078
888.053	30.9734
891.427	30.2447
894.802	30.3627
898.177	27.2752
901.552	26.7195
904.927	25.7261
908.302	24.9876
911.676	23.6762
915.051	22.8594
918.426	21.3033
921.801	19.4279
925.176	18.5665
928.55	7.10768
931.925	5.32251
935.3	6.04925
938.675	3.47158
942.05	1.95414
945.424	1.52631
948.799	3.43401
952.174	5.74757
955.549	11.2251
958.924	17.7952
962.298	24.1945
965.673	22.9054
969.048	17.3996
972.423	10.4035
975.798	5.2569
979.173	3.31802
982.547	0.725014
985.922	0.183815
989.297	1.51257
992.672	1.93063
996.047	0.933746
999.421	6.15617
1002.8	12.2327
1006.17	20.179
1009.55	30.2212
1012.92	38.861
1016.3	42.1515
1019.67	42.469
1023.04	42.6619
1026.42	48.1506
1029.8	52.4244
1033.17	53.231
1036.54	48.5689
1039.92	39.7805
1043.29	30.6635
1046.67	23.3673
1050.04	19.4256
1053.42	17.5874
1056.79	14.9163
1060.17	10.7551
1063.54	4.91848
1066.92	1.39533
1070.29	2.28417
1073.67	2.34684
1077.04	0.599335
1080.42	3.74142
1083.79	9.77197
1087.17	17.1131
1090.54	23.4902
1093.92	31.1629
1097.29	38.5879
1100.67	45.9566
1104.04	55.9604
1107.42	71.8259
1110.79	93.1615
1114.16	135.865
1117.54	203.91
1120.91	309.659
1124.29	447.605
1127.66	476.447
1131.04	318.283
1134.41	205.135
1137.79	162.014
1141.16	150.056
1144.54	142.965
1147.91	136.279
1151.29	122.913
1154.66	103.07
1158.04	81.5543
1161.41	61.5545
1164.79	43.3785
1168.16	27.3811
1171.54	17.0612
1174.91	8.38936
1178.29	4.57231
1181.66	1.42638
1185.04	1.0855
1188.41	0.97599
1191.79	1.39787
1195.16	0.349503
1198.54	0.895657
1201.91	0.204445
1205.29	1.06488
1208.66	0.442802
1212.04	1.37995
1215.41	1.94731
1218.79	0.87521
1222.16	2.46504
1225.53	3.24861
1228.91	2.33008
1232.28	3.30808
1235.66	3.71384
1239.03	4.19793
1242.41	4.01981
1245.78	4.89309
1249.16	5.28816
1252.53	4.23312
1255.91	4.51372
1259.28	3.67732
1262.66	3.95585
1266.03	3.78973
1269.41	3.06627
1272.78	3.1778
1276.16	2.62838
1279.53	1.9415
1282.91	2.46979
1286.28	2.10742
1289.66	1.4716
1293.03	0.082619
1296.4	0.736053
1299.78	1.04964
1303.15	0.094421
