Measurement: Raman, 532 nm, unoriented, Raman Data Processed
Mineral: Leightonite
Rruff sample: R050211
Ideal chemistry: K_2_Ca_2_Cu(SO_4_)_4_2H_2_O
Locality: Chuquicamata mine, Calama, Antofagasta Province, Chile
Source: John Dagenais
Description: Blue lathlike crystals
Measured chemistry: (K_1.91_Na_0.09_)_Σ=2_Ca_2.00_Cu_1.00_(S_1.00_O_4_)_4_·1.96H_2_O
Raman shift (cm-1)	intensity
140.511	0
143.886	0.721069
147.261	4.86176
150.636	7.6981
154.011	10.801
157.386	11.5458
160.76	7.73824
164.135	2.77016
167.51	1.39918
170.885	0.400696
174.26	2.01627
177.634	6.60606
181.009	9.80379
184.384	11.1204
187.759	15.732
191.134	20.6708
194.508	26.758
197.883	29.3556
201.258	27.4606
204.633	24.0984
208.008	20.5078
211.382	16.9304
214.757	15.1549
218.132	11.0503
221.507	8.80954
224.882	7.81768
228.257	8.36531
231.631	9.82128
235.006	13.2149
238.381	16.7912
241.756	18.9127
245.131	21.21
248.506	24.7241
251.88	27.5601
255.255	28.3772
258.63	28.8587
262.005	33.8828
265.38	44.6077
268.754	54.5848
272.129	60.4603
275.504	59.5297
278.879	54.6635
282.254	46.2071
285.628	34.9109
289.003	24.2107
292.378	16.5157
295.753	11.0508
299.128	7.10445
302.503	3.33232
305.877	1.31068
309.252	0.044468
312.627	0.404243
316.002	0.352562
319.377	0.31929
322.752	0.710327
326.126	0.107681
329.501	0.15163
332.876	0.36808
336.251	0.155022
339.625	0.727299
343	0.664558
346.375	0.582066
349.75	1.16267
353.125	0.630646
356.5	1.02529
359.874	1.02642
363.249	0.865654
366.624	1.03339
369.999	1.11362
373.374	0.241596
376.748	0.650612
380.123	0.321133
383.498	0.249519
386.873	0.148834
390.248	0.087368
393.623	0.99942
396.997	1.01037
400.372	1.91624
403.747	4.89627
407.122	8.66898
410.497	13.8576
413.872	23.0595
417.246	35.1891
420.621	51.5746
423.996	67.8801
427.371	81.1953
430.746	89.4197
434.12	91.7812
437.495	81.037
440.87	76.0365
444.245	91.3712
447.62	134.983
450.994	146.857
454.369	110.891
457.744	126.739
461.119	187.316
464.494	234.349
467.868	177.776
471.243	130.606
474.618	111.682
477.993	85.7085
481.368	60.9093
484.743	43.7536
488.117	27.3135
491.492	14.6857
494.867	7.94314
498.242	4.35424
501.617	2.66177
504.991	1.68155
508.366	1.41652
511.741	0.151371
515.116	0.452377
518.491	0.217079
521.866	0.503922
525.24	0.05349
528.615	0.661072
531.99	0.068424
535.365	0.29747
538.74	0.987564
542.115	0.963875
545.489	1.62264
548.864	1.49228
552.239	2.09034
555.614	2.86817
558.989	4.06935
562.363	4.47866
565.738	4.7776
569.113	5.33335
572.488	6.20059
575.863	6.01382
579.237	6.64543
582.612	6.95589
585.987	7.41183
589.362	9.0966
592.737	11.0213
596.111	14.991
599.486	20.2076
602.861	26.7568
606.236	33.4899
609.611	41.7825
612.986	56.0203
616.36	78.414
619.735	99.0345
623.11	115.74
626.485	146.98
629.86	174.38
633.235	172.907
636.609	134.297
639.984	90.9556
643.359	65.7945
646.734	60.5334
650.109	55.2785
653.483	38.1989
656.858	23.4376
660.233	14.4911
663.608	8.88277
666.983	4.56461
670.357	1.33778
673.732	0.375984
677.107	0.192596
680.482	0.292896
683.857	0.402061
687.232	1.03239
690.606	0.026524
693.981	0.026089
697.356	0.135376
700.731	0.392467
704.106	0.659325
707.481	0.955147
710.855	1.00513
714.23	1.29135
717.605	1.94412
720.98	2.26265
724.355	2.71808
727.729	2.42196
731.104	3.33612
734.479	3.09635
737.854	3.51888
741.229	3.64558
744.604	4.10769
747.978	3.95826
751.353	3.57478
754.728	4.04442
758.103	3.87938
761.477	3.74071
764.852	3.84094
768.227	4.0471
771.602	4.03352
774.977	3.42453
778.352	3.30114
781.726	3.41223
785.101	2.80001
788.476	3.24581
791.851	2.32249
795.226	2.22957
798.601	1.77695
801.975	1.99364
805.35	1.39168
808.725	1.29124
812.1	1.23056
815.475	0.522984
818.849	1.21609
822.224	0.759609
825.599	0.694626
828.974	0.097923
832.349	0.148003
835.723	0.089993
839.098	0.166039
842.473	0.530575
845.848	0.61961
849.223	0.141758
852.597	0.283924
855.972	0.908459
859.347	0.739491
862.722	0.571346
866.097	1.25552
869.472	1.46117
872.846	2.3445
876.221	1.81536
879.596	1.71663
882.971	1.70947
886.346	2.14411
889.721	1.42307
893.095	2.01824
896.47	1.09803
899.845	1.2214
903.22	0.618958
906.595	0.538036
909.969	0.204197
913.344	0.333942
916.719	0.066837
920.094	0.240852
923.469	0.184074
926.843	0.181839
930.218	0.12677
933.593	0.102364
936.968	0.223263
940.343	0.130955
943.718	0.114815
947.092	0.256107
950.467	0.462177
953.842	0.309956
957.217	0.766338
960.592	1.1255
963.966	1.65728
967.341	3.05973
970.716	5.33531
974.091	8.82855
977.466	15.4514
980.841	25.3462
984.215	43.6543
987.59	79.0165
990.965	147.441
994.34	299.432
997.715	549.203
1001.09	896.806
1004.46	1491.44
1007.84	2034.51
1011.21	1274.86
1014.59	411.608
1017.96	145.742
1021.34	62.6012
1024.71	27.9833
1028.09	10.0918
1031.46	1.61822
1034.84	2.53455
1038.21	1.41716
1041.59	1.31023
1044.96	7.16862
1048.34	11.4627
1051.71	13.4609
1055.09	15.7092
1058.46	20.217
1061.84	25.0852
1065.21	30.1492
1068.59	32.3651
1071.96	34.62
1075.34	36.9971
1078.71	36.3285
1082.09	35.5729
1085.46	37.0769
1088.84	39.0052
1092.21	38.7869
1095.58	35.3443
1098.96	31.1618
1102.33	27.5873
1105.71	25.7696
1109.08	26.3157
1112.46	29.8325
1115.83	33.0104
1119.21	37.5475
1122.58	38.5037
1125.96	34.551
1129.33	26.5404
1132.71	17.8028
1136.08	9.765
1139.46	5.46756
1142.83	3.03613
1146.21	1.16287
1149.58	0.238293
1152.96	0.196659
1156.33	0.357033
1159.71	0.761333
1163.08	3.38221
1166.45	6.94886
1169.83	9.83946
1173.2	10.4884
1176.58	6.80976
1179.95	1.8877
1183.33	1.07853
1186.7	1.04282
1190.08	0.054001
1193.45	1.65219
1196.83	2.64376
1200.2	3.43856
1203.58	4.48695
1206.95	4.45627
1210.33	4.99038
1213.7	4.42397
1217.08	3.66064
1220.45	2.51519
1223.83	1.66429
1227.2	1.7914
1230.58	0.98064
1233.95	1.44668
1237.33	1.54819
1240.7	1.41498
1244.08	1.02046
1247.45	0.411976
1250.83	0.973204
1254.2	2.1457
1257.58	2.29707
1260.95	1.60655
1264.33	2.06249
1267.7	1.2212
1271.08	1.4893
1274.45	0.932701
1277.82	0.90568
1281.2	1.27671
1284.57	0.807636
1287.95	0.915705
1291.32	0.825937
1294.7	0.447481
1298.07	0.019966
1301.45	0.240849
