Measurement: Raman, 780 nm, unoriented, Raman Data Processed
Mineral: Leightonite
Rruff sample: R050211
Ideal chemistry: K_2_Ca_2_Cu(SO_4_)_4_2H_2_O
Locality: Chuquicamata mine, Calama, Antofagasta Province, Chile
Source: John Dagenais
Description: Blue lathlike crystals
Measured chemistry: (K_1.91_Na_0.09_)_Σ=2_Ca_2.00_Cu_1.00_(S_1.00_O_4_)_4_·1.96H_2_O
Raman shift (cm-1)	intensity
139.119	0
142.012	0.263811
144.904	0.838673
147.797	1.02701
150.69	1.27561
153.582	1.61796
156.475	1.29098
159.368	0.677109
162.26	0.100824
165.153	0.207932
168.046	0.029865
170.939	0.200932
173.831	0.679045
176.724	1.34281
179.617	2.18577
182.509	2.56644
185.402	3.41789
188.295	4.48628
191.187	4.95032
194.08	5.56882
196.973	5.98076
199.865	6.50217
202.758	6.39174
205.651	5.618
208.544	5.3812
211.436	4.53272
214.329	3.61047
217.222	3.11807
220.114	2.54048
223.007	2.3913
225.9	2.19383
228.792	2.41744
231.685	2.81766
234.578	2.89143
237.471	3.12098
240.363	3.2937
243.256	3.46564
246.149	3.52248
249.041	3.18887
251.934	2.99902
254.827	2.90685
257.719	2.82416
260.612	3.22787
263.505	3.29309
266.398	3.5007
269.29	3.44053
272.183	2.98203
275.076	2.69567
277.968	2.45905
280.861	1.96041
283.754	1.16132
286.647	0.719383
289.539	0.592381
292.432	0.190414
295.325	0.068364
298.217	0.091927
301.11	0.093343
304.003	0.057445
306.895	0.025409
309.788	0.019758
312.681	0.116073
315.574	0.085874
318.466	0.090627
321.359	0.066976
324.252	0.179084
327.144	0.003364
330.037	0.102824
332.93	0.28372
335.822	0.416414
338.715	0.521383
341.608	0.378792
344.5	0.392119
347.393	0.388282
350.286	0.428696
353.179	0.402949
356.071	0.259724
358.964	0.250107
361.857	0.135012
364.749	0.003738
367.642	0.13766
370.535	0.044709
373.428	0.076387
376.32	0.082414
379.213	0.202124
382.106	0.171516
384.998	0.084144
387.891	0.192904
390.784	0.19004
393.676	0.294907
396.569	0.721408
399.462	0.867971
402.354	1.60966
405.247	2.1042
408.14	2.97751
411.033	3.93977
413.925	5.0665
416.818	6.34232
419.711	7.63491
422.603	9.31431
425.496	10.6413
428.389	11.9138
431.281	13.4762
434.174	15.2732
437.067	17.8612
439.96	23.2738
442.852	33.0694
445.745	44.8462
448.638	54.6515
451.53	63.8416
454.423	74.3952
457.316	89.3456
460.209	103.355
463.101	99.1761
465.994	73.3825
468.887	48.5664
471.779	32.0212
474.672	22.3861
477.565	16.1156
480.457	11.6032
483.35	8.51388
486.243	6.05083
489.135	4.47214
492.028	3.31281
494.921	2.38215
497.814	1.7608
500.706	1.23388
503.599	1.08837
506.492	0.656238
509.384	0.385263
512.277	0.215937
515.17	0.103551
518.062	0.067995
520.955	0.226329
523.848	0.086804
526.741	0.14656
529.633	0.033926
532.526	0.040363
535.419	0.217664
538.311	0.031905
541.204	0.106767
544.097	0.000103
546.99	0.20434
549.882	0.227942
552.775	0.236629
555.668	0.513411
558.56	0.440869
561.453	0.512083
564.346	0.712803
567.238	0.768331
570.131	0.847685
573.024	1.11247
575.917	1.21438
578.809	1.40544
581.702	1.87974
584.595	2.22405
587.487	2.80298
590.38	3.38252
593.273	4.12004
596.165	5.18959
599.058	6.64339
601.951	7.98762
604.843	9.8894
607.736	12.284
610.629	15.1929
613.521	18.9141
616.414	22.0455
619.307	24.5872
622.2	26.4045
625.092	27.9847
627.985	26.7772
630.878	22.6037
633.77	17.2177
636.663	12.1878
639.556	8.67826
642.448	6.83245
645.341	5.84891
648.234	4.6877
651.127	3.52643
654.019	2.62982
656.912	2.30905
659.805	1.58334
662.697	0.73709
665.59	0.391531
668.483	0.289523
671.375	0.048986
674.268	0.081239
677.161	0.084597
680.054	0.064717
682.946	0.064174
685.839	0.127894
688.732	0.046067
691.625	0.137531
694.517	0.016218
697.41	0.001759
700.303	0.059568
703.195	0.087749
706.088	0.135453
708.981	0.106452
711.873	0.296956
714.766	0.283734
717.659	0.305727
720.552	0.387332
723.444	0.400696
726.337	0.540001
729.23	0.39236
732.122	0.322955
735.015	0.378915
737.908	0.433404
740.8	0.442527
743.693	0.257532
746.586	0.277788
749.479	0.344038
752.371	0.23217
755.264	0.296296
758.157	0.274691
761.049	0.312537
763.942	0.132719
766.835	0.346772
769.727	0.325022
772.62	0.227395
775.513	0.063384
778.405	0.296729
781.298	0.325984
784.191	0.256413
787.084	0.217463
789.976	0.179396
792.869	0.16289
795.762	0.051079
798.654	0.113195
801.547	0.085859
804.44	0.116778
807.332	0.138194
810.225	0.166337
813.118	0.234573
816.011	0.117598
818.903	0.299892
821.796	0.308377
824.689	0.340396
827.581	0.188557
830.474	0.214533
833.367	0.243021
836.26	0.339793
839.152	0.211299
842.045	0.299512
844.938	0.55092
847.83	0.440476
850.723	0.474794
853.616	0.502082
856.508	0.518045
859.401	0.738972
862.294	0.59373
865.187	0.549931
868.079	0.688707
870.972	0.648386
873.865	0.659774
876.757	0.569777
879.65	0.608109
882.543	0.686037
885.435	0.581977
888.328	0.579813
891.221	0.567719
894.114	0.448988
897.006	0.483125
899.899	0.271844
902.792	0.239929
905.684	0.428097
908.577	0.216083
911.47	0.233793
914.362	0.00843
917.255	0.054648
920.148	0.06063
923.04	0.133335
925.933	0.016816
928.826	0.02947
931.718	0.014762
934.611	0.036076
937.504	0.121962
940.397	0.208447
943.289	0.215636
946.182	0.039838
949.075	0.065221
951.967	0.015239
954.86	0.025967
957.753	0.189812
960.645	0.45139
963.538	0.893233
966.431	1.57926
969.324	2.53938
972.216	4.18378
975.109	6.40854
978.002	10.7624
980.894	17.8959
983.787	28.7941
986.68	46.7796
989.572	74.2006
992.465	114.46
995.358	152.335
998.251	183.894
1001.14	215.862
1004.04	227.442
1006.93	182.281
1009.82	95.4771
1012.71	41.6542
1015.61	19.4094
1018.5	9.27408
1021.39	4.70827
1024.29	1.79505
1027.18	0.620866
1030.07	0.033484
1032.96	0.116024
1035.86	0.653519
1038.75	1.21108
1041.64	1.96993
1044.53	2.54735
1047.43	2.30962
1050.32	2.3302
1053.21	2.20716
1056.11	1.84936
1059	2.02708
1061.89	1.82977
1064.78	1.57208
1067.67	1.23178
1070.57	1.2638
1073.46	0.988484
1076.35	1.0177
1079.25	0.890809
1082.14	1.27193
1085.03	1.19926
1087.92	1.21406
1090.82	0.979447
1093.71	0.835687
1096.6	0.556143
1099.49	0.646975
1102.39	0.392096
1105.28	0.843351
1108.17	0.883096
1111.07	1.30659
1113.96	1.51325
1116.85	1.6803
1119.74	1.57144
1122.64	1.55042
1125.53	1.06911
1128.42	0.406652
1131.32	0.206108
1134.21	0.151311
1137.1	0.181968
1139.99	0.322623
1142.89	0.175761
1145.78	0.187582
1148.67	0.188176
1151.56	0.257827
1154.46	0.535047
1157.35	1.06737
1160.24	1.28814
1163.13	1.58843
1166.03	1.62061
1168.92	1.44215
1171.81	1.06021
1174.7	0.604667
1177.6	0.121517
1180.49	0.067539
1183.38	0.285709
1186.28	0.378139
1189.17	0.423061
1192.06	0.674023
1194.95	0.666233
1197.85	0.646459
1200.74	0.827834
1203.63	0.528579
1206.53	0.631886
1209.42	0.467803
1212.31	0.334477
1215.2	0.326435
1218.1	0.232383
1220.99	0.243514
1223.88	0.149688
1226.77	0.327317
1229.67	0.406354
1232.56	0.376366
1235.45	0.146427
1238.35	0.172174
1241.24	0.207143
1244.13	0.289003
1247.02	0.239484
1249.92	0.34388
1252.81	0.212478
1255.7	0.157761
1258.59	0.212046
1261.49	0.281278
1264.38	0.256395
1267.27	0.118678
1270.16	0.167345
1273.06	0.00448
1275.95	0.168564
1278.84	0.098005
1281.73	0.234784
1284.63	0
