Measurement: Raman, 780 nm, unoriented, Raman Data Processed
Mineral: Leiteite
Rruff sample: R040011
Ideal chemistry: Zn^2+^As^3+^_2_O_4_
Locality: Tsumeb mine, Tsumeb, Otavi District, Oshikoto, Namibia
Source: Dave Bunk Minerals
Description: Transparent tan colored flexible lamellar crystal
Measured chemistry: Zn_1.00_As^3+^_2.00_O_4_
Raman shift (cm-1)	intensity
118.616	0
121.991	57.8575
125.365	277.327
128.74	91.2173
132.115	12.9605
135.49	45.8982
138.865	144.356
142.24	282.507
145.614	581.371
148.989	843.826
152.364	303.301
155.739	80.4049
159.114	73.1681
162.488	108.746
165.863	172.924
169.238	140.575
172.613	6.87164
175.988	25.9924
179.363	2.22611
182.737	13.3389
186.112	97.3977
189.487	141.189
192.862	122.882
196.237	220.256
199.612	632.787
202.986	715.698
206.361	866.741
209.736	1080.84
213.111	1558.09
216.486	2925.13
219.86	2737.84
223.235	509.441
226.61	78.1144
229.985	14.9164
233.36	22.3857
236.734	102.395
240.109	132.937
243.484	184.961
246.859	291.35
250.234	447.863
253.608	672.301
256.983	898.049
260.358	633.332
263.733	366.989
267.108	285.22
270.483	219.591
273.858	95.5356
277.232	36.8773
280.607	19.0746
283.982	16.9504
287.357	26.7491
290.731	35.8279
294.106	46.9359
297.481	53.0508
300.856	58.8206
304.231	49.0997
307.606	31.2617
310.98	5.22226
314.355	0.599258
317.73	4.79286
321.105	2.97986
324.48	4.72511
327.854	6.04129
331.229	2.52208
334.604	0.486649
337.979	2.371
341.354	12.9399
344.729	23.8857
348.103	55.6317
351.478	86.7957
354.853	104.358
358.228	139.348
361.603	171.468
364.978	208.604
368.352	205.799
371.727	145.283
375.102	136.504
378.477	160.802
381.852	73.3843
385.226	23.718
388.601	4.23778
391.976	2.93576
395.351	5.31513
398.726	3.05609
402.1	8.27747
405.475	21.7345
408.85	32.0084
412.225	54.7955
415.6	84.8607
418.974	117.309
422.349	160.037
425.724	228.761
429.099	332.845
432.474	491.8
435.849	783.627
439.223	1302.62
442.598	1950.22
445.973	2578.82
449.348	3428.2
452.723	4538
456.098	5734.45
459.472	5323.09
462.847	3096.87
466.222	1565.01
469.597	867.473
472.972	539.012
476.346	358.117
479.721	245.963
483.096	178.097
486.471	133.656
489.846	103.631
493.221	78.8326
496.595	57.3801
499.97	36.7754
503.345	18.8042
506.72	8.61513
510.095	2.08769
513.469	7.2945
516.844	7.36385
520.219	5.25224
523.594	1.44131
526.969	15.3625
530.343	46.0363
533.718	90.1446
537.093	127.325
540.468	178.353
543.843	263.865
547.217	372.511
550.592	343.952
553.967	177.041
557.342	88.6683
560.717	54.2792
564.092	52.9822
567.466	54.7748
570.841	54.4079
574.216	43.3843
577.591	41.6921
580.966	63.3807
584.341	142.766
587.715	240.443
591.09	304.488
594.465	430.811
597.84	621.308
601.215	863.245
604.589	597.7
607.964	187.145
611.339	59.3002
614.714	23.3446
618.089	7.07764
621.463	1.96277
624.838	0.077454
628.213	4.59291
631.588	2.40906
634.963	2.66731
638.338	3.00784
641.712	3.06198
645.087	11.4558
648.462	17.7239
651.837	13.123
655.212	3.77359
658.587	3.09825
661.961	5.37616
665.336	3.29463
668.711	3.15897
672.086	4.53407
675.461	6.36396
678.835	6.28948
682.21	5.125
685.585	2.9481
688.96	1.66967
692.335	1.41218
695.71	0.074883
699.084	1.05182
702.459	2.69569
705.834	1.53948
709.209	1.56446
712.583	0.381798
715.958	2.32356
719.333	0.669357
722.708	2.87643
726.083	1.82858
729.458	2.60526
732.832	3.55183
736.207	5.7082
739.582	12.0207
742.957	21.3293
746.332	27.5547
749.707	39.7498
753.081	56.8831
756.456	73.4389
759.831	91.9748
763.206	95.1893
766.581	80.9322
769.955	55.2951
773.33	39.3548
776.705	22.5526
780.08	18.8815
783.455	14.5342
786.83	16.1794
790.204	17.0399
793.579	30.2134
796.954	40.9005
800.329	54.4316
803.704	71.5814
807.078	74.7544
810.453	61.5665
813.828	32.0482
817.203	15.8405
820.578	6.75765
823.952	4.771
827.327	4.08973
830.702	1.80456
834.077	1.62324
837.452	2.30103
840.827	2.37569
844.201	0.847023
847.576	1.57099
850.951	4.20937
854.326	0.096199
857.701	0.720634
861.075	0.215675
864.45	1.59841
867.825	0.885452
871.2	1.13382
874.575	0.705635
877.949	3.71406
881.324	0.362778
884.699	1.59407
888.074	0.017555
891.449	1.41211
894.824	0.181099
898.198	1.55178
901.573	3.07426
904.948	4.12186
908.323	3.84891
911.698	1.90464
915.072	2.00047
918.447	1.01822
921.822	1.84038
925.197	2.08089
928.572	2.53883
931.947	0.78521
935.321	2.20516
938.696	2.93475
942.071	0.968277
945.446	1.677
948.821	2.89252
952.196	1.27493
955.57	0.952103
958.945	2.99837
962.32	1.42725
965.695	0.047821
969.069	2.83955
972.444	1.35055
975.819	2.94283
979.194	2.5396
982.569	0.884872
985.944	2.08334
989.318	1.94438
992.693	2.74297
996.068	0.789917
999.443	1.35769
1002.82	1.13291
1006.19	1.99639
1009.57	1.35684
1012.94	2.14109
1016.32	0.645592
1019.69	1.27853
1023.07	0.826912
1026.44	3.06347
1029.82	4.40564
1033.19	2.10599
1036.57	2.33579
1039.94	2.26849
1043.32	2.65372
1046.69	1.79584
1050.07	2.40949
1053.44	2.53448
1056.82	1.44367
1060.19	1.36296
1063.56	0.949738
1066.94	0.263306
1070.31	0.331688
1073.69	1.29852
1077.06	1.52476
1080.44	1.74567
1083.81	1.12472
1087.19	0.389534
1090.56	0.557816
1093.94	1.94373
1097.31	0.441101
1100.69	3.33877
1104.06	1.32371
1107.44	1.45287
1110.81	0.641861
1114.19	0.993858
1117.56	1.12635
1120.94	0.809265
1124.31	1.04256
1127.69	1.2981
1131.06	0.728401
1134.44	0.529053
1137.81	0.969467
1141.18	0.543579
1144.56	1.86511
1147.93	1.77446
1151.31	1.67992
1154.68	1.40885
1158.06	2.80907
1161.43	2.18996
1164.81	2.61449
1168.18	2.00877
1171.56	1.76311
1174.93	3.25152
1178.31	1.74545
1181.68	2.94845
1185.06	2.35757
1188.43	0.529808
1191.81	0.623024
1195.18	1.35916
1198.56	0.351662
1201.93	0.759392
1205.31	1.0803
1208.68	1.37319
1212.06	1.73821
1215.43	0.773727
1218.81	0.4673
1222.18	3.14627
1225.56	3.80839
1228.93	1.54167
1232.31	3.26632
1235.68	4.28636
1239.06	1.27557
1242.43	3.09622
1245.8	3.09724
1249.18	1.09128
1252.55	1.17274
1255.93	0.744164
1259.3	0.292778
1262.68	0.989777
1266.05	0.353279
1269.43	0.38166
1272.8	3.4487
1276.18	1.16608
1279.55	0.664757
