Measurement: Raman, 532 nm, unoriented, Raman Data Processed
Mineral: Leiteite
Rruff sample: R040011
Ideal chemistry: Zn^2+^As^3+^_2_O_4_
Locality: Tsumeb mine, Tsumeb, Otavi District, Oshikoto, Namibia
Source: Dave Bunk Minerals
Description: Transparent tan colored flexible lamellar crystal
Measured chemistry: Zn_1.00_As^3+^_2.00_O_4_
Raman shift (cm-1)	intensity
118.958	0
122.333	65.54
125.708	213.678
129.083	2.63708
132.458	1.44434
135.833	40.4128
139.207	116.038
142.582	251.677
145.957	685.28
149.332	1304.36
152.707	380.185
156.081	4.34247
159.456	4.33868
162.831	66.2006
166.206	288.785
169.581	253.166
172.956	48.9373
176.33	106.728
179.705	199.749
183.08	40.6608
186.455	71.1857
189.83	181.566
193.204	77.8074
196.579	126.934
199.954	440.429
203.329	520.272
206.704	587.381
210.078	650.063
213.453	1042.38
216.828	2122.87
220.203	2231.45
223.578	310.462
226.952	1.49725
230.327	29.4987
233.702	19.4738
237.077	229.021
240.452	368.678
243.827	520.453
247.201	745.097
250.576	1156.39
253.951	2139.46
257.326	2332.71
260.701	926.414
264.075	488.315
267.45	412.304
270.825	307.313
274.2	142.27
277.575	56.7309
280.95	45.3414
284.324	56.2336
287.699	62.417
291.074	81.9717
294.449	101.205
297.824	136.827
301.199	182.845
304.573	193.708
307.948	154.847
311.323	62.4182
314.698	27.0489
318.073	16.8582
321.447	3.38739
324.822	2.71252
328.197	1.02856
331.572	4.07178
334.947	0.937927
338.322	6.45361
341.696	2.92481
345.071	6.44293
348.446	14.1173
351.821	31.3943
355.195	46.9949
358.57	83.2119
361.945	141.948
365.32	247.227
368.695	270.035
372.07	155.33
375.444	118.203
378.819	106.522
382.194	45.8552
385.569	2.25928
388.944	9.20819
392.318	6.60822
395.693	6.33386
399.068	7.60803
402.443	29.2085
405.818	46.1749
409.193	90.962
412.567	149.174
415.942	230.121
419.317	325.712
422.692	468.087
426.067	646.493
429.442	907.316
432.816	1334.41
436.191	2064.16
439.566	3427.84
442.941	5339.1
446.316	7371.07
449.69	10008.2
453.065	14030.2
456.44	18665.2
459.815	17599.6
463.19	9914.31
466.565	4783.08
469.939	2595.78
473.314	1594.47
476.689	1057.49
480.064	721.071
483.438	518.341
486.813	373.642
490.188	289.639
493.563	216.052
496.938	156.066
500.313	101.732
503.687	61.6694
507.062	25.4901
510.437	4.85748
513.812	8.96155
517.187	17.2647
520.562	20.1837
523.936	9.59357
527.311	25.1841
530.686	126.598
534.061	284.529
537.436	451.409
540.81	687.81
544.185	1123.91
547.56	1629.49
550.935	1421.89
554.31	647.921
557.684	282.049
561.059	146.729
564.434	96.5422
567.809	73.3312
571.184	60.7221
574.559	38.1985
577.933	28.5834
581.308	40.3509
584.683	88.7268
588.058	166.77
591.433	233.151
594.807	364.98
598.182	639.977
601.557	872.852
604.932	531.342
608.307	144.882
611.682	40.457
615.056	5.73614
618.431	1.72125
621.806	7.12897
625.181	4.96314
628.556	0.27771
631.93	7.62
635.305	21.5879
638.68	27.9754
642.055	49.5529
645.43	73.3743
648.804	94.6393
652.179	67.5884
655.554	35.2629
658.929	22.172
662.304	22.3609
665.679	19.045
669.053	17.0496
672.428	25.7192
675.803	23.8585
679.178	13.9149
682.553	16.97
685.928	3.80469
689.302	3.16406
692.677	2.2124
696.052	0.605652
699.427	0.963074
702.802	1.75421
706.176	2.19543
709.551	4.12976
712.926	6.06665
716.301	0.310608
719.676	6.60407
723.051	7.10736
726.425	12.5371
729.8	16.6085
733.175	26.575
736.55	34.3603
739.925	47.7922
743.299	73.5828
746.674	109.958
750.049	167.373
753.424	225.988
756.799	298.517
760.173	374.86
763.548	422.361
766.923	355.57
770.298	259.55
773.673	177.999
777.048	140.505
780.422	109.382
783.797	100.011
787.172	87.863
790.547	107.643
793.922	139.299
797.296	174.634
800.671	226.309
804.046	292.325
807.421	290.186
810.796	205.967
814.17	112.945
817.545	51.0919
820.92	30.3591
824.295	18.7545
827.67	11.9318
831.045	5.12262
834.419	7.60644
837.794	2.0968
841.169	0.062195
844.544	2.6955
847.919	5.073
851.293	1.6521
854.668	0.344055
858.043	2.81531
861.418	3.26154
864.793	1.2818
868.168	0.418701
871.542	3.67615
874.917	0.916382
878.292	0.583557
881.667	2.12225
885.042	3.43426
888.416	8.29065
891.791	12.3411
895.166	6.8844
898.541	7.23907
901.916	9.82312
905.29	13.3449
908.665	10.5328
912.04	17.1011
915.415	13.9183
918.79	9.16919
922.165	18.0632
925.539	13.0203
928.914	14.579
932.289	15.3966
935.664	17.9463
939.039	9.76099
942.413	5.70319
945.788	2.81384
949.163	12.5358
952.538	5.13367
955.913	5.79419
959.288	4.96631
962.662	2.89093
966.037	8.58051
969.412	4.40393
972.787	3.26294
976.162	3.29407
979.537	3.54181
982.911	4.06647
986.286	0.745911
989.661	1.11939
993.036	3.51843
996.41	0.587158
999.785	2.53546
1003.16	0.266724
1006.53	0.081665
1009.91	1.06628
1013.28	0.056274
1016.66	3.75751
1020.03	3.90173
1023.41	5.78613
1026.78	7.55518
1030.16	6.07519
1033.53	3.48822
1036.91	8.73016
1040.28	11.7825
1043.66	11.9235
1047.03	8.94574
1050.41	10.3023
1053.78	10.343
1057.16	7.35217
1060.53	14.8801
1063.91	7.32092
1067.28	11.7675
1070.66	12.1559
1074.03	10.1166
1077.41	13.5447
1080.78	10.6722
1084.16	9.1294
1087.53	17.4331
1090.9	12.0515
1094.28	14.8807
1097.65	10.1142
1101.03	15.9945
1104.4	9.23596
1107.78	12.7317
1111.15	4.35016
1114.53	10.6179
1117.9	5.62213
1121.28	8.33997
1124.65	9.49469
1128.03	11.826
1131.4	6.06305
1134.78	1.4812
1138.15	7.08563
1141.53	3.88892
1144.9	4.97601
1148.28	0.247864
1151.65	6.38708
1155.03	5.24689
1158.4	3.92682
1161.78	1.73212
1165.15	4.9754
1168.53	1.85644
1171.9	1.56268
1175.28	2.01257
1178.65	4.65198
1182.03	0.021851
1185.4	2.48352
1188.78	1.35602
1192.15	0.750916
1195.53	1.70398
1198.9	7.89624
1202.27	5.43219
1205.65	8.02551
1209.02	6.60065
1212.4	1.38422
1215.77	6.54126
1219.15	3.69421
1222.52	8.80914
1225.9	5.586
1229.27	8.49097
1232.65	2.08368
1236.02	12.3231
1239.4	8.20526
1242.77	11.2203
1246.15	13.5482
1249.52	7.77411
1252.9	3.81079
1256.27	9.96643
1259.65	9.39197
1263.02	2.56439
1266.4	5.15533
1269.77	4.23022
1273.15	3.52655
1276.52	6.90424
1279.89	3.81238
1283.27	0.619873
1286.64	0.198181
1290.02	2.58356
