Measurement: Raman, 514 nm, unoriented, Raman Data Processed
Mineral: Leiteite
Rruff sample: R040011
Ideal chemistry: Zn^2+^As^3+^_2_O_4_
Locality: Tsumeb mine, Tsumeb, Otavi District, Oshikoto, Namibia
Source: Dave Bunk Minerals
Description: Transparent tan colored flexible lamellar crystal
Measured chemistry: Zn_1.00_As^3+^_2.00_O_4_
Raman shift (cm-1)	intensity
59.863	0
64.059	16.979
68.253	0.842
72.445	48.659
76.635	230.228
80.823	686.326
85.009	734.442
89.193	479.964
93.375	419.147
97.554	379.471
101.732	424.197
105.908	397.195
110.082	481.629
114.254	682.027
118.424	1296.1
122.592	1762.64
126.758	1261.62
130.922	839.79
135.083	1009.7
139.243	2025.87
143.401	6304.32
147.557	8448.51
151.711	3885.51
155.863	1957.6
160.013	2498.94
164.161	4431.61
168.308	3125.67
172.452	1543.15
176.594	987.048
180.734	842.385
184.872	798.151
189.008	775.686
193.143	918.97
197.275	1511.36
201.405	2590.96
205.534	2492.22
209.66	4014.96
213.784	18077.1
217.907	27133.7
222.027	9702.76
226.146	2800.57
230.263	1005.58
234.377	671.554
238.49	499.811
242.601	444.332
246.709	613.86
250.816	1354.24
254.921	1765.35
259.024	1836.11
263.125	3076.45
267.224	3847.3
271.321	1622.61
275.416	628.353
279.51	326.494
283.601	296.012
287.69	265.888
291.778	285.098
295.863	193.588
299.947	185.324
304.029	109.299
308.108	68.512
312.186	50.037
316.262	49.398
320.336	42.621
324.408	82.717
328.478	69.739
332.546	70.687
336.612	38.533
340.677	36.241
344.739	24.562
348.799	80.937
352.858	236.866
356.915	644.79
360.969	1947.66
365.022	3770.5
369.073	2758.48
373.122	1523.72
377.169	1172.26
381.215	693.049
385.258	492.117
389.299	487.493
393.339	465.321
397.376	478.544
401.412	515.155
405.446	619.053
409.478	670.223
413.508	813.667
417.536	992.259
421.562	1268.36
425.586	1685.57
429.609	2129
433.629	2840.64
437.648	3958.48
441.665	6075.53
445.68	10440.8
449.693	20980.2
453.704	42378.8
457.713	52540.6
461.721	32489.6
465.726	15013.8
469.73	7720.12
473.731	4608.32
477.731	3160.42
481.729	2255.89
485.725	1722.04
489.72	1477.17
493.712	1255.83
497.703	1028.97
501.691	833.052
505.678	636.056
509.663	485.36
513.646	434.675
517.627	340.974
521.607	289.814
525.584	334.162
529.56	398.776
533.534	451.605
537.506	533.368
541.476	809.349
545.444	1342.08
549.41	1279.47
553.375	724.426
557.337	506.918
561.298	413.745
565.257	469.906
569.214	451.367
573.17	455.887
577.123	420.167
581.075	548.857
585.024	747.569
588.972	1264.94
592.918	2698.36
596.863	8289.83
600.805	15592.3
604.746	8386.87
608.685	2582.44
612.621	989.033
616.557	493.647
620.49	309.28
624.421	227.925
628.351	152.581
632.279	148.257
636.205	241.016
640.129	169.901
644.051	190.92
647.972	87.108
651.89	68.455
655.807	9.923
659.722	4.438
663.636	6.059
667.547	54.677
671.457	10.253
675.365	29.253
679.271	44.05
683.175	62.877
687.077	10.146
690.978	6.518
694.877	30.447
698.774	5.425
702.669	38.118
706.562	21.15
710.454	36.583
714.344	21.767
718.232	56.387
722.118	29.883
726.002	31.355
729.885	20.465
733.766	61.386
737.645	35.698
741.522	133.95
745.397	147.179
749.271	164.181
753.143	205.764
757.013	347.953
760.881	434.648
764.748	463.238
768.613	517.722
772.476	351.102
776.337	253.385
780.196	239.573
784.054	244.669
787.91	234.64
791.764	205.929
795.616	194.316
799.467	377.95
803.316	422.741
807.163	428.539
811.008	344.004
814.851	214.448
818.693	93.343
822.533	66.011
826.371	60.028
830.208	73.034
834.042	51.36
837.875	27.472
841.706	18.163
845.536	20.52
849.363	56.18
853.189	57.97
857.013	46.789
860.836	30.531
864.656	21.688
868.475	18.52
872.292	19.177
876.108	20.226
879.922	64.316
883.733	6.419
887.544	50.921
891.352	39.848
895.159	75.443
898.964	96.953
902.767	30.382
906.568	67.729
910.368	69.797
914.166	71.191
917.962	72.351
921.757	69.568
925.55	126.167
929.341	59.652
933.13	51.687
936.918	97.865
940.703	88.825
944.488	6.153
948.27	49.899
952.051	29.59
955.83	23.416
959.607	37.367
963.383	25.007
967.156	3.303
970.928	46.552
974.699	55.862
978.468	72.92
982.234	11.138
986	17.331
989.763	26.167
993.525	113.256
997.285	90.132
1001.04	7.76
1004.8	68.329
1008.55	81.076
1012.31	79.898
1016.06	22.974
1019.81	78.778
1023.56	82.236
1027.31	101.996
1031.05	95.09
1034.79	63.514
1038.53	111.819
1042.27	119.026
1046.01	161.335
1049.75	77.716
1053.48	96.007
1057.22	100.163
1060.95	46.543
1064.68	82.27
1068.4	57.178
1072.13	12.125
1075.86	36.057
1079.58	32.463
1083.3	25.645
1087.02	65.45
1090.74	23.284
1094.45	6.063
1098.17	21.353
1101.88	58.674
1105.59	26.766
1109.3	32.875
1113.01	40.909
1116.71	78.654
1120.42	29.889
1124.12	39.299
1127.82	34.246
1131.52	47.08
1135.22	99.759
1138.91	8.546
1142.61	47.402
1146.3	30.467
1149.99	58.511
1153.68	60.66
1157.37	76.071
1161.06	43.371
1164.74	68.194
1168.42	49.975
1172.1	41.142
1175.78	39.561
1179.46	53.974
1183.14	41.374
1186.81	57.248
1190.48	48.148
1194.15	82.038
1197.83	48.756
1201.49	92.99
1205.16	11.409
1208.82	66.906
1212.49	19.045
1216.15	23.876
1219.81	18.149
1223.46	35.414
1227.12	21.728
1230.78	20.555
1234.43	24
1238.08	68.23
1241.73	53.309
1245.38	96.342
1249.03	62.672
1252.67	63.31
1256.31	90.134
1259.95	84.97
1263.6	28.058
1267.23	49.905
1270.87	75.753
1274.51	134.472
1278.14	123.989
1281.77	69.523
1285.4	36.199
1289.03	37.613
1292.66	92.316
1296.28	14.52
1299.91	74.561
1303.53	95.576
1307.15	1.49
1310.77	4.41
1314.38	1.796
1318	54.877
1321.61	88.624
1325.23	36.979
1328.84	75.436
1332.45	116.739
1336.06	103.669
1339.66	41.267
1343.27	66.078
1346.87	61.254
1350.47	81.073
1354.07	206.144
1357.67	0.647
1361.26	57.708
1364.86	61.179
1368.45	110.995
1372.04	34.336
1375.63	73.558
1379.22	129.209
1382.81	136.521
1386.39	160.044
1389.98	185.267
1393.56	159.45
1397.14	95.322
1400.72	278.034
1404.3	132.258
1407.87	192.536
1411.45	92.759
1415.02	99.839
1418.59	194.18
1422.16	156.753
1425.73	139.317
1429.29	136.192
1432.86	191.07
1436.42	187.65
1439.98	179.102
1443.54	150.565
1447.1	95.37
1450.66	170.851
1454.21	141.854
1457.77	114.708
1461.32	140.416
1464.87	81.964
1468.42	166.001
1471.96	134.287
1475.51	156.987
1479.06	104.026
1482.6	97.509
1486.14	71.284
1489.68	116.245
1493.22	47.454
1496.75	96.589
1500.29	151.943
1503.82	118.483
1507.35	162.134
1510.88	131.435
1514.41	78.625
1517.94	98.542
1521.46	0
