Measurement: Raman, 532 nm, unoriented, Raman Data Processed
Mineral: Lemmleinite-Ba
Rruff sample: R110017
Ideal chemistry: Na_4_K_4_Ba_2+x_Ti_8_(Si_4_O_12_)_4_(O,OH)_8_8H_2_O
Locality: Partomchorr Mt., Khibiny Massif, Kola, Russia
Source: Ray Grant
Description: Reddish orange bladed crystals associated with white natrolite
Raman shift (cm-1)	intensity
190.833	0
193.726	0.085205
196.619	0.358459
199.512	5.0907
202.404	14.9487
205.297	25.9918
208.19	45.5021
211.082	62.0009
213.975	64.0373
216.868	61.1898
219.761	48.5774
222.653	36.7789
225.546	19.9711
228.439	17.7013
231.331	19.7864
234.224	22.1417
237.117	26.8118
240.009	28.7548
242.902	23.7756
245.795	10.5289
248.688	5.44714
251.58	6.68744
254.473	4.05005
257.366	0.362061
260.258	21.8735
263.151	38.7804
266.044	57.4836
268.936	71.0061
271.829	83.8452
274.722	90.5444
277.615	95.9975
280.507	97.1509
283.4	96.8179
286.293	105.337
289.185	117.332
292.078	111.712
294.971	109.364
297.863	111.688
300.756	113.565
303.649	118.4
306.541	116.437
309.434	119.493
312.327	107.53
315.22	102.291
318.112	90.9773
321.005	83.041
323.898	78.6251
326.791	85.8741
329.683	94.0491
332.576	104.618
335.469	122.769
338.361	141.191
341.254	166.956
344.147	195.138
347.039	202.021
349.932	207.082
352.825	194.185
355.717	173.741
358.61	136.001
361.503	100.705
364.396	58.8608
367.288	32.2349
370.181	12.6692
373.074	2.04233
375.966	8.95856
378.859	13.3841
381.752	13.2612
384.644	5.77246
387.537	3.34824
390.43	4.4668
393.323	17.9831
396.215	29.33
399.108	42.9644
402.001	51.4431
404.894	60.1407
407.786	56.9222
410.679	39.2734
413.572	27.7361
416.464	14.1287
419.357	6.2894
422.25	5.57709
425.142	15.1452
428.035	33.0454
430.928	53.3343
433.82	85.2575
436.713	116.076
439.606	158.546
442.499	209.005
445.391	241.324
448.284	253.653
451.177	219.56
454.069	158.895
456.962	97.2484
459.855	43.7045
462.748	12.7503
465.64	6.24841
468.533	22.6995
471.426	58.1141
474.318	127.206
477.211	215.329
480.104	335.743
482.996	491.196
485.889	683.015
488.782	873.994
491.675	904.782
494.567	687.539
497.46	396.995
500.353	201.836
503.245	104.036
506.138	64.8585
509.031	61.3689
511.923	91.7366
514.816	140.259
517.709	214.836
520.602	311.905
523.494	429.841
526.387	546.788
529.28	616.558
532.172	632.592
535.065	564.694
537.958	435.999
540.851	309.765
543.743	200.862
546.636	125.913
549.529	77.387
552.421	46.1651
555.314	18.7673
558.207	12.2061
561.099	0.902649
563.992	4.93439
566.885	5.60846
569.778	4.38086
572.67	4.65906
575.563	6.82501
578.456	2.16321
581.348	8.71283
584.241	8.69434
587.134	15.8469
590.027	16.7127
592.919	15.8028
595.812	12.7501
598.705	18.1751
601.597	19.9922
604.49	23.1396
607.383	21.2834
610.275	23.2114
613.168	23.1225
616.061	21.3784
618.953	16.4772
621.846	11.5499
624.739	7.50729
627.632	3.905
630.524	3.45401
633.417	3.02628
636.31	0.309235
639.202	1.67407
642.095	0.838226
644.988	0.566833
647.881	4.03735
650.773	3.11938
653.666	1.58234
656.559	6.172
659.451	7.46484
662.344	12.8813
665.237	16.5808
668.13	16.9098
671.022	28.8201
673.915	30.5131
676.808	29.953
679.7	29.791
682.593	28.9846
685.486	24.0495
688.378	21.0469
691.271	19.0745
694.164	13.8333
697.057	14.4123
699.949	12.6476
702.842	11.0868
705.735	13.2223
708.627	12.9519
711.52	12.0744
714.413	16.0317
717.305	25.1685
720.198	22.6886
723.091	29.5549
725.984	31.0018
728.876	39.4812
731.769	45.7441
734.662	59.3361
737.554	65.8253
740.447	71.1486
743.34	72.1368
746.232	76.6784
749.125	86.4373
752.018	93.6899
754.91	98.3037
757.803	100.489
760.696	102.308
763.589	105.776
766.481	106.449
769.374	106.9
772.267	105.29
775.159	102.113
778.052	102.022
780.945	108.847
783.838	106.895
786.73	107.976
789.623	98.0787
792.516	91.0207
795.408	78.7078
798.301	65.0379
801.194	54.2853
804.087	45.6285
806.979	35.2716
809.872	23.3095
812.765	20.6245
815.657	10.8699
818.55	10.3019
821.443	8.87418
824.335	3.64548
827.228	1.59354
830.121	0.334106
833.014	1.22043
835.906	4.06418
838.799	6.67084
841.692	5.7731
844.584	3.65128
847.477	1.15674
850.37	2.5997
853.263	6.07651
856.155	17.5856
859.048	25.3693
861.941	43.6121
864.833	74.7604
867.726	123.678
870.619	194.149
873.511	282.38
876.404	408.937
879.297	540.068
882.189	653.867
885.082	702.884
887.975	656.438
890.868	552.183
893.76	437.991
896.653	344.677
899.546	280.827
902.438	238.883
905.331	214.173
908.224	203.828
911.116	188.12
914.009	176.022
916.902	153.725
919.795	131.285
922.687	113.547
925.58	106.37
928.473	94.6607
931.365	96.3561
934.258	110.505
937.151	129.377
940.044	152.362
942.936	177.915
945.829	216.716
948.722	252.19
951.614	285.449
954.507	317.577
957.4	335.237
960.293	342.495
963.185	319.276
966.078	269.7
968.971	195.284
971.863	128.958
974.756	69.0486
977.649	35.9499
980.541	19.8081
983.434	8.93686
986.327	1.63864
989.22	0.694336
992.112	0.446106
995.005	7.1745
997.898	1.56189
1000.79	2.20044
1003.68	5.42047
1006.58	1.63959
1009.47	0.143372
1012.36	4.26669
1015.25	12.5758
1018.15	18.697
1021.04	33.9849
1023.93	53.0507
1026.83	74.5226
1029.72	105.658
1032.61	129.138
1035.5	156.491
1038.4	189.359
1041.29	217.501
1044.18	241.605
1047.07	249.007
1049.97	240.884
1052.86	209.348
1055.75	170.499
1058.64	137.277
1061.54	103.486
1064.43	85.8661
1067.32	66.4132
1070.21	51.3782
1073.11	39.392
1076	30.2877
1078.89	22.0099
1081.79	17.2887
1084.68	12.9721
1087.57	10.2639
1090.46	8.07739
1093.36	7.47989
1096.25	2.65231
1099.14	2.04236
1102.04	3.74237
1104.93	5.23355
1107.82	0.218872
1110.71	2.72931
1113.61	4.33627
1116.5	3.81174
1119.39	3.00678
1122.28	1.06696
1125.18	2.76398
1128.07	1.39682
1130.96	5.45486
1133.86	0.572845
1136.75	2.51495
1139.64	2.38995
1142.53	1.76651
1145.43	4.51126
1148.32	2.74973
1151.21	2.09949
1154.1	2.02039
1157	3.50775
1159.89	2.6514
1162.78	4.2554
1165.67	5.17209
1168.57	7.58667
1171.46	5.34454
1174.35	6.80795
1177.24	5.90384
1180.14	8.25797
1183.03	11.5607
1185.92	2.95941
1188.82	6.4483
1191.71	4.28934
1194.6	3.54752
1197.49	8.36942
1200.39	9.96814
1203.28	4.83398
1206.17	8.53006
1209.07	2.72757
1211.96	0.395081
1214.85	3.03003
1217.74	0.239288
1220.64	3.17554
1223.53	2.11597
1226.42	3.09482
1229.31	1.73132
1232.21	2.33756
1235.1	4.27368
1237.99	1.10205
1240.88	2.04785
1243.78	2.63788
1246.67	0.01123
1249.56	1.40259
1252.45	4.32678
1255.35	3.45398
1258.24	1.44977
1261.13	2.3432
1264.03	1.82184
1266.92	1.46759
1269.81	0.464294
1272.7	2.07288
1275.6	0.145081
1278.49	1.96942
1281.38	7.69067
1284.28	4.17316
1287.17	0.248718
1290.06	4.57568
1292.95	3.77014
1295.85	3.68634
1298.74	5.13385
1301.63	1.36993
