Measurement: Raman, 532 nm, unoriented, Raman Data Processed
Mineral: Lemmleinite-Ba
Rruff sample: R070650
Ideal chemistry: Na_4_K_4_Ba_2+x_Ti_8_(Si_4_O_12_)_4_(O,OH)_8_8H_2_O
Locality: Diamond Jo Quarry, Magnet Cove, Hot Spring County, Arkansas, USA
Source: Michael Scott
Description: Orange tabular crystals associated with colorless acicular pectolite
Measured chemistry: (Na_3.92_Ca_0.08_)_Σ=4_(K_3.79_Na_0.21_)_Σ=4_(Ba_1.52_K_0.44_Fe^2+^_0.33_)_Σ=2.29_(Ti_7.80_Fe^3+^_0.20_)_Σ=8_(Si_4.00_O_12_)_4_((OH)_4.18_O_3.82_)_Σ=8_·13.53H_2_O ; = darker phase
Raman shift (cm-1)	intensity
156.413	0
159.306	1.99609
162.198	213.805
165.091	282.442
167.984	256.357
170.876	399.412
173.769	74.6406
176.662	71.1543
179.554	145.502
182.447	395.541
185.34	669.119
188.233	875.299
191.125	1119
194.018	1589.8
196.911	1740.48
199.803	2193.65
202.696	2733.99
205.589	3201.76
208.482	3406.86
211.374	3647
214.267	3162.22
217.16	2598.86
220.052	2337.05
222.945	2162.29
225.838	1799.42
228.73	1648.53
231.623	1197.18
234.516	970.014
237.408	809.777
240.301	592.1
243.194	442.691
246.087	379.654
248.979	194.777
251.872	13.291
254.765	7.73438
257.657	181.754
260.55	143.445
263.443	302.637
266.335	377.805
269.228	353.664
272.121	323.281
275.014	458.191
277.906	577.422
280.799	754.027
283.692	706.719
286.584	718.32
289.477	876.695
292.37	867.668
295.262	724.684
298.155	607.387
301.048	513.148
303.94	645.047
306.833	679.535
309.726	610.164
312.619	511.5
315.511	602.754
318.404	639.637
321.297	795.481
324.189	1513.69
327.082	1481.85
329.975	1939.34
332.868	2283.33
335.76	2525.64
338.653	3224.48
341.546	3122.05
344.438	3397.62
347.331	3240.27
350.224	3370.07
353.116	3113.77
356.009	2984.77
358.902	2007.27
361.795	1599.69
364.687	925.926
367.58	443.809
370.473	121.945
373.365	213.949
376.258	256.797
379.151	47.6289
382.043	0.890625
384.936	7.98438
387.829	154.062
390.721	160.941
393.614	192.098
396.507	587.238
399.4	800.957
402.292	897.453
405.185	894.102
408.078	788.543
410.97	572.879
413.863	523.848
416.756	629.629
419.649	670.266
422.541	1054.52
425.434	1404.9
428.327	2073.3
431.219	2363.29
434.112	2985.82
437.005	3783.06
439.897	4314.28
442.79	4994.44
445.683	5598.31
448.575	5493.18
451.468	5187.22
454.361	4224.83
457.254	3190.72
460.146	3077.53
463.039	2500.52
465.932	2590.18
468.824	3660.31
471.717	4990.09
474.61	7284.73
477.502	9236.93
480.395	11402.9
483.288	13926.3
486.181	16559.7
489.073	16967.2
491.966	13983.4
494.859	8940.22
497.751	5207.01
500.644	2577.75
503.537	1213.73
506.43	580.246
509.322	698.238
512.215	1266.19
515.107	2272.75
518	3871.02
520.893	5397.86
523.786	7605.74
526.678	9176.86
529.571	9910.89
532.464	9439.75
535.356	7935.51
538.249	5797.33
541.142	4327.14
544.034	3090.58
546.927	2381.66
549.82	1726.54
552.713	1013.74
555.605	720.356
558.498	172.098
561.391	146.547
564.283	61.1055
567.176	187.133
570.069	122.866
572.962	89.3672
575.854	260.731
578.747	43.6016
581.64	97.9141
584.532	260.754
587.425	113.508
590.318	20.5742
593.21	40.7891
596.103	177.398
598.996	42.1289
601.889	279.953
604.781	485.578
607.674	657.641
610.567	816.758
613.459	890.609
616.352	743.598
619.245	557.672
622.138	33.6602
625.03	11.2578
627.923	92.0547
630.816	17.2578
633.708	255.941
636.601	122.316
639.494	71.5938
642.386	102.805
645.279	284.691
648.172	214.59
651.064	425.199
653.957	196.051
656.85	37.7812
659.743	9.01953
662.635	448.309
665.528	706.231
668.421	661.719
671.313	737.219
674.206	790.609
677.099	843.82
679.991	906.484
682.884	930.938
685.777	830.797
688.669	1238.25
691.562	1147.81
694.455	1388.07
697.348	1617.34
700.24	1955
703.133	1873.53
706.026	2168.41
708.918	2240.74
711.811	2560.77
714.704	2868.41
717.596	3099.25
720.489	3315.09
723.382	3405.3
726.275	3416.38
729.167	3632.91
732.06	3656.2
734.953	3713.9
737.845	3548.87
740.738	3534.84
743.631	3365.59
746.524	3311.53
749.416	2933.75
752.309	2882.33
755.202	3129.16
758.094	2813.01
760.987	2813.69
763.88	2577.88
766.772	2469.73
769.665	2250.95
772.558	2356.2
775.451	2557.14
778.343	2440.25
781.236	2110.56
784.129	2475.84
787.021	2016.13
789.914	2045.4
792.807	2198.63
795.699	1919.52
798.592	1918.45
801.485	1558.82
804.378	1192.04
807.27	1217.48
810.163	797.953
813.056	747.469
815.948	859.039
818.841	606.109
821.734	276.867
824.626	373.852
827.519	298.109
830.412	95.8281
833.304	75.4531
836.197	20.1484
839.09	59.6016
841.982	134.375
844.875	58.0391
847.768	321.867
850.661	410.242
853.553	47.7266
856.446	34.2031
859.339	235.094
862.231	451.289
865.124	1233.29
868.017	2222.08
870.909	3445.8
873.802	5379.21
876.695	7443.55
879.588	9511.8
882.48	10468.8
885.373	10110.1
888.266	8783.9
891.158	6463.24
894.051	4488.45
896.944	3145.73
899.837	2181.77
902.729	1602.95
905.622	1505.67
908.515	1483.76
911.407	916.398
914.3	504.633
917.193	138.844
920.085	180.219
922.978	158.602
925.871	107.391
928.764	176.383
931.656	147.852
934.549	310.766
937.442	159.273
940.334	312.398
943.227	635.68
946.12	1137.22
949.013	1486.11
951.905	1946.61
954.798	2648.75
957.691	3160.51
960.583	3239.32
963.476	3288.95
966.369	2624.65
969.261	2101.14
972.154	1267.3
975.047	970.227
977.939	951.609
980.832	574.859
983.725	443.172
986.618	292.93
989.51	301.422
992.403	365.401
995.296	384.117
998.188	516.829
1001.08	959.031
1003.97	982.484
1006.87	1414.66
1009.76	1507.34
1012.65	1514.31
1015.54	1782.12
1018.44	2277.07
1021.33	2980.6
1024.22	3461.16
1027.12	3733.65
1030.01	4662.99
1032.9	5172.1
1035.79	5669.79
1038.69	6172.42
1041.58	6357.86
1044.47	6246.16
1047.36	5627.52
1050.26	5054.6
1053.15	4902.48
1056.04	4240.73
1058.93	3926.07
1061.83	3519.03
1064.72	3262.1
1067.61	2938.01
1070.51	2536.81
1073.4	2594.19
1076.29	2752.71
1079.18	2585.59
1082.08	2358.09
1084.97	1862.05
1087.86	2219.71
1090.76	1517.3
1093.65	1575.66
1096.54	1329.51
1099.43	1128.12
1102.33	1587.17
1105.22	1146.03
1108.11	666.508
1111	536.195
1113.9	514.07
1116.79	526.125
1119.68	851.703
1122.57	563.82
1125.47	249.523
1128.36	61.9375
1131.25	252.297
1134.14	134.711
1137.04	2.42188
1139.93	243.922
1142.82	282.719
1145.72	60.3047
1148.61	264.086
1151.5	12.7188
1154.39	273.656
1157.29	24.8594
1160.18	156.078
1163.07	195.057
1165.96	28.6797
1168.86	253.805
1171.75	79.4688
1174.64	59.8516
1177.54	288.242
1180.43	245.828
1183.32	108.648
1186.21	116.539
1189.11	351
1192	159.883
1194.89	552.906
1197.79	290.742
1200.68	184.906
1203.57	407.516
1206.46	866.148
1209.36	499.992
1212.25	552.383
1215.14	582.266
1218.03	667.227
1220.93	164.008
1223.82	561.477
1226.71	448.32
1229.6	532.906
1232.5	340.531
1235.39	423.281
1238.28	568.211
1241.17	747.562
1244.07	1129.11
1246.96	782.758
1249.85	830.906
1252.75	1104.97
1255.64	663.758
1258.53	829.539
1261.42	1195.55
1264.32	1284.13
1267.21	904.227
1270.1	784.633
1272.99	411.703
1275.89	666.242
1278.78	1367.39
1281.67	1074.12
1284.57	1342.55
1287.46	746.07
1290.35	854.148
1293.24	327.539
1296.14	370.281
1299.03	418.867
1301.92	134.484
1304.81	0
