Measurement: Raman, 780 nm, unoriented, Raman Data Processed
Mineral: Lemmleinite-Ba
Rruff sample: R070650
Ideal chemistry: Na_4_K_4_Ba_2+x_Ti_8_(Si_4_O_12_)_4_(O,OH)_8_8H_2_O
Locality: Diamond Jo Quarry, Magnet Cove, Hot Spring County, Arkansas, USA
Source: Michael Scott
Description: Orange tabular crystals associated with colorless acicular pectolite
Measured chemistry: (Na_3.92_Ca_0.08_)_Σ=4_(K_3.79_Na_0.21_)_Σ=4_(Ba_1.52_K_0.44_Fe^2+^_0.33_)_Σ=2.29_(Ti_7.80_Fe^3+^_0.20_)_Σ=8_(Si_4.00_O_12_)_4_((OH)_4.18_O_3.82_)_Σ=8_·13.53H_2_O ; = darker phase
Raman shift (cm-1)	intensity
137.634	0
140.527	173.453
143.419	174.543
146.312	245.457
149.205	318.289
152.097	1.35938
154.99	108.977
157.883	466.227
160.775	552.359
163.668	625.012
166.561	878.938
169.454	639.992
172.346	333.566
175.239	157.551
178.132	3.85547
181.024	81.9648
183.917	463.305
186.81	693.762
189.702	410.016
192.595	846.844
195.488	1688.16
198.381	2481.83
201.273	3484.95
204.166	4238.16
207.059	5115.56
209.951	5753.74
212.844	5875.49
215.737	5733.82
218.63	5096.42
221.522	4608.94
224.415	3807.15
227.308	3205.47
230.2	2715.81
233.093	2333.11
235.986	1905.65
238.878	1206.84
241.771	857.656
244.664	630.359
247.556	485.648
250.449	37.0586
253.342	80.2734
256.235	40.9961
259.127	118.133
262.02	40.4688
264.913	88.6387
267.805	490.246
270.698	848.65
273.591	913.635
276.483	1076.1
279.376	1328.58
282.269	1670.7
285.162	1864.35
288.054	2147.95
290.947	2122.36
293.84	1947.41
296.733	1910.66
299.625	1936.35
302.518	2069.15
305.411	2203.69
308.303	2106.79
311.196	2008.28
314.089	1683.52
316.981	1759.56
319.874	1343.23
322.767	1829.53
325.659	2261.22
328.552	3105.51
331.445	4542.79
334.338	5505.38
337.23	6555.36
340.123	7317.27
343.016	7128.17
345.908	7054.52
348.801	7072.36
351.694	7095.51
354.587	6703.81
357.479	6073.85
360.372	4324.85
363.265	2584.06
366.157	1526.18
369.05	641.361
371.943	73.2617
374.835	60.668
377.728	142.418
380.621	199.387
383.514	289.641
386.406	477.119
389.299	290.037
392.192	92.6621
395.084	485.496
397.977	1010.7
400.87	1290.17
403.762	1518.54
406.655	1636.73
409.548	1173.65
412.44	1057.54
415.333	960.266
418.226	1091.6
421.119	1334.66
424.011	1806.36
426.904	2473.16
429.797	3264.34
432.689	4189.5
435.582	5046.68
438.475	6031.57
441.368	6929.37
444.26	7645.02
447.153	7778.27
450.046	7662.16
452.938	6741.73
455.831	5124.32
458.724	3652.95
461.616	2558.75
464.509	2136.34
467.402	2185.15
470.295	3055.97
473.187	4812.92
476.08	6686.48
478.973	9424.27
481.865	13201.2
484.758	17972.8
487.651	22034.8
490.543	21688.5
493.436	16457.9
496.329	10105.3
499.221	5838.78
502.114	3245.29
505.007	1683.31
507.9	884.277
510.792	791.074
513.685	1373.86
516.578	2141.54
519.471	4005.21
522.363	6408.4
525.256	8712.4
528.149	10828.3
531.041	11290.9
533.934	9971.87
536.827	7719.93
539.719	5529.58
542.612	3856.04
545.505	2532.82
548.398	1714.82
551.29	1090.89
554.183	587.711
557.076	301.656
559.968	52.5117
562.861	84.4922
565.754	132.938
568.646	284.316
571.539	174.188
574.432	302.606
577.324	145.473
580.217	39.1016
583.11	53.5117
586.003	104.672
588.895	40.1133
591.788	150.574
594.681	215.676
597.573	365.047
600.466	733.809
603.359	1022.89
606.251	1360.35
609.144	1659.24
612.037	2017.17
614.93	1935.64
617.822	1160.34
620.715	772.094
623.608	290.508
626.5	12.3516
629.393	114.316
632.286	10.6797
635.178	77.5391
638.071	145.109
640.964	301.391
643.857	505.91
646.749	1208.27
649.642	1862.97
652.535	2001.94
655.427	1520.17
658.32	1057.32
661.213	909.223
664.106	620.688
666.998	767.379
669.891	998.012
672.784	901.148
675.676	916.387
678.569	754.699
681.462	796.402
684.354	587.953
687.247	357.281
690.14	244.231
693.033	76.8438
695.925	188.953
698.818	206.559
701.711	604.188
704.603	684.254
707.496	909.559
710.389	1199.99
713.281	1650.65
716.174	1929.68
719.067	2075.27
721.96	2255.22
724.852	2331.13
727.745	2231.79
730.638	2299.54
733.53	2208.66
736.423	2349.81
739.316	2284.47
742.208	1978.56
745.101	2089.34
747.994	1804
750.886	1812.82
753.779	1549.4
756.672	1346.27
759.565	1458.02
762.457	1313.69
765.35	1278.02
768.243	1268.07
771.135	1106.86
774.028	1029
776.921	1145.23
779.813	1412.5
782.706	1538.94
785.599	1723.7
788.492	1432.66
791.384	1162.84
794.277	854.57
797.17	557.141
800.062	494.957
802.955	476.535
805.848	328.715
808.74	79.9727
811.633	329.617
814.526	302.816
817.419	65.0703
820.311	6.39453
823.204	90.7578
826.097	12.0586
828.989	47.6406
831.882	40.8984
834.775	69.7656
837.668	52.1133
840.56	26.6133
843.453	115.594
846.346	65.4375
849.238	79.9141
852.131	247.266
855.024	628.738
857.917	652.195
860.809	1018.87
863.702	1497.86
866.595	2366.98
869.487	3828.26
872.38	5566.06
875.273	7885.8
878.165	10525.1
881.058	12989.4
883.951	13939
886.843	12679.5
889.736	10142.9
892.629	7343.09
895.522	5324
898.414	3669.07
901.307	2863.97
904.2	2425.82
907.092	2066.81
909.985	2099.52
912.878	2091.74
915.77	2221.99
918.663	1755.41
921.556	1444.62
924.449	920.598
927.341	575.129
930.234	609.816
933.127	886.863
936.019	1153.91
938.912	1553.62
941.805	2222.34
944.697	2725.33
947.59	3371.26
950.483	3930.58
953.376	4710.59
956.268	5199.58
959.161	5629.01
962.054	5768.08
964.946	5256.07
967.839	4451.32
970.732	3254.97
973.625	2172.52
976.517	1348.4
979.41	818.637
982.303	385.586
985.195	125.281
988.088	0.984375
990.981	143.324
993.873	110.144
996.766	133.164
999.659	6.03906
1002.55	107.078
1005.44	123.539
1008.34	129.231
1011.23	406.707
1014.12	772.785
1017.01	1132.55
1019.91	1491.54
1022.8	2074.95
1025.69	2513.14
1028.59	3298.36
1031.48	4009.63
1034.37	4602.99
1037.26	4969.74
1040.16	5149.05
1043.05	4796.64
1045.94	4308.7
1048.84	3634.48
1051.73	3154.31
1054.62	2524.27
1057.51	1988.35
1060.41	1670.65
1063.3	1418.42
1066.19	1032.42
1069.08	897.894
1071.98	611.684
1074.87	342.598
1077.76	443.176
1080.65	158.285
1083.55	98.375
1086.44	35.1133
1089.33	31.9688
1092.22	164.434
1095.12	57.8711
1098.01	90.4062
1100.9	244.723
1103.8	177.82
1106.69	148.844
1109.58	155.371
1112.47	35.8789
1115.37	146.586
1118.26	48.625
1121.15	123.441
1124.05	14.3555
1126.94	163.691
1129.83	91.9492
1132.72	311.996
1135.62	293.902
1138.51	195.512
1141.4	198.09
1144.29	334.254
1147.19	383.703
1150.08	357.285
1152.97	382.144
1155.87	343.594
1158.76	446.574
1161.65	294.019
1164.54	466.551
1167.44	481.777
1170.33	509.539
1173.22	362.644
1176.11	507.688
1179.01	433.508
1181.9	555.234
1184.79	486.891
1187.68	476.914
1190.58	502.269
1193.47	481.348
1196.36	470.731
1199.26	294.934
1202.15	309.949
1205.04	234.418
1207.93	283.543
1210.83	121.019
1213.72	78.8633
1216.61	71.9844
1219.5	62.832
1222.4	72.3633
1225.29	53.5938
1228.18	20.9375
1231.08	234.152
1233.97	71.3633
1236.86	22.7422
1239.75	126.141
1242.65	229.512
1245.54	300.469
1248.43	546.062
1251.32	625.168
1254.22	777.828
1257.11	850.332
1260	761.113
1262.89	714.195
1265.79	784.914
1268.68	788.336
1271.57	625.551
1274.46	594.402
1277.36	885.777
1280.25	352.527
1283.14	296.18
1286.04	111.418
1288.93	56.6211
