Measurement: Raman, 780 nm, unoriented, Raman Data Processed
Mineral: Lemmleinite-Ba
Rruff sample: R110017
Ideal chemistry: Na_4_K_4_Ba_2+x_Ti_8_(Si_4_O_12_)_4_(O,OH)_8_8H_2_O
Locality: Partomchorr Mt., Khibiny Massif, Kola, Russia
Source: Ray Grant
Description: Reddish orange bladed crystals associated with white natrolite
Raman shift (cm-1)	intensity
189.439	0
192.332	58.9287
195.225	22.0283
198.117	25.5205
201.01	247.476
203.903	668.54
206.796	1219.39
209.688	1639.75
212.581	1863.51
215.474	1746.85
218.366	1435.48
221.259	1100.47
224.152	792.489
227.044	576.189
229.937	433.239
232.83	409.123
235.722	406.633
238.615	393.127
241.508	255.929
244.401	143.63
247.293	62.2676
250.186	17.4648
253.079	79.9522
255.971	289.268
258.864	631.516
261.757	1106.31
264.649	1604.12
267.542	2074.36
270.435	2488.18
273.328	2737.1
276.22	2935.69
279.113	3110.39
282.006	3235.64
284.898	3348.98
287.791	3478.4
290.684	3604.91
293.576	3595.55
296.469	3544.45
299.362	3464.03
302.255	3412.71
305.147	3373.32
308.04	3262.8
310.933	2983.09
313.825	2563.03
316.718	2202.48
319.611	1876.44
322.503	1675.35
325.396	1541.44
328.289	1526.88
331.182	1557.44
334.074	1679.42
336.967	1927.97
339.86	2185.82
342.752	2487.23
345.645	2714.79
348.538	2794.44
351.43	2706.49
354.323	2522.82
357.216	2123.22
360.108	1556.34
363.001	1076.97
365.894	637.927
368.787	292.913
371.679	50.6738
374.572	71.5195
377.465	123.196
380.357	114.069
383.25	141.18
386.143	146.279
389.036	68.1724
391.928	44.2812
394.821	229.937
397.714	396.717
400.606	609.065
403.499	745.019
406.392	777.625
409.284	600.548
412.177	348.438
415.07	128.523
417.962	10.458
420.855	4.52539
423.748	61.3838
426.641	254.706
429.533	510.727
432.426	891.473
435.319	1339.04
438.211	1970.33
441.104	2688.28
443.997	3348.73
446.889	3549.18
449.782	3153.26
452.675	2333.99
455.567	1461.38
458.46	741.983
461.353	277.706
464.246	120.258
467.138	296.912
470.031	893.521
472.924	2016.39
475.816	3510.44
478.709	5600.26
481.602	8760.48
484.495	13107.9
487.387	17261.4
490.28	17626
493.173	13189.2
496.065	7901.69
498.958	4388.14
501.851	2634.12
504.743	1893.71
507.636	1787.83
510.529	2136.09
513.422	2867.98
516.314	4058.91
519.207	5593.27
522.1	7544.23
524.992	9586.01
527.885	11096.2
530.778	11211.3
533.67	9746.6
536.563	7480.66
539.456	5353.61
542.348	3636.82
545.241	2414.18
548.134	1590.17
551.027	1029.63
553.919	663.415
556.812	405.905
559.705	215.749
562.597	78.085
565.49	22.7588
568.383	69.9053
571.275	100.51
574.168	95.4336
577.061	46.1787
579.954	5.22656
582.846	40.418
585.739	116.524
588.632	144.165
591.524	177.184
594.417	185.148
597.31	250.448
600.202	278.717
603.095	355.299
605.988	420.185
608.881	500.405
611.773	522.877
614.666	443.006
617.559	290.847
620.451	143.393
623.344	79.7446
626.237	16.8926
629.129	3.95898
632.022	37.4829
634.915	45.2192
637.808	49.3467
640.7	53.6245
643.593	39.2808
646.486	10.4106
649.378	48.9683
652.271	100.826
655.164	132.955
658.056	205.833
660.949	284.741
663.842	373.218
666.735	469.675
669.627	530.761
672.52	589.225
675.413	573.141
678.305	548.401
681.198	464.938
684.091	408.208
686.983	327.014
689.876	218.871
692.769	165.685
695.662	119.324
698.554	86.1641
701.447	81.6079
704.34	95.313
707.232	134.981
710.125	203.008
713.018	260.26
715.91	356.932
718.803	473.354
721.696	580.033
724.588	710.338
727.481	832.601
730.374	1006.34
733.266	1111.93
736.159	1269.42
739.052	1383.26
741.945	1523.5
744.837	1656.56
747.73	1781.34
750.623	1893.4
753.515	1959.5
756.408	2062.94
759.301	2110.66
762.193	2166.27
765.086	2173.96
767.979	2157.66
770.872	2097.7
773.764	2018.87
776.657	2021.83
779.55	2000.78
782.442	2008.19
785.335	1964.33
788.228	1890.37
791.12	1761.74
794.013	1549.58
796.906	1295.91
799.799	1082.05
802.691	908.534
805.584	769.727
808.477	618.112
811.369	479.841
814.262	372.709
817.155	292.206
820.048	224.121
822.94	134.375
825.833	56.0454
828.726	17.7485
831.618	19.7085
834.511	70.6938
837.404	77.5317
840.296	88.0581
843.189	74.2783
846.082	68.938
848.975	37.0068
851.867	30.0435
854.76	124.801
857.653	297.862
860.545	525.347
863.438	906.675
866.331	1447.93
869.223	2243.66
872.116	3363.02
875.009	4787.4
877.901	6350.07
880.794	7773.9
883.687	8412.08
886.58	7897.43
889.472	6530.2
892.365	5141.01
895.258	3990.35
898.15	3226.89
901.043	2762.39
903.936	2505.22
906.828	2446.17
909.721	2352.93
912.614	2209.25
915.506	1969.25
918.399	1725.54
921.292	1508.26
924.185	1358.07
927.077	1341.48
929.97	1442.3
932.863	1690.63
935.755	2027.4
938.648	2422.83
941.541	2820.89
944.433	3217.56
947.326	3568.31
950.219	3922.72
953.112	4212.57
956.004	4333.19
958.897	4240.78
961.79	3835.76
964.682	3072.55
967.575	2176.03
970.468	1331.88
973.361	727.101
976.253	366.848
979.146	181.086
982.039	118.811
984.931	51.9399
987.824	8.03613
990.717	20.2293
993.609	31.4695
996.502	46.3796
999.395	51.5215
1002.29	47.28
1005.18	24.4956
1008.07	11.7737
1010.97	42.096
1013.86	105.024
1016.75	203.508
1019.64	338.436
1022.54	537.248
1025.43	782.603
1028.32	1045.1
1031.21	1333.13
1034.11	1546.72
1037	1846.72
1039.89	2130.58
1042.79	2383.62
1045.68	2467.31
1048.57	2365.24
1051.46	2039.19
1054.36	1704.1
1057.25	1369.04
1060.14	1095.23
1063.03	878.125
1065.93	706.171
1068.82	560.085
1071.71	427.648
1074.61	313.289
1077.5	233.79
1080.39	185.16
1083.28	146.708
1086.18	116.15
1089.07	108.187
1091.96	85.395
1094.85	64.5093
1097.75	55.5471
1100.64	42.3821
1103.53	41.8562
1106.42	34.6668
1109.32	57.3779
1112.21	21.4866
1115.1	4.92578
1117.99	13.8203
1120.89	0.270752
1123.78	5.51929
1126.67	0.202881
1129.57	6.68701
1132.46	4.67578
1135.35	5.69995
1138.24	2.1394
1141.14	11.3462
1144.03	2.55444
1146.92	17.2996
1149.82	1.69141
1152.71	6.78198
1155.6	3.38037
1158.49	9.81055
1161.39	5.41797
1164.28	2.48633
1167.17	19.4031
1170.06	30.8884
1172.96	55.4062
1175.85	58.9753
1178.74	89.2341
1181.63	95.2256
1184.53	99.3687
1187.42	108.572
1190.31	165.163
1193.21	187.578
1196.1	218.419
1198.99	251.425
1201.88	270.458
1204.78	316.303
1207.67	335.463
1210.56	365.383
1213.45	385.905
1216.35	415.884
1219.24	454.825
1222.13	463.71
1225.03	486.685
1227.92	462.454
1230.81	454.043
1233.7	436.284
1236.6	413.164
1239.49	366.451
1242.38	336.224
1245.27	287.242
1248.17	246.794
1251.06	203.588
1253.95	140.544
1256.85	97.9712
1259.74	89.3364
1262.63	58.0015
1265.52	38.6401
1268.42	22.4097
1271.31	15.2725
1274.2	5.1416
1277.09	8.30615
1279.99	2.45898
1282.88	5.44678
