Measurement: Raman, 780 nm, unoriented, Raman Data Processed
Mineral: Lemoynite
Rruff sample: R080106
Ideal chemistry: Na_2_CaZr_2_Si_10_O_26_5-6H_2_O
Locality: Mont Saint-Hilaire, Quebec, Canada
Source: William W. Pinch
Description: Aggregates of cream-white, sub-parallel prismatic crystals
Raman shift (cm-1)	intensity
145.556	0
148.449	8.66126
151.342	17.2412
154.234	20.9791
157.127	24.7683
160.02	22.8069
162.912	20.6859
165.805	17.6466
168.698	19.6942
171.591	18.4586
174.483	10.3071
177.376	5.99252
180.269	2.02475
183.161	0.821625
186.054	0.991058
188.947	2.43657
191.839	1.61082
194.732	3.96884
197.625	8.04211
200.518	15.0123
203.41	15.3818
206.303	14.654
209.196	13.1492
212.088	16.3978
214.981	24.5719
217.874	28.0317
220.766	29.9213
223.659	26.0695
226.552	19.6788
229.445	16.8214
232.337	14.3999
235.23	17.2859
238.123	21.3228
241.015	25.3053
243.908	29.7748
246.801	32.0247
249.694	26.6022
252.586	20.1676
255.479	11.9596
258.372	7.40515
261.264	2.91226
264.157	1.68013
267.05	2.11955
269.942	1.26872
272.835	2.65875
275.728	4.27048
278.62	4.07445
281.513	1.2905
284.406	2.18567
287.299	1.03664
290.191	3.17302
293.084	4.32471
295.977	4.51912
298.869	4.81863
301.762	7.33049
304.655	10.9629
307.548	11.4886
310.44	13.2985
313.333	9.51999
316.226	4.69441
319.118	3.08853
322.011	1.44069
324.904	1.79036
327.796	1.82648
330.689	2.08682
333.582	1.02531
336.474	1.49858
339.367	1.74719
342.26	3.38046
345.152	2.29584
348.045	0.86731
350.938	0.324295
353.831	1.88643
356.723	1.69557
359.616	6.64531
362.509	10.2714
365.401	12.5184
368.294	14.9278
371.187	15.649
374.079	14.4667
376.972	9.4397
379.865	6.7096
382.758	2.17366
385.65	2.72159
388.543	1.36774
391.436	0.652847
394.328	0.988861
397.221	0.386841
400.114	2.52452
403.007	5.45596
405.899	11.9689
408.792	16.7536
411.685	25.4183
414.577	30.0239
417.47	35.8718
420.363	37.6942
423.255	41.1728
426.148	40.5223
429.041	42.8819
431.933	45.4633
434.826	45.796
437.719	40.83
440.612	38.519
443.504	37.4919
446.397	34.0451
449.29	28.3386
452.182	19.3674
455.075	11.3223
457.968	5.69984
460.861	0.871597
463.753	1.56674
466.646	2.05418
469.539	1.4279
472.431	0.351959
475.324	0.771194
478.217	0.913773
481.109	3.07936
484.002	4.20793
486.895	7.66657
489.788	7.38553
492.68	6.65735
495.573	4.87854
498.466	4.37967
501.358	4.69344
504.251	4.72008
507.144	8.12906
510.036	9.06099
512.929	11.8781
515.822	19.5724
518.715	24.0237
521.607	33.5715
524.5	44.5159
527.393	57.3659
530.285	74.1626
533.178	90.5909
536.071	105.861
538.963	118.154
541.856	119.375
544.749	105.835
547.641	84.8894
550.534	63.3531
553.427	45.7997
556.32	33.6233
559.212	25.8154
562.105	19.9368
564.998	14.8156
567.89	12.0442
570.783	11.7309
573.676	10.0898
576.568	10.0297
579.461	10.622
582.354	12.6621
585.247	15.3918
588.139	21.5999
591.032	26.0035
593.925	31.3875
596.817	37.0121
599.71	40.4357
602.603	40.3675
605.495	32.5085
608.388	22.0905
611.281	15.228
614.174	8.78577
617.066	4.96129
619.959	4.03278
622.852	0.166901
625.744	0.366959
628.637	0.651337
631.53	0.837906
634.423	0.466125
637.315	0.890915
640.208	0.684906
643.101	1.78766
645.993	0.423187
648.886	0.098495
651.779	0.067474
654.671	0.353104
657.564	1.91182
660.457	2.42737
663.35	3.97404
666.242	5.05568
669.135	7.07616
672.028	8.9381
674.92	8.69493
677.813	10.9634
680.706	10.7238
683.598	10.2428
686.491	9.09932
689.384	8.28436
692.277	7.80279
695.169	7.34705
698.062	6.57693
700.955	5.62144
703.847	5.00987
706.74	4.61639
709.633	4.20409
712.525	3.80612
715.418	3.54562
718.311	1.55701
721.203	1.9937
724.096	1.35075
726.989	1.44841
729.882	1.64644
732.774	1.66615
735.667	3.19002
738.56	2.57097
741.452	3.65105
744.345	4.90327
747.238	6.25198
750.13	7.69656
753.023	10.2359
755.916	11.3091
758.809	12.7287
761.701	10.9046
764.594	9.00123
767.487	9.26378
770.379	9.02812
773.272	9.50557
776.165	11.1416
779.058	9.25975
781.95	8.12055
784.843	5.31747
787.736	4.50863
790.628	3.13779
793.521	2.51791
796.414	1.46532
799.306	1.23975
802.199	1.19809
805.092	0.557915
807.985	0.685165
810.877	1.01109
813.77	0.771049
816.663	0.288353
819.555	0.04097
822.448	0.611794
825.341	0.95314
828.233	0.391098
831.126	0.912346
834.019	0.102257
836.912	0.694069
839.804	-0.184646
842.697	0.164453
845.59	0.469366
848.482	0.0203875
851.375	0.059753
854.268	0.589119
857.16	0.846146
860.053	1.54956
862.946	0.479317
865.838	2.00577
868.731	1.0914
871.624	0.598244
874.517	0.603455
877.409	0.699577
880.302	0.101677
883.195	2.88971
886.087	1.50195
888.98	1.82401
891.873	2.7432
894.765	2.88301
897.658	3.07918
900.551	3.20442
903.444	4.19058
906.336	3.13138
909.229	4.85758
912.122	7.60979
915.014	8.56654
917.907	12.3804
920.8	16.6954
923.692	21.0522
926.585	26.8708
929.478	34.1482
932.37	41.4317
935.263	44.7663
938.156	42.5023
941.049	35.0968
943.941	28.9453
946.834	27.2872
949.727	28.1812
952.619	30.8799
955.512	35.7362
958.405	36.8617
961.298	41.0966
964.19	42.5519
967.083	39.9179
969.976	34.8186
972.868	25.7337
975.761	20.4249
978.654	16.6468
981.546	14.5261
984.439	12.3866
987.332	9.71646
990.225	7.25388
993.117	6.08382
996.01	5.30315
998.903	3.92138
1001.79	3.63196
1004.69	0.956757
1007.58	0.809021
1010.47	0.028763
1013.37	0.360168
1016.26	0.804298
1019.15	0.694633
1022.04	0.594452
1024.94	0.055878
1027.83	1.54987
1030.72	3.38158
1033.62	5.19181
1036.51	7.71631
1039.4	9.70081
1042.29	13.1439
1045.19	15.2546
1048.08	14.8942
1050.97	14.194
1053.86	11.2176
1056.76	8.62463
1059.65	6.84213
1062.54	5.24733
1065.43	4.50588
1068.33	3.12069
1071.22	2.98354
1074.11	3.97901
1077.01	2.55381
1079.9	1.57799
1082.79	2.58732
1085.68	0.694351
1088.58	1.14224
1091.47	0.902931
1094.36	0.715012
1097.25	0.720963
1100.15	0.634422
1103.04	0.729088
1105.93	2.05029
1108.83	3.2717
1111.72	4.25899
1114.61	4.84843
1117.5	5.83468
1120.4	7.60263
1123.29	6.43467
1126.18	6.7865
1129.07	4.64634
1131.97	2.74896
1134.86	1.80105
1137.75	1.76864
1140.64	0.24118
1143.54	0.201195
1146.43	0.219215
1149.32	0.053192
1152.22	0.464912
1155.11	0.195984
1158	0.144699
1160.89	0.528793
1163.79	0.078636
1166.68	0.651711
1169.57	1.77882
1172.46	2.13933
1175.36	2.89395
1178.25	3.3046
1181.14	4.56604
1184.04	4.52469
1186.93	3.69945
1189.82	4.28633
1192.71	4.2055
1195.61	2.63408
1198.5	2.89531
1201.39	2.17768
1204.28	1.90064
1207.18	2.278
1210.07	1.98424
1212.96	1.82188
1215.86	1.2132
1218.75	1.00748
1221.64	0.007797
1224.53	0.84211
1227.43	0.834076
1230.32	2.38212
1233.21	0.479027
1236.1	2.13797
1239	0.413139
1241.89	0.277191
1244.78	0.829575
1247.67	1.03698
1250.57	0.727448
1253.46	1.78103
1256.35	1.38081
1259.25	0.16787
1262.14	1.40872
1265.03	1.10374
1267.92	0.098953
1270.82	1.56844
1273.71	0.989151
1276.6	0.926086
1279.49	0.654839
1282.39	0.958633
1285.28	0.00811
