Measurement: Raman, 532 nm, unoriented, Raman Data Processed
Mineral: Lemoynite
Rruff sample: R080106
Ideal chemistry: Na_2_CaZr_2_Si_10_O_26_5-6H_2_O
Locality: Mont Saint-Hilaire, Quebec, Canada
Source: William W. Pinch
Description: Aggregates of cream-white, sub-parallel prismatic crystals
Raman shift (cm-1)	intensity
145.386	0
148.761	20.4614
152.136	49.4243
155.511	59.9506
158.886	59.8614
162.26	40.3601
165.635	31.5923
169.01	26.9617
172.385	17.9944
175.76	8.16171
179.135	3.15366
182.509	0.973541
185.884	3.3392
189.259	1.56158
192.634	2.52747
196.009	8.78296
199.383	23.8802
202.758	20.6486
206.133	6.14438
209.508	1.19296
212.883	2.14563
216.257	17.0276
219.632	24.99
223.007	16.908
226.382	8.26926
229.757	5.10049
233.132	16.0861
236.506	14.1338
239.881	24.915
243.256	38.8095
246.631	47.4466
250.006	45.8589
253.381	37.9623
256.755	28.7678
260.13	17.7275
263.505	6.97162
266.88	8.91269
270.255	12.2307
273.629	18.3903
277.004	21.3416
280.379	19.6469
283.754	22.168
287.129	27.0985
290.503	36.2854
293.878	38.637
297.253	38.0514
300.628	40.3813
304.003	47.1156
307.378	52.5891
310.752	42.3857
314.127	29.6657
317.502	18.1408
320.877	7.6658
324.252	5.48459
327.627	3.3999
331.001	0.061768
334.376	0.929596
337.751	1.77365
341.126	1.80197
344.5	1.11194
347.875	2.31131
351.25	3.90237
354.625	0.768463
358	12.8927
361.375	23.3066
364.749	30.331
368.124	37.2183
371.499	39.6619
374.874	40.2504
378.249	27.0596
381.623	24.4494
384.998	23.2948
388.373	25.2771
391.748	23.9452
395.123	25.0703
398.498	32.2816
401.872	45.0697
405.247	68.1918
408.622	94.5871
411.997	123.477
415.372	150.263
418.747	162.085
422.121	164.512
425.496	168.768
428.871	172.197
432.246	171.447
435.621	141.164
438.995	111.274
442.37	94.931
445.745	82.7557
449.12	64.8247
452.495	38.2272
455.87	17.2952
459.244	4.98352
462.619	4.92322
465.994	5.65521
469.369	4.09308
472.744	1.27832
476.118	1.1861
479.493	5.55121
482.868	10.6573
486.243	17.8333
489.618	16.6243
492.993	11.3208
496.367	10.5491
499.742	12.6173
503.117	16.0753
506.492	25.707
509.866	44.5177
513.241	58.0494
516.616	85.4106
519.991	129.053
523.366	178.49
526.741	243.537
530.115	318.119
533.49	397.444
536.865	463.967
540.24	484.004
543.615	439.277
546.99	338.233
550.364	240.326
553.739	166.715
557.114	116.305
560.489	87.0043
563.864	70.3779
567.239	53.6797
570.613	43.8631
573.988	40.5431
577.363	38.1604
580.738	44.279
584.112	54.1248
587.487	74.9038
590.862	85.3659
594.237	108.923
597.612	123.602
600.987	126.751
604.361	105.026
607.736	73.2442
611.111	45.5757
614.486	27.2259
617.861	10.0536
621.236	6.97327
624.61	0.032532
627.985	0.781555
631.36	1.05347
634.735	3.01679
638.11	3.1593
641.484	2.64044
644.859	3.97235
648.234	0.355774
651.609	0.911072
654.984	1.35877
658.359	4.29028
661.733	13.1244
665.108	13.6449
668.483	23.209
671.858	25.9624
675.232	29.146
678.607	33.6628
681.982	32.0621
685.357	28.7322
688.732	24.5146
692.107	27.3294
695.481	24.9891
698.856	23.718
702.231	23.3945
705.606	23.5029
708.981	20.9772
712.356	14.7346
715.73	10.4274
719.105	9.50909
722.48	7.99158
725.855	9.12317
729.23	7.24127
732.604	8.82282
735.979	11.1842
739.354	13.8456
742.729	16.8804
746.104	23.8076
749.479	28.9293
752.853	36.5907
756.228	39.8729
759.603	46.9808
762.978	38.9556
766.353	35.1802
769.727	35.7059
773.102	37.4541
776.477	37.0539
779.852	31.0479
783.227	26.1429
786.601	20.4028
789.976	14.9241
793.351	10.4804
796.726	7.61169
800.101	4.24756
803.476	1.80902
806.85	0.295166
810.225	1.06122
813.6	1.36768
816.975	0.272705
820.35	1.60059
823.725	0.766602
827.099	2.53949
830.474	2.513
833.849	2.43603
837.224	1.24884
840.599	0.627625
843.973	2.76862
847.348	1.84045
850.723	0.134094
854.098	3.1933
857.473	0.765137
860.847	0.247314
864.222	2.08758
867.597	1.71234
870.972	2.7619
874.347	5.98083
877.722	9.6604
881.096	5.93726
884.471	12.5342
887.846	10.7691
891.221	15.9669
894.596	13.2988
897.971	13.4431
901.345	17.4603
904.72	20.2654
908.095	26.0203
911.47	35.5737
914.845	44.5462
918.219	57.4764
921.594	76.3737
924.969	101.033
928.344	132.33
931.719	164.498
935.093	177.474
938.468	153.517
941.843	114.892
945.218	93.1653
948.593	91.147
951.967	97.7939
955.342	113.46
958.717	123.776
962.092	134.028
965.467	135.651
968.842	116.225
972.216	87.8861
975.591	64.6561
978.966	49.2767
982.341	42.679
985.716	34.695
989.091	25.6993
992.465	19.972
995.84	15.3839
999.215	8.8634
1002.59	3.5733
1005.97	0.456543
1009.34	3.82831
1012.71	1.60303
1016.09	2.59973
1019.46	0.940674
1022.84	0.898193
1026.21	2.96039
1029.59	9.08221
1032.96	15.9598
1036.34	27.1431
1039.71	36.4278
1043.09	45.3656
1046.46	52.5057
1049.84	50.7929
1053.21	39.9911
1056.59	31.6107
1059.96	25.1343
1063.34	20.3433
1066.71	15.696
1070.09	13.939
1073.46	12.6359
1076.84	11.1003
1080.21	11.8405
1083.59	12.4675
1086.96	9.2702
1090.34	4.61883
1093.71	3.21802
1097.09	4.85754
1100.46	7.97382
1103.83	9.30145
1107.21	13.446
1110.58	23.4873
1113.96	25.0365
1117.33	28.1456
1120.71	31.4971
1124.08	29.4274
1127.46	23.6443
1130.83	17.2446
1134.21	13.9499
1137.58	8.32147
1140.96	3.4632
1144.33	3.11993
1147.71	0.009949
1151.08	2.9826
1154.46	0.043518
1157.83	0.017822
1161.21	5.32452
1164.58	4.33521
1167.96	11.5609
1171.33	8.45752
1174.7	12.2516
1178.08	15.0974
1181.45	15.0818
1184.83	14.3228
1188.2	15.1081
1191.58	12.9639
1194.95	9.60199
1198.33	10.5958
1201.7	6.32593
1205.08	4.86414
1208.45	5.23004
1211.83	1.75574
1215.2	4.1181
1218.58	3.57245
1221.95	2.23718
1225.33	0.024902
1228.7	2.14465
1232.08	4.27588
1235.45	1.26526
1238.83	0.807434
1242.2	1.74487
1245.58	1.48071
1248.95	1.89831
1252.33	4.31726
1255.7	1.73682
1259.08	3.76666
1262.45	1.36487
1265.83	4.17609
1269.2	4.11871
1272.58	1.60248
1275.95	4.18317
1279.33	8.97601
1282.7	5.11676
1286.07	4.29492
1289.45	5.22723
1292.82	1.06262
1296.2	1.43994
1299.57	0.69458
1302.95	1.93274
