Measurement: Raman, 785 nm, unoriented, Raman Data Processed
Mineral: Leningradite
Rruff sample: R070053
Ideal chemistry: PbCu_3_(VO_4_)_2_Cl_2_
Locality: main fracture, N breakthrough, Tolbachik Volcano, Kamchatka Peninsula, Russia
Source: Michael Scott
Description: Dark reddish-brown fragment in epoxy
Raman shift (cm-1)	intensity
165.183	0
168.075	33.3442
170.968	41.3765
173.861	9.7666
176.754	29.6383
179.646	22.3416
182.539	35.7375
185.432	23.3992
188.324	41.5573
191.217	68.4804
194.11	53.9279
197.002	123.983
199.895	112.756
202.788	125.84
205.68	160.622
208.573	166.343
211.466	170.077
214.359	134.356
217.251	126.062
220.144	142.578
223.037	114.52
225.929	120.117
228.822	93.4416
231.715	116.587
234.607	113.751
237.5	104.485
240.393	116.687
243.286	122.908
246.178	96.9171
249.071	129.194
251.964	104.486
254.856	152.896
257.749	138.745
260.642	194.576
263.534	186.839
266.427	163.112
269.32	94.5113
272.213	54.4383
275.105	52.2926
277.998	26.88
280.891	35.147
283.783	21.9833
286.676	10.0043
289.569	16.5646
292.462	1.83215
295.354	0.411865
298.247	2.80603
301.14	2.92944
304.032	22.4578
306.925	35.3547
309.818	17.6019
312.71	26.1855
315.603	44.8906
318.496	13.1408
321.389	37.3991
324.281	73.1649
327.174	69.2826
330.067	97.4969
332.959	81.3438
335.852	127.26
338.745	106.401
341.637	151.006
344.53	142.414
347.423	133.976
350.315	127.661
353.208	120.195
356.101	103.244
358.994	20.3896
361.886	17.0245
364.779	9.32849
367.672	3.08716
370.564	8.20923
373.457	2.30017
376.35	29.5304
379.243	39.1613
382.135	52.5929
385.028	107.325
387.921	174.809
390.813	193.523
393.706	298.284
396.599	364.646
399.491	461.08
402.384	494.225
405.277	373.585
408.17	295.094
411.062	196.38
413.955	159.019
416.848	142.453
419.74	136.268
422.633	175.13
425.526	254.577
428.418	203.863
431.311	209.214
434.204	217.872
437.096	191.408
439.989	154.235
442.882	125.221
445.775	107.99
448.667	72.2025
451.56	43.1155
454.453	30.9021
457.345	51.2407
460.238	33.1777
463.131	53.8778
466.024	61.627
468.916	37.2997
471.809	50.9905
474.702	42.3422
477.594	46.4758
480.487	85.0917
483.38	55.1388
486.272	31.0618
489.165	23.9165
492.058	24.83
494.95	48.6528
497.843	7.15527
500.736	0.880127
503.629	15.9175
506.521	34.3013
509.414	17.361
512.307	24.8055
515.199	15.8616
518.092	16.9015
520.985	3.91785
523.878	11.5543
526.77	17.644
529.663	5.68567
532.556	18.1713
535.448	1.15125
538.341	26.7312
541.234	5.3512
544.126	20.4862
547.019	6.82178
549.912	42.0116
552.804	30.0436
555.697	20.6411
558.59	14.7156
561.483	53.4841
564.375	58.7244
567.268	23.8762
570.161	34.4097
573.053	64.795
575.946	21.1729
578.839	17.8133
581.731	42.654
584.624	41.5088
587.517	16.9337
590.41	45.501
593.302	44.6278
596.195	39.7318
599.088	19.8485
601.98	29.0984
604.873	31.1647
607.766	37.6096
610.659	0.141724
613.551	7.30115
616.444	32.1257
619.337	50.9772
622.229	30.6083
625.122	37.2258
628.015	28.1954
630.907	36.5635
633.8	2.83081
636.693	18.3367
639.586	22.6859
642.478	0.37439
645.371	22.1783
648.264	0.987183
651.156	18.451
654.049	18.7645
656.942	28.3018
659.834	7.10144
662.727	1.7738
665.62	2.47339
668.513	24.3152
671.405	26.8256
674.298	22.3586
677.191	27.1461
680.083	10.088
682.976	36.8127
685.869	18.1412
688.761	3.54834
691.654	29.9187
694.547	27.1067
697.439	23.8046
700.332	23.0416
703.225	49.7772
706.118	72.4519
709.01	40.1602
711.903	72.5305
714.796	36.6996
717.688	85.2322
720.581	118.323
723.474	136.783
726.366	148.96
729.259	152.271
732.152	190.46
735.045	112.672
737.937	98.1764
740.83	62.1753
743.723	54.3059
746.615	54.2385
749.508	49.7654
752.401	36.6608
755.293	1.60522
758.186	18.4731
761.079	35.8449
763.972	7.77893
766.864	2.17029
769.757	1.54443
772.65	14.0173
775.542	4.44812
778.435	7.62866
781.328	17.9728
784.221	19.7139
787.113	10.4757
790.006	37.2811
792.899	26.2788
795.791	32.0553
798.684	77.1808
801.577	127.19
804.469	170.032
807.362	195.541
810.255	284.615
813.148	310.233
816.04	330.304
818.933	352.926
821.826	345.055
824.718	264.512
827.611	234.132
830.504	188.324
833.396	176.678
836.289	192.678
839.182	222.112
842.074	265.235
844.967	343.974
847.86	441.816
850.753	586.958
853.645	774.316
856.538	1132.5
859.431	1483.89
862.323	1894.88
865.216	2199.84
868.109	2153.07
871.001	1783.04
873.894	1280.37
876.787	866.213
879.68	580.63
882.572	430.08
885.465	283.968
888.358	210.711
891.25	146.7
894.143	114.403
897.036	90.1246
899.928	36.0604
902.821	52.0842
905.714	18.516
908.607	11.0305
911.499	14.153
914.392	5.96472
917.285	5.27637
920.177	5.16382
923.07	2.97485
925.963	26.068
928.856	20.9949
931.748	43.9407
934.641	23.2325
937.534	16.6162
940.426	27.2673
943.319	5.6228
946.212	20.8009
949.104	22.8141
951.997	22.8739
954.89	10.8712
957.783	7.59143
960.675	18.5189
963.568	24.345
966.461	12.1845
969.353	24.7216
972.246	21.1047
975.139	6.59936
978.031	7.63159
980.924	10.6749
983.817	29.8061
986.71	11.812
989.602	27.5259
992.495	2.27307
995.388	15.4594
998.28	1.63684
1001.17	32.9684
1004.07	25.2395
1006.96	13.7722
1009.85	16.5162
1012.74	26.057
1015.64	31.5742
1018.53	39.7106
1021.42	20.5033
1024.32	46.3758
1027.21	33.3927
1030.1	24.8029
1032.99	19.1172
1035.88	22.9764
1038.78	37.2988
1041.67	46.471
1044.56	41.8149
1047.46	26.6605
1050.35	14.1242
1053.24	23.7212
1056.13	37.2336
1059.03	37.902
1061.92	27.2688
1064.81	14.2059
1067.7	41.777
1070.6	8.23413
1073.49	19.5281
1076.38	42.6846
1079.28	28.6741
1082.17	41.835
1085.06	14.4117
1087.95	45.1897
1090.85	25.6898
1093.74	16.2459
1096.63	46.7967
1099.53	25.6005
1102.42	25.593
1105.31	3.85077
1108.2	26.9102
1111.1	29.9814
1113.99	6.53357
1116.88	28.1469
1119.77	18.5519
1122.67	26.9769
1125.56	37.452
1128.45	22.8043
1131.34	28.1041
1134.24	14.1663
1137.13	10.9799
1140.02	18.6242
1142.91	9.69623
1145.81	34.6346
1148.7	28.5978
1151.59	55.6102
1154.49	30.6004
1157.38	40.3592
1160.27	47.3818
1163.16	15.1341
1166.06	44.2455
1168.95	26.2646
1171.84	5.34332
1174.73	21.1347
1177.63	26.7885
1180.52	23.3173
1183.41	0.118958
1186.31	39.8565
1189.2	36.7627
1192.09	39.6148
1194.98	15.4246
1197.88	18.5579
1200.77	9.28168
1203.66	6.98944
1206.56	18.2396
1209.45	11.585
1212.34	27.5053
1215.23	36.8668
1218.12	15.7347
1221.02	20.7001
1223.91	22.173
1226.8	18.334
1229.7	20.8757
1232.59	18.6078
1235.48	12.6967
1238.38	3.78644
1241.27	0.958679
