Measurement: Raman, 785 nm, unoriented, Raman Data Processed
Mineral: Lenoblite
Rruff sample: R060761
Ideal chemistry: V^4+^_2_O_4_2H_2_O
Locality: Clara mine, Schwarzwald, Germany
Source: Michael Scott
Description: Gray granular crust
Raman shift (cm-1)	intensity
157.204	0
159.615	0.341074
162.025	635.114
164.436	1466.28
166.847	1839.06
169.257	1137.87
171.668	413.082
174.078	120.287
176.489	81.9616
178.9	168.287
181.31	1412.51
183.721	2459.38
186.131	3699.87
188.542	5238.79
190.952	6367.97
193.363	6833.54
195.774	6845.92
198.184	6364.07
200.595	5893.83
203.005	5076.77
205.416	4188.48
207.827	3711.04
210.237	2993.17
212.648	2873.42
215.058	2547.93
217.469	2432.55
219.88	1966.57
222.29	1595.77
224.701	1225.75
227.111	1000.79
229.522	722.508
231.932	1092.75
234.343	1304.14
236.754	1723.41
239.164	1403.93
241.575	356.713
243.985	89.7748
246.396	197.584
248.806	74.401
251.217	273.706
253.628	812.063
256.038	1920.97
258.449	2969.58
260.859	3754.11
263.27	4580.25
265.681	5396.56
268.091	6614.84
270.502	8657.84
272.912	11177.4
275.323	14521.3
277.733	17703.1
280.144	20242.1
282.555	20386.7
284.965	19128.3
287.376	17486.7
289.786	14918.3
292.197	12688.1
294.608	11053.4
297.018	9848.61
299.429	8982.65
301.839	8346.53
304.25	7554.97
306.661	6971.88
309.071	6257.8
311.482	5265.66
313.892	4243.98
316.303	3505.69
318.713	2963.42
321.124	2201.98
323.535	1936.51
325.945	1758.93
328.356	1628.13
330.766	1197.38
333.177	719.9
335.587	409.721
337.998	169.199
340.409	120.769
342.819	171.77
345.23	47.5175
347.64	167.25
350.051	469.025
352.462	824.597
354.872	832.934
357.283	326.382
359.693	42.8409
362.104	296.372
364.514	302.043
366.925	262.556
369.336	220.161
371.746	31.7657
374.157	100.263
376.567	111.428
378.978	100.913
381.389	87.48
383.799	285.44
386.21	419.234
388.62	889.753
391.031	1509.72
393.442	2465.5
395.852	2958.47
398.263	3499.47
400.673	3819.11
403.084	3793.77
405.494	3506.57
407.905	3176.85
410.316	2805.63
412.726	2168.96
415.137	1929.76
417.547	1547.11
419.958	1181.6
422.368	735.527
424.779	749.459
427.19	171.069
429.6	65.4737
432.011	89.8774
434.421	45.3136
436.832	128.581
439.243	260.426
441.653	923.14
444.064	1370.14
446.474	2228.67
448.885	3362.13
451.296	5104.76
453.706	7453.67
456.117	10743.9
458.527	14789.6
460.938	18008
463.348	17830.7
465.759	14100
468.17	10187.3
470.58	7366.47
472.991	5533.32
475.401	4338.38
477.812	3588.95
480.223	2944.43
482.633	2589.03
485.044	2207.36
487.454	1993.46
489.865	1649.36
492.275	1715.38
494.686	1446.46
497.097	1191.11
499.507	1272.42
501.918	1202.39
504.328	1247.85
506.739	1150.42
509.149	1182.06
511.56	1038.09
513.971	1037.72
516.381	804.717
518.792	745.166
521.202	732.878
523.613	475.154
526.024	482.505
528.434	424.857
530.845	217.242
533.255	49.8733
535.666	4.80537
538.077	247.981
540.487	225.914
542.898	137.826
545.308	56.3331
547.719	101.406
550.129	22.4743
552.54	26.702
554.951	34.6407
557.361	34.6099
559.772	32.8929
562.182	42.044
564.593	40.2337
567.004	26.8987
569.414	231.721
571.825	10.6748
574.235	18.8059
576.646	111.475
579.056	191.843
581.467	239.948
583.878	184.979
586.288	279.066
588.699	342.089
591.109	309.306
593.52	283.685
595.931	321.868
598.341	307.003
600.752	226.801
603.162	220.794
605.573	169.234
607.983	204.011
610.394	229.6
612.805	198.918
615.215	207.429
617.626	119.376
620.036	49.3614
622.447	138.678
624.857	86.1679
627.268	23.3293
629.679	53.9715
632.089	45.3501
634.5	51.3357
636.91	16.2099
639.321	150.016
641.732	294.482
644.142	219.565
646.553	335.293
648.963	423.987
651.374	461.356
653.784	748.273
656.195	1011.42
658.606	1121.68
661.016	1450.3
663.427	1622.44
665.837	1946.02
668.248	2343.68
670.659	2644.18
673.069	3166.89
675.48	3602.69
677.89	3949.57
680.301	4437.66
682.712	4850.56
685.122	5205.21
687.533	5533.2
689.943	5699.21
692.354	5861.43
694.764	5789.14
697.175	5639.81
699.586	5081.71
701.996	4696.02
704.407	4204.11
706.817	3643.14
709.228	3135.9
711.639	2761.03
714.049	2367.4
716.46	1962.85
718.87	1562.27
721.281	1447.54
723.691	1214.4
726.102	865.336
728.513	736.567
730.923	527.484
733.334	340.624
735.744	297.049
738.155	143.938
740.566	49.6045
742.976	151.737
745.387	200.297
747.797	42.5364
750.208	37.8837
752.618	42.4457
755.029	31.9919
757.44	10.6471
759.85	42.0973
762.261	39.3862
764.671	11.6294
767.082	187.472
769.492	29.1981
771.903	166.162
774.314	415.156
776.724	262.544
779.135	264.461
781.545	274.408
783.956	256.456
786.367	224.851
788.777	459.177
791.188	356.469
793.598	223.99
796.009	204.881
798.419	101.926
800.83	112.481
803.241	211.702
805.651	180.91
808.062	257.791
810.472	24.7467
812.883	84.1779
815.294	30.4315
817.704	5.35577
820.115	7.29358
822.525	43.3482
824.936	18.5779
827.346	31.3991
829.757	61.1695
832.168	152.591
834.578	207.942
836.989	284.852
839.399	284.079
841.81	220.298
844.221	95.335
846.631	164.932
849.042	205.258
851.452	170.228
853.863	181.522
856.273	220.111
858.684	197.732
861.095	181.778
863.505	104.977
865.916	122.215
868.326	117.751
870.737	58.0554
873.148	97.0369
875.558	58.8239
877.969	76.9925
880.379	5.05681
882.79	47.3853
885.2	15.487
887.611	22.15
890.022	24.9272
892.432	82.2507
894.843	44.304
897.253	22.1087
899.664	157.396
902.074	123.396
904.485	163.962
906.896	137.71
909.306	232.28
911.717	278.724
914.127	335.375
916.538	260.065
918.949	428.497
921.359	629.967
923.77	623.889
926.18	708.744
928.591	713.831
931.001	628.363
933.412	513.215
935.823	274.14
938.233	50.187
940.644	16.6461
943.054	41.678
945.465	29.6394
947.876	39.4603
950.286	7.16279
952.697	12.1698
955.107	120.474
957.518	181.421
959.928	244.037
962.339	346.117
964.75	394.025
967.16	735.899
969.571	933.751
971.981	1250.16
974.392	1774.61
976.803	2334.97
979.213	3134.93
981.624	4287.6
984.034	6024.28
986.445	8346.26
988.856	10485.9
991.266	11180.6
993.677	9237.14
996.087	6272.15
998.498	4166.41
1000.91	2982.86
1003.32	2327.47
1005.73	1923.17
1008.14	1748.33
1010.55	1658.2
1012.96	1643.02
1015.37	1607.86
1017.78	1545.41
1020.19	1359.88
1022.6	1360.47
1025.01	1299.01
1027.42	1043.03
1029.84	1156.83
1032.25	977.214
1034.66	805.068
1037.07	722.675
1039.48	768.379
1041.89	641.454
1044.3	615.353
1046.71	534.489
1049.12	479.296
1051.53	431.906
1053.94	302.61
1056.35	363.035
1058.76	239.694
1061.17	95.4915
1063.58	1.23609
1065.99	33.8606
1068.4	60.6379
1070.82	275.463
1073.23	31.5835
1075.64	168.896
1078.05	254.23
1080.46	367.434
1082.87	256.241
1085.28	208.809
1087.69	66.3081
