Measurement: Raman, 532 nm, unoriented, Raman Data Processed
Mineral: Lenoblite
Rruff sample: R060761
Ideal chemistry: V^4+^_2_O_4_2H_2_O
Locality: Clara mine, Schwarzwald, Germany
Source: Michael Scott
Description: Gray granular crust
Raman shift (cm-1)	intensity
135.022	0
138.397	51.5083
141.772	79.9141
145.146	24.8491
148.521	18.4365
151.896	38.7944
155.271	178.819
158.646	401.687
162.02	727.939
165.395	1199.1
168.77	2185.82
172.145	4524.2
175.52	8138.42
178.895	11336.6
182.269	14285.8
185.644	7191.02
189.019	4277.11
192.394	4186.4
195.769	4323.81
199.143	4509.69
202.518	4693.48
205.893	4802.81
209.268	4498.12
212.643	3460.21
216.018	2695.08
219.392	1982.36
222.767	1846.15
226.142	2759.28
229.517	6296.14
232.892	9246.84
236.266	13566.1
239.641	10536.7
243.016	2313.15
246.391	936.095
249.766	524.737
253.141	582.808
256.515	822.773
259.89	1098.99
263.265	1254.76
266.64	504.781
270.015	102.053
273.389	49.4961
276.764	62.207
280.139	106.74
283.514	33.2051
286.889	134.685
290.264	251.837
293.638	471.344
297.013	994.053
300.388	1755.82
303.763	3247.23
307.137	4710.15
310.512	5808.04
313.887	5509.65
317.262	3472.65
320.637	1807.43
324.012	1213.64
327.386	810.234
330.761	582.803
334.136	353.663
337.511	196.622
340.886	189.748
344.26	296.361
347.635	615.779
351.01	887.98
354.385	1306.54
357.76	856
361.135	169.702
364.509	0.392578
367.884	10.5752
371.259	86.666
374.634	22.6846
378.009	105.66
381.384	46.0581
384.758	137.062
388.133	392.318
391.508	810.512
394.883	1076.18
398.257	1011.82
401.632	675.033
405.007	246.58
408.382	142.917
411.757	102.476
415.132	39.1289
418.506	165.962
421.881	524.617
425.256	954.418
428.631	1430.01
432.006	1851.31
435.38	2022.63
438.755	2262.77
442.13	3462.57
445.505	5622.13
448.88	8770.32
452.255	13026.6
455.629	16068.2
459.004	18049.5
462.379	19932.5
465.754	14807.8
469.129	8332.4
472.503	4821.24
475.878	3097.36
479.253	2390.45
482.628	2152.32
486.003	2260.3
489.377	2829.47
492.752	3697.47
496.127	5111.12
499.502	6700.92
502.877	7929.41
506.252	8225.31
509.626	6754.07
513.001	4571.08
516.376	2931.38
519.751	1845.87
523.126	1242.33
526.5	878.952
529.875	687.382
533.25	519.552
536.625	437.809
540	531.433
543.375	619.434
546.749	611.128
550.124	508.378
553.499	235.483
556.874	70.2231
560.249	4.84961
563.623	11.5645
566.998	126.08
570.373	137.859
573.748	87.9468
577.123	91.2231
580.497	31.6152
583.872	74.4404
587.247	131.252
590.622	149.445
593.997	188.712
597.372	171.223
600.746	207.167
604.121	230.44
607.496	284.438
610.871	295.354
614.246	355.132
617.62	286.532
620.995	342.219
624.37	387.419
627.745	238.706
631.12	203.53
634.495	186.108
637.869	97.8804
641.244	94.5005
644.619	40.9658
647.994	128.935
651.369	111.634
654.743	80.2793
658.118	69.2607
661.493	55.1108
664.868	15.4287
668.243	12.5142
671.617	30.7002
674.992	13.1318
678.367	16.9111
681.742	109.49
685.117	153.601
688.492	197.312
691.866	312.481
695.241	303.578
698.616	259.444
701.991	146.642
705.366	78.5957
708.74	71.4976
712.115	22.2607
715.49	74.5322
718.865	84.8594
722.24	49.79
725.615	59.375
728.989	70.1206
732.364	93.2588
735.739	81.4111
739.114	179.786
742.489	205.916
745.863	307.366
749.238	438.787
752.613	307.044
755.988	727.91
759.363	992.293
762.737	1297.97
766.112	1762.19
769.487	2280.38
772.862	2797.18
776.237	3213.17
779.612	3365.52
782.986	3330.1
786.361	3085.47
789.736	2737.01
793.111	2363.54
796.486	2078.97
799.86	1928.39
803.235	1793.61
806.61	1718.35
809.985	1352.28
813.36	916.848
816.735	615.806
820.109	505.101
823.484	383.162
826.859	228.315
830.234	196.34
833.609	96.1758
836.983	46.8799
840.358	63.0781
843.733	14.7886
847.108	39.6211
850.483	45.543
853.857	51.7632
857.232	62.978
860.607	19.1968
863.982	53.4477
867.357	31.6597
870.731	7.89258
874.106	93.4404
877.481	168.016
880.856	194.445
884.231	536.936
887.606	412.022
890.98	404.041
894.355	348.233
897.73	372.024
901.105	260.55
904.48	287.533
907.855	234.63
911.229	168.916
914.604	89.125
917.979	92.4092
921.354	119.901
924.729	182.042
928.103	59.0947
931.478	103.836
934.853	136.624
938.228	149.893
941.603	166.014
944.977	219.466
948.352	246.598
951.727	420.037
955.102	457.557
958.477	634.99
961.851	746.077
965.226	1028.25
968.601	1242.71
971.976	1875.48
975.351	2914.89
978.726	5541.21
982.1	10465.9
985.475	17261.7
988.85	27486.7
992.225	36892.9
995.6	20622.6
998.975	7746.77
1002.35	3492.45
1005.72	1997.04
1009.1	1458.68
1012.47	1065.65
1015.85	491.712
1019.22	213.294
1022.6	64.4126
1025.97	22.4878
1029.35	88.9316
1032.72	40.1299
1036.1	49.4585
1039.47	39.4878
1042.85	119.54
1046.22	232.636
1049.6	468.569
1052.97	637.008
1056.35	752.683
1059.72	735.115
1063.1	833.531
1066.47	432.324
1069.85	323.037
1073.22	259.144
1076.6	314
1079.97	309.443
1083.35	258.104
1086.72	236.055
1090.09	97.2197
1093.47	103.419
1096.84	107.61
1100.22	77.2192
1103.59	10.9834
1106.97	26.2925
1110.34	8.33252
1113.72	41.6155
1117.09	77.9729
1120.47	10.7678
1123.84	27.5679
1127.22	113.85
1130.59	147.898
1133.97	173.997
1137.34	198.841
1140.72	184.096
1144.09	180.368
1147.47	268.777
1150.84	388.824
1154.22	632.132
1157.59	751.171
1160.97	640.673
1164.34	359.333
1167.71	209.162
1171.09	129.311
1174.46	103.726
1177.84	94.2051
1181.21	68.7051
1184.59	26.5271
1187.96	14.0176
1191.34	14.8845
1194.71	28.9614
1198.09	37.9116
1201.46	11.2502
1204.84	30.2849
1208.21	68.1062
1211.59	71.4177
1214.96	617.858
1218.34	673.94
1221.71	386.745
1225.09	189.571
1228.46	131.401
1231.84	165.973
1235.21	136.55
1238.59	153.12
1241.96	142.066
1245.34	112.195
1248.71	163.14
1252.09	107.386
1255.46	73.0947
1258.84	34.5886
1262.21	51.1121
1265.59	58.3415
1268.96	102.155
1272.33	120.621
1275.71	47.7302
1279.08	99.3945
1282.46	111.782
1285.83	150.075
1289.21	78.0456
1292.58	89.0386
1295.96	1.40576
1299.33	46.2705
