Measurement: Raman, 780 nm, unoriented, Raman Data Processed
Mineral: Lepidocrocite
Rruff sample: R050454
Ideal chemistry: Fe^3+^O(OH)
Locality: Malvern, Chester County, Pennsylvania, USA
Source: University of Arizona Mineral Museum
Description: Aggregate of red-brown flattened and platy crystals
Measured chemistry: Fe^3+^_0.99_O(OH)
Raman shift (cm-1)	intensity
162.244	0
165.137	0.152128
168.029	0.139246
170.922	0.345964
173.815	0.273382
176.707	0.248187
179.6	0.10435
182.493	0.072225
185.385	0.444806
188.278	0.01796
191.171	1.03777
194.064	1.50938
196.956	2.06571
199.849	2.63191
202.742	3.60037
205.634	3.93309
208.527	4.25601
211.42	5.14703
214.312	6.3103
217.205	4.73668
220.098	4.29268
222.991	4.6132
225.883	4.51131
228.776	7.45134
231.669	11.9223
234.561	15.3902
237.454	18.951
240.347	24.9427
243.239	31.3304
246.132	34.9624
249.025	34.8748
251.918	24.2794
254.81	11.581
257.703	4.80659
260.596	2.0882
263.488	0.744354
266.381	0.037973
269.274	0.112139
272.166	0.106032
275.059	0.314448
277.952	0.233317
280.845	0.096874
283.737	1.05691
286.63	1.63268
289.523	2.36023
292.415	2.94646
295.308	3.56643
298.201	3.11581
301.094	3.33889
303.986	2.9463
306.879	2.9412
309.772	1.77885
312.664	0.534262
315.557	0.019272
318.45	0.665823
321.342	0.112951
324.235	0.377684
327.128	0.334187
330.021	0.237526
332.913	0.932432
335.806	1.4783
338.699	1.59056
341.591	2.51009
344.484	2.24095
347.377	2.82788
350.269	3.60339
353.162	3.90224
356.055	5.25233
358.947	8.15509
361.84	10.158
364.733	12.4851
367.626	15.734
370.518	18.7152
373.411	20.3844
376.304	19.8096
379.197	17.9091
382.089	15.6576
384.982	14.2592
387.875	12.9404
390.767	11.6348
393.66	10.3938
396.553	8.98556
399.445	7.60616
402.338	6.73057
405.231	5.42758
408.123	4.56662
411.016	3.65933
413.909	3.32778
416.802	2.53815
419.694	2.16421
422.587	1.65148
425.48	1.17671
428.372	0.573678
431.265	0.670176
434.158	0.380416
437.05	0.251477
439.943	0.407372
442.836	0.095043
445.729	0.400698
448.621	0.085965
451.514	0.41995
454.407	0.176627
457.299	0.012288
460.192	0.016049
463.085	0.163055
465.978	0.321589
468.87	0.440713
471.763	0.426834
474.656	0.852419
477.548	0.166885
480.441	0.456462
483.334	0.498997
486.226	0.396367
489.119	0.045692
492.012	0.618532
494.904	0.399022
497.797	0.442926
500.69	0.903791
503.583	1.21355
506.475	1.53175
509.368	1.96345
512.261	2.67006
515.153	2.9672
518.046	3.55346
520.939	3.87481
523.832	3.99829
526.724	3.88118
529.617	3.53331
532.51	3.69367
535.402	2.85936
538.295	3.53564
541.188	3.38371
544.081	3.89393
546.973	3.86606
549.866	3.67186
552.759	3.32171
555.651	2.03194
558.544	1.61735
561.437	1.27825
564.329	1.16667
567.222	0.561447
570.115	0.606874
573.008	0.002491
575.9	0.382326
578.793	0.074203
581.686	0.081527
584.578	0.259654
587.471	0.065028
590.364	0.379251
593.256	0.384932
596.149	0.119993
599.042	0.056114
601.934	0.424275
604.827	0.305403
607.72	0.675545
610.613	0.70696
613.505	0.908164
616.398	1.00033
619.291	1.40874
622.183	1.25365
625.076	1.60654
627.969	2.07003
630.861	2.185
633.754	3.04875
636.647	2.40804
639.54	3.14999
642.432	2.91877
645.325	3.04164
648.218	2.77666
651.111	2.60546
654.003	2.19441
656.896	1.96615
659.789	1.51493
662.681	0.77869
665.574	0.859112
668.467	0.668604
671.359	0.60746
674.252	0.447828
677.145	0.748378
680.038	0.680751
682.93	0.239318
685.823	0.038522
688.716	0.232686
691.608	0.129082
694.501	0.145583
697.394	0.237228
700.286	0.172196
703.179	0.312291
706.072	0.062593
708.965	0.328718
711.857	0.345247
714.75	0.451938
717.643	0.093893
720.535	0.370743
723.428	0.08261
726.321	0.242779
729.213	0.352581
732.106	0.364894
734.999	0.106972
737.891	0.334921
740.784	0.357968
743.677	0.045225
746.57	0.235654
749.462	0.078372
752.355	0.361366
755.248	0.399749
758.14	0.180329
761.033	0.180112
763.926	0.282469
766.818	0.262089
769.711	0.014226
772.604	0.047487
775.497	0.203162
778.389	0.022275
781.282	0.393898
784.175	0.183268
787.067	0.448647
789.96	0.78732
792.853	0.223038
795.745	0.53885
798.638	0.654037
801.531	0.539551
804.424	0.463983
807.316	0.517477
810.209	0.42817
813.102	0.423615
815.994	0.261613
818.887	0.360492
821.78	0.203809
824.673	0.510441
827.565	0.462522
830.458	0.675666
833.351	0.422346
836.243	0.605804
839.136	0.96407
842.029	0.700758
844.922	0.60517
847.814	0.613747
850.707	0.717507
853.6	0.553304
856.492	0.646539
859.385	0.778974
862.278	0.638531
865.17	0.332246
868.063	0.769563
870.956	0.710001
873.848	0.738974
876.741	0.45481
879.634	0.271111
882.527	0.874771
885.419	0.540557
888.312	0.609142
891.205	0.240498
894.097	0.197094
896.99	0.11554
899.883	0.113177
902.775	0.066346
905.668	0.379361
908.561	0.060244
911.454	0.208721
914.346	0.216747
917.239	0.178886
920.132	0.075917
923.024	0.038238
925.917	0.099228
928.81	0.010105
931.702	0.181137
934.595	0.504982
937.488	0.095696
940.381	0.022251
943.273	0.055216
946.166	0.175584
949.059	0.178484
951.952	0.076764
954.844	0.296743
957.737	0.140546
960.63	0.252766
963.522	0.56033
966.415	0.232215
969.308	0.190064
972.2	0.286777
975.093	0.249431
977.986	0.354865
980.879	0.201472
983.771	0.247468
986.664	0.407011
989.557	0.313872
992.449	0.484714
995.342	0.282081
998.235	0.484245
1001.13	0.443578
1004.02	0.305171
1006.91	0.300695
1009.8	0.256835
1012.7	0.359499
1015.59	0.593663
1018.48	0.358293
1021.38	0.263644
1024.27	0.177728
1027.16	0.267053
1030.05	0.444287
1032.95	0.887672
1035.84	0.452116
1038.73	0.448015
1041.62	0.3368
1044.52	0.268099
1047.41	0.246384
1050.3	0.4359
1053.2	0.498703
1056.09	0.163562
1058.98	0.222011
1061.87	0.011778
1064.77	0.617595
1067.66	0.288534
1070.55	0.285349
1073.44	0.224157
1076.34	0.123243
1079.23	0.087808
1082.12	0.205979
1085.02	0.367991
1087.91	0.446625
1090.8	0.178226
1093.69	0.172228
1096.59	0.295031
1099.48	0.209465
1102.37	0.522532
1105.27	0.140921
1108.16	0.4007
1111.05	0.364172
1113.94	0.111528
1116.84	0.043229
1119.73	0.324218
1122.62	0.042155
1125.51	0.19445
1128.41	0.146252
1131.3	0.193795
1134.19	0.297515
1137.08	0.006126
1139.98	0.430993
1142.87	0.157431
1145.76	0.408572
1148.65	0.059757
1151.55	0.34378
1154.44	0.220796
1157.33	0.423186
1160.23	0.477087
1163.12	0.267779
1166.01	0.242068
1168.9	0.004657
1171.8	0.301043
1174.69	0.192177
1177.58	0.121031
1180.47	0.339335
1183.37	0.168787
1186.26	0.182593
1189.15	0.304224
1192.05	0.307233
1194.94	0.336331
1197.83	0.229021
1200.72	0.324812
1203.62	0.042115
1206.51	0.099413
1209.4	0.28301
1212.3	0.493777
1215.19	0.347603
1218.08	0.199291
1220.97	0.437252
1223.87	0.292289
1226.76	0.101697
1229.65	0.074801
1232.54	0.301579
1235.44	0.317133
1238.33	0.347861
1241.22	0.173856
1244.11	0.105772
1247.01	0.203697
1249.9	0.526853
1252.79	0.634159
1255.68	0.442199
1258.58	0.277596
1261.47	0.651896
1264.36	0.306004
1267.26	0.436485
1270.15	0.405228
1273.04	0.946488
1275.93	0.489573
1278.83	0.385504
1281.72	0.031566
1284.61	0.365487
1287.51	0
