Measurement: Raman, 532 nm, unoriented, Raman Data Processed
Mineral: Lepidocrocite
Rruff sample: R050454
Ideal chemistry: Fe^3+^O(OH)
Locality: Malvern, Chester County, Pennsylvania, USA
Source: University of Arizona Mineral Museum
Description: Aggregate of red-brown flattened and platy crystals
Measured chemistry: Fe^3+^_0.99_O(OH)
Raman shift (cm-1)	intensity
163.807	0
166.7	0.324195
169.593	0.43074
172.486	0.52212
175.378	0.200321
178.271	1.09425
181.164	0.097631
184.056	0.657224
186.949	0.024971
189.842	0.020023
192.734	0.24327
195.627	0.511936
198.52	1.68187
201.412	3.09695
204.305	4.30996
207.198	5.69758
210.091	6.73422
212.983	11.3073
215.876	14.8777
218.769	10.6419
221.661	7.16433
224.554	6.99158
227.447	6.31096
230.339	10.5647
233.232	16.441
236.125	23.2266
239.018	29.0579
241.91	37.0442
244.803	50.9042
247.696	75.2371
250.588	89.0427
253.481	57.554
256.374	23.8496
259.267	10.8871
262.159	5.81262
265.052	3.22998
267.945	1.52974
270.837	0.9714
273.73	0.145841
276.623	0.18359
279.515	0.069021
282.408	0.072969
285.301	0.174164
288.193	0.15631
291.086	1.63635
293.979	2.22507
296.872	3.28721
299.764	4.02026
302.657	4.83516
305.55	4.25294
308.442	3.82104
311.335	2.24625
314.228	0.949005
317.12	0.523036
320.013	0.401479
322.906	0.450617
325.799	0.106496
328.691	0.333718
331.584	1.11688
334.477	1.44372
337.369	1.68166
340.262	2.45009
343.155	2.67673
346.048	2.81095
348.94	2.28484
351.833	1.9085
354.726	0.894753
357.618	1.51651
360.511	1.94953
363.404	2.3962
366.296	3.35767
369.189	5.40303
372.082	7.80435
374.974	8.68345
377.867	10.1054
380.76	10.4616
383.653	9.85029
386.545	9.54382
389.438	8.64181
392.331	8.74722
395.223	7.6803
398.116	7.25105
401.009	5.70937
403.901	3.69715
406.794	3.56566
409.687	3.04324
412.58	3.63076
415.472	3.51926
418.365	2.65221
421.258	2.06917
424.15	0.911814
427.043	0.085976
429.936	0.273952
432.829	0.120949
435.721	0.043038
438.614	0.046553
441.507	0.004175
444.399	0.111895
447.292	0.409797
450.185	0.04197
453.077	0.058996
455.97	0.223353
458.863	0.07416
461.755	0.043674
464.648	0.156915
467.541	1.20227
470.434	1.03207
473.326	1.34166
476.219	0.973886
479.112	1.91312
482.004	1.67403
484.897	1.7609
487.79	1.53155
490.683	2.65665
493.575	3.01206
496.468	4.0322
499.361	6.86912
502.253	7.54396
505.146	10.6995
508.039	15.3003
510.931	21.1687
513.824	29.0155
516.717	37.3968
519.61	47.8471
522.502	56.5452
525.395	58.4659
528.288	50.9287
531.18	39.6654
534.073	28.4979
536.966	21.1962
539.859	17.7203
542.751	15.3351
545.644	13.107
548.537	11.0403
551.429	9.40299
554.322	7.32616
557.215	5.23571
560.107	4.75315
563	3.47169
565.893	2.00416
568.785	0.960789
571.678	0.705371
574.571	0.19883
577.464	0.122454
580.356	0.148417
583.249	0.09912
586.142	0.117435
589.034	0.196164
591.927	0.288201
594.82	0.087805
597.712	0.050645
600.605	0.130174
603.498	0.07947
606.39	0.039573
609.283	0.026976
612.176	0.022944
615.069	0.321247
617.961	0.827231
620.854	0.4033
623.747	0.505651
626.639	1.64276
629.532	2.2117
632.425	2.91696
635.317	3.74701
638.21	4.32
641.103	5.04391
643.996	6.05476
646.888	5.90518
649.781	6.34251
652.674	5.38881
655.566	4.57153
658.459	3.62997
661.352	3.52197
664.245	2.85101
667.137	1.78046
670.03	1.87916
672.923	2.18197
675.815	1.11175
678.708	1.99476
681.601	1.99211
684.493	2.05122
687.386	1.14819
690.279	1.6738
693.172	0.234491
696.064	0.824832
698.957	0.105171
701.85	0.425439
704.742	0.355571
707.635	0.069808
710.528	0.033559
713.42	0.52423
716.313	0.145805
719.206	0.593534
722.098	0.932631
724.991	0.686581
727.884	1.0452
730.777	0.824674
733.669	0.777097
736.562	0.648276
739.455	0.488187
742.347	0.52987
745.24	0.330194
748.133	0.421981
751.025	0.053782
753.918	0.088748
756.811	0.168016
759.704	0.05205
762.596	0.023173
765.489	0.296716
768.382	0.00761
771.274	0.497757
774.167	0.287388
777.06	0.173928
779.952	0.037208
782.845	0.980705
785.738	0.662812
788.631	0.557782
791.523	0.50305
794.416	0.263105
797.309	0.888931
800.201	0.528482
803.094	0.712882
805.987	0.627032
808.88	0.408213
811.772	0.032441
814.665	0.050151
817.558	0.837201
820.45	0.159118
823.343	0.558342
826.236	0.023836
829.128	0.404658
832.021	0.176622
834.914	0.478649
837.807	0.288445
840.699	0.236482
843.592	0.394465
846.485	0.660706
849.377	0.617834
852.27	0.344344
855.163	0.356983
858.055	0.483106
860.948	0.43663
863.841	0.642617
866.734	0.843304
869.626	0.952793
872.519	0.877562
875.412	0.652446
878.304	0.764612
881.197	0.285052
884.09	0.712804
886.982	0.670216
889.875	0.462918
892.768	0.497637
895.66	0.43265
898.553	0.475605
901.446	0.63471
904.339	0.544402
907.231	0.402027
910.124	0.312921
913.017	0.022807
915.909	0.063357
918.802	0.217704
921.695	0.562696
924.587	0.208044
927.48	0.037413
930.373	0.000534
933.266	0.082429
936.158	0.269249
939.051	0.429819
941.944	0.181859
944.836	0.160138
947.729	0.400017
950.622	0.255657
953.514	0.696555
956.407	0.909772
959.3	0.503469
962.193	0.016358
965.085	0.721994
967.978	0.368029
970.871	0.64229
973.763	0.18336
976.656	0.048664
979.549	0.280668
982.442	0.939316
985.334	0.926857
988.227	0.478704
991.12	0.493799
994.012	0.665164
996.905	0.853212
999.798	0.717317
1002.69	0.989291
1005.58	0.971702
1008.48	1.10123
1011.37	0.704247
1014.26	0.088091
1017.15	0.061521
1020.05	0.327125
1022.94	0.492817
1025.83	0.151886
1028.72	0.797821
1031.62	0.697612
1034.51	0.365848
1037.4	0.95504
1040.3	1.10278
1043.19	0.505553
1046.08	0.937196
1048.97	0.791677
1051.87	0.896868
1054.76	0.853076
1057.65	0.545888
1060.54	0.608857
1063.44	0.743192
1066.33	0.026272
1069.22	0.199027
1072.12	0.143641
1075.01	0.052232
1077.9	0.348984
1080.79	0.081755
1083.69	0.026188
1086.58	0.027002
1089.47	0.031613
1092.36	0.230076
1095.26	0.518445
1098.15	0.346439
1101.04	0.31682
1103.93	0.339254
1106.83	0.071599
1109.72	0.173693
1112.61	0.514073
1115.51	0.012728
1118.4	0.502638
1121.29	0.633635
1124.18	0.05573
1127.08	0.82152
1129.97	0.751563
1132.86	0.196911
1135.76	0.678838
1138.65	0.671973
1141.54	0.271552
1144.43	0.058499
1147.33	0.624291
1150.22	0.157479
1153.11	0.014139
1156	0.161626
1158.9	0.281145
1161.79	0.050744
1164.68	0.041349
1167.57	0.381822
1170.47	0.588328
1173.36	0.484881
1176.25	0.840172
1179.14	0.413597
1182.04	0.522434
1184.93	0.346303
1187.82	0.574258
1190.72	0.403172
1193.61	0.395124
1196.5	0.251871
1199.39	0.281992
1202.29	0.93924
1205.18	0.662055
1208.07	0.498611
1210.96	0.306841
1213.86	0.658458
1216.75	0.464874
1219.64	0.363753
1222.54	0.579584
1225.43	0.3065
1228.32	0.34577
1231.21	0.555949
1234.11	0.259146
1237	0.012935
1239.89	0.444929
1242.79	0.034103
1245.68	0.59797
1248.57	0.186565
1251.46	0.746894
1254.36	0.452644
1257.25	0.838896
1260.14	0.074937
1263.03	0.850824
1265.93	0.453781
1268.82	1.2124
1271.71	0.588807
1274.6	0.961396
1277.5	0.627108
1280.39	0.249146
1283.28	0
