Measurement: Raman, 532 nm, unoriented, Raman Data Processed
Mineral: Leucophoenicite
Rruff sample: R060308
Ideal chemistry: Mn^2+^_7_(SiO_4_)_3_(OH)_2_
Locality: Parker Shaft, Franklin, Sussex County, New Jersey, USA
Source: Michael Scott
Description: Pink-tan colored massive, associated with white willemite and pinkish ribbeite (R150125). X-ray shows sample is twinned 180 deg around a.
Raman shift (cm-1)	intensity
90.4922	0
93.867	2.16006
97.2418	5.27913
100.617	7.26358
103.992	14.4347
107.366	18.1214
110.741	22.1829
114.116	29.3065
117.491	20.8494
120.865	12.5382
124.24	6.88848
127.615	0.808287
130.99	4.76311
134.365	6.83368
137.74	0.016483
141.114	17.9397
144.489	27.9529
147.864	40.1902
151.239	62.3834
154.614	79.5166
157.988	81.027
161.363	79.1249
164.738	97.7629
168.113	114.901
171.488	137.238
174.863	138.574
178.237	124.178
181.612	119.78
184.987	116.353
188.362	102.007
191.737	69.0911
195.112	41.929
198.486	30.7002
201.861	25.7425
205.236	27.0862
208.611	34.3429
211.986	47.0564
215.36	62.4531
218.735	77.9899
222.11	111.934
225.485	162.042
228.86	220.372
232.234	222.951
235.609	169.505
238.984	125.817
242.359	105.298
245.734	94.3282
249.109	93.0043
252.483	87.1509
255.858	80.7059
259.233	66.625
262.608	45.1764
265.983	24.5023
269.358	7.62202
272.732	1.10942
276.107	2.03674
279.482	3.0757
282.857	6.8212
286.232	8.72217
289.606	10.361
292.981	6.91972
296.356	10.2969
299.731	14.943
303.106	21.822
306.481	27.4252
309.855	35.6648
313.23	43.6685
316.605	45.5546
319.98	41.9814
323.355	33.4741
326.729	24.0026
330.104	14.4778
333.479	8.28466
336.854	0.836235
340.229	3.32481
343.603	3.57652
346.978	4.61958
350.353	1.55349
353.728	4.10387
357.103	9.12556
360.478	16.0324
363.852	20.3355
367.227	32.2516
370.602	46.0671
373.977	66.3643
377.352	87.8984
380.726	115.997
384.101	146.266
387.476	172.88
390.851	188.331
394.226	187.744
397.601	194.282
400.975	187.075
404.35	166.612
407.725	136.87
411.1	108.838
414.475	87.3591
417.849	71.6662
421.224	57.5309
424.599	49.2558
427.974	41.5589
431.349	34.7945
434.724	29.2446
438.098	28.7044
441.473	28.2829
444.848	26.3251
448.223	29.3823
451.598	29.3125
454.972	25.0745
458.347	18.8139
461.722	13.4305
465.097	9.78212
468.472	5.46478
471.846	1.53867
475.221	3.01073
478.596	2.234
481.971	0.926559
485.346	0.714668
488.721	5.28742
492.095	6.54572
495.47	8.03971
498.845	6.43695
502.22	5.92372
505.595	4.16258
508.969	4.83462
512.344	9.18303
515.719	10.6597
519.094	11.2249
522.469	8.98627
525.844	6.38387
529.218	9.7413
532.593	11.2563
535.968	19.2203
539.343	23.3456
542.718	25.3391
546.092	31.2315
549.467	38.1207
552.842	48.7593
556.217	62.3052
559.592	86.1781
562.967	121.249
566.341	180.049
569.716	242.21
573.091	256.947
576.466	190.323
579.841	115.821
583.216	74.0089
586.59	46.5131
589.965	29.6387
593.34	20.2692
596.715	13.198
600.09	8.83695
603.464	4.19002
606.839	1.54751
610.214	1.21323
613.589	0.648605
616.964	1.77235
620.338	1.29353
623.713	1.33209
627.088	0.594688
630.463	0.72934
633.838	0.987473
637.212	2.18856
640.587	3.34309
643.962	4.42563
647.337	4.9099
650.712	5.35852
654.087	7.38837
657.461	7.12511
660.836	9.39168
664.211	11.2271
667.586	12.1754
670.961	14.0933
674.335	18.0469
677.71	18.4013
681.085	19.1019
684.46	20.3279
687.835	19.6628
691.21	18.2615
694.584	17.4538
697.959	16.2674
701.334	13.7706
704.709	10.9578
708.084	11.1821
711.458	7.00226
714.833	6.13681
718.208	4.64484
721.583	3.89527
724.958	2.41425
728.332	2.65434
731.707	1.11835
735.082	2.517
738.457	1.27303
741.832	2.40024
745.207	2.42663
748.581	1.23499
751.956	1.68309
755.331	2.20853
758.706	0.482346
762.081	0.461151
765.456	3.41435
768.83	5.34357
772.205	8.35899
775.58	16.6537
778.955	25.5538
782.33	42.1469
785.704	74.1666
789.079	121.264
792.454	214.347
795.829	381.329
799.204	684.914
802.578	1129.07
805.953	1566.76
809.328	1934.21
812.703	2215.44
816.078	2080.21
819.453	1965.4
822.827	1968.12
826.202	1515.57
829.577	1177.34
832.952	1121.05
836.327	1179.35
839.702	1194.46
843.076	1101.81
846.451	951.388
849.826	697.797
853.201	427.86
856.576	272.421
859.95	200.169
863.325	161.571
866.7	121.353
870.075	72.4297
873.45	35.7595
876.824	15.8707
880.199	1.54421
883.574	3.81737
886.949	6.05187
890.324	6.23933
893.698	0.067108
897.073	6.0883
900.448	12.5331
903.823	13.6734
907.198	21.5412
910.573	31.893
913.947	45.5798
917.322	54.3922
920.697	78.9086
924.072	86.3335
927.447	77.3516
930.822	104.584
934.196	162.836
937.571	197.669
940.946	150.666
944.321	99.6546
947.696	71.8999
951.07	45.9526
954.445	26.713
957.82	9.53357
961.195	2.89998
964.57	0.722595
967.944	0.243622
971.319	0.833214
974.694	0.981705
978.069	3.81229
981.444	0.147682
984.819	1.47147
988.193	1.87049
991.568	0.321602
994.943	0.814461
998.318	2.32116
1001.69	1.84992
1005.07	1.29067
1008.44	0.492165
1011.82	0.391747
1015.19	0.403351
1018.57	1.93346
1021.94	3.00668
1025.32	1.96152
1028.69	4.40441
1032.07	3.47362
1035.44	5.6212
1038.82	4.45868
1042.19	3.23463
1045.57	3.18918
1048.94	3.04344
1052.32	2.30519
1055.69	1.88775
1059.07	1.36672
1062.44	2.75753
1065.81	2.04379
1069.19	0.510605
1072.56	1.83811
1075.94	1.13322
1079.31	1.2
1082.69	1.09084
1086.06	2.60309
1089.44	2.99999
1092.81	3.75252
1096.19	4.22069
1099.56	3.85513
1102.94	3.40719
1106.31	3.45971
1109.69	0.780907
1113.06	3.7262
1116.44	1.01398
1119.81	1.82552
1123.19	1.17511
1126.56	1.22292
1129.94	1.35265
1133.31	2.23644
1136.68	4.25598
1140.06	6.82865
1143.43	7.40048
1146.81	6.24342
1150.18	7.45182
1153.56	7.79754
1156.93	7.91364
1160.31	6.67017
1163.68	6.23745
1167.06	6.1661
1170.43	4.5671
1173.81	4.48836
1177.18	4.0407
1180.56	2.28054
1183.93	2.31667
1187.31	0.11528
1190.68	0.744873
1194.06	0.102188
1197.43	0.789139
1200.81	0.384155
1204.18	0.418297
1207.56	1.21194
1210.93	1.12991
1214.31	1.3026
1217.68	1.5695
1221.06	0.962646
1224.43	0.26532
1227.81	1.11008
1231.18	0.199425
1234.56	2.03679
1237.93	0.657471
1241.31	0.745148
1244.68	1.75521
1248.05	2.21996
1251.43	2.87391
1254.8	2.97867
1258.18	1.8455
1261.55	2.69562
1264.93	0.65818
1268.3	2.97112
1271.68	2.56654
1275.05	1.71316
1278.43	1.62987
1281.8	0.219246
1285.18	0.349014
1288.55	2.89798
1291.93	1.49171
1295.3	3.02647
1298.68	1.16055
1302.05	0.58284
