Measurement: Raman, 532 nm, unoriented, Raman Data Processed
Mineral: Leucophanite
Rruff sample: R050004
Ideal chemistry: NaCaBeSi_2_O_6_F
Locality: Langesundfjord, Norway
Source: University of Arizona Mineral Museum
Description: Pale green massive
Measured chemistry: Ca_1.00_Ca_1.00_Na_2.00_Be_2.00_Si_4.00_O_12_(F_0.96_(OH)_0.04_)_2_
Raman shift (cm-1)	intensity
141.948	0
145.323	5.48193
148.698	66.4819
152.072	245.491
155.447	374.587
158.822	382.571
162.197	382.637
165.572	347.401
168.946	439.157
172.321	441.144
175.696	446.412
179.071	360.899
182.446	333.239
185.821	331.948
189.195	358.231
192.57	323.452
195.945	315.986
199.32	330.275
202.695	266.964
206.07	192.337
209.444	173.82
212.819	141.372
216.194	126.095
219.569	104.655
222.944	130.558
226.318	123.968
229.693	155.441
233.068	94.0469
236.443	108.067
239.818	224.439
243.192	289.01
246.567	197.319
249.942	225.667
253.317	184.735
256.692	102.284
260.067	36.0947
263.441	22.9038
266.816	70.0806
270.191	93.6626
273.566	110.332
276.941	148.905
280.315	118.898
283.69	60.5215
287.065	55.6435
290.44	35.3857
293.815	37.4951
297.19	13.0244
300.564	1.23242
303.939	21.1309
307.314	177.535
310.689	355.984
314.064	564.033
317.438	421.828
320.813	342.253
324.188	434.935
327.563	312.582
330.938	320.44
334.313	348.108
337.687	524.244
341.062	611.199
344.437	616.597
347.812	474.673
351.187	399.793
354.562	449.247
357.936	386.696
361.311	439.973
364.686	438.216
368.061	315.884
371.436	297.363
374.81	374.378
378.185	197.617
381.56	204.886
384.935	120.689
388.31	9.68457
391.685	27.5449
395.059	52.7217
398.434	74.0283
401.809	185.894
405.184	321.259
408.559	315.607
411.933	269.653
415.308	130.11
418.683	93.3018
422.058	113.672
425.433	196.304
428.808	337.826
432.182	466.331
435.557	545.546
438.932	527.607
442.307	481.497
445.682	332.796
449.056	258.884
452.431	220.968
455.806	253.31
459.181	238.367
462.556	122.619
465.93	174.871
469.305	252.751
472.68	225.733
476.055	110.279
479.43	22.9473
482.805	23.166
486.179	14.0479
489.554	186.709
492.929	414.662
496.304	636.84
499.679	782.425
503.053	855.967
506.428	854.998
509.803	544.341
513.178	604.711
516.553	426.701
519.928	457.852
523.302	550.389
526.677	693.137
530.052	884.994
533.427	931.328
536.802	1036.39
540.177	828.996
543.551	600.769
546.926	421.191
550.301	393.457
553.676	464.557
557.051	586.385
560.425	470.457
563.8	616.91
567.175	321.775
570.55	208.42
573.925	173.664
577.299	5.66016
580.674	15.8926
584.049	26.4707
587.424	47.4551
590.799	50.6211
594.174	125.766
597.548	37.4668
600.923	202.15
604.298	263.043
607.673	309.518
611.048	330.897
614.423	394.019
617.797	411.307
621.172	380.391
624.547	361.637
627.922	387.426
631.297	248.566
634.671	245.795
638.046	277.131
641.421	336.857
644.796	362.074
648.171	403.219
651.545	359.412
654.92	525.811
658.295	562.881
661.67	973.611
665.045	1966.08
668.42	2967.17
671.794	4320.78
675.169	5679.56
678.544	4706.03
681.919	2517.49
685.294	1361.72
688.668	742.217
692.043	590.102
695.418	728.771
698.793	774.283
702.168	1033.29
705.543	1053.15
708.917	804.152
712.292	686.361
715.667	276.178
719.042	192.709
722.417	67.8106
725.792	87.625
729.166	47.832
732.541	19.5703
735.916	57.2324
739.291	17.873
742.666	110.102
746.04	47.3125
749.415	31.8809
752.79	22.9629
756.165	240.289
759.54	376.918
762.915	346.135
766.289	318.022
769.664	198.065
773.039	227.734
776.414	225.934
779.789	275.383
783.163	168.541
786.538	287.178
789.913	151.041
793.288	131.793
796.663	278.664
800.038	205.652
803.412	234.102
806.787	184.736
810.162	89.9961
813.537	161.09
816.912	56.0547
820.286	106.144
823.661	102.152
827.036	69.3438
830.411	66.5898
833.786	152.234
837.16	110.051
840.535	248.285
843.91	217.281
847.285	308.613
850.66	268.656
854.035	376.238
857.409	513.168
860.784	271.328
864.159	481.508
867.534	233.117
870.909	284.535
874.284	168.199
877.658	229.844
881.033	277.891
884.408	172.637
887.783	286.305
891.158	107.625
894.533	141
897.907	52.7188
901.282	66.7969
904.657	104.363
908.032	86.8711
911.407	60.7148
914.781	208.043
918.156	151.973
921.531	225.664
924.906	280.309
928.281	63.0703
931.655	215.144
935.03	337.508
938.405	476.805
941.78	415.465
945.155	244.644
948.529	207.938
951.904	106.879
955.279	284.559
958.654	217.883
962.029	429.504
965.404	478.094
968.778	334.961
972.153	38.5938
975.528	102.066
978.903	83.332
982.278	22.7109
985.653	11.9922
989.027	116.324
992.402	38.7969
995.777	49.6719
999.152	110.594
1002.53	251.078
1005.9	142.805
1009.28	529.094
1012.65	865.07
1016.03	1728.17
1019.4	3234.01
1022.78	4644.78
1026.15	4551.88
1029.53	2244.39
1032.9	1437.06
1036.28	1308.13
1039.65	1221.68
1043.02	1741.25
1046.4	1867.77
1049.77	2342.69
1053.15	2604.32
1056.52	2937.76
1059.9	2851.25
1063.27	2872.91
1066.65	2723.54
1070.02	2711.33
1073.4	2147.31
1076.77	1864.41
1080.15	1473.21
1083.52	1008.45
1086.9	848.477
1090.27	630.84
1093.65	488.809
1097.02	273.562
1100.4	147.324
1103.77	11.5898
1107.15	172.246
1110.52	17.5547
1113.9	130.469
1117.27	2.25391
1120.64	12.2852
1124.02	40.2891
1127.39	113.684
1130.77	13.8086
1134.14	34.5117
1137.52	8.28516
1140.89	386.168
1144.27	175.93
1147.64	94.418
1151.02	213.191
1154.39	37.6523
1157.77	114.844
1161.14	231.961
1164.52	58.1875
1167.89	209.383
1171.27	100.672
1174.64	153.242
1178.02	32.1016
1181.39	86.7031
1184.77	7.25
1188.14	53.5781
1191.52	92.2734
1194.89	179.344
1198.27	106.445
1201.64	166.641
1205.02	277.141
1208.39	209.555
1211.77	274.961
1215.14	36.9844
1218.52	338.281
1221.89	277.172
1225.27	32.2422
1228.64	337.352
1232.01	231.766
1235.39	432.695
1238.76	410.75
1242.14	417.805
1245.51	217.922
1248.89	444.281
1252.26	489.477
1255.64	257.656
1259.01	164.875
1262.39	208
1265.76	268.781
1269.14	370.766
1272.51	433.375
1275.89	336.719
1279.26	279.93
1282.64	334.383
1286.01	404.531
1289.39	262.57
1292.76	184.562
1296.14	250.484
1299.51	90.4453
1302.88	26.5
