Measurement: Raman, 780 nm, unoriented, Raman Data Processed
Mineral: Leucosphenite
Rruff sample: R060201
Ideal chemistry: Na_4_BaTi_2_B_2_Si_10_O_30_
Locality: Poudrette Quarry, Mont Saint-Hilaire, Rouville County, Quebec, Canada
Source: Royal Ontario Museum
Description: Bluish-green prismatic crystal associated with small colorless albite crystals
Measured chemistry: (Ba_0.91_[box]_0.09_)_Σ=1_(Na_3.84_K_0.16_)_Σ=4_(Ti_1.77_Nb^5+^_0.18_Zr_0.05_)_Σ=2_B_2.00_Si_10.00_O_30_ ; B not measured but estimated by difference and charge balance
Raman shift (cm-1)	intensity
108.701	0
112.076	19.2014
115.451	17.5203
118.826	14.095
122.201	5.93014
125.575	0.643975
128.95	1.06557
132.325	0.887867
135.7	14.0164
139.075	27.6925
142.449	44.2277
145.824	57.7631
149.199	75.9041
152.574	60.6777
155.949	45.753
159.323	56.2347
162.698	65.3693
166.073	35.8139
169.448	24.6642
172.823	15.8224
176.198	11.786
179.572	16.0598
182.947	28.0452
186.322	30.1826
189.697	16.4338
193.072	2.48883
196.446	1.5105
199.821	1.56908
203.196	7.5083
206.571	14.5731
209.946	19.0164
213.321	0.138743
216.695	0.323676
220.07	1.94413
223.445	0.924013
226.82	2.47507
230.195	7.55804
233.569	3.59329
236.944	10.0293
240.319	15.0843
243.694	23.6226
247.069	35.4922
250.444	54.703
253.818	64.531
257.193	57.2189
260.568	54.1143
263.943	49.7223
267.318	63.1334
270.692	70.8262
274.067	51.7615
277.442	34.6733
280.817	43.433
284.192	70.1452
287.567	117.825
290.941	140
294.316	93.9886
297.691	52.96
301.066	45.9933
304.441	43.2055
307.815	22.3177
311.19	9.29224
314.565	2.6079
317.94	10.0856
321.315	9.03657
324.69	4.05736
328.064	9.76108
331.439	3.25777
334.814	0.98125
338.189	3.77937
341.564	2.53396
344.938	2.67924
348.313	14.1471
351.688	19.7658
355.063	22.7689
358.438	9.73769
361.812	5.70288
365.187	1.09321
368.562	1.6384
371.937	3.83994
375.312	12.0513
378.687	17.1061
382.061	22.0749
385.436	36.0352
388.811	50.851
392.186	64.8849
395.561	63.6341
398.935	40.144
402.31	33.7633
405.685	44.8743
409.06	50.4999
412.435	49.2432
415.81	66.3384
419.184	67.7419
422.559	73.5799
425.934	87.3986
429.309	78.2155
432.684	59.9077
436.058	50.4475
439.433	42.0983
442.808	23.7662
446.183	9.13133
449.558	0.852687
452.933	0.441681
456.307	0.005051
459.682	0.412987
463.057	1.81136
466.432	1.19193
469.807	9.43975
473.181	35.352
476.556	95.6724
479.931	126.481
483.306	64.4869
486.681	36.1418
490.055	48.5208
493.43	74.0875
496.805	101.585
500.18	129.638
503.555	160.735
506.93	210.373
510.304	143.364
513.679	53.8995
517.054	20.0061
520.429	7.82221
523.804	3.69236
527.178	0.371332
530.553	0.251927
533.928	0.425949
537.303	6.29501
540.678	15.3512
544.053	21.4987
547.427	34.3315
550.802	48.7909
554.177	55.1078
557.552	64.0308
560.927	68.3659
564.302	76.3752
567.676	72.1036
571.051	59.8636
574.426	40.2522
577.801	22.9507
581.176	15.7465
584.55	6.99071
587.925	5.93392
591.3	4.40031
594.675	0.443693
598.05	0.696347
601.424	1.03975
604.799	0.353197
608.174	3.34487
611.549	6.22005
614.924	6.98022
618.298	5.68909
621.673	12.7559
625.048	16.044
628.423	20.2871
631.798	30.2566
635.173	38.3372
638.547	44.3655
641.922	54.3426
645.297	62.4297
648.672	70.1159
652.047	69.5982
655.422	62.5449
658.796	54.8167
662.171	46.0639
665.546	38.4829
668.921	32.4841
672.296	27.1287
675.67	21.7173
679.045	18.0656
682.42	11.7539
685.795	10.3763
689.17	2.39062
692.544	1.2649
695.919	2.13912
699.294	0.691161
702.669	0.700815
706.044	1.62199
709.419	0.266405
712.793	0.238633
716.168	3.92798
719.543	4.35779
722.918	5.72231
726.293	2.44737
729.668	7.9737
733.042	6.062
736.417	4.78636
739.792	3.1737
743.167	2.69771
746.542	0.458524
749.916	4.24408
753.291	2.70949
756.666	6.58284
760.041	13.8449
763.416	19.8961
766.79	13.0596
770.165	3.21261
773.54	2.84509
776.915	0.560018
780.29	0.439921
783.665	0.201771
787.039	0.135963
790.414	0.721346
793.789	2.08662
797.164	2.9007
800.539	1.71871
803.913	0.626579
807.288	2.44554
810.663	5.42727
814.038	9.28573
817.413	5.65155
820.788	2.17836
824.162	0.431798
827.537	1.53755
830.912	0.412727
834.287	1.78347
837.662	0.462866
841.036	4.65066
844.411	5.05512
847.786	6.93006
851.161	12.8138
854.536	18.8158
857.91	28.1611
861.285	30.1985
864.66	28.6609
868.035	24.3602
871.41	13.0745
874.784	10.6768
878.159	10.6163
881.534	8.38492
884.909	7.39929
888.284	7.82497
891.659	4.79289
895.033	2.52524
898.408	1.29872
901.783	1.06479
905.158	0.453081
908.533	0.749165
911.908	0.6084
915.282	0.359554
918.657	2.95029
922.032	11.497
925.407	19.3898
928.782	30.7182
932.156	41.4038
935.531	55.3948
938.906	67.5851
942.281	81.5511
945.656	90.8551
949.03	105.031
952.405	116.886
955.78	124.28
959.155	126.457
962.53	127.51
965.905	113.531
969.279	102.619
972.654	86.8791
976.029	71.3032
979.404	54.5568
982.779	42.9885
986.154	38.4026
989.528	28.9099
992.903	23.6112
996.278	19.2695
999.653	14.0086
1003.03	11.9554
1006.4	14.113
1009.78	5.0542
1013.15	4.50866
1016.53	0.541631
1019.9	0.603545
1023.28	0.071192
1026.65	1.10277
1030.03	0.443093
1033.4	2.9808
1036.78	1.42724
1040.15	0.645922
1043.53	0.736399
1046.9	2.05237
1050.28	2.82809
1053.65	3.87041
1057.03	4.44775
1060.4	2.26525
1063.77	3.18529
1067.15	9.57035
1070.52	11.5524
1073.9	14.7335
1077.27	21.3451
1080.65	28.4416
1084.02	33.4733
1087.4	41.0408
1090.77	42.4858
1094.15	40.745
1097.52	37.0862
1100.9	33.1284
1104.27	24.382
1107.65	14.135
1111.02	14.162
1114.4	13.1401
1117.77	13.1819
1121.15	4.71227
1124.52	2.09625
1127.9	1.94634
1131.27	1.38348
1134.64	0.127838
1138.02	0.921488
1141.39	0.854131
1144.77	0.234854
1148.14	1.18816
1151.52	0.347575
1154.89	0.363521
1158.27	3.95423
1161.64	3.46178
1165.02	1.1379
1168.39	2.6673
1171.77	1.95433
1175.14	4.31703
1178.52	6.26753
1181.89	3.39581
1185.27	0.964435
1188.64	3.13416
1192.02	2.57117
1195.39	2.25493
1198.77	3.49288
1202.14	1.80454
1205.52	3.54804
1208.89	0.859255
1212.27	2.71191
1215.64	0.416854
1219.02	1.30015
1222.39	1.33876
1225.77	2.35318
1229.14	0.786124
1232.52	4.75694
1235.89	2.95635
1239.27	6.0523
1242.64	6.81512
1246.01	7.18081
1249.39	4.51319
1252.76	4.11182
1256.14	2.92236
1259.51	1.15538
1262.89	3.25342
1266.26	0.05276
1269.64	5.02239
1273.01	8.34509
1276.39	4.3682
1279.76	2.01225
1283.14	0.520589
