Measurement: Raman, 532 nm, unoriented, Raman Data Processed
Mineral: Leucophosphite
Rruff sample: R080126
Ideal chemistry: KFe^3+^_2_(PO_4_)_2_(OH)2H_2_O
Locality: Tip Top mine, Custer County, South Dakota, USA
Source: Thomas A. Loomis
Description: Violet subhedral crystals on a matrix of rockbridgeite and associated with pale yellow acicular segelerite (R080127).
Raman shift (cm-1)	intensity
128.613	0
131.988	114.519
135.363	435.569
138.737	837.541
142.112	873.992
145.487	844.054
148.862	742.967
152.237	876.235
155.612	941.477
158.986	1006.83
162.361	1271.03
165.736	765.195
169.111	185.578
172.486	63.6511
175.86	107.63
179.235	41.4321
182.61	56.5791
185.985	196.174
189.36	282.466
192.734	375.868
196.109	475.059
199.484	592.66
202.859	653.711
206.234	597.633
209.608	646.167
212.983	762.305
216.358	764.117
219.733	709.429
223.108	637.827
226.483	506.421
229.857	309.852
233.232	193.096
236.607	185.473
239.982	315.969
243.357	541.065
246.732	809.763
250.106	1009.07
253.481	986.159
256.856	736.048
260.231	436.379
263.606	188.833
266.98	62.342
270.355	121.851
273.73	256.844
277.105	479.4
280.48	645.355
283.854	719.944
287.229	827.802
290.604	1137.13
293.979	1634.54
297.354	2316.07
300.729	2779.49
304.103	2653.47
307.478	2213.38
310.853	1778.58
314.228	1509.97
317.603	1411.07
320.978	1310.42
324.352	1262.31
327.727	1339.88
331.102	1400.47
334.477	1198.38
337.852	777.855
341.226	328.196
344.601	50.6179
347.976	80.1301
351.351	114.414
354.726	56.8274
358.1	68.0491
361.475	204.276
364.85	320.471
368.225	516.89
371.6	617.495
374.974	632.624
378.349	618.774
381.724	573.69
385.099	585.351
388.474	685.701
391.849	860.838
395.223	1131.99
398.598	1386.15
401.973	1600.02
405.348	1619.18
408.723	1487.98
412.098	1277.7
415.472	1141.31
418.847	992.319
422.222	781.036
425.597	611.065
428.972	573.717
432.346	591.27
435.721	507.025
439.096	237.239
442.471	64.4375
445.846	1.11231
449.221	12.5505
452.595	19.812
455.97	115.276
459.345	266.42
462.72	472.069
466.095	727.443
469.469	1031.55
472.844	1340.05
476.219	1557.14
479.594	1567.04
482.969	1352.69
486.344	1121.64
489.718	980.488
493.093	889.705
496.468	720.407
499.843	472.099
503.218	258.329
506.592	119.218
509.967	49.6594
513.342	5.03394
516.717	19.9733
520.092	28.2246
523.466	19.7118
526.841	1.55261
530.216	10.5443
533.591	53.9096
536.966	89.1464
540.341	187.069
543.715	280.118
547.09	378.33
550.465	416.044
553.84	348.674
557.215	227.534
560.59	173.295
563.964	167.795
567.339	169.349
570.714	171.354
574.089	190.328
577.464	196.774
580.838	229.712
584.213	300.437
587.588	407.419
590.963	617.742
594.338	967.741
597.712	1438.23
601.087	2058.41
604.462	2857.62
607.837	3493.19
611.212	3550.7
614.587	3033.53
617.961	2663.16
621.336	2508.26
624.711	2512.6
628.086	2386.11
631.461	1908.3
634.835	1257.09
638.21	788.727
641.585	506.834
644.96	345.857
648.335	253.415
651.71	177.755
655.084	137.171
658.459	84.5416
661.834	57.1566
665.209	40.876
668.584	20.4392
671.958	12.9131
675.333	1.22571
678.708	4.44885
682.083	10.8772
685.458	0.084717
688.832	10.4902
692.207	11.5096
695.582	15.8131
698.957	0.759521
702.332	7.33508
705.707	1.92029
709.081	0.403931
712.456	4.24341
715.831	15.8971
719.206	15.9497
722.581	17.4172
725.955	18.6232
729.33	29.4856
732.705	18.4219
736.08	35.9319
739.455	25.8794
742.83	28.5231
746.204	23.8508
749.579	25.6445
752.954	30.6056
756.329	10.4509
759.704	25.3654
763.078	15.7299
766.453	18.2168
769.828	31.1189
773.203	32.0763
776.578	25.457
779.952	24.0902
783.327	34.4383
786.702	30.2646
790.077	17.4066
793.452	17.8397
796.827	24.4296
800.201	18.5525
803.576	33.2959
806.951	37.7728
810.326	36.1234
813.701	27.6025
817.076	34.8268
820.45	40.3928
823.825	48.3539
827.2	65.6152
830.575	82.9799
833.95	100.206
837.324	107.024
840.699	116.421
844.074	123.557
847.449	109.28
850.824	93.5942
854.198	94.0515
857.573	99.8751
860.948	104.294
864.323	107.922
867.698	121.281
871.073	116.304
874.447	120.859
877.822	121.722
881.197	105.183
884.572	95.4259
887.947	83.5614
891.322	65.4367
894.696	50.6085
898.071	51.7853
901.446	35.4836
904.821	30.2427
908.196	12.7366
911.57	8.68543
914.945	8.4082
918.32	7.78284
921.695	12.3326
925.07	30.2816
928.444	26.212
931.819	33.377
935.194	14.1238
938.569	2.45483
941.944	23.635
945.318	52.6299
948.693	98.6023
952.068	182.637
955.443	300.98
958.818	460.829
962.193	678.855
965.567	928.198
968.942	1222.02
972.317	1548.41
975.692	1829.68
979.067	2112.48
982.442	2595.74
985.816	3230.75
989.191	3543.64
992.566	3362.24
995.941	3109.16
999.316	2728.94
1002.69	2308.83
1006.07	2105.06
1009.44	1954.72
1012.82	1670
1016.19	1271.94
1019.57	1024.2
1022.94	990.369
1026.31	1062.39
1029.69	1099.68
1033.06	1089.51
1036.44	1230.65
1039.81	1561.74
1043.19	2033.81
1046.56	2726.7
1049.94	3478.11
1053.31	3869.18
1056.69	3441.66
1060.06	2515.86
1063.44	1642.46
1066.81	889.16
1070.19	410.704
1073.56	165.255
1076.94	31.3872
1080.31	37.6904
1083.69	57.2227
1087.06	50.4368
1090.44	8.7832
1093.81	52.5723
1097.18	150.953
1100.56	229.108
1103.93	226.429
1107.31	173.935
1110.68	106.253
1114.06	80.7983
1117.43	99.5321
1120.81	178.749
1124.18	297.005
1127.56	435.702
1130.93	555.756
1134.31	552.098
1137.68	386.796
1141.06	220.52
1144.43	68.4304
1147.81	15.6707
1151.18	0.375854
1154.56	4.68262
1157.93	19.2153
1161.31	56.4393
1164.68	109.107
1168.06	201.501
1171.43	274.952
1174.81	294.39
1178.18	230.227
1181.56	129.886
1184.93	71.0732
1188.31	40.8864
1191.68	34.2135
1195.06	22.6472
1198.43	14.8965
1201.81	9.06787
1205.18	9.59033
1208.55	0.033936
1211.93	5.77747
1215.3	2.5083
1218.68	6.87341
1222.05	6.36804
1225.43	2.44885
1228.8	15.8434
1232.18	15.432
1235.55	18.3489
1238.93	22.9567
1242.3	19.8683
1245.68	23.0553
1249.05	34.302
1252.43	36.6473
1255.8	35.0457
1259.18	38.1993
1262.55	26.5155
1265.93	23.8449
1269.3	23.9259
1272.68	13.378
1276.05	16.3123
1279.42	23.5465
1282.8	22.9027
1286.17	7.40698
1289.55	14.9302
1292.92	22.1058
1296.3	5.422
1299.67	9.50623
