Measurement: Raman, 532 nm, unoriented, Raman Data Processed
Mineral: Leucite
Rruff sample: R060300
Ideal chemistry: K(Si_2_Al)O_6_
Locality: Alban Hills, Rome Province, Latium, Italy
Source: Herb Obodda
Description: Colorless complete pseudocubic crystal showing trapezohedral faces
Measured chemistry: (K_0.98_Na_0.02_)_Î£=1_Al_1.00_Si_2.00_O_6_
Raman shift (cm-1)	intensity
131.954	0
135.329	0.796234
138.704	0.127106
142.079	18.3884
145.453	35.4862
148.828	56.7592
152.203	90.8418
155.578	127.624
158.953	134.342
162.328	127.899
165.702	129.273
169.077	135.672
172.452	149.447
175.827	165.048
179.202	175.453
182.577	179.884
185.951	166.661
189.326	143.026
192.701	120.7
196.076	97.9269
199.451	83.8274
202.825	78.1382
206.2	78.3335
209.575	74.4854
212.95	75.4152
216.325	67.4837
219.699	57.945
223.074	43.5685
226.449	32.4375
229.824	21.974
233.199	13.9959
236.573	7.29684
239.948	4.89359
243.323	1.76385
246.698	1.67299
250.073	1.89866
253.448	1.5692
256.822	0.538017
260.197	1.37634
263.572	1.9355
266.947	0.041161
270.322	0.94561
273.697	0.096809
277.071	0.33139
280.446	0.573151
283.821	3.42878
287.196	8.72981
290.571	13.3346
293.945	27.2766
297.32	37.3954
300.695	43.2475
304.07	41.382
307.445	35.9412
310.82	27.856
314.194	23.0781
317.569	19.8802
320.944	18.7053
324.319	16.7275
327.694	17.4725
331.068	20.5686
334.443	24.7463
337.818	23.0274
341.193	21.2433
344.568	14.1144
347.942	7.94917
351.317	3.70262
354.692	4.14992
358.067	6.32411
361.442	6.80679
364.817	9.88407
368.191	9.85101
371.566	10.1896
374.941	10.833
378.316	12.1685
381.691	13.6293
385.065	15.2072
388.44	16.8484
391.815	16.7731
395.19	15.4116
398.565	13.1918
401.94	6.33287
405.314	0.002197
408.689	2.4053
412.064	2.84621
415.439	1.89522
418.814	1.68269
422.188	4.64962
425.563	9.33649
428.938	13.0325
432.313	13.2772
435.688	9.42419
439.062	2.66911
442.437	0.287064
445.812	1.47189
449.187	0.442711
452.562	0.993034
455.937	7.84565
459.311	16.8689
462.686	33.3748
466.061	52.9727
469.436	87.4821
472.811	145.857
476.185	236.9
479.56	355.889
482.935	477.223
486.31	578.938
489.685	677.592
493.06	794.91
496.434	871.135
499.809	798.489
503.184	703.634
506.559	668.536
509.934	612.753
513.308	502.073
516.683	438.622
520.058	429.717
523.433	486.808
526.808	566.465
530.183	581.719
533.557	452.505
536.932	291.627
540.307	178.171
543.682	112.543
547.057	76.5903
550.432	54.5455
553.806	41.1854
557.181	26.0025
560.556	17.0823
563.931	11.3482
567.306	5.55552
570.68	0.283436
574.055	1.86818
577.43	2.92207
580.805	2.46802
584.18	0.657692
587.554	0.095676
590.929	0.53093
594.304	1.46774
597.679	1.11744
601.054	0.562096
604.428	1.64113
607.803	1.52506
611.178	2.91945
614.553	1.74449
617.928	4.75396
621.303	5.07584
624.677	5.66336
628.052	5.40218
631.427	5.53185
634.802	3.9965
638.177	3.57068
641.552	1.38807
644.926	0.072922
648.301	1.36702
651.676	2.78546
655.051	2.12216
658.426	4.4748
661.8	4.56008
665.175	6.66377
668.55	5.64235
671.925	7.91122
675.3	7.40952
678.674	8.23111
682.049	7.93224
685.424	6.3289
688.799	3.17742
692.174	2.28101
695.549	0.9715
698.923	0.661724
702.298	0.089405
705.673	1.27466
709.048	1.4535
712.423	0.985748
715.798	2.6639
719.172	2.07016
722.547	3.80754
725.922	3.59238
729.297	1.96333
732.672	3.36426
736.046	2.58487
739.421	3.19571
742.796	1.9636
746.171	3.06174
749.546	0.112597
752.92	1.94211
756.295	0.038504
759.67	0.778906
763.045	3.15415
766.42	3.34732
769.795	2.77714
773.169	6.09129
776.544	7.8312
779.919	9.16734
783.294	8.40603
786.669	9.40189
790.043	10.5345
793.418	8.40808
796.793	7.4334
800.168	3.66718
803.543	4.70804
806.918	3.05023
810.292	3.56807
813.667	0.986435
817.042	1.11078
820.417	0.081995
823.792	1.14851
827.166	0.789646
830.541	0.221268
833.916	0.538324
837.291	0.643557
840.666	2.60518
844.04	1.52082
847.415	0.634584
850.79	2.25362
854.165	2.77378
857.54	2.04709
860.915	2.37037
864.289	3.26583
867.664	3.09699
871.039	2.78446
874.414	3.54664
877.789	2.97286
881.163	2.26616
884.538	1.85245
887.913	1.72506
891.288	1.36835
894.663	1.46714
898.038	0.050182
901.412	1.33283
904.787	0.672089
908.162	2.18261
911.537	1.05586
914.912	0.112988
918.287	0.518757
921.661	0.560707
925.036	0.410503
928.411	1.10609
931.786	0.990808
935.161	0.594196
938.535	0.58437
941.91	2.32725
945.285	4.72461
948.66	6.32557
952.035	7.07136
955.409	9.22939
958.784	10.0811
962.159	11.1807
965.534	10.9667
968.909	10.3022
972.284	9.38224
975.658	6.00734
979.033	7.8288
982.408	6.1147
985.783	4.01069
989.158	3.74168
992.533	1.45909
995.907	2.2119
999.282	1.23609
1002.66	2.04897
1006.03	1.04165
1009.41	0.755363
1012.78	1.06716
1016.16	1.54959
1019.53	0.163376
1022.91	0.549225
1026.28	1.42292
1029.66	1.32172
1033.03	1.88512
1036.4	3.75361
1039.78	2.82365
1043.15	4.80723
1046.53	8.66548
1049.9	8.00239
1053.28	12.2912
1056.65	13.8355
1060.03	14.9335
1063.4	13.7593
1066.78	11.5699
1070.15	9.69788
1073.53	8.76949
1076.9	7.58563
1080.28	7.174
1083.65	8.44838
1087.03	7.83281
1090.4	7.5069
1093.78	8.18816
1097.15	9.42609
1100.53	10.0419
1103.9	10.599
1107.28	11.5029
1110.65	11.9065
1114.03	11.4539
1117.4	12.8157
1120.78	12.1007
1124.15	10.5537
1127.53	10.7999
1130.9	10.6144
1134.28	11.407
1137.65	10.2301
1141.02	7.73979
1144.4	7.19458
1147.77	6.08967
1151.15	4.41218
1154.52	4.18324
1157.9	0.988573
1161.27	2.04267
1164.65	0.7593
1168.02	0.145111
1171.4	0.42514
1174.77	1.3091
1178.15	0.397194
1181.52	0.471556
1184.9	0.479672
1188.27	0.130433
1191.65	1.0201
1195.02	1.82398
1198.4	1.66414
1201.77	2.9643
1205.15	3.25934
1208.52	2.96092
1211.9	3.43768
1215.27	4.14759
1218.64	3.23185
1222.02	5.39665
1225.39	5.21814
1228.77	5.24676
1232.14	5.42324
1235.52	6.31555
1238.89	4.51044
1242.27	1.56113
1245.64	3.15099
1249.02	3.00041
1252.39	3.68581
1255.77	3.29638
1259.14	2.97905
1262.52	4.30692
1265.89	3.80324
1269.27	2.27198
1272.64	1.30932
1276.02	1.61442
1279.39	1.9387
1282.77	1.25937
1286.14	1.48835
1289.52	1.576
1292.89	0.041428
1296.27	1.02745
1299.64	0.356807
1303.02	0
