Measurement: Raman, 532 nm, unoriented, Raman Data Processed
Mineral: Leucosphenite
Rruff sample: R060201
Ideal chemistry: Na_4_BaTi_2_B_2_Si_10_O_30_
Locality: Poudrette Quarry, Mont Saint-Hilaire, Rouville County, Quebec, Canada
Source: Royal Ontario Museum
Description: Bluish-green prismatic crystal associated with small colorless albite crystals
Measured chemistry: (Ba_0.91_[box]_0.09_)_Σ=1_(Na_3.84_K_0.16_)_Σ=4_(Ti_1.77_Nb^5+^_0.18_Zr_0.05_)_Σ=2_B_2.00_Si_10.00_O_30_ ; B not measured but estimated by difference and charge balance
Raman shift (cm-1)	intensity
137.397	0
140.772	56.6008
144.147	127.934
147.522	117.546
150.896	83.6384
154.271	63.1444
157.646	75.8321
161.021	82.1866
164.396	31.5345
167.77	2.28969
171.145	1.79702
174.52	1.98498
177.895	3.48597
181.27	20.139
184.644	30.2099
188.019	17.2191
191.394	0.333183
194.769	2.18949
198.144	4.4313
201.519	1.5492
204.893	0.227834
208.268	0.594723
211.643	1.12703
215.018	0.579563
218.393	1.7873
221.768	34.5233
225.142	76.9228
228.517	119.189
231.892	139.333
235.267	162.653
238.642	171.899
242.016	169.439
245.391	168.507
248.766	177.194
252.141	214.072
255.516	265.963
258.89	306.706
262.265	253.356
265.64	181.267
269.015	185.548
272.39	201.067
275.764	190.148
279.139	193.297
282.514	255.286
285.889	363.627
289.264	415.857
292.639	362.755
296.013	266.216
299.388	222.722
302.763	177.555
306.138	105.661
309.513	32.3653
312.887	1.00024
316.262	8.97223
319.637	24.3986
323.012	7.63711
326.387	3.07994
329.762	5.00374
333.136	7.79207
336.511	6.859
339.886	1.10711
343.261	48.4116
346.636	145.74
350.01	256.555
353.385	281.885
356.76	189.037
360.135	121.508
363.51	114.709
366.885	131.262
370.259	159.732
373.634	206.325
377.009	265.379
380.384	304.264
383.759	337.895
387.134	430.964
390.508	606.985
393.883	686.737
397.258	452.421
400.633	381.735
404.007	446.831
407.382	479.325
410.757	465.334
414.132	490.149
417.507	568.068
420.882	659.838
424.256	707.299
427.631	651.036
431.006	511.689
434.381	402.518
437.756	326.609
441.13	219.329
444.505	121.161
447.88	49.878
451.255	7.35731
454.63	6.71607
458.005	3.26357
461.379	7.10421
464.754	3.94826
468.129	4.95018
471.504	6.70091
474.879	7.49413
478.253	53.1378
481.628	74.0358
485.003	81.0226
488.378	153.541
491.753	310.354
495.128	503.159
498.502	564.912
501.877	431.87
505.252	323.264
508.627	269.667
512.002	130.877
515.376	53.6385
518.751	33.8951
522.126	22.0922
525.501	14.6893
528.876	17.5812
532.25	39.324
535.625	74.3526
539	136.905
542.375	213.465
545.75	310.216
549.125	437.485
552.5	573.892
555.874	680.544
559.249	752.914
562.624	831.339
565.999	867.911
569.374	767.093
572.748	548.169
576.123	346.96
579.498	215.019
582.873	123.261
586.248	65.1944
589.622	30.3283
592.997	5.85938
596.372	2.46015
599.747	2.10937
603.122	1.32569
606.496	1.46661
609.871	1.61021
613.246	0.77432
616.621	3.27554
619.996	1.33112
623.37	19.0532
626.745	44.4147
630.12	68.4381
633.495	97.1521
636.87	120.049
640.245	138.458
643.619	162.298
646.994	187.149
650.369	203.844
653.744	207.856
657.119	189.302
660.494	172.371
663.868	148.505
667.243	123.267
670.618	101.632
673.993	79.5243
677.368	61.3898
680.742	43.5462
684.117	26.642
687.492	13.3013
690.867	4.96219
694.242	1.44123
697.616	0.533173
700.991	0.835143
704.366	3.5577
707.741	12.0339
711.116	21.4847
714.491	36.05
717.865	46.6587
721.24	62.9154
724.615	74.7784
727.99	85.738
731.365	91.3889
734.74	91.4416
738.114	78.1928
741.489	66.009
744.864	48.2666
748.239	33.3121
751.614	30.567
754.988	31.6178
758.363	28.4425
761.738	23.6495
765.113	17.1066
768.488	0.291474
771.862	0.164976
775.237	0.402079
778.612	0.921786
781.987	0.220909
785.362	1.52762
788.736	8.30757
792.111	21.092
795.486	28.034
798.861	18.1566
802.236	2.69648
805.611	0.085627
808.985	0.511414
812.36	4.4955
815.735	6.0986
819.11	2.26644
822.485	4.22727
825.86	2.11226
829.234	1.28857
832.609	0.016045
835.984	0.605012
839.359	2.44515
842.734	13.5985
846.108	35.134
849.483	68.5642
852.858	121.535
856.233	192.583
859.608	263.751
862.982	286.815
866.357	238.662
869.732	166.011
873.107	118.688
876.482	91.3329
879.857	76.2839
883.231	63.0742
886.606	49.0709
889.981	35.7161
893.356	15.2517
896.731	4.09877
900.106	0.82419
903.48	1.04882
906.855	1.1302
910.23	2.86126
913.605	0.476136
916.98	14.8467
920.354	52.4663
923.729	108.635
927.104	193.925
930.479	304.861
933.854	442.59
937.229	583.077
940.603	704.801
943.978	807.664
947.353	922.723
950.728	1027.23
954.102	1064.13
957.477	1062.85
960.852	1036.83
964.227	973.717
967.602	837.585
970.977	682.109
974.351	560.659
977.726	468.752
981.101	388.842
984.476	301.787
987.851	226.779
991.226	169.96
994.6	138.579
997.975	104.882
1001.35	76.0281
1004.73	48.9423
1008.1	22.9583
1011.47	5.3711
1014.85	1.26487
1018.22	1.5779
1021.6	1.26979
1024.97	1.48262
1028.35	0.774702
1031.72	0.533485
1035.1	0.632076
1038.47	0.222453
1041.85	2.17471
1045.22	11.101
1048.6	18.6191
1051.97	29.7695
1055.35	34.9161
1058.72	37.6958
1062.1	37.0796
1065.47	47.4378
1068.85	61.9351
1072.22	90.1393
1075.6	131.864
1078.97	181.58
1082.35	237.499
1085.72	295.239
1089.1	332.948
1092.47	339.037
1095.85	297.011
1099.22	235.838
1102.59	171.451
1105.97	119.013
1109.34	88.0403
1112.72	65.0248
1116.09	47.7463
1119.47	29.2974
1122.84	17.8794
1126.22	7.71075
1129.59	2.67072
1132.97	0.992622
1136.34	0.934172
1139.72	0.233827
1143.09	0.359688
1146.47	0.450556
1149.84	0.310605
1153.22	0.370925
1156.59	0.380456
1159.97	0.276357
1163.34	0.394892
1166.72	0.214561
1170.09	0.131892
1173.47	0.418385
1176.84	0.045777
1180.21	0.146391
1183.59	0.212191
1186.96	0.142262
1190.34	0.026143
1193.71	2.16718
1197.09	0.74964
1200.46	1.35865
1203.84	4.37567
1207.21	3.23394
1210.59	6.17693
1213.96	10.2903
1217.34	10.6845
1220.71	14.052
1224.09	20.9178
1227.46	34.8958
1230.84	44.5632
1234.21	51.2665
1237.59	52.576
1240.96	55.3445
1244.34	55.7216
1247.71	51.474
1251.09	34.9159
1254.46	20.0547
1257.84	11.0518
1261.21	5.2924
1264.59	4.53081
1267.96	2.40241
1271.34	0.695147
1274.71	2.2651
1278.09	1.34299
1281.46	0.358764
1284.83	0.213117
1288.21	1.28627
1291.58	2.89995
1294.96	0.650402
1298.33	0.810183
1301.71	0.823254
