Measurement: Raman, 785 nm, unoriented, Raman Data Processed
Mineral: Leucite
Rruff sample: R040107
Ideal chemistry: K(Si_2_Al)O_6_
Locality: Roccamonfina, Italy
Source: University of Arizona Mineral Museum
Description: Rounded colorless crystals embedded in an ash matrix
Measured chemistry: (K_0.95_Na_0.03_)Al_0.99_Si_2.01_O_6_
Raman shift (cm-1)	intensity
104.273	0
107.166	8.95642
110.059	27.8921
112.951	43.319
115.844	89.2568
118.737	37.872
121.629	25.201
124.522	36.8233
127.415	220.434
130.308	604.304
133.2	983.148
136.093	944.161
138.986	921.279
141.878	1232.34
144.771	2031.99
147.664	2849
150.556	3236.12
153.449	3111
156.342	2667.33
159.234	2227.28
162.127	2030.98
165.02	1836.55
167.913	1765.73
170.805	1833.7
173.698	1921.45
176.591	2059.88
179.483	2159.11
182.376	2043.27
185.269	1794.45
188.161	1529.62
191.054	1243.42
193.947	1074.45
196.84	882.964
199.732	795.446
202.625	774.068
205.518	699.833
208.41	685.366
211.303	716.086
214.196	639.333
217.088	552.463
219.981	434.243
222.874	371.439
225.767	258.398
228.659	207.838
231.552	137.426
234.445	78.9977
237.337	25.983
240.23	11.4869
243.123	33.1726
246.015	15.9618
248.908	16.0607
251.801	32.6141
254.694	20.139
257.586	5.71436
260.479	27.3295
263.372	28.3389
266.264	21.4487
269.157	20.9781
272.05	9.42102
274.942	4.83142
277.835	7.79602
280.728	3.83984
283.62	22.3807
286.513	0.647705
289.406	75.4188
292.299	195.949
295.191	272.834
298.084	326.96
300.977	370.234
303.869	350.334
306.762	282.12
309.655	225.905
312.548	195.107
315.44	109.809
318.333	110.2
321.226	81.3442
324.118	112.039
327.011	129.925
329.904	153.545
332.796	192.987
335.689	161.17
338.582	153.401
341.474	127.757
344.367	98.5523
347.26	62.0986
350.153	31.5758
353.045	28.902
355.938	41.988
358.831	33.3538
361.723	67.1211
364.616	85.415
367.509	48.7755
370.401	84.5095
373.294	77.9138
376.187	83.9086
379.08	98.4194
381.972	89.484
384.865	116.7
387.758	106.545
390.65	117.983
393.543	85.2762
396.436	93.1943
399.329	51.081
402.221	15.4265
405.114	6.80597
408.007	16.324
410.899	12.4554
413.792	19.8676
416.685	17.5821
419.577	23.1742
422.47	95.2262
425.363	131.793
428.255	163.796
431.148	153.423
434.041	93.4614
436.934	56.4175
439.826	8.9845
442.719	20.0699
445.612	22.2253
448.504	5.30127
451.397	13.411
454.29	77.5913
457.183	146.784
460.075	236.581
462.968	361.526
465.861	514.992
468.753	801.21
471.646	1267.88
474.539	1930.05
477.431	3126.53
480.324	3633.02
483.217	4471.69
486.109	5168.28
489.002	5956.75
491.895	6741.92
494.788	7224.62
497.68	6896.35
500.573	6165.67
503.466	5772.33
506.358	5488.51
509.251	4852.12
512.144	4080.16
515.036	3644.69
517.929	3576.58
520.822	3814.83
523.715	4364.3
526.607	4769.73
529.5	4506.73
532.393	3500.25
535.285	2435.82
538.178	1608.2
541.071	1088.98
543.963	800.961
546.856	617.22
549.749	500.621
552.641	336.903
555.534	279.649
558.427	190.502
561.32	120.528
564.212	70.7239
567.105	19.05
569.998	4.71497
572.89	19.2229
575.783	37.8116
578.676	10.0344
581.568	30.9933
584.461	6.66437
587.354	5.73645
590.247	8.88971
593.139	14.4812
596.032	0.958191
598.925	12.9712
601.817	21.7909
604.71	9.82953
607.603	25.9964
610.495	13.9852
613.388	11.222
616.281	39.253
619.174	22.1876
622.066	37.227
624.959	58.3285
627.852	45.0928
630.744	49.252
633.637	19.6911
636.53	23.8525
639.423	19.95
642.315	16.568
645.208	23.1757
648.101	12.9075
650.993	23.5881
653.886	40.8768
656.779	77.0466
659.671	68.8529
662.564	68.981
665.457	75.3055
668.35	65.114
671.242	90.8436
674.135	65.5962
677.028	86.4403
679.92	75.0129
682.813	69.2441
685.706	58.4011
688.598	55.8798
691.491	54.2978
694.384	42.253
697.277	22.2361
700.169	18.6277
703.062	25.637
705.955	36.3311
708.847	47.4762
711.74	26.0698
714.633	49.9583
717.525	37.9187
720.418	46.9652
723.311	43.682
726.203	51.5391
729.096	44.0098
731.989	29.6048
734.881	63.0446
737.774	51.2784
740.667	40.1702
743.56	43.234
746.452	51.4091
749.345	46.3451
752.238	49.8016
755.13	40.9012
758.023	23.6733
760.916	37.2784
763.808	25.9391
766.701	13.4196
769.594	55.7458
772.487	79.3661
775.379	41.926
778.272	59.8736
781.165	127.162
784.057	101.277
786.95	112.378
789.843	89.0182
792.736	78.5059
795.628	70.2202
798.521	47.2019
801.414	16.1368
804.306	18.5143
807.199	29.4156
810.092	42.6097
812.984	35.5984
815.877	24.6356
818.77	12.9065
821.663	17.5772
824.555	36.0575
827.448	11.5751
830.341	9.6058
833.233	19.767
836.126	13.7963
839.019	5.66202
841.911	5.41086
844.804	52.4653
847.697	1.79285
850.59	27.9587
853.482	8.09863
856.375	14.2844
859.268	7.30069
862.16	18.6386
865.053	19.6339
867.946	21.8549
870.838	36.5779
873.731	21.7543
876.624	36.373
879.516	13.1488
882.409	33.9492
885.302	32.577
888.195	19.0682
891.087	19.1377
893.98	27.3688
896.873	18.3614
899.765	14.1759
902.658	3.43472
905.551	19.771
908.443	11.8772
911.336	18.4611
914.229	2.327
917.122	6.96551
920.014	5.05423
922.907	13.2943
925.8	41.7435
928.692	29.8675
931.585	7.10611
934.478	23.9996
937.37	28.1917
940.263	43.0858
943.156	58.537
946.049	47.0626
948.941	70.669
951.834	87.9122
954.727	86.3087
957.619	79.7288
960.512	82.7838
963.405	117.431
966.298	81.5453
969.19	98.2109
972.083	71.3088
974.976	56.3375
977.868	52.6003
980.761	47.8524
983.654	20.6822
986.546	42.9737
989.439	13.618
992.332	16.9968
995.225	28.1523
998.117	47.8081
1001.01	28.7443
1003.9	57.2107
1006.79	63.0241
1009.69	55.2411
1012.58	87.555
1015.47	69.3732
1018.37	35.2338
1021.26	5.02918
1024.15	20.3336
1027.04	44.9836
1029.94	99.2385
1032.83	125.913
1035.72	132.775
1038.62	110.196
1041.51	118.315
1044.4	141.273
1047.29	133.604
1050.19	140.209
1053.08	133.904
1055.97	147.903
1058.86	119.154
1061.76	99.5909
1064.65	93.4602
1067.54	68.6125
1070.43	55.249
1073.33	42.1551
1076.22	23.3942
1079.11	20.9161
1082.01	15.4668
1084.9	40.8157
1087.79	10.9007
1090.68	11.5292
1093.58	2.0744
1096.47	25.6849
1099.36	60.724
1102.25	25.0344
1105.15	32.4506
1108.04	30.9715
1110.93	48.6844
1113.83	53.8761
1116.72	79.8024
1119.61	56.494
1122.5	74.1996
1125.4	47.2815
1128.29	30.6731
1131.18	62.5736
1134.07	42.6661
1136.97	43.7214
1139.86	39.5767
1142.75	36.7777
1145.64	23.1565
1148.54	56.8512
1151.43	1.54871
1154.32	27.9037
1157.22	0.15332
1160.11	7.3916
1163	35.152
1165.89	51.6938
1168.79	80.1718
1171.68	81.2609
1174.57	80.2504
1177.46	82.4354
1180.36	103.144
1183.25	46.8451
1186.14	53.8306
1189.04	40.273
