Measurement: Raman, 514 nm, unoriented, Raman Data Processed
Mineral: Leucophanite
Rruff sample: R050004
Ideal chemistry: NaCaBeSi_2_O_6_F
Locality: Langesundfjord, Norway
Source: University of Arizona Mineral Museum
Description: Pale green massive
Measured chemistry: Ca_1.00_Ca_1.00_Na_2.00_Be_2.00_Si_4.00_O_12_(F_0.96_(OH)_0.04_)_2_
Raman shift (cm-1)	intensity
93.375	0
97.554	2.964
101.732	41.973
105.908	74.382
110.082	122.906
114.254	126.273
118.424	197.355
122.592	266.56
126.758	244.481
130.922	256.431
135.083	211.417
139.243	153.586
143.401	137.772
147.557	194.478
151.711	257.944
155.863	491.159
160.013	533.639
164.161	478.009
168.308	315.096
172.452	457.026
176.594	338.299
180.734	258.333
184.872	92.165
189.008	49.815
193.143	128.074
197.275	157.188
201.405	336.276
205.534	267.95
209.66	120.472
213.784	0.734
217.907	5.157
222.027	32.684
226.146	69.549
230.263	34.588
234.377	47.555
238.49	35.023
242.601	142.12
246.709	43.795
250.816	65.59
254.921	54.181
259.024	52.882
263.125	60.272
267.224	53.279
271.321	116.165
275.416	228.072
279.51	635.979
283.601	158.785
287.69	21.104
291.778	16.245
295.863	5.701
299.947	13.412
304.029	169.527
308.108	360.011
312.186	839.736
316.262	1159.28
320.336	606.657
324.408	221.502
328.478	190.478
332.546	131.843
336.612	171.15
340.677	110.073
344.739	110.005
348.799	38.757
352.858	91.073
356.915	200.466
360.969	661.902
365.022	1200.01
369.073	428.114
373.122	174.231
377.169	169.082
381.215	341.635
385.258	475.606
389.299	266.633
393.339	32.279
397.376	22.388
401.412	8.513
405.446	5.474
409.478	86.751
413.508	114.991
417.536	3.685
421.562	63.914
425.586	45.295
429.609	96.143
433.629	235.024
437.648	270.4
441.665	258.064
445.68	366.203
449.693	242.698
453.704	223.478
457.713	304.6
461.721	220.624
465.726	404.919
469.73	758.987
473.731	887.018
477.731	490.115
481.729	208.341
485.725	73.223
489.72	1.996
493.712	84.257
497.703	73.168
501.691	164.289
505.678	70.797
509.663	98.958
513.646	65.397
517.627	59.979
521.607	95.789
525.584	147.983
529.56	268.567
533.534	372.473
537.506	547.062
541.476	382.953
545.444	159.271
549.41	46.966
553.375	0.063
557.337	66.915
561.298	213.332
565.257	323.703
569.214	170.755
573.17	198.065
577.123	172.951
581.075	19.465
585.024	110.931
588.972	9.399
592.918	32.955
596.863	50.865
600.805	42.237
604.746	3.896
608.685	102.924
612.621	36.637
616.557	51.217
620.49	109.306
624.421	60.908
628.351	67.737
632.279	69.129
636.205	210.077
640.129	197.838
644.051	310.418
647.972	289.531
651.89	359.611
655.807	548.105
659.722	840.395
663.636	1257.08
667.547	2240.77
671.457	5106.46
675.365	10147.2
679.271	10684
683.175	5742.57
687.077	3281.87
690.978	2192.33
694.877	1755.47
698.774	1914.91
702.669	2435.19
706.562	3094.08
710.454	2677.39
714.344	1791.12
718.232	955.172
722.118	574.287
726.002	427.791
729.885	428.222
733.766	386.008
737.645	291.135
741.522	325.016
745.397	203.058
749.271	230.888
753.143	266.461
757.013	308.05
760.881	373.196
764.748	539.717
768.613	436.113
772.476	251.199
776.337	188.171
780.196	207.655
784.054	157.702
787.91	275.883
791.764	241.053
795.616	168.965
799.467	249.453
803.316	218.796
807.163	28.571
811.008	246.451
814.851	142.767
818.693	89.202
822.533	193.735
826.371	339.496
830.208	25.227
834.042	124.041
837.875	40.072
841.706	140.59
845.536	206.128
849.363	102.446
853.189	170.698
857.013	265.882
860.836	59.5
864.656	58.679
868.475	215.147
872.292	186.853
876.108	283.22
879.922	442.478
883.733	147.586
887.544	25.749
891.352	9.486
895.159	61.518
898.964	77.207
902.767	45.243
906.568	86.225
910.368	144.819
914.166	180.08
917.962	174.498
921.757	448.14
925.55	145.646
929.341	96.582
933.13	138.514
936.918	159.75
940.703	130.488
944.488	63.025
948.27	291.455
952.051	189.166
955.83	119.598
959.607	85.105
963.383	167.469
967.156	906.521
970.928	940.16
974.699	548.777
978.468	318.709
982.234	513.229
986	359.947
989.763	333.607
993.525	553.021
997.285	885.74
1001.04	1011.12
1004.8	1120.28
1008.55	847.609
1012.31	802.406
1016.06	1033.19
1019.81	1867.04
1023.56	4499.1
1027.31	4983.56
1031.05	2345.77
1034.79	917.418
1038.53	825.711
1042.27	1049.08
1046.01	1567.09
1049.75	2306.33
1053.48	2835.27
1057.22	1502.97
1060.95	722.111
1064.68	602.693
1068.4	496.156
1072.13	545.527
1075.86	746.502
1079.58	399.932
1083.3	327.488
1087.02	65.893
1090.74	225.525
1094.45	182.207
1098.17	81.99
1101.88	267.125
1105.59	98.678
1109.3	154.258
1113.01	168.736
1116.71	249.961
1120.42	362.533
1124.12	354.172
1127.82	247.098
1131.52	388.189
1135.22	573.281
1138.91	692.535
1142.61	761.654
1146.3	761.537
1149.99	500.002
1153.68	388.311
1157.37	398.324
1161.06	24.277
1164.74	241.352
1168.42	192.289
1172.1	0
