Measurement: Raman, 780 nm, unoriented, Raman Data Processed
Mineral: Leucophoenicite
Rruff sample: R060308
Ideal chemistry: Mn^2+^_7_(SiO_4_)_3_(OH)_2_
Locality: Parker Shaft, Franklin, Sussex County, New Jersey, USA
Source: Michael Scott
Description: Pink-tan colored massive, associated with white willemite and pinkish ribbeite (R150125). X-ray shows sample is twinned 180 deg around a.
Raman shift (cm-1)	intensity
109.854	0
113.228	0.407761
116.603	4.3752
119.978	12.0701
123.353	28.8525
126.728	48.8318
130.102	72.344
133.477	84.0332
136.852	88.9015
140.227	90.854
143.602	91.0415
146.977	68.1428
150.351	55.2722
153.726	36.6513
157.101	14.0499
160.476	5.95019
163.851	5.22931
167.226	6.06322
170.6	8.4223
173.975	10.5422
177.35	7.15939
180.725	11.9044
184.1	15.1753
187.474	12.6512
190.849	1.55718
194.224	1.16162
197.599	3.94962
200.974	3.74091
204.349	1.77405
207.723	2.69898
211.098	9.49128
214.473	13.7063
217.848	21.8164
221.223	31.9181
224.597	49.0566
227.972	65.5706
231.347	71.712
234.722	66.2824
238.097	64.3214
241.471	61.0521
244.846	63.9425
248.221	62.5361
251.596	64.0904
254.971	56.8194
258.346	54.7944
261.72	48.0429
265.095	37.1004
268.47	27.3687
271.845	24.8475
275.22	24.4027
278.594	26.3734
281.969	30.4193
285.344	30.4473
288.719	30.4625
292.094	31.5807
295.469	30.9213
298.843	33.3696
302.218	35.2477
305.593	41.3753
308.968	43.2732
312.343	49.1558
315.717	45.4267
319.092	37.9797
322.467	29.3319
325.842	17.9331
329.217	13.3945
332.592	6.60191
335.966	5.22899
339.341	1.90604
342.716	1.77649
346.091	3.02316
349.466	1.12934
352.841	1.25084
356.215	4.73404
359.59	6.90843
362.965	9.4009
366.34	16.3561
369.715	23.6528
373.089	34.9308
376.464	53.0052
379.839	71.9454
383.214	95.2721
386.589	112.045
389.964	121.522
393.338	126.261
396.713	124.975
400.088	119.042
403.463	105.917
406.838	88.3268
410.212	73.7925
413.587	58.615
416.962	44.5175
420.337	36.9723
423.712	28.3473
427.087	21.3644
430.461	16.6362
433.836	12.6619
437.211	12.2552
440.586	10.1692
443.961	7.10371
447.335	10.8645
450.71	8.72566
454.085	7.23064
457.46	3.85729
460.835	2.31254
464.209	1.1819
467.584	1.22151
470.959	0.474621
474.334	3.13937
477.709	0.162613
481.084	4.40005
484.458	4.18306
487.833	8.6549
491.208	10.9331
494.583	13.6763
497.958	11.4158
501.332	6.58974
504.707	6.64804
508.082	6.7688
511.457	10.234
514.832	10.4652
518.207	9.99629
521.581	7.93608
524.956	4.35649
528.331	6.01113
531.706	5.89051
535.081	11.1681
538.455	13.7606
541.83	18.9244
545.205	26.4449
548.58	30.7001
551.955	35.122
555.33	35.5141
558.704	32.1039
562.079	32.287
565.454	42.0165
568.829	51.6355
572.204	57.9438
575.578	44.8222
578.953	30.5019
582.328	19.4579
585.703	12.1325
589.078	4.95889
592.452	4.82632
595.827	1.78738
599.202	0.521687
602.577	0.374805
605.952	1.28998
609.327	0.061985
612.701	0.444565
616.076	0.053425
619.451	0.3375
622.826	0.685326
626.201	0.874605
629.576	0.506542
632.95	3.04307
636.325	2.91601
639.7	3.93435
643.075	4.35072
646.45	4.21674
649.824	3.56708
653.199	4.24596
656.574	3.61439
659.949	6.04309
663.324	4.14964
666.698	6.21665
670.073	4.17335
673.448	6.43821
676.823	5.75703
680.198	4.78338
683.573	4.96132
686.947	7.22333
690.322	5.40786
693.697	4.8484
697.072	5.28895
700.447	3.66182
703.822	6.7906
707.196	4.57484
710.571	5.95467
713.946	2.97673
717.321	4.06265
720.696	3.57858
724.07	3.67806
727.445	3.00686
730.82	2.01243
734.195	2.64244
737.57	0.32457
740.944	0.152328
744.319	0.66119
747.694	1.38868
751.069	1.749
754.444	0.825455
757.818	0.514858
761.193	1.09899
764.568	0.930965
767.943	0.107964
771.318	3.57199
774.693	5.11557
778.067	9.86829
781.442	20.3237
784.817	33.4426
788.192	60.2947
791.567	110.746
794.942	209.704
798.316	377.87
801.691	613.621
805.066	852.976
808.441	994.696
811.816	1057.13
815.19	972.176
818.565	900.324
821.94	860.42
825.315	713.017
828.69	603.62
832.064	591.559
835.439	629.892
838.814	632.787
842.189	566.525
845.564	459.89
848.939	326.229
852.313	201.536
855.688	125.712
859.063	87.2435
862.438	66.6323
865.813	46.1423
869.188	24.4581
872.562	11.7024
875.937	1.86562
879.312	0.619598
882.687	3.20307
886.062	0.011597
889.436	1.97977
892.811	4.65935
896.186	9.23852
899.561	14.0693
902.936	17.344
906.311	17.4769
909.685	20.1548
913.06	18.7664
916.435	13.2225
919.81	14.9139
923.185	19.1509
926.559	25.4958
929.934	38.8359
933.309	64.0777
936.684	71.2422
940.059	53.185
943.433	26.4208
946.808	15.5317
950.183	5.88596
953.558	1.42098
956.933	1.61348
960.308	1.1264
963.682	0.368553
967.057	0.347485
970.432	0.61969
973.807	2.1046
977.182	4.41364
980.557	2.62439
983.931	0.961542
987.306	3.8365
990.681	2.46907
994.056	4.92538
997.431	5.65407
1000.8	4.15184
1004.18	6.07998
1007.55	5.31939
1010.93	4.65637
1014.3	4.93793
1017.68	2.90109
1021.05	2.58264
1024.43	2.36134
1027.8	4.37764
1031.18	3.28266
1034.55	1.89456
1037.93	2.54531
1041.3	3.71786
1044.68	2.53289
1048.05	2.21152
1051.43	2.20798
1054.8	3.81889
1058.18	0.90831
1061.55	3.2472
1064.93	0.506445
1068.3	1.99036
1071.68	0.260561
1075.05	1.31358
1078.43	0.863089
1081.8	1.62143
1085.18	2.65447
1088.55	1.12857
1091.92	1.80753
1095.3	2.43718
1098.67	2.00334
1102.05	2.74906
1105.42	0.98333
1108.8	3.39619
1112.17	0.920773
1115.55	3.50248
1118.92	0.328423
1122.3	1.35487
1125.67	2.33996
1129.05	0.511984
1132.42	1.34997
1135.8	1.85322
1139.17	3.49966
1142.55	5.01569
1145.92	3.81648
1149.3	3.36636
1152.67	5.2279
1156.05	1.53777
1159.42	4.72076
1162.8	5.86236
1166.17	3.19415
1169.55	4.95675
1172.92	3.23352
1176.3	3.12767
1179.67	2.13787
1183.05	1.12085
1186.42	2.46756
1189.8	0.977196
1193.17	0.634304
1196.55	0.035641
1199.92	1.88251
1203.29	0.128128
1206.67	1.27997
1210.04	1.42739
1213.42	1.97218
1216.79	1.01259
1220.17	1.85947
1223.54	1.46145
1226.92	1.05208
1230.29	1.2329
1233.67	1.02336
1237.04	2.4201
1240.42	1.50457
1243.79	2.47754
1247.17	0.533205
1250.54	3.89741
1253.92	5.04775
1257.29	2.61234
1260.67	2.73534
1264.04	1.80045
1267.42	4.03151
1270.79	1.82335
1274.17	3.21351
1277.54	3.44462
1280.91	2.80315
1284.29	0.781712
