Measurement: Raman, 780 nm, unoriented, Raman Data Processed
Mineral: Leucophosphite
Rruff sample: R080126
Ideal chemistry: KFe^3+^_2_(PO_4_)_2_(OH)2H_2_O
Locality: Tip Top mine, Custer County, South Dakota, USA
Source: Thomas A. Loomis
Description: Violet subhedral crystals on a matrix of rockbridgeite and associated with pale yellow acicular segelerite (R080127).
Raman shift (cm-1)	intensity
113.068	0
116.443	2.68225
119.817	4.90997
123.192	27.1685
126.567	50.1251
129.942	81.0023
133.317	106.073
136.692	132.507
140.066	166.66
143.441	191.664
146.816	189.107
150.191	156.433
153.566	143.882
156.94	122.076
160.315	131.114
163.69	120.163
167.065	34.8068
170.44	6.89798
173.815	20.5131
177.189	8.18967
180.564	3.88889
183.939	20.7781
187.314	35.6455
190.689	48.9132
194.064	63.989
197.438	72.201
200.813	73.1461
204.188	83.8801
207.563	90.5046
210.938	91.6006
214.312	102.637
217.687	90.0713
221.062	71.1739
224.437	45.1054
227.812	34.0356
231.186	26.6154
234.561	38.4084
237.936	56.8967
241.311	75.4597
244.686	98.4636
248.061	111.3
251.435	122.906
254.81	111.733
258.185	105.008
261.56	99.0915
264.935	95.6043
268.31	96.5869
271.684	111.733
275.059	120.038
278.434	135.418
281.809	132.905
285.184	122.46
288.558	117.468
291.933	136.443
295.308	167.062
298.683	184.03
302.058	195.548
305.433	173.442
308.807	152.986
312.182	130.894
315.557	133.245
318.932	128.884
322.307	128.634
325.682	130.67
329.056	116.426
332.431	103.512
335.806	66.0329
339.181	29.2732
342.556	5.50385
345.93	13.4168
349.305	9.80514
352.68	14.9556
356.055	3.8073
359.43	17.1906
362.805	34.7676
366.179	41.3641
369.554	56.5737
372.929	60.6754
376.304	55.6732
379.679	60.3046
383.053	75.3648
386.428	77.1146
389.803	108.252
393.178	129.557
396.553	159.236
399.928	170.612
403.302	177.607
406.677	161.582
410.052	140.903
413.427	128.47
416.802	112.544
420.176	95.0878
423.551	73.925
426.926	55.9116
430.301	55.8068
433.676	54.5968
437.05	36.6952
440.425	13.5096
443.8	2.78067
447.175	1.60297
450.55	5.30298
453.925	7.33218
457.299	32.1107
460.674	51.0414
464.049	71.9788
467.424	94.3243
470.799	121.626
474.173	129.542
477.548	137.196
480.923	124.767
484.298	108.743
487.673	87.1544
491.048	71.6004
494.422	62.3081
497.797	42.5979
501.172	22.7311
504.547	14.855
507.922	6.25473
511.296	1.83246
514.671	4.14325
518.046	3.0885
521.421	4.38278
524.796	4.41295
528.171	9.619
531.545	7.77136
534.92	15.1925
538.295	11.8735
541.67	29.3335
545.045	34.6802
548.419	35.3256
551.794	28.6945
555.169	25.2502
558.544	15.8243
561.919	13.1564
565.294	21.617
568.668	17.6961
572.043	24.7848
575.418	21.2242
578.793	32.9364
582.168	30.296
585.543	41.7607
588.917	55.5422
592.292	81.5023
595.667	115.504
599.042	153.884
602.417	194.278
605.791	231.746
609.166	253.024
612.541	240.115
615.916	219.801
619.291	209.516
622.665	206.694
626.04	197.41
629.415	158.498
632.79	119.709
636.165	76.1703
639.54	45.6289
642.914	31.2521
646.289	23.0783
649.664	11.2175
653.039	13.5488
656.414	3.77608
659.788	5.87897
663.163	0.059921
666.538	6.3072
669.913	2.37219
673.288	3.7943
676.663	9.82845
680.037	2.1795
683.412	4.31375
686.787	1.12855
690.162	0.416855
693.537	1.38827
696.912	4.61847
700.286	2.53027
703.661	1.17177
707.036	2.78059
710.411	0.832321
713.786	8.73032
717.16	3.44563
720.535	11.1253
723.91	0.885696
727.285	7.14571
730.66	13.1269
734.034	1.42454
737.409	7.12169
740.784	8.79021
744.159	2.76895
747.534	10.8428
750.909	0.172882
754.283	3.65037
757.658	5.70248
761.033	5.12169
764.408	9.10507
767.783	3.73608
771.158	4.04333
774.532	6.01328
777.907	3.78839
781.282	7.79019
784.657	7.32175
788.032	6.29646
791.406	0.791687
794.781	1.75194
798.156	4.84726
801.531	2.06586
804.906	8.58087
808.281	2.92769
811.655	9.52951
815.03	6.78143
818.405	2.71753
821.78	1.79849
825.155	6.51085
828.529	7.59436
831.904	12.2107
835.279	12.887
838.654	11.3293
842.029	13.6603
845.404	11.6964
848.778	13.9338
852.153	13.2427
855.528	6.71307
858.903	16.536
862.278	16.3779
865.653	12.1549
869.027	16.8661
872.402	14.2982
875.777	10.7463
879.152	7.12079
882.527	11.4207
885.901	7.35144
889.276	5.71408
892.651	10.5837
896.026	6.87903
899.401	8.34045
902.775	6.65355
906.15	4.28395
909.525	0.005875
912.9	3.64973
916.275	1.70667
919.65	3.11047
923.024	2.5087
926.399	0.175674
929.774	2.81752
933.149	1.69019
936.524	1.21637
939.899	1.12407
943.273	4.29073
946.648	8.36163
950.023	11.8286
953.398	17.7036
956.773	29.906
960.147	45.8382
963.522	65.081
966.897	64.1688
970.272	88.7621
973.647	106.19
977.021	142.266
980.396	174.804
983.771	213.444
987.146	257.432
990.521	260.884
993.896	242.566
997.27	208.877
1000.64	161.923
1004.02	130.794
1007.39	115.097
1010.77	104.712
1014.14	97.5201
1017.52	96.9785
1020.89	98.8989
1024.27	101.667
1027.64	101.861
1031.02	104.384
1034.39	99.4341
1037.77	130.428
1041.14	165.08
1044.52	216.072
1047.89	283.185
1051.27	332.53
1054.64	325.447
1058.02	268.222
1061.39	186.356
1064.77	109.989
1068.14	51.0534
1071.52	17.7044
1074.89	1.67133
1078.27	5.53792
1081.64	4.22818
1085.02	0.3116
1088.39	2.7456
1091.77	6.39481
1095.14	12.384
1098.52	19.0892
1101.89	13.7804
1105.27	16.5219
1108.64	10.7725
1112.01	6.6378
1115.39	6.07423
1118.76	6.96968
1122.14	9.39546
1125.51	19.6979
1128.89	27.4344
1132.26	25.9364
1135.64	26.4323
1139.01	10.6836
1142.39	7.2589
1145.76	6.69371
1149.14	5.56693
1152.51	0.880478
1155.89	3.20879
1159.26	14.2981
1162.64	26.351
1166.01	34.1956
1169.39	45.619
1172.76	46.6155
1176.14	39.179
1179.51	31.631
1182.88	23.9605
1186.26	15.7939
1189.63	16.7106
1193.01	2.40964
1196.38	6.24777
1199.76	1.1076
1203.13	2.91123
1206.51	2.67931
1209.88	2.97214
1213.26	0.496872
1216.63	1.27343
1220.01	4.35313
1223.38	7.07864
1226.76	2.93974
1230.13	7.686
1233.51	4.89333
1236.88	3.79787
1240.26	5.78626
1243.63	9.04492
1247.01	9.15139
1250.38	9.43671
1253.76	7.84034
1257.13	5.7917
1260.51	12.4815
1263.88	11.5415
1267.26	14.2914
1270.63	6.35213
1274.01	7.56607
1277.38	12.9789
1280.76	9.90729
1284.13	1.44501
