Measurement: Raman, 532 nm, unoriented, Raman Data Processed
Mineral: Leucophosphite
Rruff sample: R060338
Ideal chemistry: KFe^3+^_2_(PO_4_)_2_(OH)2H_2_O
Locality: Gunheath pit, St. Austell, Cornwall, England
Source: Michael Scott
Description: White to pale pink spherical aggregates associated with green chalcosiderite, R060339, and orange cyrilovite, R060504
Measured chemistry: K_1.00_(Fe^3+^_1.90_Al_0.10_)_Σ=2_(P_1.00_O_4_)_2_(OH)·2.75H_2_O; H_2_O estimated by difference; (OH) by charge balance
Raman shift (cm-1)	intensity
160.399	0
163.292	151.21
166.185	210.001
169.077	129.024
171.97	62.6551
174.863	3.27704
177.755	11.1058
180.648	6.65771
183.541	23.8275
186.433	62.7027
189.326	85.1388
192.219	82.0612
195.112	78.2321
198.004	86.1775
200.897	122.167
203.79	164.572
206.682	173.101
209.575	182.844
212.468	226.017
215.36	288.858
218.253	285.008
221.146	219.844
224.038	158.615
226.931	119.434
229.824	88.4737
232.717	37.7243
235.609	8.7077
238.502	5.49457
241.395	35.0931
244.287	86.5658
247.18	165.228
250.073	257.865
252.965	352.374
255.858	400.024
258.751	392.501
261.644	347.309
264.536	288.354
267.429	241.533
270.322	236.158
273.214	267.366
276.107	334.133
279	390.254
281.892	409.878
284.785	374.262
287.678	311.913
290.571	271.262
293.463	286.454
296.356	362.095
299.249	471.763
302.141	577.304
305.034	618.478
307.927	600.83
310.82	564.021
313.712	508.792
316.605	451.18
319.498	408.072
322.39	359.106
325.283	307.566
328.176	285.495
331.068	297.747
333.961	320.8
336.854	296.107
339.747	211.572
342.639	105.158
345.532	27.1387
348.425	13.8381
351.317	32.7419
354.21	29.6566
357.103	16.8024
359.995	2.12976
362.888	18.3853
365.781	32.6384
368.673	43.9358
371.566	52.9362
374.459	63.5022
377.352	66.5932
380.244	72.0692
383.137	80.3343
386.03	108.71
388.922	149.418
391.815	210.642
394.708	288.149
397.601	374.4
400.493	469.849
403.386	567.731
406.279	616.044
409.171	599.313
412.064	560.265
414.957	505.803
417.849	459.912
420.742	405.316
423.635	332.003
426.527	274.377
429.42	261.417
432.313	282.651
435.206	317.322
438.098	266.848
440.991	155.161
443.884	75.5732
446.776	31.6667
449.669	11.3805
452.562	0.00592
455.454	8.65253
458.347	26.9463
461.24	51.5891
464.133	97.0333
467.025	161.205
469.918	224.279
472.811	304.885
475.703	385.069
478.596	453.028
481.489	493.321
484.382	482.31
487.274	436.703
490.167	405.688
493.06	390.478
495.952	379.729
498.845	312.883
501.738	216.52
504.63	126.697
507.523	71.6849
510.416	38.1021
513.308	14.5239
516.201	6.39136
519.094	3.60388
521.987	8.18591
524.879	12.8953
527.772	10.7317
530.665	10.9019
533.557	0.415283
536.45	12.3864
539.343	25.6656
542.236	43.1823
545.128	70.1832
548.021	91.6472
550.914	106.194
553.806	98.0494
556.699	71.0017
559.592	55.9191
562.484	46.5359
565.377	44.1282
568.27	43.5074
571.163	46.7405
574.055	52.2538
576.948	61.7583
579.841	65.385
582.733	81.1729
585.626	93.7142
588.519	121.236
591.411	161.117
594.304	221.389
597.197	309.999
600.09	416.135
602.982	551.975
605.875	718.499
608.768	888.115
611.66	948.233
614.553	870.615
617.446	746.162
620.338	685.482
623.231	671.449
626.124	685.899
629.016	695.888
631.909	662.686
634.802	536.313
637.695	368.226
640.587	236.009
643.48	158.702
646.373	113.203
649.265	86.7622
652.158	69.7553
655.051	50.2341
657.943	41.7099
660.836	31.214
663.729	20.9202
666.622	14.3571
669.514	7.50226
672.407	6.22314
675.3	4.54877
678.192	2.06799
681.085	2.01123
683.978	0.520691
686.87	5.25305
689.763	2.0863
692.656	0.709351
695.549	5.80957
698.441	3.25726
701.334	3.54981
704.227	5.85388
707.119	0.065918
710.012	2.55804
712.905	1.45117
715.798	2.07715
718.69	0.139771
721.583	0.932251
724.476	4.06543
727.368	4.26752
730.261	4.90533
733.154	6.76764
736.046	2.26257
738.939	7.43237
741.832	7.37732
744.725	9.83447
747.617	9.43829
750.51	13.3923
753.403	10.1863
756.295	8.02862
759.188	7.604
762.081	12.0554
764.973	11.6009
767.866	13.3058
770.759	15.6484
773.652	13.491
776.544	19.0645
779.437	18.2061
782.33	17.5968
785.222	17.5469
788.115	20.4087
791.008	20.2128
793.9	18.6559
796.793	18.3094
799.686	14.0797
802.578	17.1435
805.471	17.4677
808.364	11.4805
811.257	11.6097
814.149	10.0919
817.042	11.8185
819.935	16.5049
822.827	14.4286
825.72	21.4463
828.613	24.2725
831.505	30.8483
834.398	34.7957
837.291	41.7866
840.184	47.3267
843.076	58.6695
845.969	67.073
848.862	70.614
851.754	63.4924
854.647	55.4462
857.54	51.3312
860.433	45.4095
863.325	42.0184
866.218	33.3293
869.111	29.4415
872.003	28.9195
874.896	20.932
877.789	21.5983
880.681	20.7786
883.574	19.2205
886.467	23.7166
889.36	22.9445
892.252	19.8329
895.145	21.2213
898.038	18.8082
900.93	14.9092
903.823	12.795
906.716	9.29785
909.608	7.42664
912.501	0.968384
915.394	1.01709
918.287	1.33673
921.179	0.289124
924.072	2.64819
926.965	4.45099
929.857	3.9361
932.75	1.47974
935.643	6.70721
938.535	12.5316
941.428	10.0602
944.321	11.3705
947.213	6.01526
950.106	0.347839
952.999	25.1267
955.892	49.0711
958.784	79.0233
961.677	118.974
964.57	160.848
967.462	202.556
970.355	258.763
973.248	340.532
976.14	426.214
979.033	507.897
981.926	625.675
984.819	814.405
987.711	1052.01
990.604	1219.4
993.497	1174.48
996.389	1035.12
999.282	874.063
1002.17	626.084
1005.07	440.12
1007.96	375.849
1010.85	367.87
1013.75	372.916
1016.64	352.86
1019.53	293.539
1022.42	257.649
1025.32	242.676
1028.21	264.767
1031.1	297.584
1033.99	327.054
1036.89	362.069
1039.78	428.403
1042.67	572.705
1045.57	775.714
1048.46	1016.55
1051.35	1323.43
1054.24	1669.19
1057.14	1772.04
1060.03	1496.35
1062.92	1096.97
1065.81	755.863
1068.71	459.644
1071.6	242.887
1074.49	117.691
1077.38	56.6609
1080.28	19.6009
1083.17	0.262451
1086.06	13.001
1088.96	17.9501
1091.85	8.23071
1094.74	16.9103
1097.63	36.8982
1100.53	69.0904
1103.42	89.5209
1106.31	95.1722
1109.2	69.4614
1112.1	36.517
1114.99	12.6349
1117.88	1.73279
1120.78	3.21765
1123.67	1.58942
1126.56	12.1058
1129.45	29.5977
1132.35	44.1143
1135.24	53.4543
1138.13	45.364
1141.02	30.7243
1143.92	16.5297
1146.81	1.10522
1149.7	1.73859
1152.6	4.1311
1155.49	3.1051
1158.38	10.8911
1161.27	28.4739
1164.17	49.3404
1167.06	78.876
1169.95	111.033
1172.84	144.154
1175.74	161.053
1178.63	142.934
1181.52	112.589
1184.41	94.5665
1187.31	73.7017
1190.2	54.1487
1193.09	40.0474
1195.99	29.0263
1198.88	19.472
1201.77	17.2908
1204.66	10.207
1207.56	6.31146
1210.45	6.06055
1213.34	3.19318
1216.23	2.78162
1219.13	0.289368
1222.02	1.06494
1224.91	1.41162
1227.81	4.57867
1230.7	6.83984
1233.59	8.82983
1236.48	7.99585
1239.38	17.0069
1242.27	27.5004
1245.16	25.4479
1248.05	19.7502
1250.95	16.535
1253.84	22.614
1256.73	16.1309
1259.62	10.318
1262.52	10.0381
1265.41	9.52258
1268.3	9.4906
1271.2	12.9208
1274.09	7.224
1276.98	4.72144
1279.87	2.3869
1282.77	2.87152
1285.66	0.42865
1288.55	2.02753
1291.44	0.294861
1294.34	4.55353
1297.23	1.54974
1300.12	5.35779
1303.02	0
