Measurement: Raman, 780 nm, unoriented, Raman Data Processed
Mineral: Leucophosphite
Rruff sample: R060338
Ideal chemistry: KFe^3+^_2_(PO_4_)_2_(OH)2H_2_O
Locality: Gunheath pit, St. Austell, Cornwall, England
Source: Michael Scott
Description: White to pale pink spherical aggregates associated with green chalcosiderite, R060339, and orange cyrilovite, R060504
Measured chemistry: K_1.00_(Fe^3+^_1.90_Al_0.10_)_Σ=2_(P_1.00_O_4_)_2_(OH)·2.75H_2_O; H_2_O estimated by difference; (OH) by charge balance
Raman shift (cm-1)	intensity
103.586	0
106.961	4.52347
110.336	0.040833
113.711	4.00844
117.085	5.09253
120.46	1.34116
123.835	9.67056
127.21	30.6219
130.585	58.9446
133.959	90.7183
137.334	138.082
140.709	212
144.084	236.134
147.459	225.681
150.834	191.288
154.208	165.095
157.583	158.322
160.958	145.935
164.333	151.436
167.708	81.6678
171.083	15.0612
174.457	7.72053
177.832	9.34599
181.207	0.601517
184.582	15.8816
187.957	34.4759
191.331	42.7223
194.706	52.2804
198.081	62.6036
201.456	81.6878
204.831	83.901
208.205	68.1392
211.58	70.0046
214.955	86.3769
218.33	89.6679
221.705	83.9207
225.079	61.3281
228.454	33.1217
231.829	15.5012
235.204	0.946533
238.579	1.42624
241.954	12.6706
245.328	36.8791
248.703	72.5553
252.078	105.54
255.453	134.383
258.828	151.666
262.202	156.015
265.577	148.899
268.952	142.217
272.327	151.592
275.702	174.929
279.077	192.743
282.451	190.021
285.826	161.876
289.201	123.823
292.576	100.265
295.951	100.15
299.325	117.379
302.7	143.088
306.075	151.125
309.45	151.879
312.825	148.554
316.2	143.016
319.574	143.954
322.949	146.965
326.324	150.892
329.699	161.75
333.074	169.684
336.449	150.619
339.823	100.011
343.198	45.6482
346.573	10.7723
349.948	5.59334
353.323	9.70352
356.697	6.61375
360.072	2.67195
363.447	9.29129
366.822	17.39
370.197	26.1425
373.572	33.8351
376.946	36.4597
380.321	37.2909
383.696	43.8548
387.071	56.2126
390.446	74.4362
393.82	98.4788
397.195	130.192
400.57	163.59
403.945	186.917
407.32	191.318
410.695	175.504
414.069	154.808
417.444	131.559
420.819	108.538
424.194	83.5277
427.569	62.2562
430.943	51.6015
434.318	47.9525
437.693	40.7118
441.068	19.6833
444.443	4.75934
447.817	2.48158
451.192	0.801697
454.567	2.46988
457.942	11.8944
461.317	26.5248
464.692	43.7322
468.066	64.166
471.441	83.8774
474.816	105.28
478.191	119.011
481.566	120.408
484.94	106.106
488.315	84.8226
491.69	69.9556
495.065	57.8272
498.44	46.3942
501.815	28.8082
505.189	13.9352
508.564	6.51459
511.939	2.32405
515.314	1.20998
518.689	2.50265
522.063	3.0386
525.438	2.49027
528.813	1.93168
532.188	2.06903
535.563	5.68227
538.938	9.85006
542.312	15.0057
545.687	24.1585
549.062	28.1976
552.437	31.1779
555.812	26.9543
559.186	23.804
562.561	20.8058
565.936	21.8435
569.311	22.6356
572.686	25.3459
576.061	28.7951
579.435	32.2142
582.81	38.1695
586.185	42.1593
589.56	50.8877
592.935	62.3075
596.309	78.3727
599.684	103.47
603.059	136.517
606.434	182.909
609.809	226.294
613.183	236.186
616.558	225.362
619.933	221.246
623.308	229.574
626.683	243.474
630.058	248.609
633.432	209.982
636.807	145.202
640.182	87.183
643.557	53.6926
646.932	33.8167
650.307	22.4926
653.681	14.9595
657.056	8.67891
660.431	6.58761
663.806	3.8036
667.181	1.82418
670.555	2.05766
673.93	0.515347
677.305	0.205719
680.68	0.277542
684.055	0.222328
687.429	0.480148
690.804	1.02211
694.179	0.105774
697.554	0.477242
700.929	0.830479
704.304	0.212593
707.678	0.083828
711.053	0.179649
714.428	1.46883
717.803	1.26945
721.178	1.73449
724.553	1.60828
727.927	1.8389
731.302	1.21357
734.677	2.91183
738.052	2.77292
741.427	2.75974
744.801	2.81528
748.176	3.77396
751.551	1.8819
754.926	2.85161
758.301	3.23712
761.676	2.04063
765.05	3.50684
768.425	1.67619
771.8	3.3335
775.175	3.86565
778.55	3.35083
781.924	2.5706
785.299	2.67543
788.674	1.92414
792.049	4.25587
795.424	2.79911
798.798	2.71951
802.173	3.46067
805.548	3.97576
808.923	1.72186
812.298	2.39999
815.673	4.42795
819.047	4.65943
822.422	5.67519
825.797	6.48496
829.172	7.86895
832.547	7.84443
835.921	11.0988
839.296	10.7278
842.671	12.8793
846.046	13.7899
849.421	13.0288
852.795	10.4038
856.17	9.38302
859.545	8.9244
862.92	7.11075
866.295	7.56008
869.67	5.64307
873.044	6.10393
876.419	6.01428
879.794	6.11421
883.169	6.31308
886.544	6.1201
889.918	5.77027
893.293	5.14626
896.668	5.24091
900.043	4.57771
903.418	2.90117
906.793	1.86241
910.167	2.69591
913.542	0.918224
916.917	0.208515
920.292	0.683891
923.667	0.941738
927.042	0.048302
930.416	0.939255
933.791	0.368073
937.166	2.82674
940.541	3.44155
943.916	3.12116
947.29	0.948841
950.665	2.34085
954.04	8.14499
957.415	17.3153
960.79	28.576
964.164	40.9681
967.539	49.726
970.914	67.3731
974.289	85.4902
977.664	101.556
981.039	124.183
984.413	164.366
987.788	220.804
991.163	265.25
994.538	270.201
997.913	252.79
1001.29	190.982
1004.66	128.081
1008.04	104.083
1011.41	100.519
1014.79	100.141
1018.16	99.2813
1021.54	102.344
1024.91	115.285
1028.29	130.242
1031.66	128.89
1035.04	117.554
1038.41	119.549
1041.79	141.335
1045.16	180.453
1048.54	230.76
1051.91	289.889
1055.29	332.884
1058.66	307.734
1062.03	242.673
1065.41	166.531
1068.78	92.9765
1072.16	42.1123
1075.53	16.2505
1078.91	4.99336
1082.28	2.21228
1085.66	2.35962
1089.03	3.91769
1092.41	2.23192
1095.78	1.31914
1099.16	7.85055
1102.53	13.5934
1105.91	14.188
1109.28	10.7353
1112.66	3.17788
1116.03	0.928505
1119.41	0.172096
1122.78	5.01323
1126.16	9.67064
1129.53	20.0948
1132.9	25.7392
1136.28	27.2091
1139.65	20.8973
1143.03	12.4378
1146.4	4.40481
1149.78	0.406719
1153.15	0.035461
1156.53	4.37921
1159.9	8.09959
1163.28	17.2172
1166.65	24.9639
1170.03	36.7023
1173.4	44.6635
1176.78	42.3984
1180.15	34.7751
1183.53	28.925
1186.9	21.935
1190.28	14.5268
1193.65	10.0737
1197.03	6.25311
1200.4	2.9816
1203.78	0.680782
1207.15	1.01649
1210.53	0.513817
1213.9	0.272774
1217.28	1.23391
1220.65	0.17057
1224.03	1.20135
1227.4	1.99141
1230.78	2.52869
1234.15	2.07068
1237.53	4.45955
1240.9	3.71979
1244.27	5.19667
1247.65	4.09807
1251.02	2.90979
1254.4	2.95444
1257.77	3.76872
1261.15	4.04023
1264.52	2.59554
1267.9	2.05063
1271.27	2.18037
1274.65	3.15402
1278.02	1.99244
1281.4	0.090557
1284.77	0.118477
