Measurement: Raman, 780 nm, unoriented, Raman Data Processed
Mineral: Leucite
Rruff sample: R060300
Ideal chemistry: K(Si_2_Al)O_6_
Locality: Alban Hills, Rome Province, Latium, Italy
Source: Herb Obodda
Description: Colorless complete pseudocubic crystal showing trapezohedral faces
Measured chemistry: (K_0.98_Na_0.02_)_Î£=1_Al_1.00_Si_2.00_O_6_
Raman shift (cm-1)	intensity
91.5332	0
94.908	28.7578
98.2828	26.2682
101.658	8.9436
105.032	0.758926
108.407	2.71968
111.782	16.0622
115.157	36.0776
118.532	38.1123
121.907	16.0792
125.281	2.40999
128.656	2.91553
132.031	24.1736
135.406	52.9413
138.781	84.4656
142.155	116.186
145.53	152.307
148.905	174.728
152.28	181.329
155.655	171.992
159.03	149.616
162.404	125.829
165.779	102.685
169.154	93.3612
172.529	108.055
175.904	146.611
179.278	183.962
182.653	189.026
186.028	158.233
189.403	121.854
192.778	92.7799
196.153	68.3061
199.527	56.1294
202.902	46.9568
206.277	45.6167
209.652	45.2124
213.027	46.3344
216.401	42.3673
219.776	35.0252
223.151	25.018
226.526	17.5942
229.901	9.08181
233.275	3.24718
236.65	0.254684
240.025	1.94869
243.4	3.74802
246.775	2.69679
250.15	0.298477
253.524	1.50498
256.899	3.86624
260.274	6.81586
263.649	8.50581
267.024	9.6061
270.399	11.2732
273.773	12.2229
277.148	12.1042
280.523	13.9284
283.898	18.223
287.273	21.5789
290.647	31.1767
294.022	40.7034
297.397	50.2841
300.772	56.2188
304.147	52.7767
307.522	43.0113
310.896	34.372
314.271	26.6079
317.646	21.1317
321.021	16.7299
324.396	15.352
327.77	13.0524
331.145	14.5798
334.52	15.6759
337.895	13.373
341.27	12.3749
344.644	5.71
348.019	4.21161
351.394	3.59779
354.769	3.07737
358.144	5.232
361.519	6.02255
364.893	6.38573
368.268	5.86058
371.643	6.5795
375.018	5.04541
378.393	3.50219
381.767	5.06416
385.142	6.03977
388.517	8.35219
391.892	6.2817
395.267	4.15495
398.642	3.00243
402.016	0.808189
405.391	1.16624
408.766	3.70309
412.141	2.17552
415.516	0.929504
418.89	5.72395
422.265	10.0847
425.64	16.1736
429.015	22.7079
432.39	21.4085
435.765	15.437
439.139	6.38445
442.514	0.226784
445.889	1.46053
449.264	2.03081
452.639	2.97264
456.014	11.4537
459.388	22.6979
462.763	33.5229
466.138	54.0906
469.513	89.7142
472.887	151.381
476.262	245.808
479.637	364.981
483.012	485.156
486.387	573.861
489.762	668.19
493.136	772.747
496.511	813.251
499.886	728.133
503.261	651.972
506.636	626.82
510.01	556.25
513.385	452.227
516.76	399.784
520.135	401.64
523.51	459.937
526.885	536.519
530.259	527.087
533.634	389.876
537.009	246.273
540.384	147.444
543.759	96.2435
547.134	66.3809
550.508	46.9691
553.883	34.7925
557.258	22.0822
560.633	15.7841
564.008	9.55842
567.382	2.67549
570.757	0.050213
574.132	2.56203
577.507	3.88515
580.882	1.82458
584.256	1.75115
587.631	0.972023
591.006	1.20763
594.381	1.92017
597.756	2.69806
601.131	0.638992
604.505	2.69257
607.88	1.45994
611.255	3.75443
614.63	3.84992
618.005	4.43763
621.38	7.42465
624.754	7.58373
628.129	7.78493
631.504	5.75414
634.879	5.59564
638.254	2.90538
641.628	1.5436
645.003	0.164452
648.378	0.264051
651.753	1.6373
655.128	2.77071
658.503	2.59839
661.877	4.61775
665.252	5.56886
668.627	6.38302
672.002	6.16252
675.377	6.87638
678.751	8.67429
682.126	6.77135
685.501	4.91887
688.876	5.17274
692.251	1.9371
695.625	1.10814
699	0.142754
702.375	0.127304
705.75	0.881075
709.125	1.19626
712.5	1.87821
715.874	2.95771
719.249	3.75886
722.624	3.44893
725.999	2.28247
729.374	1.50811
732.749	2.92801
736.123	3.27528
739.498	2.99721
742.873	3.17897
746.248	0.567978
749.623	1.7866
752.997	0.413778
756.372	0.556625
759.747	1.04055
763.122	1.0098
766.497	0.390656
769.871	2.43372
773.246	2.42223
776.621	5.36997
779.996	4.94454
783.371	3.44002
786.745	4.803
790.12	4.27788
793.495	4.29019
796.87	3.46317
800.245	3.45038
803.62	1.9396
806.994	2.29597
810.369	1.37699
813.744	1.38792
817.119	0.135503
820.494	1.13817
823.869	0.795334
827.243	0.499575
830.618	0.237641
833.993	0.089036
837.368	0.081927
840.743	1.44844
844.117	1.38911
847.492	1.16449
850.867	2.39327
854.242	3.39506
857.617	2.38857
860.991	2.36964
864.366	2.70974
867.741	3.53833
871.116	3.34213
874.491	2.58409
877.866	2.814
881.24	2.86523
884.615	2.31224
887.99	2.7702
891.365	1.57573
894.74	1.59033
898.115	0.347835
901.489	2.02753
904.864	1.32504
908.239	0.805561
911.614	0.138091
914.989	0.436865
918.363	0.070073
921.738	0.36058
925.113	0.538532
928.488	0.28133
931.863	0.067924
935.237	1.36064
938.612	1.00357
941.987	2.73131
945.362	6.23104
948.737	7.04051
952.112	7.85985
955.486	9.05616
958.861	11.0273
962.236	10.5219
965.611	10.1007
968.986	10.6632
972.361	8.50957
975.735	6.42218
979.11	7.15161
982.485	4.9426
985.86	5.90504
989.235	3.71883
992.609	2.87174
995.984	3.33115
999.359	3.79094
1002.73	3.10949
1006.11	1.21545
1009.48	1.65047
1012.86	1.99617
1016.23	0.846195
1019.61	0.372929
1022.98	0.73204
1026.36	0.399811
1029.73	0.96175
1033.11	0.156578
1036.48	2.40473
1039.86	1.41209
1043.23	2.79291
1046.61	4.24393
1049.98	7.42966
1053.36	7.11321
1056.73	8.83898
1060.11	9.56524
1063.48	9.90978
1066.86	7.11722
1070.23	5.96504
1073.61	3.96243
1076.98	3.66077
1080.36	3.16507
1083.73	3.17726
1087.1	3.78057
1090.48	3.19052
1093.85	3.77746
1097.23	4.64705
1100.6	5.35834
1103.98	5.25786
1107.35	7.06934
1110.73	8.0122
1114.1	7.87674
1117.48	7.29436
1120.85	8.25139
1124.23	6.66467
1127.6	6.47212
1130.98	7.26853
1134.35	6.99237
1137.73	7.8551
1141.1	8.46162
1144.48	5.48323
1147.85	5.72075
1151.23	4.35196
1154.6	3.25123
1157.97	2.36329
1161.35	0.61627
1164.72	0.614394
1168.1	0.08396
1171.47	0.841434
1174.85	0.569437
1178.22	0.632559
1181.6	1.29726
1184.97	0.356645
1188.35	0.975709
1191.72	0.69471
1195.1	1.97042
1198.47	1.98936
1201.85	1.91849
1205.22	1.5687
1208.6	2.53309
1211.97	2.68164
1215.35	3.0779
1218.72	3.45752
1222.1	2.92903
1225.47	5.73822
1228.85	3.9021
1232.22	4.70886
1235.6	4.64547
1238.97	3.46282
1242.35	2.33101
1245.72	2.71194
1249.1	3.19915
1252.47	2.21682
1255.85	1.59033
1259.22	2.06762
1262.6	2.12854
1265.97	1.4205
1269.34	1.87366
1272.72	1.57388
1276.09	0.587132
1279.47	1.71912
1282.84	0.765266
