Measurement: Raman, 785 nm, unoriented, Raman Data Processed
Mineral: Leucophanite
Rruff sample: R050004
Ideal chemistry: NaCaBeSi_2_O_6_F
Locality: Langesundfjord, Norway
Source: University of Arizona Mineral Museum
Description: Pale green massive
Measured chemistry: Ca_1.00_Ca_1.00_Na_2.00_Be_2.00_Si_4.00_O_12_(F_0.96_(OH)_0.04_)_2_
Raman shift (cm-1)	intensity
140.304	0
143.197	0.397827
146.089	143.48
148.982	321.848
151.875	398.56
154.768	363.058
157.66	244.968
160.553	301.742
163.446	327.531
166.338	388.467
169.231	408.571
172.124	442.165
175.017	413.019
177.909	509.303
180.802	602.335
183.695	732.119
186.587	791.608
189.48	902.293
192.373	966.41
195.265	1049.94
198.158	1047.49
201.051	923.448
203.944	767.098
206.836	655.267
209.729	532.799
212.622	546.514
215.514	597.84
218.407	833.868
221.3	876.119
224.192	1000.08
227.085	957.482
229.978	950.492
232.87	929.533
235.763	989.136
238.656	1100.98
241.549	1336.03
244.441	1615.2
247.334	1720.23
250.227	1786.56
253.119	1721.75
256.012	1630.28
258.905	1611.08
261.798	1508.16
264.69	1383
267.583	1210.5
270.476	993.633
273.368	796.246
276.261	608.037
279.154	497.455
282.046	415.446
284.939	313.598
287.832	98.5386
290.724	36.565
293.617	25.5599
296.51	11.1218
299.403	2.67757
302.295	15.4629
305.188	-3.54004
308.081	26.4642
310.973	171.93
313.866	463.551
316.759	696.446
319.651	1034.77
322.544	1525.54
325.437	2149.71
328.33	3043.16
331.222	4151.19
334.115	5664.13
337.008	7359.5
339.9	9182.29
342.793	10951.6
345.686	12050.5
348.579	12461.6
351.471	12421.5
354.364	11931.9
357.257	11362.2
360.149	10692.9
363.042	9912.13
365.935	9511.78
368.827	9105.7
371.72	9013.33
374.613	8899.06
377.505	8402.61
380.398	7627.61
383.291	6581.27
386.184	5425.37
389.076	4276.31
391.969	3335.98
394.862	2388.7
397.754	1688.09
400.647	1312.93
403.54	984.475
406.433	1134.66
409.325	1480.11
412.218	2051.57
415.111	2719.63
418.003	3311.78
420.896	4019.6
423.789	4512.55
426.681	4812.73
429.574	4697.79
432.467	4753.38
435.36	4521.77
438.252	4490.56
441.145	4484.02
444.038	4401.51
446.93	4429.85
449.823	4498.06
452.716	4597.67
455.608	4687.6
458.501	4520.51
461.394	4239.49
464.286	3776
467.179	3267.92
470.072	2711.13
472.965	2170.07
475.857	1547.98
478.75	1146.68
481.643	676.951
484.535	367.334
487.428	122.901
490.321	46.8815
493.214	38.8783
496.106	27.4422
498.999	22
501.892	37.7873
504.784	21.7863
507.677	2.57926
510.57	28.5089
513.462	95.4155
516.355	196.775
519.248	377.853
522.14	517.858
525.033	687.598
527.926	790.802
530.819	1061.43
533.711	1249.16
536.604	1384.73
539.497	1592.77
542.389	1937.76
545.282	2137.38
548.175	2527.5
551.067	2780.74
553.96	3074.77
556.853	3310.78
559.745	3558.77
562.638	3604.04
565.531	3524.57
568.424	3421.89
571.316	3129.11
574.209	2798.73
577.102	2473.95
579.994	2070.77
582.887	1663.97
585.78	1293.21
588.673	981.328
591.565	731.531
594.458	513.214
597.351	318.937
600.243	223.511
603.136	115.529
606.029	68.1157
608.921	51.2808
611.814	1.38135
614.707	15.5903
617.6	3.27051
620.492	23.9902
623.385	39.9058
626.278	34.332
629.17	72.6084
632.063	63.0088
634.956	87.9492
637.848	138.805
640.741	124.812
643.634	211.447
646.527	185.935
649.419	268.341
652.312	336.287
655.205	382.745
658.097	485.641
660.99	511.104
663.883	625.935
666.775	730.172
669.668	791.369
672.561	897.708
675.454	959.75
678.346	1018.61
681.239	988.167
684.132	909.614
687.024	944.197
689.917	935.951
692.81	1015.82
695.702	1070.02
698.595	1158.67
701.488	1164.28
704.381	1293.78
707.273	1277.05
710.166	1284.7
713.059	1254.45
715.951	1142.16
718.844	1049.29
721.737	958.848
724.63	821.361
727.522	713.678
730.415	599.907
733.308	468.406
736.2	353.604
739.093	319.126
741.986	217.341
744.878	134.147
747.771	63.4976
750.664	5.31787
753.557	9.87915
756.449	9.56201
759.342	20.3215
762.235	64.1774
765.127	21.5151
768.02	7.6106
770.913	7.58716
773.805	45.5821
776.698	89.1982
779.591	102.35
782.484	126.083
785.376	209.325
788.269	253.641
791.162	314.814
794.054	365.983
796.947	462.273
799.84	511.286
802.732	585.581
805.625	690.456
808.518	733.5
811.41	821.289
814.303	849.962
817.196	850.939
820.089	818.872
822.981	778.94
825.874	733.265
828.767	655.988
831.659	597.256
834.552	539.959
837.445	477.687
840.337	413.483
843.23	353.301
846.123	292.081
849.016	240.994
851.908	193.029
854.801	137.362
857.694	137.93
860.586	88.0598
863.479	44.6423
866.372	22.5614
869.264	27.3292
872.157	4.5592
875.05	17.5291
877.943	0.863037
880.835	4.49866
883.728	3.96216
886.621	26.6847
889.513	14.5145
892.406	9.50085
895.299	32.4597
898.192	21.4562
901.084	4.91516
903.977	21.7805
906.87	25.2845
909.762	36.7395
912.655	69.5953
915.548	58.2705
918.44	87.067
921.333	112.785
924.226	98.6932
927.119	84.6658
930.011	80.5005
932.904	94.6887
935.797	60.545
938.689	84.0147
941.582	74.296
944.475	76.9493
947.367	60.4021
950.26	107.771
953.153	84.5768
956.045	94.0145
958.938	66.0295
961.831	84.348
964.724	138.516
967.616	115.319
970.509	111.886
973.402	98.995
976.294	108.336
979.187	135.166
982.08	107.29
984.972	133.288
987.865	137.55
990.758	170.308
993.651	193.941
996.543	196.928
999.436	216.519
1002.33	212.295
1005.22	244.184
1008.11	252.428
1011.01	253.49
1013.9	249.033
1016.79	261.27
1019.68	283.366
1022.58	261.728
1025.47	274.246
1028.36	211.848
1031.26	169.602
1034.15	212.526
1037.04	139.864
1039.93	108.178
1042.83	45.1943
1045.72	94.5732
1048.61	26.7424
1051.51	38.124
1054.4	37.5688
1057.29	14.1187
1060.18	25.8423
1063.08	25.0254
1065.97	70.6235
1068.86	49.2876
1071.75	120.627
1074.65	175.792
1077.54	284.218
1080.43	245.001
1083.32	255.031
1086.22	204.475
1089.11	187.76
1092	143.974
1094.89	102.036
1097.79	124.946
1100.68	92.5391
1103.57	113.526
1106.47	61.5342
1109.36	92.9541
1112.25	41.0117
