Measurement: Raman, 532 nm, unoriented, Raman Data Processed
Mineral: Levyne-Na
Rruff sample: R060021
Ideal chemistry: Na_6_(Si_12_Al_6_)O_36_18H_2_O
Locality: Dallas, Oregon, USA
Source: Bob Downs
Description: White tabular hexagonal-shaped crystals associated with analcime, R060023
Measured chemistry: (Na_0.70_Ca_0.26_K_0.04_)_6_(Si_0.58_Al_0.42_)_18_O_36_Â·18H_2_O
Raman shift (cm-1)	intensity
119.749	0
123.124	2.50481
126.499	4.55465
129.874	9.771
133.248	7.67793
136.623	6.11099
139.998	7.08071
143.373	4.758
146.748	4.63177
150.123	2.83549
153.497	2.09949
156.872	1.17162
160.247	0.507095
163.622	0.667259
166.997	0.157906
170.371	0.533569
173.746	0.690208
177.121	1.07351
180.496	1.53203
183.871	1.9384
187.245	2.89803
190.62	2.43844
193.995	2.16285
197.37	2.2469
200.745	2.72155
204.119	2.10527
207.494	1.17293
210.869	0.56591
214.244	0.075653
217.619	0.325493
220.994	0.520695
224.368	0.446087
227.743	0.148518
231.118	0.048439
234.493	0.892822
237.868	1.64602
241.243	3.25621
244.617	4.32699
247.992	5.40378
251.367	6.66876
254.742	6.4188
258.117	6.33896
261.491	5.54983
264.866	5.1219
268.241	4.93527
271.616	4.51526
274.991	5.05565
278.365	4.87246
281.74	5.27334
285.115	6.0603
288.49	8.00086
291.865	8.89463
295.24	6.5537
298.614	4.65282
301.989	0.958729
305.364	0.211548
308.739	0.154434
312.114	0.575596
315.488	1.30469
318.863	2.67381
322.238	3.23015
325.613	3.02846
328.988	3.39304
332.363	4.60327
335.737	6.4505
339.112	9.99233
342.487	10.5643
345.862	12.0073
349.237	11.7298
352.611	10.903
355.986	9.49574
359.361	9.43409
362.736	9.97917
366.111	11.625
369.486	13.9618
372.86	17.1898
376.235	19.4372
379.61	18.3308
382.985	14.0521
386.36	9.34494
389.734	7.24773
393.109	4.91853
396.484	3.574
399.859	2.74071
403.234	1.67478
406.608	1.13462
409.983	0.146324
413.358	0.295586
416.733	0.670586
420.108	0.737869
423.483	0.389538
426.857	0.169838
430.232	0.62674
433.607	1.84723
436.982	3.09418
440.357	5.12353
443.731	7.52234
447.106	10.8607
450.481	15.6654
453.856	16.7044
457.231	17.8999
460.606	20.6065
463.98	23.5545
467.355	25.4282
470.73	26.405
474.105	26.3901
477.48	26.6549
480.854	28.3921
484.229	31.633
487.604	36.7315
490.979	42.7824
494.354	49.2704
497.728	52.7171
501.103	53.6862
504.478	50.3094
507.853	41.8433
511.228	31.3426
514.603	21.8238
517.977	14.5128
521.352	9.44798
524.727	6.14098
528.102	4.10247
531.477	2.55128
534.851	1.2603
538.226	0.653954
541.601	0.056721
544.976	0.11541
548.351	0.06826
551.726	0.339531
555.1	0.596218
558.475	1.12877
561.85	1.94247
565.225	2.07989
568.6	2.26932
571.975	2.06173
575.349	2.01335
578.724	1.26618
582.099	0.884548
585.474	0.46648
588.848	0.141262
592.223	0.168842
595.598	0.642078
598.973	0.165344
602.348	0.065022
605.723	0.180935
609.097	0.385136
612.472	0.02124
615.847	0.172413
619.222	0.120506
622.597	0.041046
625.971	0.136791
629.346	0.332966
632.721	0.765472
636.096	0.72065
639.471	0.920792
642.846	0.747173
646.22	0.728546
649.595	0.886211
652.97	0.994057
656.345	1.11268
659.72	1.23753
663.095	1.34418
666.469	1.10495
669.844	1.36838
673.219	1.68162
676.594	2.06496
679.969	2.49535
683.343	3.00835
686.718	3.16906
690.093	3.55417
693.468	3.63366
696.843	3.51129
700.217	2.74735
703.592	2.19671
706.967	2.048
710.342	1.47644
713.717	0.931896
717.092	0.708229
720.466	0.476906
723.841	0.304108
727.216	0.160728
730.591	0.059662
733.966	0.045582
737.341	0.196507
740.715	0.037376
744.09	0.367764
747.465	0.199512
750.84	0.423004
754.215	0.275955
757.589	0.419315
760.964	0.659172
764.339	0.773937
767.714	1.05938
771.089	0.917847
774.463	0.723095
777.838	0.971634
781.213	0.546673
784.588	0.882534
787.963	0.606037
791.337	0.643013
794.712	0.61417
798.087	0.185493
801.462	0.367481
804.837	0.509296
808.212	0.077843
811.586	0.192013
814.961	0.018063
818.336	0.037128
821.711	0.059589
825.086	0.03001
828.46	0.230175
831.835	0.119602
835.21	0.342575
838.585	0.399914
841.96	0.40295
845.335	0.29599
848.709	0.204456
852.084	0.268742
855.459	0.365837
858.834	0.518799
862.209	0.336666
865.583	0.397587
868.958	0.579754
872.333	0.341534
875.708	0.18877
879.083	0.285713
882.457	0.551136
885.832	0.340633
889.207	0.191406
892.582	0.06773
895.957	0.082146
899.332	0.023182
902.706	0.043076
906.081	0.122845
909.456	0.138813
912.831	0.021614
916.206	0.426479
919.581	0.586216
922.955	0.799809
926.33	1.38339
929.705	1.47461
933.08	2.00195
936.455	2.03412
939.829	2.05002
943.204	2.119
946.579	2.41755
949.954	2.57655
953.329	2.56374
956.703	2.16924
960.078	1.78361
963.453	1.32112
966.828	0.627064
970.203	0.119198
973.578	0.396412
976.952	0.476933
980.327	0.980301
983.702	1.19751
987.077	2.20604
990.452	2.78245
993.826	3.3453
997.201	3.6237
1000.58	3.45712
1003.95	2.74716
1007.33	2.35475
1010.7	2.44729
1014.08	2.2541
1017.45	2.13979
1020.83	1.73661
1024.2	1.38895
1027.58	1.25152
1030.95	0.855938
1034.32	0.841743
1037.7	0.71727
1041.07	0.401867
1044.45	0.301434
1047.82	0.365295
1051.2	0.208858
1054.57	0.268108
1057.95	0.208675
1061.32	0.145004
1064.7	0.192345
1068.07	0.005928
1071.45	0.082432
1074.82	0.137211
1078.2	0.540119
1081.57	0.897896
1084.95	1.4134
1088.32	1.7146
1091.7	2.391
1095.07	2.99723
1098.45	3.05705
1101.82	3.68288
1105.19	3.67231
1108.57	3.7888
1111.94	3.65483
1115.32	3.47304
1118.69	3.5213
1122.07	3.55717
1125.44	3.47262
1128.82	3.02845
1132.19	2.6443
1135.57	2.31179
1138.94	2.14412
1142.32	2.20374
1145.69	2.01249
1149.07	1.86583
1152.44	2.46155
1155.82	2.30702
1159.19	1.86329
1162.57	2.00437
1165.94	1.91819
1169.32	1.85129
1172.69	1.6888
1176.07	1.37872
1179.44	1.44031
1182.82	1.19146
1186.19	0.80986
1189.57	0.804737
1192.94	0.590504
1196.32	0.458454
1199.69	0.355602
1203.07	0.315231
1206.44	0.153439
1209.82	0.021629
1213.19	0.015881
1216.56	0.045307
1219.94	0.017418
1223.31	0.042404
1226.69	0.053185
1230.06	0.047668
1233.44	0.150124
1236.81	0.038853
1240.19	0.196617
1243.56	0.179562
1246.94	0.075104
1250.31	0.157806
1253.69	0.046112
1257.06	0.15509
1260.44	0.472775
1263.81	0.200123
1267.19	0.195614
1270.56	0.428955
1273.94	0.201462
1277.31	0.321873
1280.69	0.315536
1284.06	0.255238
1287.43	0.347496
1290.81	0.167675
1294.18	0.034794
1297.56	0.119827
1300.93	0.125656
