Measurement: Raman, 780 nm, unoriented, Raman Data Processed
Mineral: Levyne-Na
Rruff sample: R060021
Ideal chemistry: Na_6_(Si_12_Al_6_)O_36_18H_2_O
Locality: Dallas, Oregon, USA
Source: Bob Downs
Description: White tabular hexagonal-shaped crystals associated with analcime, R060023
Measured chemistry: (Na_0.70_Ca_0.26_K_0.04_)_6_(Si_0.58_Al_0.42_)_18_O_36_Â·18H_2_O
Raman shift (cm-1)	intensity
118.076	0
121.451	0.269701
124.826	0.01075
128.2	0.297728
131.575	0.175125
134.95	0.211754
138.325	0.496105
141.7	0.473932
145.074	0.649237
148.449	0.444584
151.824	0.303194
155.199	0.331831
158.574	0.129162
161.948	0.058506
165.323	0.049648
168.698	0.009375
172.073	0.140192
175.448	0.257729
178.822	0.488615
182.197	0.676197
185.572	1.10444
188.947	0.82276
192.322	0.950813
195.697	0.838654
199.071	0.822756
202.446	0.555569
205.821	0.297229
209.196	0.143819
212.571	0.148316
215.946	0.018161
219.32	0.051458
222.695	0.118356
226.07	0.105151
229.445	0.164304
232.82	0.357575
236.194	0.626483
239.569	0.994006
242.944	1.18598
246.319	1.55742
249.694	1.65298
253.069	1.87097
256.443	1.57942
259.818	1.16246
263.193	1.16346
266.568	1.29467
269.943	1.31766
273.317	1.27515
276.692	1.63309
280.067	1.54611
283.442	1.72469
286.817	1.96195
290.191	2.17467
293.566	1.79673
296.941	0.903311
300.316	0.347687
303.691	0.090946
307.065	0.099036
310.44	0.200572
313.815	0.356259
317.19	0.76214
320.565	0.881698
323.94	0.947683
327.314	1.07277
330.689	1.27442
334.064	1.80781
337.439	2.21733
340.814	2.80556
344.188	2.7512
347.563	3.03232
350.938	2.79164
354.313	2.48267
357.688	2.5352
361.063	2.72469
364.437	3.16054
367.812	3.68395
371.187	4.29726
374.562	4.74721
377.937	4.35503
381.312	3.52888
384.686	2.403
388.061	1.63359
391.436	1.11621
394.811	0.820257
398.185	0.418082
401.56	0.365199
404.935	0.259717
408.31	0.014746
411.685	0.060719
415.06	0.181299
418.434	0.146253
421.809	0.001939
425.184	0.00094
428.559	0.177459
431.934	0.606876
435.308	0.992859
438.683	1.56622
442.058	1.9574
445.433	2.66308
448.808	3.4912
452.183	4.13603
455.557	4.68139
458.932	5.31885
462.307	5.88142
465.682	6.308
469.057	6.76279
472.432	6.77611
475.806	7.05166
479.181	7.42142
482.556	8.24436
485.931	9.39682
489.305	10.8165
492.68	11.8539
496.055	12.3402
499.43	12.2292
502.805	11.2513
506.18	9.42423
509.554	7.05429
512.929	4.86752
516.304	3.15162
519.679	2.08833
523.054	1.35611
526.428	0.903809
529.803	0.38566
533.178	0.253918
536.553	0.037874
539.928	0.010035
543.303	0.059601
546.677	0.005493
550.052	0.115425
553.427	0.189637
556.802	0.101274
560.177	0.331947
563.552	0.37488
566.926	0.464048
570.301	0.442539
573.676	0.428705
577.051	0.210811
580.426	0.26883
583.8	0.019991
587.175	0.034831
590.55	0.038901
593.925	0.041244
597.3	0.003544
600.674	0.005001
604.049	0.051332
607.424	0.025905
610.799	0.030774
614.174	0.059225
617.548	0.080669
620.923	0.084593
624.298	0.044569
627.673	0.117443
631.048	0.153878
634.423	0.169172
637.797	0.120372
641.172	0.160544
644.547	0.276682
647.922	0.233512
651.297	0.186985
654.672	0.266708
658.046	0.137815
661.421	0.338825
664.796	0.339234
668.171	0.292247
671.546	0.33898
674.92	0.435859
678.295	0.503408
681.67	0.533257
685.045	0.762029
688.42	0.724813
691.794	0.692637
695.169	0.827376
698.544	0.592892
701.919	0.425922
705.294	0.341005
708.669	0.307576
712.043	0.19943
715.418	0.145946
718.793	0.096612
722.168	0.128583
725.543	0.075728
728.918	0.022784
732.292	0.013532
735.667	0.082202
739.042	0.008894
742.417	0.09836
745.792	0.049212
749.166	0.021944
752.541	0.024551
755.916	0.091485
759.291	0.198843
762.666	0.161413
766.04	0.135883
769.415	0.13585
772.79	0.207396
776.165	0.256952
779.54	0.136866
782.914	0.327426
786.289	0.313649
789.664	0.193005
793.039	0.226226
796.414	0.213131
799.789	0.220588
803.163	0.147209
806.538	0.190197
809.913	0.160389
813.288	0.176399
816.663	0.217554
820.038	0.259345
823.412	0.2034
826.787	0.238169
830.162	0.331688
833.537	0.366027
836.912	0.409967
840.286	0.318651
843.661	0.358978
847.036	0.462308
850.411	0.382983
853.786	0.31234
857.16	0.44362
860.535	0.330803
863.91	0.208906
867.285	0.359788
870.66	0.347853
874.034	0.291685
877.409	0.254745
880.784	0.163262
884.159	0.154016
887.534	0.185146
890.909	0.031902
894.283	0.006906
897.658	0.00989
901.033	0.050311
904.408	0.075093
907.783	0.02095
911.158	0.060943
914.532	0.006959
917.907	0.151021
921.282	0.063217
924.657	0.249916
928.032	0.271986
931.406	0.341331
934.781	0.324534
938.156	0.393163
941.531	0.461507
944.906	0.473353
948.28	0.528044
951.655	0.449902
955.03	0.44987
958.405	0.453802
961.78	0.275497
965.154	0.085098
968.529	0.05161
971.904	0.003448
975.279	0.058377
978.654	0.138284
982.029	0.277171
985.403	0.494235
988.778	0.491159
992.153	0.621182
995.528	0.472993
998.903	0.53229
1002.28	0.4204
1005.65	0.420085
1009.03	0.482761
1012.4	0.373958
1015.78	0.458573
1019.15	0.378223
1022.53	0.324497
1025.9	0.265013
1029.28	0.215796
1032.65	0.273635
1036.03	0.138398
1039.4	0.102169
1042.78	0.02845
1046.15	0.049028
1049.53	0.080791
1052.9	0.043364
1056.28	0.047495
1059.65	0.05915
1063.02	0.028945
1066.4	0.015921
1069.77	0.007434
1073.15	0.053676
1076.52	0.109757
1079.9	0.189097
1083.27	0.177814
1086.65	0.396962
1090.02	0.441822
1093.4	0.473821
1096.77	0.500297
1100.15	0.599495
1103.52	0.436168
1106.9	0.458138
1110.27	0.668625
1113.65	0.636574
1117.02	0.450565
1120.4	0.592603
1123.77	0.437526
1127.15	0.412992
1130.52	0.413853
1133.89	0.396745
1137.27	0.380517
1140.64	0.33817
1144.02	0.247201
1147.39	0.303713
1150.77	0.253296
1154.14	0.267012
1157.52	0.296811
1160.89	0.244644
1164.27	0.168976
1167.64	0.265913
1171.02	0.301322
1174.39	0.099114
1177.77	0.125226
1181.14	0.10387
1184.52	0.040009
1187.89	0.184999
1191.27	0.089199
1194.64	0.132382
1198.02	0.028408
1201.39	0.133436
1204.77	0.025126
1208.14	0.14198
1211.52	0.116972
1214.89	0.016868
1218.27	0.032294
1221.64	0.069186
1225.02	0.045729
1228.39	0.052431
1231.77	0.048061
1235.14	0.017411
1238.52	0.064076
1241.89	0.077622
1245.26	0.081475
1248.64	0.006864
1252.01	0.017975
1255.39	0.212926
1258.76	0.210753
1262.14	0.239902
1265.51	0.024014
1268.89	0.15664
1272.26	0.160849
1275.64	0.144075
1279.01	0.156485
1282.39	0.042292
