Measurement: Raman, 532 nm, unoriented, Raman Data Processed
Mineral: Levyne-Ca
Rruff sample: R070270
Ideal chemistry: Ca_3_(Si_12_Al_6_)O_36_18H_2_O
Locality: Beech Creek Quarry, Mount Vernon, Grant County, Oregon, USA
Source: Michael Scott
Description: Clear, colorless hexagonal tabular
Raman shift (cm-1)	intensity
148.698	0
151.59	65.5371
154.483	297.278
157.376	357.632
160.268	417.046
163.161	429.291
166.054	514.678
168.946	570.841
171.839	553.59
174.732	543.313
177.625	507.847
180.517	387.901
183.41	329.475
186.303	297.191
189.195	289.793
192.088	204.005
194.981	172.542
197.874	130.749
200.766	96.3848
203.659	76.1377
206.552	38.585
209.444	34.0015
212.337	23.0459
215.23	15.3506
218.122	6.9458
221.015	2.26172
223.908	25.709
226.8	13.855
229.693	0.925293
232.586	2.69775
235.479	12.9121
238.371	7.93945
241.264	10.0879
244.157	11.6328
247.049	8.5459
249.942	5.07471
252.835	7.8291
255.727	85.6011
258.62	45.188
261.513	156.374
264.406	119.392
267.298	151.671
270.191	177.385
273.084	172.726
275.976	163.242
278.869	152.909
281.762	210.333
284.655	197.783
287.547	188.986
290.44	206.973
293.333	247.658
296.225	274.935
299.118	280.512
302.011	293.992
304.904	316.176
307.796	342.565
310.689	429.085
313.582	399.382
316.474	413.327
319.367	458.305
322.26	474.121
325.152	504.046
328.045	529.245
330.938	516.014
333.83	532.865
336.723	523.468
339.616	522.229
342.509	408.207
345.401	390.611
348.294	411.045
351.187	367.737
354.079	303.323
356.972	241.348
359.865	251.858
362.757	173.461
365.65	146.557
368.543	116.903
371.436	171.375
374.328	87.7266
377.221	89.8682
380.114	84.4712
383.006	111.538
385.899	28.6987
388.792	20.832
391.685	23.9546
394.577	40.2412
397.47	16.0132
400.363	31.9922
403.255	65.7852
406.148	17.3794
409.041	48.2456
411.933	30.6011
414.826	37.8784
417.719	79.7876
420.611	114.692
423.504	102.18
426.397	254.86
429.29	347.893
432.182	389.635
435.075	527.316
437.968	749.301
440.86	950.793
443.753	1153.22
446.646	1447.93
449.538	1626.21
452.431	1886.04
455.324	2036.21
458.217	2129.09
461.109	2264.11
464.002	2300.84
466.895	2396.88
469.787	2507.43
472.68	2790.11
475.573	3148.37
478.466	3545.6
481.358	3821.04
484.251	3792.42
487.144	3593.05
490.036	2929.33
492.929	2368.26
495.822	1817.72
498.714	1362.28
501.607	944.417
504.5	713.159
507.393	514.698
510.285	342.795
513.178	181.095
516.071	107.413
518.963	14.0903
521.856	15.1182
524.749	2.46777
527.641	42.7266
530.534	22.2192
533.427	33.5063
536.32	41.7026
539.212	75.9341
542.105	141.895
544.998	199.938
547.89	294.246
550.783	401.862
553.676	444.504
556.568	500.944
559.461	592.053
562.354	446.023
565.247	368.094
568.139	281.546
571.032	266.975
573.925	173.597
576.817	139.164
579.71	132.434
582.603	113.588
585.495	102.299
588.388	50.207
591.281	50.3589
594.174	36.6323
597.066	36.998
599.959	65.9712
602.852	22.2144
605.744	7.5376
608.637	51.4795
611.53	11.3755
614.423	9.03369
617.315	3.24707
620.208	4.43896
623.101	11.8115
625.993	24.8384
628.886	36.8179
631.779	29.7949
634.671	36.8789
637.564	63.7251
640.457	65.6206
643.35	107.516
646.242	65.2446
649.135	71.688
652.028	67.8623
654.92	124.922
657.813	60.6787
660.706	46.5151
663.598	69.6543
666.491	67.0669
669.384	56.5381
672.277	33.9434
675.169	43.7871
678.062	49.1587
680.955	58.7969
683.847	44.8525
686.74	9.81641
689.633	19.9717
692.525	28.0508
695.418	0.169922
698.311	13.5835
701.204	62.206
704.096	32.8032
706.989	20.4258
709.882	48.4853
712.774	35.2915
715.667	8.80908
718.56	62.3013
721.452	12.0727
724.345	49.7236
727.238	30.3174
730.131	45.3916
733.023	52.917
735.916	84.8843
738.809	2.38184
741.701	65.0171
744.594	24.105
747.487	129.87
750.38	21.3203
753.272	82.9043
756.165	115.839
759.058	127.522
761.95	87.6274
764.843	178.579
767.736	147.931
770.628	189.608
773.521	192.167
776.414	209.588
779.307	178.542
782.199	171.062
785.092	180.496
787.985	154.055
790.877	142.109
793.77	109.602
796.663	107.977
799.555	109.044
802.448	93.8696
805.341	87.6352
808.234	84.4688
811.126	84.0278
814.019	38.9307
816.912	86.2422
819.804	65.8921
822.697	24.2168
825.59	0.639648
828.482	38.6709
831.375	39.8799
834.268	24.2026
837.16	19.3149
840.053	19.7812
842.946	9.07031
845.839	42.2964
848.731	14.104
851.624	48.1055
854.517	8.18555
857.409	2.15039
860.302	56.5381
863.195	50.9228
866.087	30.6538
868.98	10.2026
871.873	40.2446
874.766	18.7051
877.658	76.4932
880.551	45.4248
883.444	18.3648
886.337	84.3872
889.229	42.8276
892.122	19.8081
895.015	15.0708
897.907	40.5679
900.8	13.2583
903.693	25.2393
906.585	44.8672
909.478	39.0327
912.371	136.447
915.264	81.2378
918.156	58.7261
921.049	68.8584
923.942	54.166
926.834	31.1929
929.727	62.771
932.62	56.186
935.512	50.8555
938.405	32.7148
941.298	64.3984
944.191	42.5776
947.083	62.9214
949.976	45.936
952.869	51.9678
955.761	24.9985
958.654	55.4512
961.547	21.1816
964.439	20.2285
967.332	11.2095
970.225	13.1265
973.117	50.1279
976.01	20.835
978.903	20.5332
981.796	22.2075
984.688	24.0474
987.581	65.6636
990.474	22.749
993.366	41.3677
996.259	1.70654
999.152	3.31592
1002.04	54.9766
1004.94	62.3057
1007.83	41.7676
1010.72	52.9058
1013.62	19.855
1016.51	52.3291
1019.4	42.4233
1022.29	71.9429
1025.19	57.5947
1028.08	63.1665
1030.97	63.0488
1033.86	25.6758
1036.76	34.7393
1039.65	5.93018
1042.54	48.54
1045.43	13.6079
1048.33	15.0347
1051.22	39.6968
1054.11	25.2398
1057.01	61.3931
1059.9	82.0361
1062.79	79.7524
1065.68	185.294
1068.58	157.659
1071.47	255.48
1074.36	282.969
1077.26	334.996
1080.15	303.209
1083.04	413.443
1085.93	421.761
1088.83	459.742
1091.72	486.35
1094.61	456.208
1097.5	514.306
1100.4	430.6
1103.29	493.717
1106.18	432.194
1109.07	436.279
1111.97	348.707
1114.86	366.554
1117.75	311.036
1120.64	356.134
1123.54	255.315
1126.43	303.174
1129.32	218.816
1132.22	213.558
1135.11	242.892
1138	199.586
1140.89	145.157
1143.79	159.132
1146.68	178.078
1149.57	146.048
1152.46	137.529
1155.36	111.816
1158.25	112.898
1161.14	131.483
1164.04	67.1377
1166.93	95.3774
1169.82	102.832
1172.71	43.6152
1175.61	36.332
1178.5	43.0967
1181.39	13.9761
1184.29	40.4365
1187.18	34.6401
1190.07	7.89014
1192.96	10.0986
1195.86	13.4868
1198.75	14.02
1201.64	46.4268
1204.53	71.8394
1207.43	47.0669
1210.32	13.6206
1213.21	17.0523
1216.1	11.8301
1219	10.96
1221.89	33.3462
1224.78	3.01904
1227.67	59.855
1230.57	34.876
1233.46	52.7378
1236.35	15.7998
1239.25	49.5147
1242.14	130.824
1245.03	71.4175
1247.92	121.321
1250.82	19.9014
1253.71	73.8384
1256.6	87.0679
1259.49	20.0889
1262.39	64.0879
1265.28	90.292
1268.17	86.5713
1271.07	115.017
1273.96	67.4766
1276.85	74.4741
1279.74	31.6079
1282.64	100.334
1285.53	77.0137
1288.42	86.4053
1291.32	5.46973
1294.21	0
