Measurement: Raman, 785 nm, unoriented, Raman Data Processed
Mineral: Levyne-Ca
Rruff sample: R070270
Ideal chemistry: Ca_3_(Si_12_Al_6_)O_36_18H_2_O
Locality: Beech Creek Quarry, Mount Vernon, Grant County, Oregon, USA
Source: Michael Scott
Description: Clear, colorless hexagonal tabular
Raman shift (cm-1)	intensity
155.732	0
158.625	0.648438
161.517	110.894
164.41	335.071
167.303	510.397
170.195	563.356
173.088	538.104
175.981	467.274
178.873	348.402
181.766	287.977
184.659	259.501
187.552	259.812
190.444	236.763
193.337	160.692
196.23	164.212
199.122	149.606
202.015	151.479
204.908	118.591
207.8	56.7852
210.693	28.2161
213.586	14.1538
216.478	16.9492
219.371	0.400391
222.264	20.8284
225.157	0.249756
228.049	45.7976
230.942	9.89282
233.835	43.3044
236.727	25.5054
239.62	39.2051
242.513	12.8757
245.405	2.90161
248.298	17.4883
251.191	42.0532
254.084	53.4783
256.976	56.4868
259.869	58.4431
262.762	105.249
265.654	57.9023
268.547	86.1304
271.44	89.9585
274.332	93.4424
277.225	65.9517
280.118	70.5635
283.011	90.238
285.903	66.3535
288.796	68.5398
291.689	114.299
294.581	70.0454
297.474	94.2488
300.367	111.362
303.26	211.787
306.152	232.354
309.045	277.56
311.938	302.43
314.83	339.995
317.723	344.062
320.616	390.713
323.508	389.104
326.401	465.057
329.294	507.166
332.187	542.702
335.079	537.888
337.972	486.712
340.865	484.665
343.757	425.21
346.65	413.992
349.543	412.674
352.435	390.648
355.328	336.342
358.221	311.388
361.113	232.714
364.006	242.806
366.899	212.044
369.792	172.469
372.684	135.627
375.577	169.581
378.47	120.326
381.362	92.8086
384.255	84.5584
387.148	53.6582
390.041	20.502
392.933	58.2602
395.826	24.2834
398.719	0.609863
401.611	28.1155
404.504	31.5337
407.397	25.4741
410.289	9.87134
413.182	17.7922
416.075	73.0715
418.967	103.612
421.86	106.617
424.753	164.016
427.646	192.695
430.538	230.629
433.431	392.638
436.324	515.389
439.216	658.468
442.109	867.048
445.002	1096.93
447.894	1291.45
450.787	1476
453.68	1626.83
456.573	1781.39
459.465	1875.36
462.358	1894.68
465.251	2013.96
468.143	2129.54
471.036	2323.14
473.929	2605.22
476.822	2908.69
479.714	3102.43
482.607	3319
485.5	3211.37
488.392	2845.33
491.285	2336.91
494.178	1810.14
497.07	1393.58
499.963	1032.63
502.856	745.996
505.748	516.951
508.641	323.688
511.534	258.051
514.427	146.395
517.319	78.3672
520.212	49.5427
523.105	38.7451
525.997	1.09668
528.89	26.5715
531.783	23.7293
534.676	41.3396
537.568	85.3794
540.461	117.294
543.354	124.498
546.246	215.78
549.139	307.567
552.032	373.281
554.924	419.035
557.817	403.057
560.71	372.219
563.602	343.416
566.495	292.391
569.388	221.657
572.281	186.077
575.173	138.835
578.066	126.88
580.959	106.032
583.851	57.0774
586.744	73.6982
589.637	60.5129
592.529	62.094
595.422	35.9224
598.315	25.5464
601.208	14.7173
604.1	8.43799
606.993	39.1731
609.886	18.6043
612.778	22.6621
615.671	1.60596
618.564	9.97852
621.457	15.7434
624.349	19.0456
627.242	8.13892
630.135	28.3164
633.027	23.0361
635.92	11.1719
638.813	8.37964
641.705	20.4385
644.598	29.5727
647.491	51.4336
650.384	16.3638
653.276	44.3833
656.169	39.417
659.062	42.9766
661.954	39.4106
664.847	43.2881
667.74	66.0281
670.632	37.9805
673.525	41.7058
676.418	41.7312
679.311	28.6394
682.203	20.4282
685.096	27.0969
687.989	7.09424
690.881	12.0803
693.774	43.728
696.667	6.76904
699.559	21.2102
702.452	35.6936
705.345	35.6736
708.237	1.73096
711.13	26.4077
714.023	22.8081
716.916	17.7942
719.808	48.2283
722.701	36.5915
725.594	19.9627
728.486	50.1572
731.379	61.5901
734.272	18.5117
737.164	63.9873
740.057	25.2869
742.95	22.8071
745.843	44.5381
748.735	60.709
751.628	59.4507
754.521	86.0105
757.413	32.7224
760.306	90.8152
763.199	98.948
766.091	112.468
768.984	101.179
771.877	96.5513
774.77	149.043
777.662	121.396
780.555	103.088
783.448	116.983
786.34	103.056
789.233	93.0549
792.126	111.46
795.019	92.3926
797.911	88.7388
800.804	27.7463
803.697	62.4014
806.589	33.7695
809.482	30.6943
812.375	44.7502
815.267	14.6733
818.16	9.18237
821.053	46.3313
823.946	11.4761
826.838	15.2993
829.731	0.350098
832.624	40.0029
835.516	15.4722
838.409	7.4458
841.302	8.59937
844.194	25.093
847.087	8.46167
849.98	29.9468
852.872	8.38379
855.765	4.72949
858.658	24.4182
861.551	35.0671
864.443	63.4558
867.336	16.4081
870.229	49.9022
873.121	49.2632
876.014	34.4978
878.907	24.6364
881.799	15.3945
884.692	40.2687
887.585	69.3403
890.478	50.6206
893.37	17.6298
896.263	16.7618
899.156	39.3911
902.048	30.9348
904.941	2.58423
907.834	26.6414
910.726	4.46484
913.619	55.896
916.512	19.6892
919.405	24.5212
922.297	41.501
925.19	24.5903
928.083	16.5681
930.975	17.6343
933.868	8.95435
936.761	9.9419
939.654	44.0947
942.546	41.4304
945.439	2.22046
948.332	38.4075
951.224	43.1306
954.117	53.8262
957.01	24.9331
959.902	41.157
962.795	6.38623
965.688	8.52563
968.581	15.8328
971.473	13.8933
974.366	4.07764
977.259	30.2517
980.151	82.7866
983.044	36.1497
985.937	40.3181
988.829	71.2634
991.722	63.1611
994.615	90.7288
997.508	65.6379
1000.4	73.1362
1003.29	118.148
1006.19	69.0293
1009.08	103.905
1011.97	133.118
1014.86	60.6082
1017.76	94.7004
1020.65	49.6545
1023.54	84.4329
1026.43	71.6868
1029.33	60.1814
1032.22	60.6245
1035.11	37.5435
1038.01	19.3164
1040.9	43.4168
1043.79	19.2007
1046.68	3.63623
1049.58	1.25952
1052.47	16.4082
1055.36	2.88232
1058.25	42.3914
1061.15	30.114
1064.04	47.4241
1066.93	53.908
1069.83	102.699
1072.72	72.9639
1075.61	118.701
1078.5	142.723
1081.4	169.159
1084.29	155.881
1087.18	210.168
1090.07	164.084
1092.97	174.579
1095.86	188.267
1098.75	140.31
1101.64	169.666
1104.54	174.363
1107.43	59.4558
1110.32	151.561
1113.21	101.627
1116.11	112.591
1119	113.736
1121.89	60.8779
1124.79	100.124
1127.68	24.8699
1130.57	57.8616
1133.46	72.7185
1136.36	38.4197
1139.25	49.9033
1142.14	27.3994
1145.04	35.0102
1147.93	2.51953
1150.82	71.3472
1153.71	81.4512
1156.61	73.7642
1159.5	45.4268
1162.39	51.3027
1165.28	29.8179
1168.18	20.8735
1171.07	65.0806
1173.96	76.9551
1176.86	11.4302
1179.75	27.6675
1182.64	46.373
1185.53	28.8594
1188.43	68.0596
1191.32	56.165
1194.21	36.4717
1197.1	61.6597
1200	47.5903
1202.89	3.67432
1205.78	55.3838
1208.67	59.1265
1211.57	0
