Measurement: Raman, 785 nm, unoriented, Raman Data Processed
Mineral: Levyne-Ca
Rruff sample: R080128
Ideal chemistry: Ca_3_(Si_12_Al_6_)O_36_18H_2_O
Locality: Dallas, Oregon, USA
Source: Michael Scott
Description: Thin clear colorless tabular hexagonal crystals coated by chatoyant erionite or offretite on volcanic matrix
Raman shift (cm-1)	intensity
147.536	0
150.429	217.421
153.321	216.379
156.214	43.6619
159.107	5.78735
161.999	55.9082
164.892	105.54
167.785	150.865
170.677	186.634
173.57	130.477
176.463	126.182
179.356	89.843
182.248	97.9534
185.141	78.0369
188.034	60.8975
190.926	6.90771
193.819	35.124
196.712	18.4736
199.604	8.80127
202.497	7.11865
205.39	33.1826
208.282	13.0991
211.175	14.7716
214.068	53.822
216.961	77.4138
219.853	70.2207
222.746	158.849
225.639	175.847
228.531	158.189
231.424	182.583
234.317	161.143
237.209	171.421
240.102	175.691
242.995	172.679
245.888	158.235
248.78	108.068
251.673	112.971
254.566	112.386
257.458	88.2312
260.351	91.4843
263.244	50.5971
266.137	19.3409
269.029	21.8547
271.922	13.6065
274.815	29.5664
277.707	11.5267
280.6	8.18884
283.493	34.2717
286.385	1.72217
289.278	28.6825
292.171	45.23
295.063	17.3386
297.956	35.4745
300.849	49.5988
303.742	71.6119
306.634	56.0093
309.527	82.9587
312.42	103.141
315.312	123.175
318.205	157.33
321.098	151.593
323.99	214.675
326.883	233.293
329.776	283.767
332.669	301.257
335.561	286.051
338.454	305.851
341.347	252.397
344.239	260.329
347.132	228.884
350.025	185.137
352.918	191.546
355.81	165.914
358.703	116.206
361.596	107.606
364.488	62.1348
367.381	59.5175
370.274	26.023
373.166	80.6971
376.059	46.439
378.952	22.938
381.844	53.062
384.737	38.9
387.63	43.556
390.523	32.1155
393.415	19.1489
396.308	8.60767
399.201	0.057007
402.093	25.698
404.986	15.2618
407.879	19.262
410.772	6.08814
413.664	5.98303
416.557	54.1542
419.45	77.5023
422.342	68.2522
425.235	113.529
428.128	156.374
431.02	262.475
433.913	291.505
436.806	426.181
439.699	585.686
442.591	783.422
445.484	1011.08
448.377	1329.63
451.269	1541.41
454.162	1834.21
457.055	1984.79
459.947	2062.26
462.84	2091.76
465.733	2107.15
468.625	2093.55
471.518	2160.38
474.411	2265.27
477.304	2391.92
480.196	2540.26
483.089	2552.33
485.982	2505.33
488.874	2199.14
491.767	1795.69
494.66	1387.9
497.553	959.489
500.445	743.311
503.338	504.206
506.231	334.37
509.123	204.811
512.016	152.63
514.909	90.74
517.802	26.01
520.694	1.82666
523.587	27.0422
526.48	25.1536
529.372	36.0532
532.265	39.4585
535.158	72.0237
538.05	114.113
540.943	189.408
543.836	276.811
546.729	348.746
549.621	435.5
552.514	528.572
555.407	607.604
558.299	606.001
561.192	533.653
564.085	448.826
566.977	319.617
569.87	225.755
572.763	160.852
575.655	77.3667
578.548	71.7073
581.441	22.8911
584.333	6.57593
587.226	3.26843
590.119	10.8964
593.012	11.8616
595.904	7.64478
598.797	3.3269
601.69	7.46387
604.582	6.59131
607.475	3.91687
610.368	15.7747
613.26	17.056
616.153	22.0209
619.046	4.40436
621.939	38.7238
624.831	47.3687
627.724	62.9516
630.617	61.852
633.509	57.537
636.402	55.0207
639.295	100.878
642.188	73.0641
645.08	92.4896
647.973	104.157
650.866	74.7719
653.758	63.0149
656.651	78.0706
659.544	82.5644
662.436	81.9564
665.329	38.1365
668.222	35.5693
671.115	36.0633
674.007	40.7809
676.9	3.51489
679.793	39.0554
682.685	40.384
685.578	17.6993
688.471	16.7417
691.363	34.2013
694.256	10.4758
697.149	4.33331
700.042	5.16443
702.934	9.10272
705.827	13.2158
708.72	23.7081
711.612	5.60327
714.505	26.7963
717.398	34.338
720.29	22.1348
723.183	25.3478
726.076	29.0316
728.968	37.2364
731.861	3.1955
734.754	24.222
737.647	20.9105
740.539	29.9657
743.432	46.0017
746.325	21.5636
749.217	43.7675
752.11	35.815
755.003	30.5743
757.895	43.3328
760.788	45.2364
763.681	58.7069
766.574	68.8436
769.466	74.874
772.359	98.6304
775.252	82.0649
778.144	78.7709
781.037	93.2161
783.93	119.138
786.822	66.6575
789.715	88.716
792.608	65.2312
795.501	94.4845
798.393	112.913
801.286	125.234
804.179	152.501
807.071	123.04
809.964	110.319
812.857	100.715
815.75	51.2516
818.642	55.0211
821.535	20.1055
824.428	4.19965
827.32	29.9094
830.213	40.4727
833.106	5.32611
835.998	33.4377
838.891	26.4125
841.784	2.42828
844.677	29.0753
847.569	16.3411
850.462	27.0738
853.355	2.71967
856.247	3.41516
859.14	1.60498
862.033	7.33923
864.925	33.5388
867.818	29.2006
870.711	27.3145
873.604	49.4581
876.496	44.5609
879.389	41.2741
882.282	44.043
885.174	48.2888
888.067	47.1088
890.96	42.2175
893.852	53.1654
896.745	32.2614
899.638	14.975
902.53	45.8795
905.423	22.2139
908.316	61.184
911.209	30.6639
914.101	28.7131
916.994	60.1108
919.887	41.4961
922.779	26.6835
925.672	42.3625
928.565	10.7206
931.457	4.28522
934.35	22.7969
937.243	3.86694
940.136	13.2302
943.028	34.9764
945.921	27.3597
948.814	6.33057
951.706	38.3256
954.599	42.6119
957.492	20.2311
960.385	8.97552
963.277	45.4365
966.17	6.31811
969.063	8.43549
971.955	11.5455
974.848	32.3321
977.741	3.12805
980.633	18.8431
983.526	42.035
986.419	31.1312
989.312	15.2822
992.204	47.2818
995.097	32.8696
997.99	34.3227
1000.88	51.5342
1003.77	43.4686
1006.67	18.8843
1009.56	37.74
1012.45	24.1819
1015.35	10.3496
1018.24	46.9496
1021.13	16.7077
1024.02	51.5867
1026.92	37.5013
1029.81	44.2642
1032.7	30.8076
1035.6	32.0562
1038.49	25.1441
1041.38	27.5294
1044.27	5.22119
1047.17	4.94757
1050.06	15.6131
1052.95	21.2198
1055.84	21.9288
1058.74	2.70715
1061.63	24.9258
1064.52	57.556
1067.41	52.6637
1070.31	93.5751
1073.2	84.0375
1076.09	97.4434
1078.98	142.634
1081.88	104.607
1084.77	139.314
1087.66	159.444
1090.56	135.382
1093.45	128.769
1096.34	157.511
1099.23	113.791
1102.13	126.604
1105.02	158.83
1107.91	148.161
1110.81	140.711
1113.7	130.945
1116.59	104.708
1119.48	84.2449
1122.38	101.943
1125.27	113.539
1128.16	110.36
1131.05	101.743
1133.95	123.203
1136.84	98.9624
1139.73	85.2877
1142.62	91.7123
1145.52	78.5222
1148.41	70.1616
1151.3	82.9332
1154.19	57.5977
1157.09	42.13
1159.98	39.5644
1162.87	46.4048
1165.77	43.0656
1168.66	22.358
1171.55	56.4579
1174.44	30.7648
1177.34	3.78955
1180.23	25.532
1183.12	20.5909
1186.02	4.9082
1188.91	1.39331
1191.8	8.1366
1194.69	5.14734
1197.59	20.604
1200.48	26.6096
1203.37	35.6032
1206.26	3.93933
1209.16	59.1296
1212.05	43.0402
1214.94	37.7172
1217.84	6.93121
1220.73	50.0544
1223.62	37.0605
1226.51	4.46454
1229.41	41.2596
1232.3	13.7884
1235.19	39.6574
1238.08	54.3771
1240.98	26.3829
