Measurement: Raman, 532 nm, unoriented, Raman Data Processed
Mineral: Libethenite
Rruff sample: R050147
Ideal chemistry: Cu_2_PO_4_(OH)
Locality: Los Azules mine, Copiapo, Chile
Source: Jim McGlasson
Description: Dark green prismatic crystals, associated with smaller lighter green pseudomalachite
Measured chemistry: Cu_2.00_(P_1.00_O_4_)((OH)_0.89_F_0.11_)_Î£=1_
Raman shift (cm-1)	intensity
144.85	0
148.225	92.849
151.6	165.101
154.975	218.714
158.35	214.324
161.725	193.171
165.099	123.78
168.474	54.3635
171.849	12.9298
175.224	0.192871
178.599	69.9638
181.973	190.833
185.348	330.841
188.723	452.722
192.098	527.29
195.473	538.106
198.847	414.863
202.222	297.864
205.597	228.728
208.972	198.631
212.347	213.482
215.722	262.408
219.096	356.64
222.471	487.952
225.846	560.13
229.221	425.697
232.596	224.311
235.97	106.545
239.345	51.6461
242.72	31.6395
246.095	33.3248
249.47	35.7751
252.845	6.37439
256.219	11.3825
259.594	9.24933
262.969	18.9027
266.344	49.5159
269.719	78.7578
273.094	104.361
276.468	165.576
279.843	241.404
283.218	319.132
286.593	421.794
289.967	589.466
293.342	824.676
296.717	1101.69
300.092	1167.02
303.467	901.073
306.842	619.585
310.216	437.126
313.591	285.865
316.966	168.373
320.341	99.5299
323.716	57.8463
327.091	30.0615
330.465	14.5491
333.84	4.69153
337.215	0.651978
340.59	2.69247
343.965	0.954193
347.339	1.88593
350.714	10.7562
354.089	20.9933
357.464	35.7122
360.839	49.1601
364.214	74.1568
367.588	94.2337
370.963	119.549
374.338	134.228
377.713	147.866
381.088	169.757
384.462	203.236
387.837	227.851
391.212	187.201
394.587	106.809
397.962	53.6305
401.337	26.7364
404.711	10.8293
408.086	5.95731
411.461	0.955292
414.836	1.9003
418.211	2.98817
421.585	1.68053
424.96	2.7692
428.335	9.35561
431.71	21.5198
435.085	30.5747
438.459	44.788
441.834	58.5657
445.209	79.6141
448.584	92.7496
451.959	103.827
455.334	100.265
458.708	91.7122
462.083	76.5038
465.458	56.5865
468.833	43.2189
472.208	35.9242
475.582	29.468
478.957	21.4677
482.332	12.6579
485.707	9.93356
489.082	7.01735
492.457	4.73756
495.831	3.15181
499.206	1.91724
502.581	0.161209
505.956	2.10214
509.331	1.38003
512.705	0.805222
516.08	2.8085
519.455	3.31157
522.83	0.01239
526.205	0.885162
529.58	0.92218
532.954	5.55403
536.329	14.0223
539.704	29.8266
543.079	58.7651
546.454	92.6332
549.828	149.596
553.203	229.695
556.578	286.715
559.953	217.185
563.328	132.867
566.702	103.056
570.077	105.371
573.452	121.318
576.827	151.23
580.202	179.327
583.577	196.564
586.951	182.149
590.326	162.957
593.701	137.242
597.076	100.8
600.451	68.558
603.825	45.374
607.2	39.2297
610.575	43.5954
613.95	61.2413
617.325	86.0097
620.699	123.8
624.074	167.939
627.449	183.35
630.824	138.936
634.199	87.7497
637.574	65.1653
640.948	64.4444
644.323	69.9082
647.698	62.84
651.073	41.6187
654.448	24.0256
657.822	13.8269
661.197	7.21263
664.572	2.33772
667.947	0.40139
671.322	0.970695
674.697	0.722954
678.071	2.26247
681.446	0.365158
684.821	2.50877
688.196	0.856873
691.571	1.35468
694.946	0.920731
698.32	0.480385
701.695	0.474937
705.07	1.09951
708.445	0.942574
711.819	0.530518
715.194	2.65331
718.569	2.43788
721.944	4.40882
725.319	5.24287
728.694	8.19281
732.068	11.826
735.443	13.267
738.818	15.8762
742.193	18.9995
745.568	19.1557
748.942	20.2869
752.317	23.2395
755.692	27.5742
759.067	32.1607
762.442	35.5498
765.817	37.9353
769.191	32.4596
772.566	23.8226
775.941	16.7501
779.316	10.4852
782.691	10.2735
786.066	9.61909
789.44	10.9406
792.815	15.7905
796.19	18.3762
799.565	24.3207
802.94	32.5306
806.314	44.4627
809.689	58.1332
813.064	69.2685
816.439	70.3893
819.814	63.6418
823.188	48.2698
826.563	34.4944
829.938	24.6552
833.313	18.2826
836.688	14.0183
840.063	8.66812
843.437	8.90301
846.812	9.39097
850.187	10.5921
853.562	12.7052
856.937	14.0604
860.312	11.0571
863.686	6.2281
867.061	5.26865
870.436	1.13369
873.811	1.67004
877.186	0.459862
880.56	0.53582
883.935	1.88643
887.31	5.27827
890.685	6.50103
894.06	7.3655
897.434	5.48819
900.809	6.37158
904.184	7.52255
907.559	5.76117
910.934	6.00591
914.308	4.82324
917.683	2.34192
921.058	2.16971
924.433	1.13559
927.808	1.59288
931.183	1.71152
934.557	4.01938
937.932	6.90418
941.307	12.7755
944.682	8.60814
948.057	4.65941
951.432	33.8751
954.806	90.0054
958.181	191.54
961.556	370.237
964.931	656.688
968.306	1030.65
971.68	1530.99
975.055	1907.05
978.43	1593.87
981.805	954.151
985.18	568.494
988.554	386.822
991.929	319.652
995.304	336.297
998.679	419.39
1002.05	570.351
1005.43	798.54
1008.8	1044.63
1012.18	1192.27
1015.55	1359.48
1018.93	1539.44
1022.3	1359.26
1025.68	861.94
1029.05	489.248
1032.43	303.129
1035.8	215.09
1039.18	183.889
1042.55	187.728
1045.93	218.569
1049.3	255.002
1052.68	247.041
1056.05	198.289
1059.43	153.557
1062.8	140.026
1066.17	151.21
1069.55	157.371
1072.92	113.351
1076.3	48.6089
1079.67	10.7758
1083.05	6.17165
1086.42	11.2934
1089.8	11.3133
1093.17	9.88268
1096.55	1.78909
1099.92	6.71852
1103.3	13.5886
1106.67	21.6883
1110.05	26.6542
1113.42	39.3215
1116.8	47.6962
1120.17	60.3192
1123.55	66.5789
1126.92	64.2797
1130.3	52.3877
1133.67	44.9049
1137.05	38.8729
1140.42	34.4408
1143.8	28.6231
1147.17	17.3963
1150.55	7.82581
1153.92	0.298149
1157.3	0.106712
1160.67	0.140434
1164.05	2.37936
1167.42	2.07457
1170.8	5.86465
1174.17	8.91405
1177.54	9.81384
1180.92	12.8478
1184.29	11.4248
1187.67	13.4073
1191.04	12.614
1194.42	12.7615
1197.79	12.0731
1201.17	14.088
1204.54	12.5738
1207.92	14.4625
1211.29	15.3458
1214.67	13.1548
1218.04	9.54758
1221.42	9.93225
1224.79	6.92139
1228.17	5.02689
1231.54	3.01308
1234.92	1.54921
1238.29	0.619255
1241.67	0.409527
1245.04	1.37185
1248.41	0.164139
1251.79	2.01834
1255.16	4.60982
1258.54	5.86069
1261.91	7.65411
1265.29	7.5303
1268.66	7.71596
1272.04	7.82071
1275.41	3.75834
1278.79	2.69021
1282.16	2.05413
1285.54	1.30802
1288.91	3.13586
1292.29	2.68897
1295.66	1.81833
1299.04	0.017632
1302.41	1.51712
