Measurement: Raman, 532 nm, unoriented, Raman Data Processed
Mineral: Libethenite
Rruff sample: R050613
Ideal chemistry: Cu_2_PO_4_(OH)
Locality: Libethen, Banskobystricky, Slovakia
Source: University of Arizona Mineral Museum
Description: Dark green wedge-shaped prismatic crystals
Measured chemistry: (Cu_0.98_Zn_0.02_)_2_(P_1.00_O_4_)((OH)_0.94_F_0.06_)
Raman shift (cm-1)	intensity
150.416	0
153.308	59.7169
156.201	111.089
159.094	108.964
161.987	137.774
164.879	120.69
167.772	62.6775
170.665	7.45868
173.557	13.1476
176.45	14.9413
179.343	83.9723
182.235	171.993
185.128	277.494
188.021	378.732
190.913	454.502
193.806	506.866
196.699	494.986
199.592	411.679
202.484	322.148
205.377	265.644
208.27	225.679
211.162	218.499
214.055	231.531
216.948	267.84
219.84	339.019
222.733	428.133
225.626	459.662
228.519	372.44
231.411	231.357
234.304	127.374
237.197	71.2842
240.089	40.2825
242.982	32.0642
245.875	32.7943
248.768	31.2383
251.66	16.429
254.553	1.71942
257.446	9.07187
260.338	2.88345
263.231	12.2324
266.124	31.4939
269.017	46.1937
271.909	49.7583
274.802	58.6139
277.695	79.6672
280.587	101.796
283.48	124.067
286.373	167.072
289.265	225.572
292.158	310.386
295.051	425.79
297.943	537.032
300.836	536.145
303.729	409.712
306.622	298.036
309.514	227.183
312.407	163.993
315.3	110.046
318.192	68.1213
321.085	43.2433
323.978	25.4362
326.871	14.1948
329.763	7.02759
332.656	3.68249
335.549	3.02557
338.441	0.115479
341.334	1.67731
344.227	2.42316
347.12	0.679565
350.012	3.81067
352.905	6.48987
355.798	16.7924
358.69	27.4107
361.583	38.4096
364.476	51.46
367.368	62.5238
370.261	75.4196
373.154	82.2461
376.047	91.4123
378.939	104.587
381.832	130.009
384.725	164.518
387.617	188.542
390.51	169.71
393.403	109.753
396.296	58.6191
399.188	31.83
402.081	19.0481
404.974	9.08227
407.866	6.36237
410.759	1.56265
413.652	1.70544
416.544	1.88928
419.437	0.436157
422.33	0.521179
425.223	2.10556
428.115	4.75971
431.008	9.05478
433.901	14.6035
436.793	23.8834
439.686	28.3106
442.579	44.329
445.471	52.9811
448.364	61.6453
451.257	66.0533
454.15	62.5606
457.042	59.5337
459.935	50.0905
462.828	35.4586
465.72	28.3326
468.613	23.467
471.506	18.7197
474.399	16.0008
477.291	12.6982
480.184	7.16763
483.077	3.28543
485.969	1.75665
488.862	1.75311
491.755	0.134766
494.647	1.17477
497.54	0.567078
500.433	0.295105
503.325	2.00842
506.218	2.46039
509.111	1.88489
512.004	2.19031
514.896	1.22613
517.789	0.876068
520.682	0.888794
523.574	3.02866
526.467	2.33963
529.36	5.59375
532.253	6.03299
535.145	12.2103
538.038	19.3206
540.931	36.8813
543.823	56.9941
546.716	89.3538
549.609	137.028
552.501	202.299
555.394	264.397
558.287	249.55
561.18	147.131
564.072	87.0519
566.965	65.7115
569.858	61.1038
572.75	67.4634
575.643	79.6198
578.536	95.7608
581.428	113.972
584.321	123.33
587.214	122.923
590.107	118.863
592.999	110.821
595.892	89.7179
598.785	61.4562
601.677	41.5199
604.57	31.2864
607.463	27.3077
610.356	29.246
613.248	41.0486
616.141	59.5707
619.034	81.6023
621.926	112.054
624.819	144.039
627.712	142.809
630.605	98.2511
633.497	53.1888
636.39	35.986
639.283	32.0375
642.175	31.2162
645.068	29.6741
647.961	26.1871
650.853	15.2591
653.746	6.03323
656.639	1.60522
659.532	0.916077
662.424	2.00311
665.317	0.289337
668.21	0.648163
671.102	0.894043
673.995	0.526672
676.888	0.778839
679.78	0.093689
682.673	0.480591
685.566	0.054688
688.459	0.4646
691.351	0.163452
694.244	0.470398
697.137	1.00647
700.029	1.49704
702.922	1.46594
705.815	1.84668
708.707	1.53876
711.6	2.19629
714.493	0.393463
717.386	1.1835
720.278	0.854065
723.171	0.534729
726.064	1.97867
728.956	4.41077
731.849	2.45676
734.742	3.10925
737.635	2.78748
740.527	3.05994
743.42	3.97443
746.313	5.94367
749.205	5.83908
752.098	5.61832
754.991	5.87302
757.884	5.59811
760.776	4.62915
763.669	10.3612
766.562	6.07251
769.454	8.33353
772.347	6.1799
775.24	2.75226
778.132	0.659515
781.025	2.77313
783.918	0.967377
786.811	1.54993
789.703	0.399719
792.596	2.22534
795.489	1.99591
798.381	5.6814
801.274	11.2804
804.167	16.3829
807.059	29.3217
809.952	38.8137
812.845	47.2566
815.737	47.7911
818.63	43.3312
821.523	34.4288
824.416	22.6337
827.308	15.0162
830.201	9.57873
833.094	4.302
835.986	2.73517
838.879	5.70404
841.772	3.56818
844.665	4.15198
847.557	7.22986
850.45	13.7882
853.343	24.7699
856.235	39.9774
859.128	57.321
862.021	76.1951
864.913	67.7459
867.806	39.1498
870.699	19.2513
873.592	12.4351
876.484	6.39465
879.377	4.33978
882.27	6.823
885.162	7.99786
888.055	7.27496
890.948	7.74255
893.841	4.98694
896.733	6.61871
899.626	6.36304
902.519	1.92535
905.411	5.58502
908.304	5.27979
911.197	7.17487
914.09	4.34503
916.982	6.32764
919.875	5.64404
922.768	3.08344
925.66	0.618042
928.553	0.191162
931.446	3.39404
934.338	5.6225
937.231	8.17206
940.124	5.61975
943.016	6.39642
945.909	0.581604
948.802	9.92291
951.695	27.8959
954.587	57.5312
957.48	103.92
960.373	180.492
963.265	317.368
966.158	522.819
969.051	811.287
971.943	1166.77
974.836	1434.86
977.729	1237.7
980.622	795.734
983.514	490.834
986.407	341.313
989.3	277.999
992.192	265.488
995.085	296.314
997.978	375.418
1000.87	522.846
1003.76	720.203
1006.66	968.951
1009.55	1166.27
1012.44	1286.66
1015.33	1466.35
1018.23	1698.66
1021.12	1629.68
1024.01	1136.85
1026.9	671.449
1029.8	399.424
1032.69	260.3
1035.58	188.681
1038.48	155.397
1041.37	152.919
1044.26	172.382
1047.15	207.502
1050.05	226.431
1052.94	199.351
1055.83	150.535
1058.72	109.678
1061.62	93.6137
1064.51	102.82
1067.4	110.561
1070.3	99.2243
1073.19	52.8467
1076.08	23.0201
1078.97	3.82385
1081.87	3.3595
1084.76	6.51221
1087.65	9.24737
1090.54	9.64764
1093.44	7.29315
1096.33	1.21649
1099.22	4.68378
1102.12	9.2544
1105.01	9.51508
1107.9	13.4858
1110.79	16.9458
1113.69	21.7109
1116.58	28.9733
1119.47	36.8513
1122.36	39.0389
1125.26	35.5767
1128.15	30.8359
1131.04	28.14
1133.93	22.9618
1136.83	20.3463
1139.72	20.8022
1142.61	14.0112
1145.51	8.6792
1148.4	4.46967
1151.29	0.189819
1154.18	1.43988
1157.08	0.719604
1159.97	1.24304
1162.86	1.82239
1165.76	0.923096
1168.65	4.94727
1171.54	8.95789
1174.43	8.86011
1177.33	10.2005
1180.22	9.15613
1183.11	10.0671
1186	9.84985
1188.9	7.98352
1191.79	10.4481
1194.68	10.6136
1197.57	9.18982
1200.47	10.6935
1203.36	9.88043
1206.25	11.5222
1209.14	11.0157
1212.04	9.79724
1214.93	12.832
1217.82	7.73828
1220.72	8.48071
1223.61	7.29376
1226.5	6.35095
1229.39	3.67835
1232.29	4.24933
1235.18	0.596863
1238.07	0.206482
1240.96	0.843018
1243.86	0.43988
1246.75	0.418945
1249.64	1.80542
1252.54	4.06903
1255.43	2.70007
1258.32	8.63879
1261.21	4.39136
1264.11	8.31421
1267	18.1975
1269.89	9.49786
1272.79	6.96381
1275.68	7.39734
1278.57	5.72131
1281.46	2.37195
1284.36	1.83081
1287.25	0.138489
1290.14	3.22205
1293.03	2.95978
1295.93	3.30353
1298.82	3.43365
1301.71	0.028015
