Measurement: Raman, 514 nm, unoriented, Raman Data Processed
Mineral: Libethenite
Rruff sample: R050147
Ideal chemistry: Cu_2_PO_4_(OH)
Locality: Los Azules mine, Copiapo, Chile
Source: Jim McGlasson
Description: Dark green prismatic crystals, associated with smaller lighter green pseudomalachite
Measured chemistry: Cu_2.00_(P_1.00_O_4_)((OH)_0.89_F_0.11_)_Î£=1_
Raman shift (cm-1)	intensity
61.355	0
64.154	3.155
66.952	98.722
69.75	270.232
72.546	587.813
75.342	764.588
78.136	517.829
80.93	107.856
83.723	109.331
86.515	34.437
89.306	181.802
92.096	466.781
94.885	578.834
97.673	647.964
100.461	1280.21
103.247	1098.21
106.032	1433.37
108.817	1479.64
111.601	863.312
114.384	1283.12
117.166	1123.07
119.947	1122.4
122.727	1388.22
125.506	1692.1
128.284	1876.25
131.062	1894.16
133.838	1549.4
136.614	1331.82
139.388	771.127
142.162	167.965
144.935	116.846
147.707	94.049
150.478	56.119
153.248	225.207
156.018	344.332
158.786	543.65
161.554	673.367
164.32	785.922
167.086	1075.69
169.851	1262.59
172.615	1448.36
175.378	2106.33
178.14	2864.15
180.901	4631.39
183.662	6534.17
186.421	8957.74
189.18	10289.6
191.937	9926.28
194.694	7589
197.45	4086.34
200.205	1497.65
202.959	381.686
205.712	383.807
208.465	30.287
211.216	1391.12
213.967	4065.62
216.716	7595.95
219.465	10928.9
222.213	11995.1
224.96	10606.8
227.706	7672.69
230.451	4927.55
233.195	3059.01
235.939	2167.52
238.682	1788.19
241.423	1836.38
244.164	2039.96
246.904	1725.67
249.643	914.882
252.381	88.576
255.118	354.672
257.855	477.208
260.59	310.403
263.325	62.686
266.059	382.931
268.791	1305.68
271.523	2480.36
274.255	3922.61
276.985	5274.85
279.714	7086.45
282.443	10402.8
285.17	16526.5
287.897	25463.5
290.623	36606.7
293.348	45180.7
296.072	46620.9
298.795	40675.6
301.517	32159.5
304.239	23971.1
306.959	17522.4
309.679	12214.5
312.398	8072.03
315.116	5215.09
317.833	3135.95
320.549	1476.39
323.264	825.059
325.979	135.492
328.692	55.407
331.405	150.709
334.117	259.224
336.828	200.525
339.538	145.292
342.247	72.686
344.956	14.019
347.663	123.237
350.37	243.864
353.076	392.461
355.78	396.435
358.484	449.431
361.188	535.698
363.89	521.188
366.591	652.532
369.292	810.744
371.992	1118.27
374.691	1426.7
377.388	1822.61
380.086	2336.63
382.782	2589.44
385.477	2452.46
388.172	1745.66
390.865	1167.68
393.558	664.138
396.25	345.258
398.941	301.607
401.631	184.749
404.321	20.848
407.009	7.066
409.697	25.178
412.384	4.026
415.07	18.1
417.755	39.445
420.439	61.331
423.122	37.791
425.805	53.123
428.486	104.684
431.167	105.403
433.847	110.258
436.526	164.155
439.204	253.631
441.882	354.641
444.558	331.526
447.234	407.658
449.909	572.119
452.583	521.583
455.256	670.395
457.928	605.017
460.6	408.048
463.27	405.45
465.94	285.646
468.609	278.822
471.277	174.82
473.944	139.392
476.61	45.701
479.275	36.985
481.94	8.618
484.604	38.598
487.267	68.107
489.929	20.403
492.59	97.424
495.25	75.354
497.91	42.779
500.569	90.465
503.226	68.925
505.883	97.915
508.54	116.253
511.195	40.405
513.849	42.697
516.503	85.21
519.156	103.321
521.808	50.449
524.459	18.314
527.109	1.667
529.758	52.484
532.407	34.375
535.055	5.752
537.701	27.121
540.348	24.211
542.993	186.618
545.637	428.708
548.281	810.875
550.923	1287.9
553.565	1795.38
556.206	1677.5
558.846	1147.44
561.486	966.246
564.124	827.245
566.762	1060.63
569.399	1401.86
572.035	2076.97
574.67	2821.19
577.304	3190.11
579.938	3464.62
582.57	3292.22
585.202	3001.89
587.833	2663.13
590.463	2175.82
593.093	1488.89
595.721	1001.17
598.349	527
600.976	200.767
603.602	33.077
606.227	123.667
608.851	144.135
611.475	78.599
614.097	274.876
616.719	740.057
619.34	1337.85
621.961	2100.24
624.58	2418.74
627.199	2282.05
629.816	1819.97
632.433	1332.14
635.049	1115.04
637.664	1150.33
640.279	1385.67
642.893	1445.07
645.505	1102.57
648.117	824.436
650.728	552.531
653.339	373.612
655.948	222.87
658.557	75.949
661.165	3.675
663.772	47.622
666.378	61.114
668.983	97.401
671.588	25.996
674.192	52.116
676.795	5.554
679.397	66.845
681.998	41.48
684.598	54.075
687.198	69.846
689.797	24.281
692.395	107.977
694.992	78.745
697.589	22.799
700.184	5.51
702.779	61.196
705.373	65.801
707.966	20.839
710.558	3.356
713.15	27.73
715.74	27.429
718.33	26.24
720.919	36.222
723.508	30.766
726.095	53.711
728.682	64.105
731.267	117.926
733.852	82.214
736.437	71.555
739.02	121.055
741.603	149.961
744.184	232.023
746.765	312.857
749.345	267.477
751.925	300.929
754.503	450.474
757.081	515.769
759.658	556.092
762.234	510.34
764.809	476.447
767.384	311.499
769.958	208.318
772.53	137.854
775.102	100.644
777.674	75.977
780.244	57.178
782.814	14.259
785.383	3.185
787.951	29.711
790.518	26.402
793.084	46.21
795.65	64.791
798.215	11.904
800.779	70.064
803.342	106.862
805.905	145.445
808.466	199.933
811.027	175.516
813.587	203.736
816.146	182.977
818.705	224.708
821.263	126.254
823.819	117.323
826.375	79.911
828.931	87.176
831.485	90.267
834.039	108.615
836.592	2.746
839.144	51.516
841.695	12.025
844.246	34.865
846.795	39.837
849.344	58.03
851.892	118.05
854.44	210.985
856.986	126.564
859.532	125.751
862.077	64.456
864.621	135.776
867.164	218.577
869.707	96.22
872.248	28.984
874.789	37.754
877.33	12.772
879.869	78.314
882.408	73.091
884.945	74.056
887.482	112.64
890.019	138.676
892.554	158.689
895.089	117.498
897.623	145.076
900.156	198.542
902.688	199.767
905.22	103.259
907.75	197.692
910.28	287.084
912.809	154.33
915.338	94.671
917.865	95.573
920.392	38.534
922.918	102.976
925.443	63.956
927.968	74.093
930.491	30.774
933.014	127.048
935.536	154.512
938.058	116.222
940.578	154.5
943.098	92.474
945.617	61.113
948.135	227.064
950.653	806.235
953.169	1844.6
955.685	3507.43
958.2	5756.52
960.715	8857.78
963.228	13873.5
965.741	21956.2
968.253	32516.1
970.764	41327.3
973.274	41830.2
975.784	34700.9
978.293	23919
980.801	15141.6
983.308	8839.76
985.815	4913.01
988.321	2687.74
990.826	1003.16
993.33	238.271
995.833	298.343
998.336	61.604
1000.84	401.481
1003.34	860.396
1005.84	1442.84
1008.34	2216.28
1010.84	3109.16
1013.34	4261.6
1015.83	4853.72
1018.33	4786.6
1020.83	3842.91
1023.32	2809.11
1025.81	1378.05
1028.31	1066.22
1030.8	276.667
1033.29	163.4
1035.78	74.152
1038.27	196.357
1040.76	22.079
1043.25	239.029
1045.74	567.78
1048.23	683.561
1050.71	987.52
1053.2	1007.48
1055.68	966.04
1058.17	991.956
1060.65	1310.43
1063.13	1882.65
1065.62	2263.35
1068.1	2129.16
1070.58	1709.66
1073.06	1207.78
1075.54	665.167
1078.02	240.359
1080.49	121.409
1082.97	23.429
1085.44	0.356
1087.92	103.464
1090.39	72.786
1092.87	185.849
