Measurement: Raman, 532 nm, unoriented, Raman Data Processed
Mineral: Liebenbergite
Rruff sample: R120062
Ideal chemistry: Ni_2_SiO_4_
Locality: Synthetic, by flux method
Source: Ken Domanik
Description: Bright green fragments
Measured chemistry: Ni_2.009_Si_0.995_O_4_
Raman shift (cm-1)	intensity
163.292	0
166.185	0.329617
169.077	2.92306
171.97	3.65696
174.863	8.38414
177.755	16.207
180.648	29.5991
183.541	39.5632
186.433	34.8218
189.326	37.2246
192.219	58.9049
195.112	114.798
198.004	100.507
200.897	21.924
203.79	13.2843
206.682	11.8588
209.575	9.87541
212.468	8.98025
215.36	7.54855
218.253	7.19636
221.146	7.67083
224.038	4.30973
226.931	3.58279
229.824	3.25169
232.717	1.8438
235.609	1.144
238.502	2.47131
241.395	3.98255
244.287	4.832
247.18	6.59338
250.073	9.14938
252.965	17.5007
255.858	32.9167
258.751	54.7555
261.644	80.7895
264.536	123.929
267.429	214.089
270.322	380.731
273.214	504.301
276.107	287.492
279	153.139
281.892	70.5472
284.785	58.634
287.678	70.3693
290.571	90.7404
293.463	138.329
296.356	237.163
299.249	384.924
302.141	313.859
305.034	96.7547
307.927	36.292
310.82	15.1797
313.712	6.49219
316.605	2.37907
319.498	0.731216
322.39	1.7946
325.283	2.45917
328.176	0.092781
331.068	0.393372
333.961	1.95157
336.854	4.48811
339.747	9.42998
342.639	16.9053
345.532	27.4258
348.425	28.7216
351.317	12.7355
354.21	8.1165
357.103	8.94624
359.995	11.4748
362.888	15.2285
365.781	10.5976
368.673	4.62598
371.566	3.93727
374.459	1.4351
377.352	1.80693
380.244	1.07462
383.137	0.187805
386.03	1.27138
388.922	1.3203
391.815	1.14275
394.708	1.46022
397.601	2.91791
400.493	4.95176
403.386	5.0897
406.279	7.532
409.171	11.1306
412.064	16.8254
414.957	23.3815
417.849	33.3783
420.742	41.3905
423.635	31.8001
426.527	16.9995
429.42	8.79092
432.313	5.35323
435.206	2.39162
438.098	0.632576
440.991	0.138435
443.884	0.273064
446.776	0.682373
449.669	0.581749
452.562	0.791908
455.454	1.50791
458.347	0.397247
461.24	1.25871
464.133	0.449646
467.025	0.853477
469.918	0.202881
472.811	0.121765
475.703	0.008316
478.596	0.18248
481.489	0.509819
484.382	0.88356
487.274	1.50649
490.167	2.32835
493.06	3.83135
495.952	2.58968
498.845	3.11094
501.738	2.46915
504.63	4.64082
507.523	5.91159
510.416	9.67445
513.308	13.7165
516.201	20.2416
519.094	28.2506
521.987	35.165
524.879	31.9089
527.772	16.5187
530.665	8.50727
533.557	3.67973
536.45	2.66559
539.343	2.03387
542.236	3.77298
545.128	4.68634
548.021	6.43381
550.914	10.6022
553.806	14.9191
556.699	20.8304
559.592	24.4589
562.484	30.0331
565.377	34.8986
568.27	41.0222
571.163	33.8166
574.055	17.537
576.948	10.4171
579.841	6.4467
582.733	6.61718
585.626	5.75624
588.519	5.4906
591.411	7.05355
594.304	9.71668
597.197	3.41319
600.09	1.05278
602.982	3.42723
605.875	3.34324
608.768	0.266769
611.66	1.46364
614.553	0.750313
617.446	0.460075
620.338	0.421516
623.231	0.575264
626.124	0.516541
629.016	0.234543
631.909	0.482307
634.802	0.204323
637.695	0.296478
640.587	0.849655
643.48	1.14426
646.373	1.48008
649.265	1.90888
652.158	2.02968
655.051	2.32436
657.943	2.81863
660.836	3.80628
663.729	5.23452
666.622	4.83557
669.514	6.27404
672.407	6.24251
675.3	5.49208
678.192	6.70097
681.085	7.87867
683.978	6.79381
686.87	6.27805
689.763	5.63999
692.656	5.37212
695.549	5.01128
698.441	4.02789
701.334	3.32643
704.227	3.46932
707.119	2.32229
710.012	2.3003
712.905	2.93055
715.798	2.10779
718.69	2.01611
721.583	1.74238
724.476	1.97424
727.368	1.97438
730.261	1.64204
733.154	0.694801
736.046	0.235619
738.939	0.383957
741.832	0.364113
744.725	0.483925
747.617	0.206619
750.51	0.821602
753.403	1.07536
756.295	2.15743
759.188	0.558891
762.081	1.00993
764.973	1.85939
767.866	2.29327
770.759	2.45493
773.652	1.15382
776.544	0.062019
779.437	2.82461
782.33	6.83924
785.222	11.2676
788.115	15.2486
791.008	23.044
793.9	35.3503
796.793	53.3754
799.686	81.3817
802.578	129.623
805.471	207.985
808.364	366.954
811.257	631.915
814.149	1056.7
817.042	1695.85
819.935	2284.09
822.827	1799.24
825.72	1028.66
828.613	750.865
831.505	783.029
834.398	1006.83
837.291	1416.16
840.184	1762.32
843.076	1351.74
845.969	665.775
848.862	320.141
851.754	170.103
854.647	101.413
857.54	66.838
860.433	49.1755
863.325	40.7492
866.218	38.3087
869.111	36.0017
872.003	30.675
874.896	30.551
877.789	47.799
880.681	87.8337
883.574	149.828
886.467	263.245
889.36	413.977
892.252	297.663
895.145	97.7021
898.038	31.7975
900.93	8.2532
903.823	0.994385
906.716	3.76634
909.608	3.62723
912.501	3.17754
915.394	2.48532
918.287	2.49735
921.179	9.08785
924.072	17.2159
926.965	29.5053
929.857	37.2933
932.75	51.0933
935.643	71.6467
938.535	82.5757
941.428	79.0658
944.321	98.1836
947.213	130.332
950.106	174.179
952.999	217.765
955.892	218.632
958.784	149.2
961.677	75.2167
964.57	36.0241
967.462	16.689
970.355	8.31426
973.248	3.17988
976.14	0.746414
979.033	0.009415
981.926	0.629173
984.819	0.614532
987.711	0.299118
990.604	0.211166
993.497	1.28187
996.389	1.10507
999.282	2.30751
1002.17	3.58488
1005.07	3.93059
1007.96	4.85754
1010.85	6.07868
1013.75	6.26919
1016.64	6.97529
1019.53	6.76335
1022.42	8.09928
1025.32	8.05686
1028.21	8.42116
1031.1	8.00085
1033.99	6.87152
1036.89	7.06298
1039.78	6.27359
1042.67	4.5116
1045.57	4.43947
1048.46	3.46515
1051.35	3.56438
1054.24	2.32327
1057.14	2.4844
1060.03	1.55129
1062.92	1.65647
1065.81	1.28508
1068.71	0.0504
1071.6	0.497566
1074.49	0.022614
1077.38	0.805397
1080.28	0.534744
1083.17	0.559593
1086.06	1.13047
1088.96	1.7868
1091.85	1.78357
1094.74	2.16118
1097.63	3.06805
1100.53	2.89723
1103.42	2.8418
1106.31	2.7403
1109.2	3.634
1112.1	2.86573
1114.99	3.8192
1117.88	3.67401
1120.78	3.98765
1123.67	3.64445
1126.56	3.17501
1129.45	3.18552
1132.35	2.40815
1135.24	2.13055
1138.13	0.300171
1141.02	0.432846
1143.92	0.35099
1146.81	0.277687
1149.7	0.478477
1152.6	0.040024
1155.49	0.317833
1158.38	1.46094
1161.27	3.3216
1164.17	4.28611
1167.06	5.57655
1169.95	6.16633
1172.84	7.11287
1175.74	8.61381
1178.63	8.36438
1181.52	9.71158
1184.41	9.91264
1187.31	9.58987
1190.2	8.79276
1193.09	9.03773
1195.99	8.01503
1198.88	7.93095
1201.77	8.1202
1204.66	7.57377
1207.56	6.57754
1210.45	6.8956
1213.34	6.75985
1216.23	4.74215
1219.13	5.02978
1222.02	3.58897
1224.91	3.04854
1227.81	2.21339
1230.7	2.16706
1233.59	0.2859
1236.48	0.553646
1239.38	0.053905
1242.27	0.380722
1245.16	0.20005
1248.05	0.070591
1250.95	0.670341
1253.84	0.312874
1256.73	0.426517
1259.62	1.0401
1262.52	1.1103
1265.41	0.991455
1268.3	0.82378
1271.2	1.76847
1274.09	1.39614
1276.98	1.34265
1279.87	0.669022
1282.77	0.493958
1285.66	0.61216
1288.55	0.355896
1291.44	0.522076
1294.34	0.989761
1297.23	0.67057
1300.12	0.276958
1303.02	0
