Measurement: Raman, 532 nm, unoriented, Raman Data Processed
Mineral: Liebigite
Rruff sample: R050662
Ideal chemistry: Ca_2_(UO_2_)(CO_3_)_3_11H_2_O
Locality: Schwartzwaelder mine, Jefferson County, Colorado, USA
Source: University of Arizona Mineral Museum
Description: Yellowish-green flaky aggregate
Measured chemistry: Ca_2.00_(U_1.00_O_2_)(CO_3_)_3_Â·11H_2_O ; C not measured but estimated by stoichiometry
Raman shift (cm-1)	intensity
140.886	0
144.261	28.6655
147.636	119.353
151.011	216.395
154.385	212.417
157.76	201.643
161.135	185.107
164.51	166.664
167.885	144.552
171.259	130.693
174.634	135.572
178.009	130.881
181.384	111.586
184.759	88.3007
188.133	56.0867
191.508	28.946
194.883	11.3846
198.258	0.445251
201.633	7.22321
205.008	11.1355
208.382	6.70953
211.757	8.11639
215.132	31.5783
218.507	64.0662
221.882	106.274
225.256	150.525
228.631	204.783
232.006	256.168
235.381	297.842
238.756	316.824
242.131	303.868
245.505	282.838
248.88	249.593
252.255	209.665
255.63	155.01
259.005	100.892
262.38	59.4802
265.754	25.4388
269.129	6.65195
272.504	1.0556
275.879	1.16006
279.254	4.5481
282.628	12.3159
286.003	20.5138
289.378	23.6351
292.753	24.775
296.128	23.3949
299.503	23.8749
302.877	29.6171
306.252	32.6382
309.627	37.8738
313.002	41.3327
316.377	41.9186
319.752	45.021
323.126	48.0647
326.501	43.9019
329.876	36.236
333.251	28.7968
336.626	21.1337
340	16.6858
343.375	14.1469
346.75	12.3239
350.125	8.59341
353.5	3.36417
356.875	1.22702
360.249	0.679291
363.624	0.404541
366.999	0.453766
370.374	0.259827
373.749	0.615997
377.123	0.729462
380.498	0.330994
383.873	0.646759
387.248	0.059723
390.623	1.56204
393.998	0.184601
397.372	1.14856
400.747	2.35855
404.122	2.48367
407.497	1.92978
410.872	0.568359
414.247	2.02026
417.621	2.9881
420.996	1.23651
424.371	1.05435
427.746	1.06692
431.121	3.98474
434.495	0.75235
437.87	0.661438
441.245	0.371246
444.62	0.86087
447.995	0.08847
451.37	0.363403
454.744	2.17853
458.119	1.20117
461.494	1.78101
464.869	0.077667
468.244	0.336853
471.618	0.479095
474.993	3.29004
478.368	3.89011
481.743	4.70578
485.118	2.25119
488.493	1.25604
491.867	1.99332
495.242	1.57794
498.617	3.07785
501.992	2.5286
505.367	2.50079
508.741	2.77115
512.116	2.50891
515.491	3.4404
518.866	1.56479
522.241	3.26288
525.616	1.64212
528.99	1.0079
532.365	4.49066
535.74	4.65356
539.115	3.23776
542.49	3.62839
545.865	6.21353
549.239	6.49509
552.614	7.84164
555.989	5.33118
559.364	4.74884
562.739	6.44162
566.114	5.62671
569.488	9.29105
572.863	5.84299
576.238	5.28507
579.613	6.70081
582.987	5.6843
586.362	6.48361
589.737	5.76914
593.112	4.05017
596.487	6.06574
599.862	3.77432
603.236	2.38379
606.611	3.3269
609.986	2.98694
613.361	1.03278
616.736	0.176788
620.111	0.145111
623.485	0.662262
626.86	0.181396
630.235	0.843567
633.61	0.702515
636.985	1.49264
640.36	2.13895
643.734	0.580383
647.109	1.18497
650.484	0.575165
653.859	1.15836
657.234	1.23285
660.609	2.93179
663.983	3.50494
667.358	4.84634
670.733	6.08371
674.108	5.56222
677.482	7.70432
680.857	7.37949
684.232	9.23462
687.607	10.7732
690.982	12.0883
694.357	10.8658
697.731	12.8097
701.106	11.8003
704.481	10.5022
707.856	14.873
711.231	14.6438
714.606	20.5876
717.98	34.3197
721.355	50.4296
724.73	70.5617
728.105	96.9374
731.48	128.204
734.855	171.361
738.229	221.888
741.604	278.462
744.979	343.783
748.354	387.787
751.729	413.87
755.103	451.544
758.478	429.57
761.853	259.086
765.228	88.0227
768.603	21.5552
771.977	0.138031
775.352	3.2247
778.727	4.61343
782.102	2.12662
785.477	13.623
788.852	30.7042
792.226	52.279
795.601	86.214
798.976	149.254
802.351	270.115
805.726	517.654
809.101	1004.79
812.475	1632.53
815.85	2357.93
819.225	3143.85
822.6	3429.3
825.975	2042.06
829.35	860.125
832.724	369.712
836.099	186.061
839.474	110.465
842.849	74.3573
846.224	49.8518
849.598	28.0393
852.973	16.2328
856.348	7.5862
859.723	2.64703
863.098	0.403564
866.472	0.665833
869.847	0.688599
873.222	0.135849
876.597	0.735825
879.972	1.73991
883.347	2.39403
886.721	3.63464
890.096	5.50383
893.471	5.69632
896.846	6.0908
900.221	7.59654
903.596	7.05131
906.97	2.76225
910.345	0.787521
913.72	0.355011
917.095	0.664291
920.47	0.722794
923.845	6.67181
927.219	2.04779
930.594	0.487244
933.969	1.11945
937.344	1.43565
940.719	2.42171
944.093	1.95186
947.468	2.90654
950.843	2.00896
954.218	3.33931
957.593	3.12424
960.967	3.11307
964.342	2.67474
967.717	1.76886
971.092	1.55656
974.467	1.62292
977.842	1.78392
981.216	1.43819
984.591	1.83629
987.966	0.6185
991.341	0.817551
994.716	0.384201
998.091	0.497833
1001.47	1.15756
1004.84	0.424713
1008.22	0.783554
1011.59	0.101257
1014.97	0.765579
1018.34	0.524445
1021.71	1.10916
1025.09	0.691315
1028.46	0.912186
1031.84	1.39784
1035.21	1.3047
1038.59	3.00964
1041.96	2.56213
1045.34	4.88261
1048.71	7.54921
1052.09	11.7758
1055.46	21.9948
1058.84	44.2334
1062.21	81.4243
1065.59	140.117
1068.96	216.89
1072.34	261.723
1075.71	302.656
1079.09	330.419
1082.46	370.247
1085.84	588.239
1089.21	586.971
1092.59	199.153
1095.96	63.7634
1099.34	33.3285
1102.71	18.1753
1106.09	10.6756
1109.46	7.12643
1112.83	4.92543
1116.21	4.42343
1119.58	2.43277
1122.96	2.18657
1126.33	0.531754
1129.71	0.876892
1133.08	0.997253
1136.46	0.81929
1139.83	0.214096
1143.21	0.407486
1146.58	0.491241
1149.96	0.329819
1153.33	0.401062
1156.71	0.125748
1160.08	0.951599
1163.46	1.04398
1166.83	0.400558
1170.21	0.372543
1173.58	0.152344
1176.96	0.622726
1180.33	1.59557
1183.71	1.0154
1187.08	1.39761
1190.45	2.52345
1193.83	1.52185
1197.2	1.78232
1200.58	2.7442
1203.95	1.43117
1207.33	1.75406
1210.7	0.469376
1214.08	1.75177
1217.45	1.72801
1220.83	2.47104
1224.2	2.35777
1227.58	1.23143
1230.95	1.34056
1234.33	2.38028
1237.7	0.953445
1241.08	0.747879
1244.45	0.503891
1247.83	2.30211
1251.2	1.12161
1254.58	1.62001
1257.95	1.90146
1261.33	0.26532
1264.7	1.65735
1268.08	2.57707
1271.45	2.8127
1274.83	2.70515
1278.2	2.65894
1281.58	0.603897
1284.95	0.386292
1288.33	1.68977
1291.7	1.5551
1295.08	1.02237
1298.45	1.24924
1301.82	0
