Measurement: Raman, 532 nm, unoriented, Raman Data Processed
Mineral: Liebenbergite
Rruff sample: R150037
Ideal chemistry: Ni^2+^_2_SiO_4_
Locality: Agios Konstantinos, Lavrion District slag localities, Attik√≠ Prefecture, Greece
Source: Gunnar Farber
Description: Euhedral vitreous green crystals, associated with R150038 black octahedral trevorite
Raman shift (cm-1)	intensity
119.674	13.9739
123.049	6.4064
126.424	7.9536
129.799	8.20506
133.174	7.65315
136.548	1.08911
139.923	12.5241
143.298	0.160461
146.673	1.76238
150.048	1.08099
153.423	3.41165
156.797	7.32341
160.172	4.42427
163.547	4.80633
166.922	0.845734
170.297	1.95949
173.672	2.79361
177.046	3.14413
180.421	3.70485
183.796	8.09976
187.171	13.5233
190.546	15.3033
193.92	15.9186
197.295	16.761
200.67	16.7981
204.045	22.1579
207.42	26.5509
210.794	36.7658
214.169	46.8187
217.544	52.4101
220.919	53.0713
224.294	52.1212
227.669	43.0791
231.043	36.0395
234.418	29.8463
237.793	27.9798
241.168	28.8943
244.543	31.8024
247.917	35.9616
251.292	25.8686
254.667	12.872
258.042	4.42087
261.417	0.306992
264.792	2.40265
268.166	2.80272
271.541	0.95372
274.916	0.557175
278.291	2.79553
281.666	4.03311
285.041	9.43832
288.415	17.2474
291.79	24.3125
295.165	35.0299
298.54	52.3158
301.915	72.1261
305.289	100.82
308.664	132.958
312.039	165.266
315.414	188.239
318.789	191.11
322.163	176.215
325.538	150.794
328.913	107.315
332.288	64.3137
335.663	46.7232
339.038	43.5247
342.412	45.3738
345.787	43.6427
349.162	41.5815
352.537	37.2647
355.912	35.2003
359.286	33.6245
362.661	30.9435
366.036	31.4107
369.411	33.2057
372.786	34.0289
376.161	31.456
379.535	23.7818
382.91	15.9471
386.285	8.2993
389.66	2.41304
393.035	0.573044
396.409	2.07764
399.784	0.565842
403.159	2.58034
406.534	4.80954
409.909	9.04274
413.284	15.4782
416.658	16.1033
420.033	14.5063
423.408	14.5325
426.783	16.4628
430.158	17.4908
433.532	15.3779
436.907	6.06332
440.282	5.51158
443.657	5.30333
447.032	3.2789
450.406	1.25243
453.781	2.17485
457.156	1.69139
460.531	0.584412
463.906	0.921295
467.281	2.69319
470.655	3.69684
474.03	3.62668
477.405	3.86377
480.78	3.12749
484.155	4.22354
487.529	6.16423
490.904	6.95888
494.279	8.9876
497.654	9.66248
501.029	12.2716
504.404	13.8277
507.778	16.0448
511.153	17.3539
514.528	18.0336
517.903	19.9684
521.278	19.9815
524.653	25.6965
528.027	27.5472
531.402	36.4892
534.777	45.9373
538.152	48.2747
541.527	26.8856
544.901	10.1222
548.276	2.46829
551.651	0.09906
555.026	2.80908
558.401	12.6789
561.775	27.8965
565.15	46.0265
568.525	71.9755
571.9	101.887
575.275	126.649
578.649	130.657
582.024	114.817
585.399	85.7928
588.774	61.0302
592.149	48.6034
595.524	41.4102
598.898	34.9302
602.273	27.082
605.648	24.6021
609.023	20.2504
612.398	17.3062
615.773	14.9642
619.147	13.6546
622.522	9.44163
625.897	4.3434
629.272	0.874344
632.647	0.873886
636.021	0.334076
639.396	0.991257
642.771	3.62038
646.146	5.73706
649.521	7.20047
652.895	7.63948
656.27	6.12505
659.645	9.20729
663.02	12.1327
666.395	20.8321
669.77	27.7817
673.144	36.156
676.519	48.1999
679.894	55.5615
683.269	62.3064
686.644	64.7186
690.019	58.5809
693.393	44.4065
696.768	30.2814
700.143	18.2961
703.518	10.6511
706.893	5.33797
710.267	1.71109
713.642	0.017395
717.017	1.44368
720.392	2.37418
723.767	2.12126
727.141	0.427094
730.516	1.55591
733.891	1.66377
737.266	3.20381
740.641	2.28793
744.016	1.79164
747.39	2.24454
750.765	0.514313
754.14	3.22496
757.515	5.32198
760.89	9.47507
764.264	13.9424
767.639	18.7068
771.014	20.2553
774.389	22.509
777.764	16.3379
781.139	15.3054
784.513	13.0985
787.888	18.962
791.263	33.8402
794.638	60.9563
798.013	101.054
801.388	168.215
804.762	280.811
808.137	479.983
811.512	807.864
814.887	1266.09
818.261	1957.19
821.636	2694
825.011	2572.18
828.386	1759.42
831.761	1207.31
835.136	947.822
838.51	871.866
841.885	947.638
845.26	1171.08
848.635	1481.32
852.01	1719.63
855.385	1557.59
858.759	1046
862.134	603.788
865.509	336.983
868.884	194.056
872.259	114.207
875.633	71.7958
879.008	41.7831
882.383	25.5913
885.758	5.5368
889.133	7.35565
892.508	12.0482
895.882	6.90888
899.257	6.59589
902.632	32.8096
906.007	69.3733
909.382	114.305
912.756	163.227
916.131	177.185
919.506	128.283
922.881	63.2504
926.256	26.6357
929.63	17.052
933.005	18.6497
936.38	30.895
939.755	49.0062
943.13	82.4997
946.505	126.405
949.879	181.928
953.254	235.338
956.629	253.818
960.004	202.338
963.379	129.728
966.754	75.022
970.128	41.5223
973.503	22.8024
976.878	8.85706
980.253	0.170914
983.628	2.48116
987.002	3.47948
990.377	1.76917
993.752	2.30966
997.127	0.799423
1000.5	1.53847
1003.88	2.57942
1007.25	4.53619
1010.63	6.62104
1014	12.1759
1017.38	13.4206
1020.75	16.705
1024.12	18.1551
1027.5	23.0861
1030.88	24.3397
1034.25	25.614
1037.62	27.2205
1041	26.2416
1044.37	22.25
1047.75	18.32
1051.12	13.1256
1054.5	11.3606
1057.87	7.60173
1061.25	6.67123
1064.62	5.06921
1068	4.25863
1071.37	3.16591
1074.75	2.31591
1078.12	3.49303
1081.5	1.85004
1084.87	3.76947
1088.25	2.70897
1091.62	2.94358
1095	1.43409
1098.37	0.217659
1101.75	1.13033
1105.12	0.614067
1108.5	0.012146
1111.87	0.776741
1115.24	2.85774
1118.62	4.33913
1121.99	3.18603
1125.37	2.54425
1128.74	4.556
1132.12	4.24507
1135.49	3.12051
1138.87	3.13342
1142.24	1.60682
1145.62	2.68787
1148.99	1.42922
1152.37	1.12485
1155.74	0.640991
1159.12	0.279724
1162.49	0.334602
1165.87	1.31502
1169.24	0.55864
1172.62	0.216248
1175.99	2.34259
1179.37	1.99046
1182.74	2.89931
1186.12	5.27394
1189.49	5.70429
1192.87	8.05844
1196.24	7.58901
1199.62	7.82425
1202.99	7.54313
1206.37	7.28845
1209.74	7.34786
1213.12	6.31105
1216.49	6.77658
1219.87	4.64298
1223.24	5.41852
1226.61	4.8941
1229.99	3.41465
1233.36	3.02937
1236.74	2.25784
1240.11	0.944397
1243.49	0.442944
1246.86	1.26025
1250.24	0.309994
1253.61	0.022469
1256.99	0.854023
1260.36	0.375328
1263.74	1.2467
1267.11	1.90577
1270.49	2.2116
1273.86	3.11397
1277.24	2.38459
1280.61	1.79891
1283.99	1.23667
1287.36	0.154613
1290.74	2.45648
1294.11	1.5133
1297.49	0.928047
1300.86	0.051689
