Measurement: Raman, 780 nm, unoriented, Raman Data Processed
Mineral: Liebigite
Rruff sample: R050662
Ideal chemistry: Ca_2_(UO_2_)(CO_3_)_3_11H_2_O
Locality: Schwartzwaelder mine, Jefferson County, Colorado, USA
Source: University of Arizona Mineral Museum
Description: Yellowish-green flaky aggregate
Measured chemistry: Ca_2.00_(U_1.00_O_2_)(CO_3_)_3_Â·11H_2_O ; C not measured but estimated by stoichiometry
Raman shift (cm-1)	intensity
140.237	0
143.13	3.34973
146.022	8.91359
148.915	11.293
151.808	10.4225
154.701	9.71294
157.593	10.7784
160.486	11.5199
163.379	11.9944
166.271	10.0393
169.164	8.7706
172.057	8.5188
174.949	9.81016
177.842	8.03999
180.735	8.73629
183.627	6.89887
186.52	5.86259
189.413	2.55435
192.306	1.24229
195.198	0.402176
198.091	1.14642
200.984	1.57455
203.876	1.25448
206.769	0.858833
209.662	3.37514
212.554	6.68586
215.447	10.9833
218.34	15.5972
221.233	20.8932
224.125	26.9889
227.018	33.0124
229.911	40.3388
232.803	47.864
235.696	52.2442
238.589	55.2007
241.482	50.9552
244.374	47.8058
247.267	42.9984
250.16	37.8255
253.052	31.7677
255.945	23.0111
258.838	16.7226
261.73	11.3051
264.623	7.09335
267.516	3.50216
270.408	1.73641
273.301	0.455132
276.194	0.803757
279.087	0.029766
281.979	1.41831
284.872	1.33799
287.765	2.7643
290.657	2.25238
293.55	2.07259
296.443	2.28679
299.335	2.18191
302.228	2.52129
305.121	2.81858
308.014	3.74737
310.906	3.7526
313.799	3.53804
316.692	5.55386
319.584	5.88287
322.477	6.48101
325.37	5.76931
328.262	5.99826
331.155	4.80734
334.048	3.91278
336.94	3.52864
339.833	2.34174
342.726	1.75493
345.619	1.82982
348.511	1.05544
351.404	0.27816
354.297	1.20093
357.189	0.177025
360.082	0.550613
362.975	0.703262
365.868	0.45776
368.76	0.491596
371.653	0.64328
374.546	0.071877
377.438	0.046471
380.331	0.166981
383.224	0.773136
386.116	0.070919
389.009	0.552898
391.902	0.717907
394.795	0.64677
397.687	0.071674
400.58	0.484535
403.473	0.825794
406.365	1.06127
409.258	0.467628
412.151	0.92144
415.043	1.03758
417.936	0.978931
420.829	0.385059
423.721	0.398792
426.614	1.06658
429.507	0.038113
432.399	0.872845
435.292	0.048149
438.185	1.06829
441.078	0.516438
443.97	1.41875
446.863	0.689533
449.756	0.880234
452.648	1.46831
455.541	1.23174
458.434	0.270836
461.327	1.23591
464.219	1.28425
467.112	1.58096
470.005	0.71241
472.897	1.0991
475.79	1.23069
478.683	0.930031
481.575	1.40485
484.468	0.564594
487.361	0.092686
490.253	0.749126
493.146	0.163662
496.039	1.35834
498.932	0.359146
501.824	0.818581
504.717	0.599323
507.61	0.350143
510.502	0.426174
513.395	0.836357
516.288	0.527748
519.181	0.027069
522.073	0.291344
524.966	0.044186
527.859	0.823345
530.751	0.545578
533.644	0.354027
536.537	0.545444
539.429	0.944881
542.322	0.33543
545.215	0.706722
548.107	0.03009
551	0.009575
553.893	0.014725
556.785	0.071632
559.678	0.593498
562.571	0.33313
565.464	0.273151
568.356	1.49838
571.249	0.666939
574.142	1.0271
577.034	0.767868
579.927	0.907928
582.82	0.846706
585.712	0.021511
588.605	0.308296
591.498	0.69986
594.391	0.387161
597.283	0.661522
600.176	0.158558
603.069	0.167057
605.961	1.08031
608.854	0.14465
611.747	0.315277
614.639	0.007118
617.532	0.172878
620.425	0.334099
623.318	0.003941
626.21	0.097912
629.103	0.596333
631.996	0.297878
634.888	0.397621
637.781	0.960987
640.674	0.353836
643.567	0.406082
646.459	0.406342
649.352	0.846897
652.245	0.085491
655.137	0.497807
658.03	0.034214
660.923	0.824478
663.815	1.07403
666.708	0.411812
669.601	0.286724
672.494	1.21461
675.386	1.46975
678.279	0.860153
681.172	1.78988
684.064	1.77243
686.957	1.71639
689.85	2.07307
692.742	2.62059
695.635	1.97251
698.528	1.91044
701.42	2.59847
704.313	1.50502
707.206	1.65159
710.098	2.88212
712.991	2.57006
715.884	3.11534
718.777	4.95996
721.669	6.47369
724.562	8.8289
727.455	11.7075
730.347	14.2058
733.24	18.6206
736.133	23.4355
739.025	28.1765
741.918	34.7345
744.811	40.6747
747.704	44.5304
750.596	47.7436
753.489	49.7337
756.382	54.0805
759.274	48.0574
762.167	30.777
765.06	13.0814
767.952	4.11178
770.845	1.37078
773.738	0.301037
776.631	0.643734
779.523	1.06271
782.416	0.14373
785.309	1.15441
788.201	2.1357
791.094	4.36845
793.987	7.17474
796.88	10.4607
799.772	17.1498
802.665	28.5678
805.558	48.7569
808.45	85.3208
811.343	129.657
814.236	185.493
817.128	261.69
820.021	353.855
822.914	389.721
825.807	258.562
828.699	126.892
831.592	58.5172
834.485	30.1162
837.377	17.2377
840.27	11.4685
843.163	7.88895
846.055	5.44871
848.948	3.79108
851.841	2.91623
854.734	1.63006
857.626	0.761271
860.519	0.532579
863.412	0.360371
866.304	0.471161
869.197	0.684233
872.09	0.185114
874.982	0.767736
877.875	0.426004
880.768	0.884396
883.66	0.703688
886.553	0.452425
889.446	1.08152
892.338	0.780989
895.231	0.762871
898.124	0.834471
901.017	1.19436
903.909	0.455227
906.802	0.251129
909.695	0.265995
912.587	0.171648
915.48	0.233341
918.373	0.283184
921.265	0.288595
924.158	0.205555
927.051	0.144791
929.944	0.239155
932.836	0.580765
935.729	0.607971
938.622	0.838989
941.514	0.787167
944.407	0.47006
947.3	0.878443
950.192	0.855633
953.085	1.16574
955.978	1.75158
958.87	0.959276
961.763	0.806192
964.656	0.73859
967.549	1.20396
970.441	0.586624
973.334	0.784786
976.227	0.230263
979.119	0.123409
982.012	0.615784
984.905	0.185446
987.798	0.261715
990.69	0.115879
993.583	0.476818
996.476	0.20351
999.368	0.281504
1002.26	0.21443
1005.15	0.142872
1008.05	0.251137
1010.94	0.484974
1013.83	0.106714
1016.73	0.610153
1019.62	0.25111
1022.51	0.283667
1025.4	0.374407
1028.3	0.151638
1031.19	0.753742
1034.08	0.210489
1036.97	0.458601
1039.87	1.01135
1042.76	0.256199
1045.65	1.2786
1048.54	1.11709
1051.44	1.05856
1054.33	1.15752
1057.22	3.02283
1060.12	5.13596
1063.01	8.28056
1065.9	13.0245
1068.79	18.8421
1071.69	25.5155
1074.58	27.3119
1077.47	31.9025
1080.36	29.9224
1083.26	36.2767
1086.15	58.9952
1089.04	70.0665
1091.93	32.7026
1094.83	10.9707
1097.72	5.11483
1100.61	2.82173
1103.51	1.61824
1106.4	1.67632
1109.29	1.82602
1112.18	1.01305
1115.08	0.308981
1117.97	0.724745
1120.86	0.512547
1123.75	0.7901
1126.65	0.687822
1129.54	0.351393
1132.43	0.092752
1135.33	0.026979
1138.22	0.244778
1141.11	0.486174
1144	0.440447
1146.9	0.90448
1149.79	0.316813
1152.68	0.12784
1155.57	0.330168
1158.47	0.462477
1161.36	0.107645
1164.25	0.157484
1167.14	0.488108
1170.04	1.31031
1172.93	0.214771
1175.82	0.540159
1178.72	0.711416
1181.61	0.94566
1184.5	0.187088
1187.39	0.857809
1190.29	0.9772
1193.18	0.817081
1196.07	0.54611
1198.96	0.531624
1201.86	0.486004
1204.75	0.379898
1207.64	0.293169
1210.54	0.29318
1213.43	0.348429
1216.32	0.031609
1219.21	0.063133
1222.11	0.189312
1225	0.148508
1227.89	0.567223
1230.78	0.263874
1233.68	0.459736
1236.57	0.580566
1239.46	0.57951
1242.36	0.054522
1245.25	0.363966
1248.14	0.618816
1251.03	0.076172
1253.93	0.035055
1256.82	0.298563
1259.71	0.247452
1262.6	0.940384
1265.5	0.656853
1268.39	0.499865
1271.28	0.293371
1274.17	0.082123
1277.07	0.38059
1279.96	0.347378
1282.85	0.26692
1285.74	0.006943
