Measurement: Raman, 780 nm, unoriented, Raman Data Processed
Mineral: Liebenbergite
Rruff sample: R120062
Ideal chemistry: Ni_2_SiO_4_
Locality: Synthetic, by flux method
Source: Ken Domanik
Description: Bright green fragments
Measured chemistry: Ni_2.009_Si_0.995_O_4_
Raman shift (cm-1)	intensity
169.224	0
172.117	1.02933
175.01	2.57814
177.902	5.56161
180.795	12.6155
183.688	10.419
186.581	10.6711
189.473	14.7857
192.366	32.3799
195.259	71.4668
198.151	32.5859
201.044	6.76329
203.937	3.0194
206.829	1.72802
209.722	1.32051
212.615	0.504219
215.507	1.35101
218.4	0.566212
221.293	0.220879
224.186	0.694202
227.078	0.063629
229.971	1.06842
232.864	0.066792
235.756	1.14745
238.649	2.42617
241.542	3.02959
244.435	6.64143
247.327	4.2217
250.22	6.48104
253.113	6.47356
256.005	7.05901
258.898	6.2786
261.791	9.21412
264.683	14.1124
267.576	22.2094
270.469	44.5287
273.361	65.3598
276.254	91.7671
279.147	60.465
282.04	20.8468
284.932	11.7119
287.825	10.6159
290.718	16.4576
293.61	26.9921
296.503	47.7457
299.396	70.695
302.288	34.7112
305.181	11.7401
308.074	6.32226
310.967	2.01397
313.859	1.02666
316.752	0.143982
319.645	1.64521
322.537	2.8348
325.43	0.021442
328.323	0.010674
331.216	2.01565
334.108	3.39711
337.001	5.63282
339.894	10.8082
342.786	21.9874
345.679	32.9967
348.572	23.9296
351.464	9.50283
354.357	5.21465
357.25	4.6862
360.142	5.55632
363.035	5.12659
365.928	2.93374
368.821	1.99761
371.713	0.760117
374.606	0.163689
377.499	0.582108
380.391	0.068188
383.284	0.042358
386.177	0.523239
389.07	0.254314
391.962	0.664131
394.855	0.712215
397.748	0.665203
400.64	0.945499
403.533	0.712505
406.426	0.819401
409.318	0.891865
412.211	1.82722
415.104	3.42721
417.997	4.33814
420.889	6.32978
423.782	4.63859
426.675	2.49147
429.567	1.66209
432.46	1.54767
435.353	1.67997
438.245	0.249949
441.138	0.176064
444.031	0.725319
446.923	0.89666
449.816	0.51301
452.709	1.04232
455.602	0.642422
458.494	1.31938
461.387	0.448885
464.28	0.240612
467.172	0.657631
470.065	0.284859
472.958	1.34855
475.851	0.389547
478.743	0.571161
481.636	0.546383
484.529	0.751488
487.421	0.514711
490.314	1.66941
493.207	2.59648
496.099	1.82409
498.992	1.97931
501.885	1.35716
504.777	2.38243
507.67	3.3552
510.563	4.09585
513.456	6.75957
516.348	10.6701
519.241	14.1006
522.134	18.0415
525.026	13.5416
527.919	7.37728
530.812	4.56504
533.705	0.867262
536.597	0.80625
539.49	0.621529
542.383	0.002796
545.275	0.375734
548.168	0.28417
551.061	1.07863
553.953	1.09774
556.846	2.13189
559.739	1.96613
562.631	3.84833
565.524	4.28579
568.417	5.17131
571.31	3.39601
574.202	1.29297
577.095	1.46059
579.988	0.869583
582.88	1.65789
585.773	2.35575
588.666	2.00524
591.558	2.08529
594.451	1.37166
597.344	0.375628
600.237	0.344734
603.129	0.332392
606.022	0.072079
608.915	0.976561
611.807	0.415506
614.7	0.103182
617.593	0.837076
620.486	1.33575
623.378	0.067503
626.271	0.762089
629.164	0.591358
632.056	0.097319
634.949	0.635468
637.842	0.939322
640.734	1.81209
643.627	1.08424
646.52	1.83381
649.413	2.35809
652.305	1.45746
655.198	2.46548
658.091	1.93784
660.983	2.09251
663.876	2.22756
666.769	2.95841
669.661	2.93223
672.554	1.9252
675.447	1.94742
678.34	2.56104
681.232	2.79361
684.125	1.78031
687.018	1.89785
689.91	2.32418
692.803	1.88451
695.696	1.95961
698.588	1.44443
701.481	0.994822
704.374	0.054913
707.266	0.378344
710.159	0.488272
713.052	1.06031
715.945	0.567617
718.837	1.53892
721.73	0.66078
724.623	1.35572
727.515	1.00464
730.408	1.08946
733.301	0.871571
736.193	0.781439
739.086	0.316294
741.979	0.660851
744.872	0.464396
747.764	0.303709
750.657	0.079269
753.55	1.45365
756.442	0.444523
759.335	0.227804
762.228	0.507706
765.12	0.667177
768.013	0.441303
770.906	1.18685
773.799	0.030865
776.691	0.360924
779.584	1.24419
782.477	2.12759
785.369	3.15346
788.262	3.5403
791.155	7.38642
794.048	9.57928
796.94	15.1727
799.833	20.1172
802.726	30.7481
805.618	48.9766
808.511	81.7972
811.404	142.529
814.296	254.255
817.189	426.848
820.082	529.19
822.975	384.723
825.867	264.056
828.76	247.699
831.653	310.033
834.545	467.118
837.438	725.865
840.331	848.525
843.223	564.964
846.116	271.977
849.009	136.739
851.902	79.7231
854.794	48.5449
857.687	31.9349
860.58	24.2348
863.472	17.3248
866.365	16.3441
869.258	13.2967
872.15	8.32988
875.043	7.01142
877.936	5.28564
880.829	6.86065
883.721	10.1599
886.614	17.7177
889.507	23.324
892.399	11.5994
895.292	1.70868
898.185	0.823193
901.077	1.31034
903.97	1.00285
906.863	1.61535
909.756	0.934315
912.648	1.46365
915.541	2.37522
918.434	4.636
921.326	6.24243
924.219	8.83652
927.112	13.1416
930.005	15.8087
932.897	21.598
935.79	28.5251
938.683	29.3307
941.575	30.9332
944.468	38.3622
947.361	50.2899
950.253	69.9776
953.146	84.9349
956.039	77.0948
958.932	46.4202
961.824	22.8231
964.717	10.6172
967.61	5.42511
970.502	3.64709
973.395	1.31083
976.288	0.224123
979.18	0.993189
982.073	0.483889
984.966	0.01992
987.859	0.46871
990.751	0.085438
993.644	0.65589
996.537	0.527481
999.429	1.12531
1002.32	0.250151
1005.22	1.33194
1008.11	1.08462
1011	0.932028
1013.89	1.78
1016.78	2.74417
1019.68	1.75493
1022.57	1.95586
1025.46	2.40282
1028.36	1.73471
1031.25	2.76115
1034.14	1.73061
1037.03	2.23082
1039.93	0.650831
1042.82	1.85585
1045.71	2.70826
1048.61	0.646286
1051.5	1.85002
1054.39	0.886951
1057.28	0.251442
1060.18	1.3843
1063.07	0.896002
1065.96	0.205069
1068.85	0.030298
1071.75	0.574156
1074.64	0.182737
1077.53	0.106863
1080.42	0.97625
1083.32	0.321871
1086.21	1.23244
1089.1	0.85458
1092	1.13201
1094.89	1.59294
1097.78	1.87402
1100.67	1.08509
1103.57	1.86431
1106.46	2.2993
1109.35	3.36106
1112.24	1.68145
1115.14	1.09224
1118.03	2.57453
1120.92	1.19047
1123.82	1.40109
1126.71	1.54789
1129.6	0.905966
1132.49	1.2203
1135.39	0.942911
1138.28	0.736582
1141.17	0.525896
1144.06	0.148602
1146.96	0.721367
1149.85	0.011723
1152.74	0.5403
1155.63	0.152372
1158.53	0.605955
1161.42	0.007835
1164.31	1.72674
1167.21	2.00638
1170.1	2.26518
1172.99	2.36988
1175.88	2.76004
1178.78	2.95265
1181.67	2.41246
1184.56	2.86777
1187.45	2.71577
1190.35	2.86492
1193.24	3.37542
1196.13	2.38327
1199.03	3.19576
1201.92	2.375
1204.81	2.91832
1207.7	2.30892
1210.6	2.37409
1213.49	3.27845
1216.38	3.14829
1219.27	2.32631
1222.17	2.4985
1225.06	1.64459
1227.95	1.77178
1230.85	0.46863
1233.74	1.51726
1236.63	1.92919
1239.52	0.362181
1242.42	1.38468
1245.31	1.62793
1248.2	1.37227
1251.09	1.08298
1253.99	0.335125
1256.88	1.08187
1259.77	1.66656
1262.66	0.866438
1265.56	1.11445
1268.45	1.60634
1271.34	0.748278
1274.24	1.13588
1277.13	2.11038
1280.02	0.241749
1282.91	1.16582
