Measurement: Raman, 780 nm, unoriented, Raman Data Processed
Mineral: Liebenbergite
Rruff sample: R150037
Ideal chemistry: Ni^2+^_2_SiO_4_
Locality: Agios Konstantinos, Lavrion District slag localities, Attik√≠ Prefecture, Greece
Source: Gunnar Farber
Description: Euhedral vitreous green crystals, associated with R150038 black octahedral trevorite
Raman shift (cm-1)	intensity
120.005	0
123.38	6.22409
126.754	3.72275
130.129	7.17917
133.504	12.3605
136.879	7.61032
140.254	19.3306
143.629	8.66659
147.003	11.3445
150.378	12.6538
153.753	11.493
157.128	15.4606
160.503	6.66254
163.877	6.60391
167.252	5.42645
170.627	1.8931
174.002	1.03859
177.377	0.462219
180.751	0.039352
184.126	6.10608
187.501	5.0898
190.876	8.80815
194.251	11.0935
197.625	16.6555
201	14.2979
204.375	18.9112
207.75	22.8843
211.125	20.9558
214.5	21.373
217.874	24.2143
221.249	22.373
224.624	22.9601
227.999	24.0253
231.374	25.1222
234.749	19.3052
238.123	21.3002
241.498	24.5876
244.873	25.3402
248.248	25.9017
251.623	25.0364
254.997	19.3761
258.372	11.6103
261.747	7.68216
265.122	11.1619
268.497	7.57056
271.872	1.47665
275.246	1.36984
278.621	0.182144
281.996	2.00412
285.371	0.301361
288.745	1.71814
292.12	0.622452
295.495	3.62714
298.87	4.97098
302.245	5.55058
305.62	9.66348
308.994	13.6093
312.369	20.8547
315.744	23.4712
319.119	21.2205
322.494	19.4196
325.868	17.1971
329.243	12.126
332.618	7.73212
335.993	2.79883
339.368	4.0854
342.743	3.23175
346.117	2.39572
349.492	4.99903
352.867	2.44959
356.242	0.953438
359.617	3.96957
362.991	3.40191
366.366	4.5659
369.741	4.47709
373.116	2.41622
376.491	4.08496
379.865	2.02513
383.24	1.37461
386.615	0.146904
389.99	0.103981
393.365	1.21758
396.74	1.21377
400.114	2.45924
403.489	3.37374
406.864	2.66233
410.239	1.72942
413.614	0.15451
416.988	3.90139
420.363	5.31171
423.738	3.92082
427.113	5.50311
430.488	6.31847
433.863	8.28533
437.237	4.88297
440.612	4.40019
443.987	5.41319
447.362	2.93053
450.737	2.71062
454.111	5.70642
457.486	3.18522
460.861	4.71551
464.236	0.73645
467.611	2.17628
470.986	4.30954
474.36	3.51697
477.735	2.59927
481.11	2.15468
484.485	1.90124
487.86	2.51916
491.234	1.44938
494.609	0.918419
497.984	2.25121
501.359	2.51347
504.734	0.780212
508.108	0.004181
511.483	1.3172
514.858	1.58107
518.233	1.82838
521.608	1.82006
524.982	2.58451
528.357	1.10947
531.732	1.81458
535.107	1.69626
538.482	1.11966
541.857	1.74052
545.231	2.19618
548.606	2.66325
551.981	2.68411
555.356	0.004425
558.731	1.80361
562.106	4.1349
565.48	5.98805
568.855	7.22179
572.23	10.4886
575.605	14.2549
578.98	14.0244
582.354	13.6615
585.729	9.33495
589.104	2.4679
592.479	5.64693
595.854	4.39648
599.229	4.20126
602.603	1.85526
605.978	3.17149
609.353	2.19935
612.728	0.298927
616.102	1.55975
619.477	2.09933
622.852	0.472672
626.227	0.871323
629.602	0.570435
632.977	0.634193
636.351	1.03461
639.726	2.02523
643.101	2.54333
646.476	3.05713
649.851	1.11491
653.226	1.24561
656.6	0.380173
659.975	2.46822
663.35	2.61654
666.725	3.52775
670.1	2.54961
673.474	3.57709
676.849	3.54844
680.224	2.89542
683.599	3.81133
686.974	2.94365
690.348	1.99913
693.723	2.24752
697.098	2.15783
700.473	0.801865
703.848	1.87536
707.222	5.41961
710.597	1.64951
713.972	1.75727
717.347	0.184944
720.722	2.53851
724.097	1.39629
727.471	2.85074
730.846	5.0869
734.221	0.890274
737.596	1.59705
740.971	1.13047
744.346	0.434937
747.72	1.754
751.095	0.017616
754.47	0.526871
757.845	2.59919
761.22	0.732498
764.594	0.602402
767.969	0.703865
771.344	0.433083
774.719	2.73554
778.094	3.71292
781.468	0.568596
784.843	0.272873
788.218	2.33067
791.593	0.817863
794.968	7.50803
798.342	6.80543
801.717	10.0966
805.092	15.4814
808.467	25.1974
811.842	36.7002
815.217	69.764
818.591	122.441
821.966	197.526
825.341	211.625
828.716	153.301
832.091	102.131
835.466	77.6304
838.84	67.0339
842.215	68.2776
845.59	79.0931
848.965	105.519
852.34	138.018
855.714	140.528
859.089	105.32
862.464	66.7124
865.839	36.4971
869.214	24.1844
872.588	13.0444
875.963	10.4115
879.338	8.80312
882.713	5.91205
886.088	6.6014
889.462	2.81607
892.837	1.23808
896.212	4.38818
899.587	0.325676
902.962	2.72311
906.337	3.4997
909.711	6.53677
913.086	10.4678
916.461	13.2204
919.836	12.0042
923.211	6.7224
926.585	2.16234
929.96	2.3948
933.335	0.449211
936.71	0.740181
940.085	0.305908
943.46	4.26024
946.834	7.90635
950.209	7.91449
953.584	11.8117
956.959	16.3783
960.334	15.6483
963.708	12.2357
967.083	9.01423
970.458	6.02606
973.833	3.93364
977.208	2.5271
980.582	1.16424
983.957	2.45867
987.332	2.18067
990.707	0.192131
994.082	1.55745
997.457	1.16471
1000.83	1.90112
1004.21	2.72742
1007.58	1.8821
1010.96	1.3122
1014.33	2.01467
1017.71	3.59938
1021.08	2.04017
1024.45	1.37685
1027.83	5.16428
1031.2	5.91582
1034.58	1.95871
1037.95	7.12223
1041.33	7.59795
1044.7	6.72266
1048.08	5.59099
1051.45	5.60108
1054.83	3.3563
1058.2	5.29936
1061.58	4.40719
1064.95	4.08754
1068.33	1.66977
1071.7	1.97179
1075.08	2.58754
1078.45	4.48733
1081.83	0.5839
1085.2	0.680756
1088.58	3.24591
1091.95	1.72797
1095.33	0.575829
1098.7	0.270187
1102.08	1.10431
1105.45	1.61775
1108.83	0.196228
1112.2	1.75251
1115.58	2.2011
1118.95	2.77715
1122.33	1.85969
1125.7	4.73301
1129.07	2.30731
1132.45	2.75458
1135.82	1.00632
1139.2	1.49093
1142.57	0.98333
1145.95	3.92689
1149.32	1.60415
1152.7	2.03643
1156.07	2.11059
1159.45	2.42093
1162.82	1.14437
1166.2	0.596664
1169.57	2.51672
1172.95	1.71956
1176.32	3.92909
1179.7	0.118053
1183.07	2.97372
1186.45	3.00213
1189.82	4.13025
1193.2	5.87266
1196.57	2.51778
1199.94	3.67188
1203.32	1.55376
1206.69	2.40026
1210.07	3.25515
1213.44	3.39136
1216.82	2.22595
1220.19	3.50843
1223.57	2.33863
1226.94	2.63137
1230.32	0.740154
1233.69	2.61175
1237.07	2.97884
1240.44	2.1835
1243.82	3.78111
1247.19	3.75993
1250.57	2.0206
1253.94	0.12516
1257.32	1.15951
1260.69	3.02261
1264.07	2.90822
1267.44	1.49184
1270.82	2.78827
1274.19	0.194935
1277.57	1.31622
1280.94	0.022533
1284.32	0.503426
