Measurement: Raman, 785 nm, unoriented, Raman Data Processed
Mineral: Likasite
Rruff sample: R060327
Ideal chemistry: Cu_3_NO_3_(OH)_5_2H_2_O
Locality: Dzhezkazgan, Kazakhstan
Source: Michael Scott
Description: Blue granular
Raman shift (cm-1)	intensity
88.256	0
91.631	40.132
95.005	0.017
98.38	7.743
101.755	46.632
105.13	199.105
108.505	546.417
111.879	967.606
115.254	1430.03
118.629	1594.37
122.004	1542.25
125.379	1713.66
128.753	2208.9
132.128	2862.2
135.503	3281.28
138.878	2975.1
142.253	2102.12
145.628	1475.88
149.002	1133.58
152.377	1024.55
155.752	988.292
159.127	971.241
162.502	873.567
165.876	702.543
169.251	543.653
172.626	426.291
176.001	331.94
179.376	231.601
182.751	216.896
186.125	171.57
189.5	104.768
192.875	90.8
196.25	47.621
199.625	2.376
202.999	19.302
206.374	8.048
209.749	8.456
213.124	5.925
216.499	50.315
219.874	100.223
223.248	171.424
226.623	222.343
229.998	296.54
233.373	282.718
236.748	236.676
240.122	198.454
243.497	116.332
246.872	84.854
250.247	51.55
253.622	9.448
256.997	15.455
260.371	17.044
263.746	34.015
267.121	18.72
270.496	5.122
273.871	12.946
277.246	4.351
280.62	10.374
283.995	9.232
287.37	6.491
290.745	6.007
294.12	5.974
297.494	1.982
300.869	1.438
304.244	22.717
307.619	43.605
310.994	40.249
314.369	46.055
317.743	24.753
321.118	58.154
324.493	43.935
327.868	63.088
331.243	66.192
334.617	66.234
337.992	67.582
341.367	67.967
344.742	41.604
348.117	48.001
351.491	38.483
354.866	25.59
358.241	45.702
361.616	106.508
364.991	133.265
368.366	176.527
371.741	182.007
375.115	177.104
378.49	160.821
381.865	107.958
385.24	86.055
388.615	55.698
391.989	50.169
395.364	47.965
398.739	17.11
402.114	42.624
405.489	37.406
408.863	22.072
412.238	22.726
415.613	1.443
418.988	0.689
422.363	7.069
425.738	21.642
429.112	3.979
432.487	12.038
435.862	38.014
439.237	102.025
442.612	149.731
445.987	197.237
449.361	232.796
452.736	267.186
456.111	282.812
459.486	192.885
462.861	169.33
466.235	139.37
469.61	169.632
472.985	193.59
476.36	255.347
479.735	314.303
483.109	372.644
486.484	481.337
489.859	574.933
493.234	608.328
496.609	634.683
499.984	693.219
503.358	774.184
506.733	942.25
510.108	1006.48
513.483	1059.11
516.858	1056.34
520.232	947.159
523.607	904.585
526.982	814.557
530.357	673.1
533.732	474.556
537.107	341.09
540.481	223.756
543.856	153.969
547.231	102.783
550.606	49.739
553.981	28.96
557.356	20.06
560.73	10.29
564.105	0.87
567.48	15.571
570.855	5.947
574.23	16.617
577.604	1.771
580.979	11.967
584.354	0.954
587.729	8.224
591.104	24.283
594.479	31.405
597.853	41.888
601.228	41.061
604.603	54.898
607.978	44.249
611.353	86.027
614.727	59.887
618.102	63.41
621.477	70.667
624.852	56.981
628.227	35.937
631.602	37.047
634.976	39.022
638.351	25.482
641.726	24.411
645.101	11.6
648.476	17.594
651.851	8.584
655.225	2.687
658.6	4.736
661.975	13.422
665.35	11.131
668.724	7.537
672.099	20.171
675.474	9.833
678.849	3.247
682.224	9.404
685.599	21.806
688.973	10.705
692.348	36.466
695.723	33.568
699.098	68.483
702.473	101.324
705.847	147.91
709.222	262.046
712.597	345.564
715.972	397.088
719.347	317.946
722.722	191.108
726.096	42.388
729.471	28.355
732.846	20.033
736.221	18.808
739.596	25.355
742.971	41.137
746.345	25.797
749.72	46.261
753.095	30.844
756.47	38.447
759.845	60.757
763.219	40.924
766.594	31.417
769.969	26.175
773.344	29.796
776.719	26.606
780.094	11.259
783.468	20.339
786.843	22.789
790.218	6.969
793.593	14.966
796.968	11.198
800.343	13.214
803.717	40.859
807.092	48.671
810.467	67.342
813.842	91.225
817.217	117.657
820.591	130.146
823.966	150.029
827.341	201.998
830.716	193.923
834.091	186.051
837.466	120.103
840.84	105.996
844.215	88.768
847.59	68.237
850.965	52.71
854.34	52.068
857.714	31.782
861.089	16.595
864.464	25.914
867.839	11.136
871.214	8.766
874.589	9.706
877.963	16.158
881.338	1.666
884.713	1.584
888.088	0.355
891.463	21.715
894.837	8.984
898.212	25.16
901.587	24.19
904.962	35.857
908.337	52.365
911.711	59.068
915.086	53.419
918.461	62.833
921.836	37.199
925.211	56.816
928.586	50.308
931.96	36.949
935.335	34.25
938.71	12.112
942.085	2.922
945.46	8.368
948.834	1.025
952.209	13.55
955.584	7.567
958.959	25.936
962.334	29.703
965.709	53.337
969.083	90.951
972.458	100.356
975.833	99.143
979.208	97.559
982.583	120.82
985.958	55.209
989.332	55.411
992.707	49.62
996.082	37.733
999.457	33.081
1002.83	38.753
1006.21	30.836
1009.58	26.082
1012.96	37.972
1016.33	25.58
1019.71	63.927
1023.08	88.15
1026.45	134.512
1029.83	206.209
1033.2	371.098
1036.58	818.636
1039.95	1809.73
1043.33	3374.75
1046.7	5647.67
1050.08	6943.3
1053.45	2384.4
1056.83	779.029
1060.2	340.198
1063.58	153.832
1066.95	83.849
1070.33	57.556
1073.7	23.088
1077.08	35.764
1080.45	14.464
1083.83	22.45
1087.2	23.284
1090.58	5.061
1093.95	1.179
1097.33	10.639
1100.7	2.794
1104.08	7.188
1107.45	3.051
1110.83	12.143
1114.2	19.607
1117.58	1.226
1120.95	1.841
1124.33	13.224
1127.7	2.042
1131.08	21.018
1134.45	20.403
1137.82	5.224
1141.2	1.581
1144.57	3.029
1147.95	16.572
1151.32	16.71
1154.7	2.048
1158.07	17.136
1161.45	9.094
1164.82	20.126
1168.2	3.99
1171.57	17.064
1174.95	6.424
1178.32	20.624
1181.7	11.213
1185.07	5.358
1188.45	21.716
1191.82	27.645
1195.2	19.17
1198.57	21.597
1201.95	6.366
1205.32	5.798
1208.7	31.778
1212.07	17.501
1215.44	7.17
1218.82	4.866
1222.19	5.917
1225.57	11.808
1228.94	3.644
1232.32	1.995
1235.69	20.272
1239.07	12.697
1242.44	4.465
1245.82	9.852
1249.19	13.934
1252.57	23.46
1255.94	17.187
1259.32	5.042
1262.69	6.441
1266.07	12.176
1269.44	4.814
1272.82	6.583
1276.19	0.093
1279.57	10.785
1282.94	0.112
