Measurement: Raman, 532 nm, unoriented, Raman Data Processed
Mineral: Likasite
Rruff sample: R090009
Ideal chemistry: Cu_3_NO_3_(OH)_5_2H_2_O
Locality: Likasi Mine, Jadotville, Katanga, Zaire
Source: William W. Pinch
Description: Electric blue acicular crystals in a vug on cuprite matrix.
Raman shift (cm-1)	intensity
110.693	0
114.068	13.3264
117.442	70.3602
120.817	95.1026
124.192	136.56
127.567	202.544
130.942	310.357
134.317	396.889
137.691	429.801
141.066	394.254
144.441	333.507
147.816	270.027
151.191	230.323
154.565	219.141
157.94	216.497
161.315	218.438
164.69	180.146
168.065	159.122
171.44	130.69
174.814	93.2763
178.189	63.221
181.564	41.979
184.939	36.7119
188.314	9.14163
191.688	4.65596
195.063	1.58952
198.438	3.77959
201.813	2.6162
205.188	2.1304
208.562	1.12653
211.937	4.5027
215.312	12.7799
218.687	19.3117
222.062	31.2037
225.437	34.4995
228.811	40.6512
232.186	35.8487
235.561	25.0838
238.936	8.47296
242.311	8.67227
245.685	4.02307
249.06	0.270386
252.435	6.41328
255.81	5.172
259.185	3.53604
262.56	0.170044
265.934	2.06635
269.309	1.6908
272.684	2.27489
276.059	2.1889
279.434	7.58008
282.808	7.24118
286.183	13.0823
289.558	13.8668
292.933	17.2051
296.308	22.4792
299.683	25.3597
303.057	34.8948
306.432	29.8368
309.807	44.0886
313.182	49.1947
316.557	46.0952
319.932	48.1468
323.306	45.1006
326.681	48.0002
330.056	36.1098
333.431	38.2326
336.805	37.3875
340.18	31.469
343.555	28.9672
346.93	23.8223
350.305	25.7761
353.68	37.2386
357.054	56.0091
360.429	76.004
363.804	102.977
367.179	119.739
370.554	135.095
373.928	142.701
377.303	118.337
380.678	84.8471
384.053	53.535
387.428	33.8731
390.803	23.7466
394.177	15.7909
397.552	12.5315
400.927	9.50719
404.302	10.4237
407.677	2.86644
411.051	1.76242
414.426	0.495903
417.801	4.60256
421.176	6.24142
424.551	1.13989
427.926	2.64079
431.3	3.37747
434.675	13.8255
438.05	37.0748
441.425	46.7911
444.8	63.5271
448.174	85.9733
451.549	99.7425
454.924	95.5961
458.299	69.6085
461.674	54.9802
465.048	50.1621
468.423	52.9772
471.798	59.1014
475.173	77.3201
478.548	94.8985
481.923	127.451
485.297	159.963
488.672	196.032
492.047	219.613
495.422	232.794
498.797	260.048
502.171	304.343
505.546	361.331
508.921	418.586
512.296	445.995
515.671	446.142
519.046	426.996
522.42	413.783
525.795	386.157
529.17	322.903
532.545	240.501
535.92	167.971
539.294	115.416
542.669	72.0093
546.044	44.3037
549.419	30.2328
552.794	19.1334
556.169	9.50889
559.543	5.60942
562.918	3.92567
566.293	2.16536
569.668	4.00071
573.043	2.77117
576.418	6.34458
579.792	0.834732
583.167	0.889984
586.542	2.15081
589.917	0.590782
593.292	6.81053
596.666	4.39513
600.041	8.07632
603.416	9.02715
606.791	9.04094
610.166	9.47555
613.54	10.5256
616.915	12.9172
620.29	12.8467
623.665	10.1081
627.04	7.95983
630.414	5.46734
633.789	8.62385
637.164	4.4855
640.539	1.22653
643.914	3.23396
647.289	1.12058
650.663	2.92767
654.038	3.25062
657.413	2.78791
660.788	2.75858
664.163	0.788116
667.538	4.04108
670.912	0.312386
674.287	0.286186
677.662	2.79954
681.037	2.78445
684.412	7.69576
687.786	4.95622
691.161	12.1698
694.536	21.9152
697.911	37.5483
701.286	56.1899
704.66	76.1039
708.035	108.154
711.41	146.333
714.785	152.031
718.16	57.9536
721.534	33.7466
724.909	9.62203
728.284	8.2751
731.659	13.5745
735.034	15.3171
738.409	25.356
741.783	36.8298
745.158	39.3488
748.533	41.6934
751.908	43.0075
755.283	49.7445
758.658	47.5669
762.032	44.9618
765.407	43.1721
768.782	36.4159
772.157	29.9594
775.532	29.1294
778.906	20.2568
782.281	13.9028
785.656	8.77676
789.031	0.003899
792.406	1.8387
795.78	1.98022
799.155	1.03145
802.53	3.1199
805.905	6.15372
809.28	18.4855
812.654	28.8679
816.029	43.9461
819.404	52.6525
822.779	65.023
826.154	61.1546
829.529	66.7837
832.903	64.5202
836.278	53.2995
839.653	45.1166
843.028	28.8627
846.403	24.8557
849.778	13.5498
853.152	9.53199
856.527	6.36836
859.902	0.129574
863.277	2.7588
866.652	3.16095
870.026	2.01337
873.401	0.586353
876.776	0.214405
880.151	0.738182
883.526	3.53101
886.9	0.810287
890.275	1.69806
893.65	0.583176
897.025	6.21861
900.4	1.34855
903.775	1.50548
907.149	4.70945
910.524	0.158005
913.899	1.88143
917.274	4.60389
920.649	3.36895
924.024	3.86597
927.398	3.15483
930.773	7.06518
934.148	2.20949
937.523	6.48934
940.898	1.69446
944.272	0.847393
947.647	2.03081
951.022	1.55964
954.397	4.23972
957.772	5.30695
961.146	11.356
964.521	11.1978
967.896	15.0915
971.271	14.4614
974.646	19.168
978.021	17.0595
981.395	17.9669
984.77	16.0893
988.145	10.7868
991.52	7.8885
994.895	5.43862
998.269	3.46413
1001.64	3.55321
1005.02	5.8534
1008.39	1.66182
1011.77	0.662743
1015.14	4.28601
1018.52	6.51857
1021.89	17.7053
1025.27	22.6847
1028.64	37.0774
1032.02	61.2396
1035.39	127.357
1038.77	401.421
1042.14	752.807
1045.52	1439.53
1048.89	2814.55
1052.27	1469.07
1055.64	318.736
1059.02	126.836
1062.39	61.8586
1065.77	35.8159
1069.14	22.7801
1072.52	13.9219
1075.89	12.4624
1079.27	11.3175
1082.64	6.04378
1086.02	1.81995
1089.39	2.59827
1092.76	1.31871
1096.14	0.562786
1099.51	1.89035
1102.89	0.855885
1106.26	5.44421
1109.64	1.06065
1113.01	1.09164
1116.39	5.75105
1119.76	1.59239
1123.14	1.37251
1126.51	2.80821
1129.89	1.43682
1133.26	4.48476
1136.64	0.112343
1140.01	2.22604
1143.39	1.19846
1146.76	0.719889
1150.14	1.21449
1153.51	4.91751
1156.89	1.53582
1160.26	2.27382
1163.63	4.16466
1167.01	4.29926
1170.38	2.32402
1173.76	1.90146
1177.13	1.96816
1180.51	4.04657
1183.88	4.03442
1187.26	4.40571
1190.63	4.10256
1194.01	5.78545
1197.38	6.72497
1200.76	3.7444
1204.13	7.44021
1207.51	3.86805
1210.88	6.04985
1214.26	3.58385
1217.63	7.06037
1221.01	1.60858
1224.38	7.15095
1227.76	2.39623
1231.13	6.97224
1234.51	2.36199
1237.88	4.15236
1241.26	6.00302
1244.63	0.359833
1248.01	6.12149
1251.38	5.56982
1254.76	5.26927
1258.13	4.66633
1261.51	5.26886
1264.88	6.50846
1268.26	6.0308
1271.63	4.55074
1275	5.23715
1278.38	2.66068
1281.75	1.72788
1285.13	3.13395
1288.5	3.15334
1291.88	4.92335
1295.25	4.19444
1298.63	0.208885
1302	3.37951
