Measurement: Raman, 532 nm, unoriented, Raman Data Processed
Mineral: Linarite
Rruff sample: R120094
Ideal chemistry: PbCuSO_4_(OH)_2_
Locality: Daoping mine, Guangxi, China
Source: Michael Scott
Description: Massive crystalline blebs associated with cerussite, dundasite R060760, and anglesite
Raman shift (cm-1)	intensity
178.72	0
181.612	0.549774
184.505	6.03969
187.398	13.3714
190.29	21.8352
193.183	30.2537
196.076	39.8495
198.968	46.1148
201.861	50.9409
204.754	48.8227
207.647	52.8647
210.539	57.3472
213.432	62.4099
216.325	62.0131
219.217	59.5183
222.11	56.7654
225.003	55.6695
227.895	54.1951
230.788	50.0011
233.681	43.0205
236.573	34.3724
239.466	31.8518
242.359	25.9113
245.252	23.6648
248.144	20.5153
251.037	17.074
253.93	13.1356
256.822	12.2876
259.715	9.02516
262.608	6.66371
265.5	2.65304
268.393	4.4303
271.286	0.555099
274.179	3.10327
277.071	3.52742
279.964	2.26276
282.857	0.004921
285.75	0.575096
288.642	0.663498
291.535	0.422173
294.428	2.07143
297.32	0.224464
300.213	2.31441
303.106	1.42099
305.998	0.177895
308.891	2.38075
311.784	2.43613
314.676	4.84691
317.569	8.35287
320.462	14.8021
323.355	23.3706
326.247	25.937
329.14	28.0877
332.033	31.135
334.925	39.9541
337.818	51.0468
340.711	75.6353
343.603	97.7236
346.496	95.6102
349.389	71.5392
352.281	62.697
355.174	59.1433
358.067	60.9984
360.96	69.8593
363.852	73.444
366.745	72.2812
369.638	55.7277
372.53	35.932
375.423	21.9662
378.316	10.3959
381.209	8.10751
384.101	3.50696
386.994	3.89134
389.887	1.62467
392.779	1.34222
395.672	0.029289
398.565	0.477104
401.457	0.314125
404.35	0.695915
407.243	0.617699
410.135	2.18925
413.028	0.346199
415.921	0.873955
418.814	3.54569
421.706	11.0257
424.599	18.5314
427.492	25.6767
430.384	40.2595
433.277	63.8985
436.17	86.5258
439.062	61.5683
441.955	30.9336
444.848	40.934
447.741	69.6299
450.633	94.1514
453.526	141.999
456.419	241.026
459.311	370.219
462.204	410.188
465.097	187.166
467.99	69.3264
470.882	34.7239
473.775	25.2341
476.668	21.5222
479.56	23.2678
482.453	24.5172
485.346	21.7757
488.238	19.2495
491.131	27.5692
494.024	34.3922
496.916	47.5613
499.809	71.098
502.702	96.6153
505.595	133.191
508.487	177.465
511.38	219.504
514.273	215.225
517.165	146.932
520.058	81.6994
522.951	43.0849
525.844	26.0571
528.736	15.5119
531.629	8.13607
534.522	4.33266
537.414	1.51032
540.307	0.034935
543.2	0.348358
546.092	0.666138
548.985	0.448921
551.878	0.538017
554.771	0.649284
557.663	0.144333
560.556	1.28033
563.449	0.416321
566.341	0.741783
569.234	0.02533
572.127	0.857101
575.019	0.378273
577.912	3.58053
580.805	4.01466
583.697	10.3656
586.59	14.7411
589.483	24.4785
592.376	39.9842
595.268	60.5327
598.161	67.7032
601.054	70.5567
603.946	98.4452
606.839	150.089
609.732	207.254
612.625	160.571
615.517	61.0901
618.41	39.8297
621.303	37.8772
624.195	48.7409
627.088	74.251
629.981	105.932
632.873	115.225
635.766	66.7539
638.659	27.7272
641.552	15.3147
644.444	8.27811
647.337	5.16224
650.23	4.18946
653.122	2.36128
656.015	3.56339
658.908	3.58227
661.8	3.56851
664.693	3.44859
667.586	5.04573
670.479	7.50455
673.371	9.48193
676.264	12.4837
679.157	10.5127
682.049	17.321
684.942	9.367
687.835	2.67656
690.727	2.10078
693.62	2.55564
696.513	4.08852
699.405	0.006721
702.298	0.111748
705.191	0.507309
708.084	0.258324
710.976	0.606422
713.869	1.07036
716.762	1.93074
719.654	0.649536
722.547	0.895004
725.44	1.14034
728.332	0.511078
731.225	0.212379
734.118	0.032257
737.011	0.485428
739.903	0.522636
742.796	0.316734
745.689	0.326721
748.581	0.163879
751.474	1.14686
754.367	1.28372
757.26	1.30439
760.152	5.16516
763.045	2.59948
765.938	3.67198
768.83	5.70143
771.723	5.41307
774.616	6.3997
777.508	7.90174
780.401	6.23841
783.294	7.66364
786.187	7.57115
789.079	8.87922
791.972	7.99559
794.865	9.91947
797.757	11.1029
800.65	15.7978
803.543	23.7347
806.435	29.7079
809.328	36.7937
812.221	42.7785
815.114	46.1163
818.006	41.2545
820.899	34.2853
823.792	25.9061
826.684	20.3852
829.577	15.3425
832.47	14.9994
835.362	18.7255
838.255	24.2643
841.148	15.7278
844.04	12.6705
846.933	9.00736
849.826	10.2821
852.719	12.7123
855.611	10.7685
858.504	13.3636
861.397	12.7652
864.289	13.9867
867.182	13.5435
870.075	12.9426
872.967	13.1481
875.86	12.7584
878.753	10.0671
881.646	7.66904
884.538	6.00456
887.431	3.29536
890.324	3.62034
893.216	0.289101
896.109	0.024063
899.002	0.223465
901.894	1.44309
904.787	1.19726
907.68	1.53786
910.573	2.67722
913.465	2.24162
916.358	0.328758
919.251	0.979958
922.143	1.65686
925.036	0.79818
927.929	2.82636
930.822	4.32684
933.714	5.03518
936.607	8.08563
939.5	14.4799
942.392	20.2714
945.285	32.2488
948.178	52.7652
951.07	87.7773
953.963	169.931
956.856	333.623
959.749	544.036
962.641	870.759
965.534	1417.17
968.427	1718.66
971.319	986.753
974.212	407.153
977.105	200.105
979.997	118.09
982.89	76.9551
985.783	53.9854
988.676	44.3715
991.568	37.7498
994.461	35.0664
997.354	34.4361
1000.25	33.4167
1003.14	33.4875
1006.03	31.422
1008.92	35.1465
1011.82	40.7338
1014.71	46.746
1017.6	52.5801
1020.5	53.7868
1023.39	46.6623
1026.28	39.0746
1029.17	33.162
1032.07	32.9003
1034.96	27.5193
1037.85	25.0565
1040.74	24.2738
1043.64	21.2006
1046.53	17.8375
1049.42	15.043
1052.32	14.2015
1055.21	10.4841
1058.1	7.87174
1060.99	6.63042
1063.89	2.03597
1066.78	0.527946
1069.67	2.12041
1072.56	3.46908
1075.46	1.02779
1078.35	3.18206
1081.24	1.13744
1084.13	0.285461
1087.03	2.95921
1089.92	4.87359
1092.81	6.94492
1095.7	8.96921
1098.6	11.8885
1101.49	14.4255
1104.38	16.6134
1107.28	17.9232
1110.17	20.6171
1113.06	23.8267
1115.95	26.4474
1118.85	34.6004
1121.74	42.4516
1124.63	58.2982
1127.53	84.0181
1130.42	120.989
1133.31	171.639
1136.2	233.242
1139.1	293.944
1141.99	304.135
1144.88	233.573
1147.77	148.326
1150.67	88.492
1153.56	56.2218
1156.45	36.9507
1159.35	25.4841
1162.24	20.5348
1165.13	16.5122
1168.02	12.0633
1170.92	13.0434
1173.81	11.302
1176.7	9.98515
1179.59	6.6226
1182.49	6.13136
1185.38	4.37445
1188.27	2.82998
1191.16	2.40752
1194.06	0.652649
1196.95	0.49567
1199.84	1.25709
1202.73	0.269478
1205.63	0.403587
1208.52	2.44617
1211.41	0.460041
1214.31	0.954277
1217.2	1.08166
1220.09	0.4034
1222.98	1.23056
1225.88	1.01452
1228.77	0.237896
1231.66	0.348175
1234.56	0.357876
1237.45	1.17825
1240.34	2.64663
1243.23	3.80414
1246.13	4.55556
1249.02	5.48901
1251.91	5.82001
1254.8	4.67036
1257.7	5.02813
1260.59	3.34193
1263.48	4.6619
1266.38	2.47929
1269.27	3.27028
1272.16	0.053978
1275.05	1.16311
1277.95	0.764374
1280.84	0.063728
1283.73	2.71565
1286.62	1.39512
1289.52	2.04484
1292.41	1.92246
1295.3	0.31699
1298.19	0.683292
1301.09	0.7672
