Measurement: Raman, 532 nm, unoriented, Raman Data Processed
Mineral: Linarite
Rruff sample: R060130
Ideal chemistry: PbCuSO_4_(OH)_2_
Locality: Graham County, Arizona, USA
Source: University of Arizona Mineral Museum
Description: Azure-blue fragments in quartz
Measured chemistry: Pb_1.00_Cu_1.00_(S_1.00_O_4_)(OH)_2_
Raman shift (cm-1)	intensity
136.065	0
139.44	2.80454
142.815	12.6377
146.189	32.1168
149.564	58.1661
152.939	89.3443
156.314	115.808
159.689	131.737
163.063	120.663
166.438	83.6369
169.813	50.6324
173.188	28.7709
176.563	16.3574
179.938	8.25086
183.312	4.10395
186.687	0.762001
190.062	1.37381
193.437	0.484325
196.812	0.040447
200.186	0.05566
203.561	1.98715
206.936	2.38461
210.311	2.49984
213.686	9.37466
217.06	15.0825
220.435	24.3581
223.81	33.4081
227.185	42.6216
230.56	38.9978
233.935	27.1724
237.309	17.941
240.684	11.3295
244.059	7.57088
247.434	6.03517
250.809	4.7972
254.184	2.97351
257.558	2.43685
260.933	2.40899
264.308	1.38206
267.683	0.11742
271.058	0.292454
274.433	0.631329
277.807	0.158092
281.182	1.23858
284.557	0.624882
287.932	0.310236
291.307	0.365398
294.681	0.216894
298.056	0.264555
301.431	0.131433
304.806	0.415045
308.181	1.14455
311.555	2.18691
314.93	3.30465
318.305	4.00071
321.68	4.88731
325.055	6.89498
328.43	7.18835
331.804	8.7899
335.179	11.9273
338.554	16.2191
341.929	22.9297
345.304	28.4505
348.678	35.143
352.053	44.4295
355.428	55.1426
358.803	65.9729
362.178	77.4718
365.553	77.4464
368.928	58.3439
372.302	32.9789
375.677	17.7968
379.052	10.7937
382.427	7.63258
385.802	6.20808
389.176	5.63024
392.551	4.35813
395.926	2.92027
399.301	2.04131
402.676	0.762735
406.05	0.296522
409.425	0.749054
412.8	0.916061
416.175	0.238865
419.55	6.30968
422.925	13.366
426.299	19.6755
429.674	31.7793
433.049	54.7303
436.424	63.1717
439.799	19.5104
443.173	9.81094
446.548	17.853
449.923	24.1946
453.298	35.263
456.673	55.7889
460.048	76.3175
463.423	36.0139
466.797	7.6119
470.172	1.90604
473.547	1.40453
476.922	2.81599
480.297	5.24326
483.671	8.36583
487.046	13.0901
490.421	21.7741
493.796	38.3676
497.171	68.5229
500.546	102.294
503.92	139.177
507.295	184.809
510.67	219.133
514.045	186.462
517.42	100.22
520.794	48.3095
524.169	24.3677
527.544	12.9208
530.919	7.52916
534.294	4.49835
537.668	2.15904
541.043	1.04526
544.418	0.24509
547.793	0.278944
551.168	0.121553
554.543	0.198605
557.917	0.321039
561.292	0.542178
564.667	0.773352
568.042	0.461578
571.417	0.343608
574.792	1.04907
578.166	2.33813
581.541	4.26323
584.916	6.99032
588.291	10.4496
591.666	16.5554
595.04	22.6065
598.415	19.3555
601.79	22.5698
605.165	34.1802
608.54	51.3211
611.915	45.6142
615.289	55.4578
618.664	97.5718
622.039	138.043
625.414	208.73
628.789	300.978
632.163	303.326
635.538	115.808
638.913	46.5912
642.288	24.7066
645.663	15.5855
649.038	11.4088
652.412	8.98926
655.787	7.81698
659.162	6.67455
662.537	5.31755
665.912	3.10134
669.287	2.27894
672.661	1.58879
676.036	0.812664
679.411	0.449313
682.786	0.083569
686.161	0.039064
689.535	0.044286
692.91	0.083881
696.285	0.281835
699.66	0.10337
703.035	0.00976
706.409	0.035316
709.784	0.194501
713.159	0.457257
716.534	0.864603
719.909	0.803996
723.284	0.019099
726.659	0.701571
730.033	0.290406
733.408	0.055804
736.783	0.314146
740.158	0.505411
743.533	0.136757
746.907	0.078403
750.282	0.059383
753.657	0.08153
757.032	0.252421
760.407	0.668634
763.782	0.53647
767.156	0.602048
770.531	0.634027
773.906	0.748056
777.281	1.02561
780.656	0.99791
784.03	0.673324
787.405	0.958878
790.78	1.40888
794.155	1.3688
797.53	1.75272
800.904	2.01426
804.279	3.20673
807.654	4.06143
811.029	5.05684
814.404	4.62273
817.779	4.44062
821.154	2.77411
824.528	1.96705
827.903	1.89995
831.278	1.38131
834.653	1.27792
838.028	1.40685
841.402	1.28492
844.777	1.70429
848.152	2.03125
851.527	2.46539
854.902	2.70731
858.277	2.64216
861.651	3.24816
865.026	3.41022
868.401	3.06813
871.776	2.94579
875.151	3.10243
878.525	2.23696
881.9	1.92479
885.275	1.41881
888.65	1.20025
892.025	0.747613
895.399	0.737148
898.774	0.356523
902.149	0.053339
905.524	0.24296
908.899	0.443229
912.274	0.872059
915.649	0.280266
919.023	0.702295
922.398	0.198553
925.773	0.674117
929.148	1.39681
932.523	2.35317
935.897	3.88623
939.272	6.74854
942.647	11.2888
946.022	18.9963
949.397	34.504
952.771	77.5293
956.146	170.87
959.521	274.715
962.896	452.171
966.271	645.242
969.646	390.736
973.02	138.765
976.395	65.1872
979.77	37.4706
983.145	23.2129
986.52	16.6943
989.894	12.6039
993.269	9.95638
996.644	7.8741
1000.02	6.70748
1003.39	5.52862
1006.77	4.51275
1010.14	4.44272
1013.52	3.67562
1016.89	3.86662
1020.27	2.55496
1023.64	1.16536
1027.02	0.851097
1030.39	0.414499
1033.77	0.67201
1037.14	0.611286
1040.52	1.15501
1043.89	2.4912
1047.27	2.39732
1050.64	2.28657
1054.02	1.53393
1057.39	0.034716
1060.77	0.201929
1064.14	0.878382
1067.52	0.054684
1070.89	0.867559
1074.27	1.95098
1077.64	3.13826
1081.02	3.33493
1084.39	3.85522
1087.76	3.13676
1091.14	2.28867
1094.51	1.28946
1097.89	0.953693
1101.26	0.690359
1104.64	0.867252
1108.01	0.82712
1111.39	1.00058
1114.76	2.11415
1118.14	3.36926
1121.51	5.93195
1124.89	10.0043
1128.26	16.4647
1131.64	24.8487
1135.01	36.0035
1138.39	44.1268
1141.76	38.7172
1145.14	21.9085
1148.51	10.1873
1151.89	5.14609
1155.26	1.61882
1158.64	0.225709
1162.01	0.103017
1165.38	0.089987
1168.76	0.094072
1172.13	0.009215
1175.51	0.043586
1178.88	0.393171
1182.26	0.234527
1185.63	0.104925
1189.01	0.755246
1192.38	0.678645
1195.76	0.73796
1199.13	0.929095
1202.51	0.540642
1205.88	0.748768
1209.26	1.265
1212.63	1.97993
1216.01	1.57855
1219.38	1.86995
1222.76	1.35606
1226.13	0.839192
1229.51	0.578434
1232.88	0.822284
1236.26	0.645229
1239.63	0.725288
1243.01	1.12602
1246.38	1.01533
1249.76	1.15906
1253.13	0.838778
1256.51	0.74294
1259.88	0.541539
1263.26	0.897647
1266.63	0.696571
1270.01	0.420097
1273.38	0.641686
1276.75	0.379785
1280.13	0.305186
1283.5	0.259981
1286.88	0.722819
1290.25	0.488795
1293.63	0.010074
1297	0.179438
1300.38	0.096958
