Measurement: Raman, 532 nm, unoriented, Raman Data RAW
Mineral: Linarite
Rruff sample: R060472
Ideal chemistry: PbCuSO_4_(OH)_2_
Locality: Tiger, Arizona, USA
Source: Michael Scott
Description: Blue tabular crystals
Measured chemistry: Pb_1.00_Cu_1.00_(S_1.00_O_4_)(OH)_2_
Raman shift (cm-1)	intensity
153.71	0
156.603	4.24249
159.496	8.89018
162.388	15.4269
165.281	16.8118
168.174	16.2173
171.067	11.4054
173.959	8.8297
176.852	5.45099
179.745	3.93364
182.637	2.89765
185.53	1.10737
188.423	0.559561
191.315	1.96716
194.208	0.187212
197.101	0.447628
199.994	1.7467
202.886	0.421802
205.779	0.158337
208.672	0.136988
211.565	0.415011
214.457	1.14167
217.35	2.33547
220.243	3.18467
223.135	4.89584
226.028	8.1539
228.921	10.8871
231.813	12.2087
234.706	9.51697
237.599	6.65578
240.492	5.46184
243.384	3.06443
246.277	2.20368
249.17	3.25837
252.062	2.22184
254.955	1.25854
257.848	1.27522
260.74	0.961902
263.633	1.29576
266.526	0.784319
269.418	1.38613
272.311	1.77252
275.204	0.794511
278.097	1.09101
280.989	2.09932
283.882	0.599956
286.775	0.752509
289.667	0.38517
292.56	0.233388
295.453	0.64388
298.346	0.714435
301.238	1.66271
304.131	0.065661
307.024	1.09145
309.916	0.831028
312.809	0.243231
315.702	0.434659
318.594	1.93117
321.487	0.511618
324.38	0.979766
327.273	1.67208
330.165	2.75288
333.058	0.814645
335.951	3.54354
338.843	3.32661
341.736	4.56931
344.629	5.55132
347.522	6.87953
350.414	7.54442
353.307	10.0971
356.2	13.446
359.092	15.7973
361.985	20.7071
364.878	25.3308
367.77	26.3181
370.663	21.56
373.556	13.5068
376.449	7.39481
379.341	5.41702
382.234	2.28717
385.127	3.28124
388.019	2.54822
390.912	3.14548
393.805	1.83849
396.697	0.639073
399.59	0.303697
402.483	0.725629
405.376	0.831355
408.268	0.842348
411.161	0.28128
414.054	0.141032
416.946	0.129394
419.839	1.29058
422.732	2.2368
425.625	4.88609
428.517	8.37211
431.41	14.2532
434.303	23.1019
437.195	30.7858
440.088	19.4278
442.981	5.70354
445.873	2.10486
448.766	1.28031
451.659	2.48039
454.551	5.164
457.444	8.73694
460.337	14.4303
463.23	17.8281
466.122	6.7618
469.015	2.41562
471.908	0.311302
474.8	0.39391
477.693	0.961775
480.586	0.73153
483.479	1.71248
486.371	2.03879
489.264	2.39473
492.157	4.29245
495.049	6.49846
497.942	9.96114
500.835	15.6288
503.728	23.1922
506.62	33.9711
509.513	47.4101
512.406	61.6241
515.298	61.589
518.191	41.5005
521.084	20.0801
523.976	12.3274
526.869	7.40735
529.762	5.07497
532.654	2.88796
535.547	1.4283
538.44	1.33553
541.333	0.914145
544.225	1.09329
547.118	0.480622
550.011	0.11164
552.903	0.80994
555.796	0.372671
558.689	0.565502
561.582	0.037962
564.474	0.314373
567.367	0.820547
570.26	0.25204
573.152	1.2853
576.045	1.46509
578.938	0.137822
581.83	1.39303
584.723	0.219964
587.616	1.04041
590.509	4.3092
593.401	4.82417
596.294	6.2412
599.187	4.58973
602.079	4.52653
604.972	6.62123
607.865	10.0383
610.758	14.3824
613.65	11.1922
616.543	9.59053
619.436	14.7618
622.328	23.4413
625.221	38.6069
628.114	60.8414
631.006	90.0894
633.899	99.5192
636.792	45.9876
639.684	18.3671
642.577	9.68804
645.47	6.9499
648.363	4.27294
651.255	3.09176
654.148	2.43982
657.041	2.05335
659.933	1.13529
662.826	1.65075
665.719	0.805191
668.612	0.412102
671.504	1.65135
674.397	0.593121
677.29	0.273757
680.182	0.499768
683.075	0.366621
685.968	0.16962
688.861	0.171877
691.753	0.351238
694.646	0.521844
697.539	0.236566
700.431	0.08902
703.324	0.217817
706.217	0.89139
709.109	1.88673
712.002	1.71358
714.895	0.858506
717.788	0.738053
720.68	1.67067
723.573	0.863259
726.466	1.47962
729.358	1.3168
732.251	1.25447
735.144	1.03228
738.036	1.20375
740.929	1.12119
743.822	0.532496
746.715	2.75669
749.607	1.51749
752.5	0.184706
755.393	1.41489
758.285	0.979918
761.178	0.796601
764.071	1.38875
766.963	1.77983
769.856	1.49029
772.749	0.601778
775.642	2.16106
778.534	0.964452
781.427	0.357727
784.32	0.81695
787.212	1.4678
790.105	1.72382
792.998	0.112763
795.89	1.52551
798.783	0.278175
801.676	1.91718
804.569	1.75791
807.461	1.72275
810.354	1.90347
813.247	2.85561
816.139	1.91994
819.032	1.04152
821.925	1.40635
824.818	0.577505
827.71	0.536157
830.603	1.08586
833.496	0.826272
836.388	0.309169
839.281	0.3902
842.174	0.656396
845.067	1.18678
847.959	0.717977
850.852	1.12491
853.745	1.3349
856.637	0.734396
859.53	1.63716
862.423	0.962391
865.315	2.44346
868.208	0.728467
871.101	0.620718
873.994	0.563711
876.886	0.152008
879.779	0.484527
882.672	2.52777
885.564	1.00722
888.457	1.48525
891.35	1.54002
894.242	1.16782
897.135	0.189307
900.028	0.07188
902.92	0.630864
905.813	0.811215
908.706	0.516589
911.599	0.45508
914.491	1.06858
917.384	0.661907
920.277	0.258589
923.169	0.094182
926.062	1.11436
928.955	0.975269
931.847	1.55118
934.74	2.55052
937.633	1.5945
940.526	1.6724
943.418	3.00764
946.311	3.50985
949.204	6.16492
952.096	10.0974
954.989	16.4327
957.882	35.0919
960.775	60.9224
963.667	106.218
966.56	183.079
969.453	209.507
972.345	97.2478
975.238	39.5037
978.131	20.6528
981.024	13.2749
983.916	7.65337
986.809	5.59304
989.702	3.89598
992.594	2.34403
995.487	2.25788
998.38	1.66878
1001.27	1.79341
1004.16	1.15108
1007.06	1.75327
1009.95	1.398
1012.84	1.09682
1015.74	1.3372
1018.63	1.04901
1021.52	0.273237
1024.41	0.190276
1027.31	0.036505
1030.2	0.103798
1033.09	0.50807
1035.98	0.766834
1038.88	0.150514
1041.77	0.172113
1044.66	1.52671
1047.56	1.87166
1050.45	1.28075
1053.34	1.7549
1056.23	1.14353
1059.13	1.39767
1062.02	0.756361
1064.91	0.546044
1067.81	0.586433
1070.7	0.096327
1073.59	0.122738
1076.48	2.45821
1079.38	2.09255
1082.27	1.53277
1085.16	3.98192
1088.05	1.7968
1090.95	0.94836
1093.84	1.82073
1096.73	1.37204
1099.62	0.726584
1102.52	0.924478
1105.41	0.202641
1108.3	0.631378
1111.19	0.750247
1114.09	2.34638
1116.98	2.95207
1119.87	0.721337
1122.77	1.49264
1125.66	3.95987
1128.55	3.83029
1131.44	5.70287
1134.34	6.67244
1137.23	11.055
1140.12	13.3016
1143.02	13.7003
1145.91	8.95952
1148.8	4.04196
1151.69	2.24947
1154.59	0.714668
1157.48	0.533971
1160.37	0.874679
1163.26	0.845174
1166.16	0.501789
1169.05	0.23266
1171.94	0.495367
1174.84	0.216084
1177.73	0.433469
1180.62	0.761404
1183.51	0.181414
1186.4	0.663246
1189.3	0.505252
1192.19	1.15207
1195.08	0.270691
1197.98	0.928423
1200.87	1.01657
1203.76	0.221785
1206.65	0.095394
1209.55	0.945407
1212.44	1.38908
1215.33	0.63344
1218.22	0.964601
1221.12	1.01558
1224.01	0.628484
1226.9	0.816851
1229.8	0.577069
1232.69	0.296385
1235.58	0.663637
1238.47	0.193537
1241.37	0.023825
1244.26	1.86329
1247.15	2.42453
1250.05	0.170136
1252.94	1.36437
1255.83	3.09456
1258.72	1.59215
1261.62	1.57133
1264.51	1.78293
1267.4	1.32132
1270.29	3.15023
1273.19	2.34751
1276.08	3.39029
1278.97	3.67584
1281.87	2.59062
1284.76	4.5988
1287.65	6.26055
1290.54	7.95825
1293.43	9.17088
1296.33	12.5541
1299.22	17.3215
1302.11	0.133688
