Measurement: Raman, 780 nm, unoriented, Raman Data Processed
Mineral: Linarite
Rruff sample: R120094
Ideal chemistry: PbCuSO_4_(OH)_2_
Locality: Daoping mine, Guangxi, China
Source: Michael Scott
Description: Massive crystalline blebs associated with cerussite, dundasite R060760, and anglesite
Raman shift (cm-1)	intensity
119.084	0
122.459	13.0809
125.834	14.795
129.209	12.5473
132.583	1.78334
135.958	1.07631
139.333	4.70848
142.708	8.65991
146.083	14.4568
149.458	16.6747
152.832	21.0943
156.207	14.8208
159.582	9.08492
162.957	4.25963
166.332	2.41858
169.706	1.87759
173.081	2.49611
176.456	0.918839
179.831	0.246841
183.206	0.364136
186.581	3.26572
189.955	1.70654
193.33	1.39831
196.705	0.628685
200.08	0.818886
203.455	1.18955
206.829	3.85013
210.204	7.7289
213.579	11.4514
216.954	12.7996
220.329	13.3008
223.703	17.5391
227.078	15.8804
230.453	13.7931
233.828	12.8374
237.203	10.2085
240.578	12.9873
243.952	10.5663
247.327	9.1889
250.702	6.74166
254.077	6.67519
257.452	6.69928
260.827	4.43165
264.201	3.47395
267.576	1.07361
270.951	1.39222
274.326	0.722397
277.701	2.59384
281.075	0.59079
284.45	0.02005
287.825	2.33738
291.2	0.752045
294.575	1.74332
297.95	1.78037
301.324	0.062103
304.699	2.37017
308.074	3.81095
311.449	6.07116
314.824	6.61192
318.198	9.27062
321.573	15.1921
324.948	21.3115
328.323	27.6551
331.698	37.2677
335.072	50.8982
338.447	60.8941
341.822	64.84
345.197	55.8525
348.572	45.7314
351.947	42.4626
355.321	42.0452
358.696	39.9359
362.071	37.7505
365.446	27.7609
368.821	16.4192
372.195	11.7224
375.57	6.34794
378.945	2.90626
382.32	2.56226
385.695	0.50135
389.07	2.00291
392.444	0.580185
395.819	1.29112
399.194	0.129772
402.569	0.487808
405.944	1.77557
409.318	2.45356
412.693	2.96967
416.068	5.86013
419.443	10.1723
422.818	15.0833
426.192	24.0362
429.567	34.9669
432.942	49.667
436.317	50.5051
439.692	26.0384
443.067	14.4972
446.441	14.3338
449.816	16.5657
453.191	27.7009
456.566	46.9724
459.941	50.7922
463.315	25.728
466.69	8.51277
470.065	2.42373
473.44	3.13747
476.815	1.68434
480.19	3.0965
483.564	5.32602
486.939	6.65383
490.314	12.139
493.689	18.31
497.064	26.7786
500.438	39.0138
503.813	55.6079
507.188	62.2876
510.563	59.1412
513.938	46.1375
517.313	25.9387
520.687	15.2517
524.062	8.50141
527.437	4.34286
530.812	3.50882
534.187	2.25788
537.562	1.56814
540.936	0.556576
544.311	0.499275
547.686	0.343967
551.061	0.313026
554.436	0.107513
557.81	0.35928
561.185	1.14959
564.56	0.687996
567.935	0.658432
571.31	0.291702
574.684	0.840656
578.059	1.41119
581.434	4.79739
584.809	7.0406
588.184	10.9432
591.558	17.3358
594.933	24.6848
598.308	19.6507
601.683	16.2843
605.058	19.7284
608.433	27.8146
611.807	26.934
615.182	15.748
618.557	14.8681
621.932	19.9126
625.307	31.2014
628.682	44.8274
632.056	36.5489
635.431	15.9576
638.806	8.34355
642.181	3.57541
645.556	3.03838
648.93	3.29569
652.305	2.26141
655.68	2.40255
659.055	1.54971
662.43	1.63072
665.804	1.72864
669.179	3.86986
672.554	3.4752
675.929	4.6425
679.304	5.52036
682.679	5.37111
686.053	2.44589
689.428	0.203716
692.803	3.2452
696.178	1.12776
699.553	0.291054
702.928	2.28639
706.302	0.20393
709.677	0.338554
713.052	0.642105
716.427	1.17107
719.802	1.45843
723.176	1.25397
726.551	1.70989
729.926	0.072453
733.301	0.130024
736.676	1.36922
740.051	1.36142
743.425	2.34222
746.8	1.64461
750.175	3.03847
753.55	2.13058
756.925	5.17797
760.299	4.4459
763.674	3.78681
767.049	2.39823
770.424	2.02854
773.799	4.97509
777.173	4.11177
780.548	5.89304
783.923	7.20655
787.298	5.75631
790.673	7.94927
794.048	7.46036
797.422	11.3993
800.797	11.683
804.172	11.45
807.547	11.5564
810.922	8.87181
814.296	10.4414
817.671	8.51121
821.046	7.09939
824.421	5.85485
827.796	6.70325
831.17	4.83579
834.545	4.95955
837.92	5.21883
841.295	2.63075
844.67	3.30087
848.045	5.71752
851.419	4.55244
854.794	2.96305
858.169	4.87835
861.544	2.98482
864.919	3.86594
868.293	3.83766
871.668	3.74029
875.043	3.67913
878.418	3.33665
881.793	1.81946
885.168	2.17779
888.542	1.2026
891.917	0.379009
895.292	0.022923
898.667	0.177605
902.042	0.25246
905.417	1.50707
908.791	0.381355
912.166	1.20093
915.541	2.1103
918.916	0.649326
922.291	1.58499
925.665	2.70147
929.04	4.91652
932.415	7.93298
935.79	12.142
939.165	16.5466
942.539	27.1653
945.914	43.8469
949.289	77.8998
952.664	142.497
956.039	248.965
959.414	395.195
962.788	613.477
966.163	723.245
969.538	440.596
972.913	200.638
976.288	100.914
979.663	62.0493
983.037	40.482
986.412	27.1364
989.787	21.0721
993.162	17.1545
996.537	11.4468
999.911	8.03472
1003.29	8.2362
1006.66	5.40039
1010.04	7.24802
1013.41	5.7491
1016.78	5.34685
1020.16	5.77708
1023.53	5.00286
1026.91	6.95842
1030.29	8.13416
1033.66	3.79345
1037.03	2.65721
1040.41	3.75997
1043.78	1.2784
1047.16	3.52033
1050.53	1.23021
1053.91	1.12819
1057.28	0.075577
1060.66	0.016087
1064.03	1.38165
1067.41	0.314751
1070.78	1.20874
1074.16	0.936771
1077.53	1.48619
1080.91	0.152832
1084.28	0.253021
1087.66	1.61252
1091.03	2.75101
1094.41	3.93926
1097.78	7.37162
1101.16	8.19334
1104.53	9.5216
1107.91	9.26791
1111.28	11.5275
1114.65	14.4867
1118.03	18.7444
1121.4	25.5578
1124.78	39.5265
1128.15	55.0309
1131.53	72.8986
1134.9	90.8623
1138.28	92.4974
1141.65	78.0287
1145.03	54.2383
1148.4	37.8394
1151.78	23.1996
1155.15	13.0443
1158.53	12.308
1161.9	9.19247
1165.28	6.92842
1168.65	8.32778
1172.03	8.36334
1175.4	8.18604
1178.78	5.58469
1182.15	5.87758
1185.53	4.14334
1188.9	5.32205
1192.28	3.44884
1195.65	2.28864
1199.03	1.49494
1202.4	0.52887
1205.78	1.34451
1209.15	0.880463
1212.53	0.284805
1215.9	0.231567
1219.27	2.19976
1222.65	0.447243
1226.02	0.347366
1229.4	0.005188
1232.77	0.977959
1236.15	4.21994
1239.52	5.15853
1242.9	7.01658
1246.27	9.17265
1249.65	8.34632
1253.02	12.3609
1256.4	9.06393
1259.77	9.98157
1263.15	7.83385
1266.52	11.0437
1269.9	8.22473
1273.27	7.50618
1276.65	3.69601
1280.02	1.51468
1283.4	0.540955
