Measurement: Raman, 532 nm, unoriented, Raman Data Processed
Mineral: Lindgrenite
Rruff sample: R060241
Ideal chemistry: Cu_3_(Mo^6+^O_4_)_2_(OH)_2_
Locality: San Samuel mine, Carrera Pinto, Chile
Source: Rock Currier
Description: Dark green tabular crystals associated with antlerite, pseudomalachite, albite, dravite and monazite
Measured chemistry: Cu_3.00_(Mo^6+^_1.00_O_4_)_2_((OH)_1.98_Cl_0.02_)_Î£=2_
Raman shift (cm-1)	intensity
89.6035	0
92.9783	5.11778
96.3531	58.9731
99.728	131.256
103.103	188.095
106.478	201.199
109.852	97.3362
113.227	22.0495
116.602	10.8194
119.977	26.4027
123.352	45.6162
126.727	537.327
130.101	814.089
133.476	492.063
136.851	523.598
140.226	831.3
143.601	1363.06
146.975	1882.71
150.35	2449.76
153.725	3712.31
157.1	6392.46
160.475	9859.47
163.85	10584.3
167.224	10354.4
170.599	14943.4
173.974	22848.1
177.349	16365.1
180.724	6867.91
184.098	4245.61
187.473	3762.48
190.848	4367.26
194.223	5016.68
197.598	4435.2
200.972	4700.66
204.347	6238.15
207.722	7579.8
211.097	7390.35
214.472	8886.22
217.846	9237.82
221.221	5198.67
224.596	2318.12
227.971	1005.8
231.346	271.495
234.721	81.1003
238.095	221.225
241.47	239.655
244.845	33.7903
248.22	520.097
251.595	1489.71
254.97	1605.21
258.344	463.534
261.719	297.321
265.094	361.824
268.469	52.8374
271.844	258.849
275.218	752.964
278.593	1928.09
281.968	4496.85
285.343	9338.35
288.718	13908.2
292.092	12797.2
295.467	13076.8
298.842	19023.2
302.217	31102.3
305.592	34858.5
308.967	19799.8
312.341	15904.8
315.716	12780.3
319.091	6049.96
322.466	2717.23
325.841	2705.38
329.216	4477.76
332.59	7947.7
335.965	12611
339.34	15775.2
342.715	14774.8
346.09	13519
349.464	12507.7
352.839	11604.2
356.214	13301.6
359.589	16825.7
362.964	17512.6
366.339	11686.9
369.713	5899.63
373.088	2796.41
376.463	1302.67
379.838	564.782
383.213	594.905
386.587	1496.74
389.962	3201.69
393.337	5684.86
396.712	9091.4
400.087	12552.6
403.462	13758.4
406.836	12684
410.211	11646.7
413.586	9985.71
416.961	6805.06
420.336	3592.38
423.71	1664.26
427.085	631.04
430.46	85.2991
433.835	168.11
437.21	252.147
440.584	285.5
443.959	237.204
447.334	141.144
450.709	74.8068
454.084	63.4471
457.459	192.862
460.833	309.088
464.208	444.62
467.583	618.677
470.958	825.018
474.333	1123.95
477.707	1450.35
481.082	1880.33
484.457	2434.82
487.832	3100.02
491.207	3849.1
494.582	4421.36
497.956	4581.53
501.331	4113.29
504.706	3256.71
508.081	2319.42
511.456	1696.7
514.83	1262.88
518.205	981.614
521.58	770.812
524.955	627.59
528.33	503.356
531.705	451.891
535.079	375.827
538.454	325.708
541.829	263.075
545.204	196.924
548.579	150.691
551.953	112.928
555.328	71.5295
558.703	19.4425
562.078	13.7161
565.453	17.3179
568.827	16.9944
572.202	14.0769
575.577	8.8139
578.952	11.9247
582.327	16.7971
585.702	12.2844
589.076	64.7981
592.451	30.7069
595.826	39.9642
599.201	41.4154
602.576	52.9346
605.95	22.4921
609.325	1.93579
612.7	26.7297
616.075	38.0372
619.45	7.80725
622.824	14.0269
626.199	28.3631
629.574	23.6259
632.949	34.978
636.324	33.9513
639.699	43.7932
643.073	83.7964
646.448	106.043
649.823	146.791
653.198	114.316
656.573	150.026
659.947	181.777
663.322	186.245
666.697	189.922
670.072	207.397
673.447	236.241
676.822	252.312
680.196	290.454
683.571	320.82
686.946	364.303
690.321	387.429
693.696	464.628
697.071	476.283
700.445	469.033
703.82	408.549
707.195	376.417
710.57	362.269
713.945	319.553
717.319	269.051
720.694	232.635
724.069	185.315
727.444	132.793
730.819	77.8162
734.193	47.9911
737.568	11.7056
740.943	46.8169
744.318	57.9346
747.693	77.6019
751.068	61.9781
754.442	20.1265
757.817	164.386
761.192	475.194
764.567	896.537
767.942	1544.22
771.317	2393.16
774.691	3255.89
778.066	4034.23
781.441	5210.19
784.816	7506.34
788.191	11073.4
791.565	15955.8
794.94	20426.2
798.315	19959.7
801.69	13363
805.065	7591.9
808.439	4255.2
811.814	2390.39
815.189	1360.22
818.564	775.726
821.939	574.357
825.313	770.055
828.688	1477.36
832.063	2835.37
835.438	4780.27
838.813	6962.28
842.188	7849.28
845.562	5740.98
848.937	2763.38
852.312	845.748
855.687	87.8311
859.062	432.846
862.437	362.19
865.811	120.034
869.186	928.102
872.561	2265.96
875.936	3998.37
879.311	5885.48
882.685	7432.26
886.06	7765.09
889.435	6829.4
892.81	6594.25
896.185	7807.98
899.559	9410.12
902.934	9340.08
906.309	7894.08
909.684	7615.94
913.059	9924.4
916.434	17334.8
919.808	38125.3
923.183	72310.5
926.558	134899
929.933	252908
933.308	238531
936.683	74532.4
940.057	27639.8
943.432	13490.8
946.807	7533.89
950.182	4498.2
953.557	2755.9
956.931	1608.65
960.306	838.793
963.681	384.129
967.056	113.435
970.431	55.1736
973.806	476.346
977.18	1316.61
980.555	2796.8
983.93	4809.09
987.305	3729.17
990.68	1037.94
994.054	122.514
997.429	124.017
1000.8	154.717
1004.18	154.936
1007.55	127.208
1010.93	46.5398
1014.3	0.133545
1017.68	52.2825
1021.05	102.721
1024.43	188.146
1027.8	270.508
1031.18	308.035
1034.55	356.641
1037.93	450.285
1041.3	487.224
1044.68	505.438
1048.05	538.207
1051.43	562.958
1054.8	599.638
1058.18	540.584
1061.55	473.716
1064.93	424.154
1068.3	351.714
1071.67	295.723
1075.05	253.856
1078.42	206.638
1081.8	235.425
1085.17	202.179
1088.55	205.08
1091.92	204.831
1095.3	181.149
1098.67	180.394
1102.05	165.423
1105.42	147.57
1108.8	141.689
1112.17	146.621
1115.55	130.405
1118.92	122.454
1122.3	89.9566
1125.67	88.3296
1129.05	85.7214
1132.42	97.3221
1135.8	91.3986
1139.17	90.9269
1142.55	49.66
1145.92	62.9366
1149.3	48.4922
1152.67	47.8351
1156.05	28.1775
1159.42	22.0201
1162.8	36.3919
1166.17	21.4888
1169.55	1.53982
1172.92	32.5205
1176.29	22.6321
1179.67	7.53751
1183.04	9.36813
1186.42	1.97568
1189.79	16.5314
1193.17	3.39838
1196.54	7.28323
1199.92	5.87344
1203.29	21.267
1206.67	0.877258
1210.04	27.8237
1213.42	6.85452
1216.79	31.5541
1220.17	27.4349
1223.54	12.3263
1226.92	46.1728
1230.29	53.9875
1233.67	41.9334
1237.04	40.3002
1240.42	42.4008
1243.79	31.8883
1247.17	48.6419
1250.54	49.4113
1253.91	39.6299
1257.29	49.4256
1260.66	55.1624
1264.04	45.3523
1267.41	19.8617
1270.79	15.971
1274.16	21.9459
1277.54	39.6824
1280.91	8.14267
1284.29	4.9061
1287.66	20.1829
1291.04	21.7253
1294.41	15.0044
1297.79	23.4677
1301.16	8.00827
