Measurement: Raman, 532 nm, unoriented, Raman Data Processed
Mineral: Lindgrenite
Rruff sample: R050213
Ideal chemistry: Cu_3_(Mo^6+^O_4_)_2_(OH)_2_
Locality: Chuquicamata mine, Calama, Antofagasta Province, Chile
Source: John Dagenais
Description: Green tabular single crystals
Measured chemistry: (Cu_2.99_Fe_0.01_)_Î£=3.00_(Mo^6+^_1.00_O_4_)_2_(OH)_2.00_ ; OH not measured but estimated by difference and charge balance
Raman shift (cm-1)	intensity
93.7461	0
97.1209	10.1199
100.496	1.84542
103.871	25.5531
107.245	114.687
110.62	113.299
113.995	29.2121
117.37	28.7707
120.745	65.0619
124.119	102.798
127.494	207.111
130.869	176.318
134.244	80.0293
137.619	53.2035
140.994	84.541
144.368	164.318
147.743	253.31
151.118	297.732
154.493	489.064
157.868	810.569
161.242	1147.02
164.617	1185.25
167.992	1216.23
171.367	1683.16
174.742	2250.86
178.117	1505.61
181.491	707.066
184.866	413.65
188.241	344.245
191.616	384.407
194.991	442.213
198.365	416.296
201.74	461.26
205.115	595.037
208.49	677.866
211.865	682.227
215.239	816.782
218.614	739.74
221.989	399.687
225.364	172.746
228.739	48.5604
232.113	10.1165
235.488	25.9084
238.863	13.6246
242.238	10.5495
245.613	60.463
248.988	177.077
252.362	293.592
255.737	282.734
259.112	122.3
262.487	1.28455
265.862	44.3851
269.236	43.5466
272.611	18.1331
275.986	28.2535
279.361	127.952
282.736	322.496
286.111	668.604
289.485	971.831
292.86	960.89
296.235	1017.42
299.61	1364.44
302.985	2054.24
306.36	2318.61
309.734	1693.21
313.109	1475.42
316.484	1226.59
319.859	787.537
323.234	577.681
326.608	597.509
329.983	802.506
333.358	1144.66
336.733	1544.48
340.108	1761.24
343.483	1671.97
346.857	1511.33
350.232	1305.94
353.607	1176.25
356.982	1184.38
360.356	1233.29
363.731	1086.64
367.106	692.959
370.481	370.219
373.856	188.58
377.231	115.576
380.605	94.9423
383.98	162.195
387.355	293.463
390.73	466.889
394.105	703.14
397.479	962.522
400.854	1127.09
404.229	1070.62
407.604	900.676
410.979	727.209
414.354	556.386
417.728	354.265
421.103	183.625
424.478	80.6294
427.853	19.6782
431.228	9.71176
434.603	21.2689
437.977	22.9389
441.352	27.1821
444.727	21.0253
448.102	12.1838
451.477	1.76616
454.851	10.6958
458.226	22.3818
461.601	38.9168
464.976	59.2176
468.351	77.5456
471.726	104.198
475.1	138.877
478.475	176.038
481.85	224.996
485.225	284.995
488.599	341.072
491.974	392.196
495.349	420.769
498.724	405.763
502.099	360.027
505.474	287.325
508.848	213.683
512.223	165.544
515.598	124.476
518.973	96.2865
522.348	74.1609
525.722	65.8349
529.097	49.8897
532.472	41.4072
535.847	36.6957
539.222	29.4677
542.597	26.1952
545.971	16.4498
549.346	10.7739
552.721	8.08824
556.096	2.14516
559.471	1.31148
562.846	1.57788
566.22	2.87284
569.595	3.95954
572.97	2.36674
576.345	1.10888
579.72	1.19852
583.094	3.38178
586.469	3.05557
589.844	6.83176
593.219	8.89534
596.594	9.46876
599.968	8.27056
603.343	11.8742
606.718	10.8714
610.093	13.288
613.468	9.42002
616.842	10.7942
620.217	10.3711
623.592	14.185
626.967	14.4732
630.342	15.9308
633.717	17.959
637.091	16.6019
640.466	21.7266
643.841	25.4725
647.216	28.8489
650.591	33.4186
653.966	32.2403
657.34	38.7169
660.715	40.1306
664.09	43.3246
667.465	45.3256
670.84	49.036
674.214	52.9579
677.589	57.3951
680.964	65.9432
684.339	71.84
687.714	81.7095
691.088	84.0591
694.463	91.8171
697.838	85.9792
701.213	78.448
704.588	73.7616
707.963	69.0435
711.337	58.1681
714.712	51.2746
718.087	44.928
721.462	38.2811
724.837	25.4085
728.212	18.794
731.586	8.04385
734.961	2.65166
738.336	8.91624
741.711	13.736
745.086	17.3161
748.46	12.4018
751.835	1.25528
755.21	17.5092
758.585	65.3901
761.96	125.982
765.335	215.196
768.709	333.215
772.084	456.756
775.459	562.489
778.834	665.513
782.209	787.587
785.583	1014.02
788.958	1351.28
792.333	1764.52
795.708	2026.72
799.083	1871.72
802.457	1344.16
805.832	861.52
809.207	543.023
812.582	348.474
815.957	242.528
819.332	195.836
822.706	201.742
826.081	291.124
829.456	451.209
832.831	667.145
836.206	925.387
839.58	1095.77
842.955	1015.56
846.33	675.132
849.705	325.111
853.08	86.7267
856.455	24.2325
859.829	62.0277
863.204	28.9033
866.579	59.7117
869.954	193.768
873.329	404.737
876.703	616.644
880.078	836.529
883.453	980.147
886.828	1005.81
890.203	987.777
893.577	1017.28
896.952	1062.19
900.327	998.237
903.702	838.218
907.077	759.571
910.452	879.65
913.826	1414.72
917.201	2865.09
920.576	5679.49
923.951	9019.92
927.326	15604.5
930.7	24370.7
934.075	18209.7
937.45	6727.62
940.825	2831.39
944.2	1453.25
947.574	813.053
950.949	478.605
954.324	284.483
957.699	158.824
961.074	84.3516
964.449	25.7703
967.823	9.85193
971.198	6.86472
974.573	15.4242
977.948	66.694
981.323	156.907
984.697	206.164
988.072	90.1537
991.447	0.149292
994.822	18.7855
998.197	20.7938
1001.57	11.5176
1004.95	3.83546
1008.32	4.90903
1011.7	16.8771
1015.07	25.8797
1018.45	35.6658
1021.82	47.3563
1025.19	53.915
1028.57	61.3927
1031.94	69.792
1035.32	78.3323
1038.69	83.8769
1042.07	89.3098
1045.44	93.4217
1048.82	96.7657
1052.19	94.2725
1055.57	80.8802
1058.94	69.5324
1062.32	59.6543
1065.69	51.7899
1069.07	45.3937
1072.44	44.9475
1075.82	39.0918
1079.19	37.8876
1082.57	36.3265
1085.94	33.3102
1089.32	29.9321
1092.69	29.0205
1096.07	27.8771
1099.44	26.2202
1102.82	21.5012
1106.19	21.998
1109.57	20.266
1112.94	17.163
1116.32	14.666
1119.69	13.9347
1123.07	13.4434
1126.44	13.2372
1129.82	11.1605
1133.19	12.0409
1136.56	10.9318
1139.94	10.7212
1143.31	8.90315
1146.69	6.78846
1150.06	7.30124
1153.44	4.45705
1156.81	4.63771
1160.19	2.10898
1163.56	1.7363
1166.94	2.50575
1170.31	0.725639
1173.69	0.69738
1177.06	2.52058
1180.44	1.41185
1183.81	1.51231
1187.19	3.0528
1190.56	1.51779
1193.94	0.732857
1197.31	0.069107
1200.69	1.51629
1204.06	0.594505
1207.43	0.716503
1210.81	1.60585
1214.18	0.820465
1217.56	3.38686
1220.93	2.74195
1224.31	2.53024
1227.68	5.13337
1231.06	5.28907
1234.43	4.56134
1237.81	3.40704
1241.18	2.76575
1244.56	3.3275
1247.93	4.46178
1251.31	3.62827
1254.68	3.2474
1258.06	2.65815
1261.43	2.29421
1264.81	0.547249
1268.18	1.49979
1271.56	2.55947
1274.93	1.04633
1278.31	0.680946
1281.68	2.69481
1285.06	2.44978
1288.43	1.10239
1291.81	0.50806
1295.18	2.15821
1298.56	2.83242
1301.93	1.06041
1305.31	0.875961
