Measurement: Raman, 780 nm, unoriented, Raman Data Processed
Mineral: Lindgrenite
Rruff sample: R110061
Ideal chemistry: Cu_3_(Mo^6+^O_4_)_2_(OH)_2_
Locality: Childs Aldwinkle mine, Copper Creek, Pinal County, Arizona, USA
Source: Ron Gibbs
Description: Pale green needles
Raman shift (cm-1)	intensity
156.207	0
159.1	8.22348
161.993	5.95267
164.885	18.9084
167.778	35.1004
170.671	57.5154
173.563	57.6433
176.456	30.6164
179.349	9.93652
182.242	8.12097
185.134	4.35992
188.027	13.1829
190.92	28.7821
193.812	40.1477
196.705	34.9772
199.598	32.773
202.49	34.5292
205.383	38.6679
208.276	35.5883
211.168	47.3773
214.061	38.3675
216.954	25.4611
219.847	16.4149
222.739	5.71619
225.632	2.51767
228.525	8.03223
231.417	8.60278
234.31	2.47797
237.203	0.155914
240.095	1.97189
242.988	4.45047
245.881	16.1717
248.774	16.0178
251.666	22.6281
254.559	20.1781
257.452	14.1747
260.344	0.747803
263.237	2.35599
266.13	4.30991
269.022	6.45526
271.915	16.6858
274.808	21.6836
277.701	42.4864
280.593	66.5634
283.486	101.174
286.379	145.506
289.271	163.422
292.164	188.684
295.057	219.429
297.95	281.017
300.842	358.51
303.735	403.371
306.628	349.413
309.52	267.259
312.413	207.18
315.306	164.312
318.198	131.896
321.091	116.045
323.984	116.164
326.877	134.04
329.769	148.035
332.662	181.648
335.555	195.371
338.447	188.035
341.34	178.027
344.233	155.945
347.125	139.855
350.018	120.093
352.911	99.3978
355.803	96.3415
358.696	88.9603
361.589	69.6027
364.482	54.2595
367.374	35.1529
370.267	20.4935
373.16	16.103
376.052	9.08942
378.945	12.637
381.838	9.50626
384.731	15.4381
387.623	30.6507
390.516	39.2076
393.409	47.1293
396.301	55.4146
399.194	58.1941
402.087	55.4378
404.979	48.7981
407.872	41.408
410.765	37.3939
413.658	19.3521
416.55	14.2173
419.443	5.13742
422.336	0.790588
425.228	5.41147
428.121	3.42886
431.014	0.301666
433.906	1.22847
436.799	1.42961
439.692	2.95506
442.584	4.56255
445.477	3.21368
448.37	0.984863
451.263	5.89978
454.155	7.44882
457.048	6.48004
459.941	10.9481
462.833	19.9372
465.726	19.3579
468.619	18.8994
471.512	24.7478
474.404	27.4123
477.297	35.2237
480.19	36.3158
483.082	44.47
485.975	39.5593
488.868	44.9367
491.76	47.4881
494.653	46.914
497.546	36.9285
500.438	29.061
503.331	26.5543
506.224	25.1842
509.117	23.4302
512.009	17.3354
514.902	10.3396
517.795	14.1483
520.687	4.2298
523.58	5.98537
526.473	4.77184
529.365	9.78807
532.258	7.12959
535.151	6.85318
538.044	0.071381
540.936	4.05034
543.829	2.46709
546.722	0.16394
549.614	2.03752
552.507	2.82665
555.4	2.763
558.293	3.66153
561.185	6.61233
564.078	5.99834
566.971	0.116348
569.863	1.4232
572.756	3.61919
575.649	5.90535
578.541	3.67339
581.434	0.367432
584.327	1.70532
587.22	1.1956
590.112	4.74309
593.005	5.72769
595.898	0.681747
598.79	3.69037
601.683	3.58623
604.576	5.77643
607.468	3.46307
610.361	5.30484
613.254	6.55183
616.146	4.42123
619.039	6.99532
621.932	6.23578
624.825	3.67688
627.717	1.19486
630.61	1.89696
633.503	7.87808
636.395	11.3588
639.288	6.81345
642.181	4.1239
645.073	2.30122
647.966	7.02124
650.859	4.66632
653.752	10.6284
656.644	2.63286
659.537	5.66058
662.43	8.57457
665.322	5.32617
668.215	7.562
671.108	7.22992
674	8.76314
676.893	7.29079
679.786	7.33849
682.679	7.34676
685.571	7.74838
688.464	6.65449
691.357	3.42429
694.25	2.10347
697.142	6.95206
700.035	2.73448
702.928	4.51355
705.82	2.73097
708.713	3.31262
711.606	2.60175
714.498	3.83725
717.391	9.53062
720.284	0.948593
723.177	0.343277
726.069	1.19069
728.962	0.264481
731.855	1.52917
734.747	2.00427
737.64	0.334106
740.533	4.75369
743.425	2.79993
746.318	4.79097
749.211	1.82726
752.104	8.82327
754.996	9.01669
757.889	10.1353
760.782	18.2198
763.674	26.015
766.567	31.808
769.46	41.4451
772.352	47.9951
775.245	53.8034
778.138	54.4871
781.03	63.3294
783.923	68.0141
786.816	75.1757
789.709	85.5149
792.601	87.7169
795.494	88.6569
798.387	72.6987
801.279	56.7257
804.172	47.3354
807.065	34.7493
809.957	25.5017
812.85	12.782
815.743	16.6731
818.636	13.3977
821.528	7.99751
824.421	11.3312
827.314	5.85472
830.206	3.20795
833.099	9.65817
835.992	10.3383
838.885	8.22772
841.777	1.30867
844.67	5.39204
847.563	5.56313
850.455	1.36464
853.348	1.12593
856.241	7.78447
859.133	13.1483
862.026	17.4828
864.919	27.5336
867.812	36.6593
870.704	44.5182
873.597	56.4579
876.49	58.4
879.382	52.8509
882.275	50.3986
885.168	42.392
888.06	38.4965
890.953	31.4432
893.846	26.9008
896.739	21.429
899.631	17.8564
902.524	24.062
905.417	29.1824
908.309	50.1276
911.202	82.3129
914.095	147.775
916.987	261.837
919.88	405.029
922.773	625.612
925.665	921.492
928.558	1087.69
931.451	816.677
934.344	439.921
937.236	228.086
940.129	127.871
943.022	75.54
945.914	47.6269
948.807	32.5781
951.7	16.538
954.592	11.5027
957.485	4.32344
960.378	1.80891
963.271	0.873871
966.163	2.03513
969.056	0.987366
971.949	3.7711
974.841	14.6681
977.734	10.1348
980.627	14.3026
983.519	6.76044
986.412	7.15494
989.305	0.351593
992.198	0.790756
995.09	1.86748
997.983	3.01952
1000.88	2.02827
1003.77	0.907837
1006.66	2.38001
1009.55	6.89828
1012.45	0.699837
1015.34	5.36806
1018.23	7.98457
1021.12	7.70759
1024.02	7.56821
1026.91	7.02257
1029.8	10.4537
1032.69	6.77078
1035.59	5.81078
1038.48	10.0263
1041.37	7.56934
1044.27	10.0272
1047.16	8.60467
1050.05	9.24825
1052.94	12.6303
1055.84	5.82535
1058.73	3.87473
1061.62	9.07965
1064.52	9.42665
1067.41	5.21577
1070.3	5.76756
1073.19	4.10977
1076.09	2.01029
1078.98	9.17585
1081.87	5.30998
1084.76	2.47845
1087.66	6.96366
1090.55	3.91799
1093.44	8.58363
1096.34	0.380058
1099.23	7.13753
1102.12	0.298096
1105.01	3.56301
1107.91	5.51367
1110.8	4.07442
1113.69	5.11581
1116.58	2.61085
1119.48	5.56001
1122.37	5.07323
1125.26	3.31127
1128.15	8.25645
1131.05	6.90826
1133.94	1.68813
1136.83	5.30711
1139.72	4.18756
1142.62	4.19399
1145.51	0.152588
1148.4	0.115974
1151.3	4.74671
1154.19	0.072037
1157.08	5.71692
1159.97	3.12942
1162.87	6.29815
1165.76	2.81576
1168.65	7.25576
1171.55	4.81686
1174.44	5.01759
1177.33	7.28099
1180.22	6.41592
1183.12	10.2157
1186.01	6.69289
1188.9	7.65829
1191.79	5.5274
1194.69	9.15974
1197.58	6.12874
1200.47	3.7701
1203.37	9.43545
1206.26	4.05178
1209.15	1.73211
1212.04	1.74468
1214.94	2.43022
1217.83	5.7449
1220.72	4.10413
1223.61	6.18056
1226.51	4.34435
1229.4	8.39931
1232.29	2.91538
1235.18	9.20203
1238.08	3.32764
1240.97	0.582642
1243.86	4.97227
1246.76	7.37759
1249.65	4.86706
1252.54	5.2676
1255.43	0.292557
1258.33	0.696609
1261.22	5.19449
1264.11	6.22548
1267	2.12784
1269.9	7.06172
1272.79	1.74395
1275.68	3.06974
1278.58	0.172356
1281.47	5.55621
1284.36	2.19686
