Measurement: Raman, 532 nm, unoriented, Raman Data Processed
Mineral: Lindgrenite
Rruff sample: R110061
Ideal chemistry: Cu_3_(Mo^6+^O_4_)_2_(OH)_2_
Locality: Childs Aldwinkle mine, Copper Creek, Pinal County, Arizona, USA
Source: Ron Gibbs
Description: Pale green needles
Raman shift (cm-1)	intensity
158.471	0
161.363	5.236
164.256	14.0519
167.149	30.0799
170.041	70.0176
172.934	148.854
175.827	201.424
178.72	122.991
181.612	53.5042
184.505	27.1252
187.398	22.4357
190.29	26.0948
193.183	39.5908
196.076	43.1482
198.968	46.0511
201.861	56.9413
204.754	71.7503
207.647	82.211
210.539	79.0763
213.432	85.8813
216.325	101.633
219.217	83.9931
222.11	46.5281
225.003	19.7644
227.895	8.64036
230.788	0.30571
233.681	3.08365
236.573	3.04365
239.466	4.26401
242.359	2.94697
245.252	3.12398
248.144	6.96934
251.037	16.959
253.93	23.6253
256.822	18.0018
259.715	5.41257
262.608	0.239334
265.5	3.90245
268.393	0.851784
271.286	4.60355
274.179	7.71333
277.071	14.38
279.964	28.4802
282.857	49.95
285.75	90.8767
288.642	136.628
291.535	144.807
294.428	146.862
297.32	177.004
300.213	258.847
303.106	369.06
305.998	385.614
308.891	255.049
311.784	195.729
314.676	165.85
317.569	114.376
320.462	65.9124
323.355	49.4041
326.247	56.0021
329.14	71.8132
332.033	100.18
334.925	144.906
337.818	184.71
340.711	197.443
343.603	180.6
346.496	160.652
349.389	138.195
352.281	118.559
355.174	106.064
358.067	108.086
360.96	112.286
363.852	101.546
366.745	66.6251
369.638	33.9244
372.53	19.155
375.423	7.21477
378.316	2.39957
381.209	0.417778
384.101	3.98717
386.994	13.3104
389.887	26.5809
392.779	44.5894
395.672	64.4498
398.565	87.8676
401.457	104.392
404.35	104.093
407.243	98.3362
410.135	90.7004
413.028	79.9051
415.921	59.8618
418.814	39.5265
421.706	21.9792
424.599	9.02047
427.492	4.03057
430.384	0.720039
433.277	1.1172
436.17	2.6806
439.062	1.96725
441.955	2.54971
444.848	2.3268
447.741	2.28291
450.633	0.472198
453.526	1.17322
456.419	2.21445
459.311	2.83054
462.204	5.35246
465.097	6.53013
467.99	9.01202
470.882	13.0811
473.775	15.2401
476.668	20.079
479.56	24.8321
482.453	34.0049
485.346	42.1007
488.238	51.4076
491.131	61.286
494.024	68.8445
496.916	73.3073
499.809	69.8611
502.702	61.9051
505.595	47.47
508.487	34.9591
511.38	27.0847
514.273	22.3357
517.165	16.7105
520.058	13.7379
522.951	10.6391
525.844	9.6097
528.736	8.15675
531.629	6.26809
534.522	4.95017
537.414	4.93831
540.307	3.31084
543.2	3.27606
546.092	3.48406
548.985	2.6189
551.878	1.40205
554.771	0.626915
557.663	0.476608
560.556	1.41399
563.449	0.584259
566.341	1.12778
569.234	0.671448
572.127	0.475113
575.019	0.552071
577.912	1.14563
580.805	0.639175
583.697	0.517128
586.59	1.12979
589.483	1.15325
592.376	0.246765
595.268	2.05507
598.161	1.54148
601.054	1.44215
603.946	1.72877
606.839	1.02779
609.732	1.37647
612.625	1.52271
615.517	1.94339
618.41	1.9703
621.303	2.74782
624.195	2.68223
627.088	1.82466
629.981	1.75915
632.873	2.55469
635.766	2.7569
638.659	4.17043
641.552	1.96584
644.444	2.2712
647.337	2.97996
650.23	3.90356
653.122	3.12292
656.015	4.25518
658.908	3.51197
661.8	4.66303
664.693	4.33574
667.586	5.20495
670.479	5.00441
673.371	5.48873
676.264	7.42145
679.157	7.66044
682.049	7.60532
684.942	8.78761
687.835	8.42348
690.727	9.04378
693.62	7.32009
696.513	6.6544
699.405	6.96059
702.298	6.16608
705.191	5.58981
708.084	5.07816
710.976	3.71587
713.869	3.45604
716.762	1.88342
719.654	1.4426
722.547	1.40538
725.44	0.664635
728.332	0.763298
731.225	1.33194
734.118	1.31428
737.011	2.18883
739.903	1.56882
742.796	1.72423
745.689	0.737694
748.581	0.780418
751.474	3.08341
754.367	8.39272
757.26	14.3617
760.152	24.7532
763.045	37.4422
765.938	60.0547
768.83	80.4888
771.723	103.419
774.616	123.596
777.508	132.906
780.401	132.828
783.294	138.848
786.187	154.581
789.079	184.929
791.972	228.931
794.865	270.002
797.757	272.327
800.65	218.529
803.543	152.396
806.435	100.823
809.328	71.767
812.221	51.7788
815.114	38.3922
818.006	27.8328
820.899	24.0295
823.792	23.8972
826.684	29.891
829.577	40.6298
832.47	58.6093
835.362	78.4881
838.255	99.1745
841.148	105.846
844.04	89.2088
846.933	54.5207
849.826	22.6976
852.719	1.9305
855.611	5.98462
858.504	8.52502
861.397	6.19592
864.289	3.23714
867.182	15.5384
870.075	36.0971
872.967	66.9197
875.86	105.421
878.753	150.766
881.646	192.853
884.538	225.95
887.431	226.369
890.324	202.95
893.216	181.124
896.109	170.161
899.002	164.061
901.894	149.503
904.787	126.185
907.68	107.593
910.573	115.52
913.465	148.576
916.358	242.266
919.251	475.401
922.143	861.55
925.036	1319.51
927.929	2191.41
930.822	3310.91
933.714	2820.12
936.607	1136.57
939.5	468.462
942.392	239.642
945.285	140.026
948.178	87.1747
951.07	56.7818
953.963	38.5277
956.856	27.7962
959.749	18.0364
962.641	10.083
965.534	2.74915
968.427	0.750076
971.319	0.121918
974.212	2.92572
977.105	9.17416
979.997	22.061
982.89	38.5288
985.783	44.5394
988.676	22.9414
991.568	6.60342
994.461	0.854576
997.354	2.64069
1000.25	3.86684
1003.14	3.35126
1006.03	0.352287
1008.92	0.065872
1011.82	0.126289
1014.71	0.600807
1017.6	1.67725
1020.5	3.34492
1023.39	3.20496
1026.28	4.48399
1029.17	5.00556
1032.07	6.43613
1034.96	9.02174
1037.85	7.46565
1040.74	7.58407
1043.64	8.00575
1046.53	9.90563
1049.42	10.5618
1052.32	10.8177
1055.21	10.2925
1058.1	9.09988
1060.99	8.5303
1063.89	7.14265
1066.78	6.60406
1069.67	5.2711
1072.56	4.97234
1075.46	4.18603
1078.35	3.89429
1081.24	3.75563
1084.13	2.44657
1087.03	3.80843
1089.92	4.14493
1092.81	3.59454
1095.7	2.77999
1098.6	3.58511
1101.49	3.7328
1104.38	2.83612
1107.28	3.12573
1110.17	1.04079
1113.06	1.82563
1115.95	2.96734
1118.85	2.36716
1121.74	1.1944
1124.63	1.42406
1127.53	1.439
1130.42	1.64246
1133.31	1.17538
1136.2	0.57476
1139.1	1.20863
1141.99	1.4251
1144.88	1.75518
1147.77	1.56339
1150.67	0.919174
1153.56	1.64917
1156.45	0.052925
1159.35	1.13141
1162.24	0.220932
1165.13	0.701485
1168.02	0.563591
1170.92	1.02641
1173.81	0.471207
1176.7	0.441727
1179.59	0.663017
1182.49	0.013443
1185.38	0.126999
1188.27	0.087883
1191.16	0.519867
1194.06	0.558289
1196.95	0.744125
1199.84	1.44912
1202.73	0.531311
1205.63	1.64372
1208.52	1.8473
1211.41	1.41185
1214.31	1.47325
1217.2	0.143547
1220.09	0.392708
1222.98	1.57941
1225.88	0.446556
1228.77	0.518929
1231.66	1.31927
1234.56	0.258224
1237.45	0.550705
1240.34	1.2866
1243.23	0.86483
1246.13	1.18176
1249.02	1.29339
1251.91	1.2089
1254.8	0.395828
1257.7	0.189514
1260.59	1.12035
1263.48	1.56799
1266.38	1.65563
1269.27	1.84966
1272.16	0.527252
1275.05	1.54761
1277.95	0.313385
1280.84	0.189072
1283.73	1.18556
1286.62	1.14572
1289.52	1.74683
1292.41	1.19504
1295.3	1.50612
1298.19	0.101273
1301.09	1.28677
