Measurement: Raman, 780 nm, unoriented, Raman Data Processed
Mineral: Lindgrenite
Rruff sample: R050213
Ideal chemistry: Cu_3_(Mo^6+^O_4_)_2_(OH)_2_
Locality: Chuquicamata mine, Calama, Antofagasta Province, Chile
Source: John Dagenais
Description: Green tabular single crystals
Measured chemistry: (Cu_2.99_Fe_0.01_)_Î£=3.00_(Mo^6+^_1.00_O_4_)_2_(OH)_2.00_ ; OH not measured but estimated by difference and charge balance
Raman shift (cm-1)	intensity
116.942	0
120.316	0.221855
123.691	0.468058
127.066	0.609112
130.441	0.24468
133.815	0.1949
137.19	0.180423
140.565	0.286964
143.94	0.475731
147.315	0.575139
150.69	0.948697
154.064	1.68735
157.439	1.89352
160.814	2.17168
164.189	2.20338
167.564	2.32794
170.939	2.58433
174.313	2.55172
177.688	1.54302
181.063	0.933239
184.438	0.918922
187.813	0.848269
191.187	1.01443
194.562	0.690776
197.937	0.543132
201.312	0.44672
204.687	0.542762
208.061	0.654501
211.436	0.471519
214.811	0.526626
218.186	0.442802
221.561	0.005961
224.936	0.059298
228.31	0.205706
231.685	0.1188
235.06	0.20329
238.435	0.266857
241.81	0.407376
245.185	0.864724
248.559	0.657213
251.934	0.793304
255.309	0.29041
258.684	0.24072
262.059	0.093948
265.433	0.087038
268.808	0.389733
272.183	0.630951
275.558	0.951584
278.933	1.42037
282.308	2.25681
285.682	3.23933
289.057	3.59506
292.432	3.83374
295.807	4.64564
299.182	5.3647
302.556	5.85127
305.931	4.34492
309.306	2.8549
312.681	2.10286
316.056	1.95605
319.43	1.93456
322.805	2.22377
326.18	2.88837
329.555	3.37902
332.93	4.02472
336.305	4.2667
339.679	4.28648
343.054	3.87699
346.429	3.13809
349.804	2.31371
353.179	1.74736
356.553	1.28517
359.928	0.792713
363.303	0.431648
366.678	0.126887
370.053	0.0173
373.428	0.122638
376.802	0.040576
380.177	0.008802
383.552	0.093537
386.927	0.35413
390.302	0.588666
393.676	0.720678
397.051	1.05767
400.426	1.11131
403.801	0.954725
407.176	0.771403
410.55	0.569359
413.925	0.334856
417.3	0.189422
420.675	0.012618
424.05	0.075719
427.425	0.03066
430.799	0.04399
434.174	0.026115
437.549	0.120135
440.924	0.035306
444.299	0.045341
447.673	0.054748
451.048	0.19574
454.423	0.160341
457.798	0.328934
461.173	0.273588
464.548	0.325211
467.922	0.399115
471.297	0.315816
474.672	0.676817
478.047	0.7351
481.422	0.83745
484.796	1.05431
488.171	1.13988
491.546	1.22574
494.921	1.18352
498.296	0.964427
501.671	0.751463
505.045	0.646478
508.42	0.532116
511.795	0.33365
515.17	0.247516
518.545	0.192472
521.919	0.381976
525.294	0.188836
528.669	0.131416
532.044	0.124057
535.419	0.17568
538.793	0.100818
542.168	0.141053
545.543	0.087108
548.918	0.044296
552.293	0.130915
555.668	0.160756
559.042	0.134726
562.417	0.238587
565.792	0.230427
569.167	0.093823
572.542	0.117993
575.917	0.124261
579.291	0.146376
582.666	0.12389
586.041	0.080523
589.416	0.178838
592.79	0.051053
596.165	0.091447
599.54	0.148137
602.915	0.041196
606.29	0.217801
609.665	0.146613
613.039	0.232806
616.414	0.044802
619.789	0.088228
623.164	0.106078
626.539	0.168225
629.913	0.093114
633.288	0.186939
636.663	0.015615
640.038	0.148412
643.413	0.144286
646.788	0.042899
650.162	0.064489
653.537	0.022395
656.912	0.181314
660.287	0.123013
663.662	0.113601
667.037	0.122394
670.411	0.292722
673.786	0.181876
677.161	0.174191
680.536	0.086389
683.911	0.199936
687.285	0.191822
690.66	0.039115
694.035	0.069281
697.41	0.085472
700.785	0.0954
704.159	0.033946
707.534	0.006548
710.909	0.039382
714.284	0.000451
717.659	0.112604
721.034	0.019028
724.408	0.096817
727.783	0.040139
731.158	0.009957
734.533	0.026621
737.908	0.026419
741.283	0.107432
744.657	0.092735
748.032	0.031728
751.407	0.054381
754.782	0.195994
758.157	0.650113
761.531	0.801329
764.906	1.06328
768.281	1.22244
771.656	1.29737
775.031	1.41188
778.405	1.55347
781.78	1.74987
785.155	2.27746
788.53	2.50387
791.905	2.80148
795.279	2.59211
798.654	1.96121
802.029	1.29846
805.404	0.943791
808.779	0.598987
812.154	0.471197
815.528	0.399674
818.903	0.262377
822.278	0.406188
825.653	0.591936
829.028	0.736207
832.403	1.02426
835.777	1.00666
839.152	0.85035
842.527	0.426909
845.902	0.311751
849.277	0.203704
852.651	0.198795
856.026	0.037316
859.401	0.196003
862.776	0.437538
866.151	0.898508
869.525	1.24839
872.9	1.5417
876.275	1.95335
879.65	2.2233
883.025	1.84773
886.4	1.59252
889.774	0.945022
893.149	0.914634
896.524	0.668874
899.899	0.597603
903.274	0.467233
906.649	0.760937
910.023	1.72153
913.398	3.61464
916.773	8.4988
920.148	13.5327
923.523	17.742
926.897	21.7874
930.272	17.8111
933.647	7.49236
937.022	2.96957
940.397	1.33285
943.771	0.730124
947.146	0.407362
950.521	0.172911
953.896	0.229507
957.271	0.225252
960.645	0.224261
964.02	0.137169
967.395	0.184909
970.77	0.066726
974.145	0.040084
977.52	0.04799
980.894	0.131627
984.269	0.080719
987.644	0.049204
991.019	0.049593
994.394	0.074764
997.769	0.000528
1001.14	0.020382
1004.52	0.153996
1007.89	0.020369
1011.27	0.062052
1014.64	0.224612
1018.02	0.323163
1021.39	0.162806
1024.77	0.188714
1028.14	0.389611
1031.52	0.233125
1034.89	0.218151
1038.27	0.423922
1041.64	0.246911
1045.02	0.276659
1048.39	0.073444
1051.77	0.19629
1055.14	0.356858
1058.52	0.340091
1061.89	0.300279
1065.27	0.253186
1068.64	0.204034
1072.02	0.109182
1075.39	0.059384
1078.76	0.020021
1082.14	0.154348
1085.51	0.118789
1088.89	0.03807
1092.26	0.116122
1095.64	0.06854
1099.01	0.177125
1102.39	0.16447
1105.76	0.16261
1109.14	0.156763
1112.51	0.203344
1115.89	0.218299
1119.26	0.107051
1122.64	0.185766
1126.01	0.060655
1129.39	0.073204
1132.76	0.087141
1136.14	0.027784
1139.51	0.209418
1142.89	0.103366
1146.26	0.028643
1149.63	0.219012
1153.01	0.031012
1156.38	0.14052
1159.76	0.16153
1163.13	0.191436
1166.51	0.090321
1169.88	0.165366
1173.26	0.238622
1176.63	0.053911
1180.01	0.186736
1183.38	0.057113
1186.76	0.194587
1190.13	0.158098
1193.51	0.000244
1196.88	0.128112
1200.26	0.100018
1203.63	0.184101
1207.01	0.167881
1210.38	0.198439
1213.76	0.126062
1217.13	0.095329
1220.51	0.14775
1223.88	0.022718
1227.26	0.28839
1230.63	0.097623
1234.01	0.058965
1237.38	0.035359
1240.76	0.229658
1244.13	0.216213
1247.51	0.211698
1250.88	0.210484
1254.26	0.27268
1257.63	0.270045
1261	0.186287
1264.38	0.105362
1267.75	0.166799
1271.13	0.235981
1274.5	0.294992
1277.88	0.209978
1281.25	0.120226
1284.63	0.060476
