Measurement: Raman, 780 nm, unoriented, Raman Data Processed
Mineral: Lindgrenite
Rruff sample: R060241
Ideal chemistry: Cu_3_(Mo^6+^O_4_)_2_(OH)_2_
Locality: San Samuel mine, Carrera Pinto, Chile
Source: Rock Currier
Description: Dark green tabular crystals associated with antlerite, pseudomalachite, albite, dravite and monazite
Measured chemistry: Cu_3.00_(Mo^6+^_1.00_O_4_)_2_((OH)_1.98_Cl_0.02_)_Î£=2_
Raman shift (cm-1)	intensity
127.822	0
131.197	2.07917
134.571	0.274242
137.946	4.36159
141.321	3.85781
144.696	5.08917
148.071	3.97956
151.446	5.86713
154.82	8.4156
158.195	6.05274
161.57	5.88789
164.945	3.52321
168.32	2.73151
171.695	2.16528
175.069	2.41846
178.444	0.229771
181.819	3.1651
185.194	3.79955
188.569	3.45851
191.943	3.50226
195.318	4.25227
198.693	6.58507
202.068	6.40577
205.443	7.22008
208.817	7.68135
212.192	4.94695
215.567	3.84665
218.942	4.18737
222.317	0.533792
225.691	0.714169
229.066	0.712002
232.441	1.02744
235.816	0.596935
239.191	2.33912
242.566	0.626354
245.94	1.91296
249.315	0.067387
252.69	0.854286
256.065	1.93322
259.44	1.69367
262.815	0.907345
266.189	5.35033
269.564	7.87512
272.939	13.7934
276.314	18.6799
279.689	26.5169
283.063	30.3859
286.438	29.8756
289.813	29.4419
293.188	32.0144
296.563	33.937
299.938	37.9896
303.312	36.0244
306.687	32.2686
310.062	27.7526
313.437	20.4121
316.812	15.0246
320.186	12.4218
323.561	12.3498
326.936	12.153
330.311	15.5946
333.686	17.5316
337.06	19.7765
340.435	26.1658
343.81	33.9427
347.185	43.8141
350.56	50.9186
353.935	55.4512
357.309	49.1877
360.684	43.2726
364.059	30.5569
367.434	19.5171
370.809	13.0607
374.183	12.543
377.558	12.408
380.933	15.5121
384.308	17.3378
387.683	24.8682
391.058	28.8821
394.432	32.0513
397.807	32.5025
401.182	30.61
404.557	26.0091
407.932	21.1653
411.307	14.604
414.681	9.81687
418.056	6.96428
421.431	3.98475
424.806	0.311329
428.18	0.702831
431.555	2.70408
434.93	0.872551
438.305	2.25044
441.68	0.055941
445.055	0.577337
448.429	0.054874
451.804	1.09501
455.179	2.49139
458.554	1.19747
461.929	2.08248
465.303	3.3562
468.678	3.00361
472.053	3.43376
475.428	4.02159
478.803	3.76613
482.178	2.04804
485.552	4.67131
488.927	4.23046
492.302	4.41998
495.677	4.15512
499.052	3.01191
502.426	2.92322
505.801	3.21626
509.176	1.99102
512.551	3.38379
515.926	1.21932
519.301	3.20766
522.675	2.87087
526.05	1.42774
529.425	1.64406
532.8	2.03687
536.175	2.6819
539.549	1.78934
542.924	1.399
546.299	0.09013
549.674	1.19117
553.049	1.17752
556.424	1.62574
559.798	0.428803
563.173	0.225816
566.548	1.52796
569.923	1.56529
573.298	0.17542
576.673	2.349
580.047	2.08298
583.422	1.91185
586.797	0.808842
590.172	2.25667
593.547	1.50591
596.921	1.26812
600.296	1.91608
603.671	1.50111
607.046	0.276176
610.421	1.98032
613.795	1.77761
617.17	0.791879
620.545	0.531981
623.92	1.09259
627.295	2.19845
630.67	0.009599
634.044	1.75125
637.419	1.32601
640.794	1.60156
644.169	2.73504
647.544	1.45827
650.918	2.47638
654.293	1.16035
657.668	0.220629
661.043	1.61676
664.418	2.08164
667.793	3.00101
671.167	2.50628
674.542	1.57608
677.917	3.17668
681.292	2.19055
684.667	0.480746
688.041	1.63829
691.416	2.18141
694.791	2.11715
698.166	0.173588
701.541	1.43873
704.915	2.94942
708.29	3.37384
711.665	0.618265
715.04	1.91212
718.415	2.8057
721.79	2.02753
725.164	0.944422
728.539	1.96343
731.914	1.1013
735.289	0.743937
738.664	0.599231
742.038	2.06143
745.413	1.25467
748.788	1.23207
752.163	0.286007
755.538	1.08582
758.913	0.813217
762.287	0.491217
765.662	3.00496
769.037	0.807102
772.412	0.869099
775.787	0.748192
779.162	2.00629
782.536	4.87564
785.911	4.0039
789.286	5.7737
792.661	4.70514
796.036	4.49777
799.41	4.07173
802.785	1.97855
806.16	0.863939
809.535	0.672356
812.91	0.533918
816.284	0.337383
819.659	0.032009
823.034	2.61677
826.409	6.0115
829.784	8.53917
833.159	10.5529
836.533	9.81413
839.908	8.49384
843.283	7.83657
846.658	6.54093
850.033	1.73743
853.408	2.8691
856.782	3.28795
860.157	1.7078
863.532	2.87549
866.907	1.39581
870.282	2.68788
873.656	2.43163
877.031	6.09684
880.406	8.53777
883.781	10.6846
887.156	12.1445
890.53	13.1232
893.905	10.1661
897.28	9.86262
900.655	10.4936
904.03	8.1604
907.404	12.4705
910.779	28.585
914.154	57.5372
917.529	115.459
920.904	166.642
924.279	209.195
927.653	202.379
931.028	126.524
934.403	53.6344
937.778	25.2001
941.153	15.1929
944.528	7.53186
947.902	4.73578
951.277	1.55534
954.652	1.31824
958.027	0.392731
961.402	0.166827
964.776	0.205065
968.151	0.318615
971.526	0.531235
974.901	1.07065
978.276	1.76789
981.65	1.92294
985.025	0.400141
988.4	1.02221
991.775	0.772151
995.15	2.90174
998.525	1.22876
1001.9	0.344685
1005.27	1.25015
1008.65	0.157108
1012.02	2.42922
1015.4	2.03081
1018.77	3.04345
1022.15	1.57984
1025.52	2.23747
1028.9	1.08323
1032.27	0.08083
1035.65	3.25588
1039.02	3.30205
1042.4	2.75108
1045.77	1.57235
1049.15	2.51106
1052.52	2.23554
1055.9	1.41937
1059.27	2.5309
1062.65	1.11076
1066.02	1.44698
1069.4	2.83509
1072.77	0.647028
1076.14	1.26412
1079.52	1.48638
1082.89	3.59887
1086.27	2.13605
1089.64	1.51102
1093.02	2.52036
1096.39	2.48366
1099.77	0.350206
1103.14	0.161287
1106.52	1.76359
1109.89	1.1031
1113.27	0.784549
1116.64	1.65593
1120.02	1.7972
1123.39	0.740625
1126.77	2.39794
1130.14	1.59288
1133.52	1.14313
1136.89	2.05828
1140.27	1.11749
1143.64	0.437871
1147.02	2.47875
1150.39	0.922815
1153.77	1.5244
1157.14	1.69531
1160.52	0.219918
1163.89	0.275741
1167.27	1.87812
1170.64	0.341962
1174.02	1.94727
1177.39	0.977755
1180.77	1.92109
1184.14	1.91293
1187.51	1.87508
1190.89	3.31387
1194.26	2.25993
1197.64	1.6177
1201.01	0.033297
1204.39	0.719995
1207.76	1.22945
1211.14	2.72571
1214.51	0.829621
1217.89	0.756536
1221.26	0.497538
1224.64	1.85999
1228.01	2.3487
1231.39	2.10443
1234.76	0.290018
1238.14	1.50799
1241.51	1.89533
1244.89	1.49746
1248.26	2.31333
1251.64	0.661915
1255.01	1.5763
1258.38	1.64746
1261.76	1.21888
1265.13	1.60813
1268.51	0.979968
1271.88	3.19708
1275.26	0.069609
1278.63	1.32755
1282.01	0.270654
1285.38	0
