Measurement: Raman, 532 nm, unoriented, Raman Data Processed
Mineral: Liottite
Rruff sample: R120045
Ideal chemistry: Na_16_Ca_8_Si_18_Al_18_O_72_(SO_4_)_5_Cl_4_
Locality: Case Collina (Toscopomici quarry), Pitigliano, Grosseto Province, Tuscany, Italy
Source: R. Van Dommelen
Description: Pseudhexagonal colorless crystals, associated with grossular
Raman shift (cm-1)	intensity
212.468	0
215.36	0.408783
218.253	2.77293
221.146	0.3638
224.038	1.39575
226.931	2.92931
229.824	2.23444
232.717	2.82567
235.609	2.9521
238.502	3.64009
241.395	2.94441
244.287	2.27718
247.18	4.88148
250.073	1.69328
252.965	3.12903
255.858	3.03215
258.751	1.89328
261.644	2.37085
264.536	3.23338
267.429	2.78128
270.322	1.37947
273.214	0.960175
276.107	1.92807
279	1.97519
281.892	0.302994
284.785	0.456772
287.678	0.460754
290.571	1.85458
293.463	0.108932
296.356	1.04834
299.249	0.345764
302.141	1.02747
305.034	1.41103
307.927	0.51593
310.82	1.39482
313.712	0.672424
316.605	1.26562
319.498	0.445923
322.39	1.56474
325.283	3.71132
328.176	3.30217
331.068	2.53792
333.961	3.5582
336.854	3.3687
339.747	4.16534
342.639	0.464478
345.532	0.941437
348.425	0.916656
351.317	1.52771
354.21	0.594467
357.103	1.43115
359.995	0.447769
362.888	0.059387
365.781	0.686111
368.673	0.157455
371.566	0.00209
374.459	0.6306
377.352	0.130249
380.244	0.776825
383.137	1.35175
386.03	1.84608
388.922	2.07724
391.815	3.13295
394.708	3.99991
397.601	4.39148
400.493	4.12013
403.386	4.06956
406.279	4.43463
409.171	7.83574
412.064	7.295
414.957	9.85271
417.849	12.0735
420.742	14.9282
423.635	19.0631
426.527	21.329
429.42	23.3283
432.313	24.0498
435.206	24.9069
438.098	26.5314
440.991	29.2793
443.884	35.4736
446.776	42.5103
449.669	52.1522
452.562	56.0493
455.454	57.4348
458.347	56.3925
461.24	49.2288
464.133	42.202
467.025	32.4963
469.918	24.4685
472.811	20.2312
475.703	14.8033
478.596	12.2309
481.489	8.32475
484.382	5.35873
487.274	5.07831
490.167	4.23514
493.06	2.17641
495.952	2.47356
498.845	2.26001
501.738	0.170532
504.63	0.676071
507.523	1.23602
510.416	1.30533
513.308	0.882629
516.201	0.341995
519.094	0.55191
521.987	0.022003
524.879	1.36381
527.772	1.08389
530.665	0.453659
533.557	0.445374
536.45	0.651596
539.343	0.393188
542.236	0.967285
545.128	0.002487
548.021	0.667786
550.914	0.082352
553.806	0.525589
556.699	1.32048
559.592	0.72525
562.484	0.891739
565.377	0.579102
568.27	0.101883
571.163	0.305832
574.055	0.481461
576.948	0.205139
579.841	1.72501
582.733	1.4521
585.626	0.908676
588.519	0.964767
591.411	2.28653
594.304	3.16455
597.197	2.15529
600.09	4.18373
602.982	4.0267
605.875	6.84711
608.768	11.4596
611.66	11.4494
614.553	14.2483
617.446	14.7986
620.338	15.1897
623.231	13.6864
626.124	10.4845
629.016	7.12495
631.909	7.7937
634.802	7.94025
637.695	8.68642
640.587	10.0378
643.48	9.59729
646.373	9.40273
649.265	6.23813
652.158	4.76109
655.051	4.16901
657.943	3.68019
660.836	2.96317
663.729	3.18175
666.622	2.4333
669.514	2.30696
672.407	1.76471
675.3	1.36557
678.192	1.04079
681.085	0.245651
683.978	1.52229
686.87	0.798645
689.763	1.83722
692.656	0.224121
695.549	0.403534
698.441	1.47049
701.334	0.296143
704.227	0.214127
707.119	0.093063
710.012	1.18658
712.905	0.19812
715.798	0.751053
718.69	0.299057
721.583	0.075867
724.476	0.240189
727.368	0.86972
730.261	1.72421
733.154	2.24577
736.046	1.07437
738.939	0.240509
741.832	4.99854
744.725	0.947052
747.617	1.36128
750.51	1.33903
753.403	2.01541
756.295	0.964554
759.188	2.20035
762.081	1.95656
764.973	2.41907
767.866	1.11455
770.759	1.11482
773.652	1.11362
776.544	1.87169
779.437	1.77916
782.33	2.53871
785.222	1.68378
788.115	0.018936
791.008	0.360611
793.9	0.782837
796.793	1.56746
799.686	0.677673
802.578	0.972641
805.471	1.22169
808.364	0.90094
811.257	0.369171
814.149	1.17375
817.042	0.77272
819.935	2.05418
822.827	1.12769
825.72	1.50041
828.613	0.857468
831.505	0.412979
834.398	0.023117
837.291	0.290146
840.184	0.241516
843.076	1.20007
845.969	0.261108
848.862	0.805573
851.754	1.79958
854.647	1.38246
857.54	0.439987
860.433	0.731308
863.325	1.08037
866.218	0.416443
869.111	0.857681
872.003	1.45366
874.896	0.939377
877.789	0.507935
880.681	0.087753
883.574	1.21922
886.467	2.42094
889.36	2.9036
892.252	2.73372
895.145	2.02827
898.038	0.728699
900.93	1.19945
903.823	0.221786
906.716	1.58504
909.608	0.724457
912.501	0.86937
915.394	0.299301
918.287	2.40697
921.179	1.30116
924.072	0.853638
926.965	0.864563
929.857	0.667252
932.75	0.210907
935.643	0.404648
938.535	0.619659
941.428	1.14336
944.321	0.746475
947.213	0.163239
950.106	0.658035
952.999	0.528122
955.892	1.0475
958.784	0.966599
961.677	3.44312
964.57	4.99883
967.462	7.7238
970.355	13.1735
973.248	22.8578
976.14	37.1159
979.033	62.9681
981.926	88.2327
984.819	114.937
987.711	137.667
990.604	148.244
993.497	130.774
996.389	98.9152
999.282	74.0412
1002.17	57.4098
1005.07	41.0679
1007.96	26.9541
1010.85	14.9008
1013.75	6.59499
1016.64	3.04065
1019.53	2.17184
1022.42	2.27075
1025.32	0.97554
1028.21	2.68164
1031.1	1.89641
1033.99	2.72055
1036.89	1.79611
1039.78	3.01111
1042.67	3.89822
1045.57	4.74431
1048.46	6.58267
1051.35	9.03723
1054.24	12.4868
1057.14	10.7762
1060.03	11.6019
1062.92	10.0465
1065.81	9.149
1068.71	6.44467
1071.6	4.63901
1074.49	0.966583
1077.38	1.09628
1080.28	0.333282
1083.17	0.799118
1086.06	0.923141
1088.96	0.66777
1091.85	0.388199
1094.74	0.007202
1097.63	1.40681
1100.53	0.408615
1103.42	1.11066
1106.31	3.29369
1109.2	1.31328
1112.1	1.84
1114.99	2.37622
1117.88	1.8269
1120.78	2.41434
1123.67	1.95966
1126.56	1.40845
1129.45	1.59207
1132.35	1.87512
1135.24	1.34268
1138.13	1.93022
1141.02	1.49277
1143.92	3.92064
1146.81	3.49382
1149.7	2.65655
1152.6	3.09901
1155.49	4.00835
1158.38	3.70024
1161.27	3.03584
1164.17	4.91463
1167.06	4.18556
1169.95	4.52895
1172.84	3.77817
1175.74	4.53459
1178.63	3.87582
1181.52	4.92354
1184.41	4.69072
1187.31	5.08894
1190.2	1.8297
1193.09	2.25156
1195.99	2.18727
1198.88	1.91566
1201.77	0.931656
1204.66	1.82138
1207.56	2.51721
1210.45	3.54434
1213.34	3.24791
1216.23	0.265381
1219.13	0.84285
1222.02	0.942795
1224.91	1.57013
1227.81	0.201035
1230.7	0.971252
1233.59	1.08553
1236.48	1.84523
1239.38	0.37178
1242.27	2.03815
1245.16	1.14403
1248.05	1.82843
1250.95	1.04941
1253.84	1.60774
1256.73	2.31766
1259.62	4.12891
1262.52	1.76279
1265.41	2.07054
1268.3	1.79715
1271.2	0.525482
1274.09	2.22456
1276.98	1.73331
1279.87	2.36951
1282.77	0.676086
1285.66	0.860046
1288.55	0.320724
1291.44	1.48793
1294.34	0.709442
1297.23	0.175629
1300.12	0.677429
1303.02	0
