Measurement: Raman, 780 nm, unoriented, Raman Data Processed
Mineral: Liottite
Rruff sample: R120045
Ideal chemistry: Na_16_Ca_8_Si_18_Al_18_O_72_(SO_4_)_5_Cl_4_
Locality: Case Collina (Toscopomici quarry), Pitigliano, Grosseto Province, Tuscany, Italy
Source: R. Van Dommelen
Description: Pseudhexagonal colorless crystals, associated with grossular
Raman shift (cm-1)	intensity
108.96	0
112.335	0.893021
115.709	0.250553
119.084	0.073055
122.459	1.22899
125.834	1.65178
129.209	2.83888
132.583	3.43995
135.958	6.40116
139.333	7.74588
142.708	8.90875
146.083	10.8241
149.458	12.1303
152.832	11.9015
156.207	12.3865
159.582	11.9075
162.957	14.7416
166.332	12.7391
169.706	14.3747
173.081	14.417
176.456	14.6586
179.831	14.0383
183.206	14.3678
186.581	14.021
189.955	13.531
193.33	13.2512
196.705	13.4795
200.08	13.0895
203.455	13.002
206.829	11.9858
210.204	10.4976
213.579	10.3643
216.954	9.7796
220.329	7.26105
223.703	5.59674
227.078	5.17647
230.453	4.05504
233.828	4.57079
237.203	2.93735
240.578	2.62843
243.952	2.40715
247.327	2.38881
250.702	1.45453
254.077	0.772942
257.452	0.375225
260.827	1.2234
264.201	0.533888
267.576	0.277756
270.951	0.626261
274.326	0.355509
277.701	0.089682
281.075	0.004242
284.45	1.229
287.825	1.93569
291.2	1.40725
294.575	3.24205
297.95	3.25201
301.324	4.1893
304.699	4.09692
308.074	4.50653
311.449	3.77788
314.824	3.9517
318.198	3.98901
321.573	6.01798
324.948	6.89788
328.323	8.23215
331.698	7.43808
335.072	5.83735
338.447	5.43783
341.822	3.79479
345.197	3.02008
348.572	1.44003
351.947	0.921665
355.321	3.13406
358.696	0.869173
362.071	0.628805
365.446	0.334589
368.821	0.404119
372.195	0.22167
375.57	0.024658
378.945	0.090252
382.32	0.920053
385.695	2.84664
389.07	3.83859
392.444	5.35183
395.819	5.69332
399.194	4.84761
402.569	4.79042
405.944	5.46552
409.318	7.91939
412.693	9.94233
416.068	13.4479
419.443	18.113
422.818	23.9217
426.192	29.6902
429.567	34.2713
432.942	40.0535
436.317	46.2604
439.692	52.5474
443.067	61.7202
446.441	78.3007
449.816	93.8705
453.191	101.964
456.566	98.9147
459.941	88.9094
463.315	71.322
466.69	53.3305
470.065	38.518
473.44	29.2364
476.815	19.5866
480.19	13.8936
483.564	9.78939
486.939	8.15208
490.314	5.44554
493.689	3.93615
497.064	3.78486
500.438	1.50409
503.813	1.17113
507.188	1.22857
510.563	1.42993
513.938	0.990614
517.313	0.188007
520.687	0.149408
524.062	0.066446
527.437	0.274174
530.812	0.367132
534.187	0.644276
537.562	0.305611
540.936	0.360363
544.311	0.520372
547.686	0.167936
551.061	0.207388
554.436	0.041809
557.81	0.155455
561.185	0.528482
564.56	0.100145
567.935	0.400518
571.31	0.986462
574.684	1.35296
578.059	1.68123
581.434	2.39268
584.809	2.45193
588.184	3.21682
591.558	3.17805
594.933	4.2346
598.308	5.40201
601.683	7.75424
605.058	13.0956
608.433	20.4836
611.807	25.1039
615.182	27.5727
618.557	27.8873
621.932	25.5849
625.307	19.2666
628.682	16.6619
632.056	13.4402
635.431	12.2019
638.806	13.7788
642.181	14.5055
645.556	12.2185
648.93	9.1233
652.305	7.24682
655.68	5.5464
659.055	6.34978
662.43	6.10318
665.804	6.3399
669.179	4.83908
672.554	3.4724
675.929	3.12817
679.304	2.45647
682.679	1.68469
686.053	0.863157
689.428	0.56636
692.803	0.695494
696.178	0.083403
699.553	0.922578
702.928	0.037806
706.302	0.161789
709.677	0.117485
713.052	0.235709
716.427	0.143682
719.802	0.125584
723.176	0.040866
726.551	0.81636
729.926	0.684171
733.301	0.91153
736.676	0.813913
740.051	0.730757
743.425	1.06593
746.8	0.547621
750.175	0.196471
753.55	1.41617
756.925	2.10674
760.299	2.34954
763.674	3.14343
767.049	2.2318
770.424	1.29731
773.799	0.327448
777.173	0.64708
780.548	0.310535
783.923	0.319095
787.298	0.422961
790.673	0.664299
794.048	0.680973
797.422	0.054475
800.797	0.495897
804.172	0.966815
807.547	0.497879
810.922	0.291139
814.296	0.672644
817.671	0.433228
821.046	0.750532
824.421	0.560994
827.796	0.710023
831.17	0.273202
834.545	1.76363
837.92	0.86646
841.295	0.316386
844.67	0.601287
848.045	0.601401
851.419	1.13991
854.794	0.731412
858.169	0.675467
861.544	0.836093
864.919	1.43084
868.293	0.722311
871.668	0.654056
875.043	1.17117
878.418	1.2727
881.793	1.72636
885.168	1.14491
888.542	1.11551
891.917	1.45335
895.292	2.00569
898.667	1.43971
902.042	0.73634
905.417	0.059731
908.791	0.726729
912.166	2.05959
915.541	0.593332
918.916	0.108915
922.291	0.126865
925.665	0.320625
929.04	0.088766
932.415	0.100538
935.79	0.500443
939.165	0.08013
942.539	0.131591
945.914	0.611554
949.289	1.33641
952.664	1.09687
956.039	2.5545
959.414	3.0137
962.788	5.25325
966.163	10.5243
969.538	20.5702
972.913	35.9113
976.288	68.3248
979.663	119.038
983.037	175.319
986.412	236.116
989.787	270.917
993.162	241.37
996.537	177.687
999.911	127.702
1003.29	94.7948
1006.66	63.8683
1010.04	33.2377
1013.41	15.0308
1016.78	8.66506
1020.16	6.40246
1023.53	4.65121
1026.91	4.04075
1030.29	4.81298
1033.66	2.78675
1037.03	4.59322
1040.41	5.55909
1043.78	7.48353
1047.16	9.22012
1050.53	13.6443
1053.91	14.8887
1057.28	15.5622
1060.66	16.529
1064.03	13.4583
1067.41	10.0769
1070.78	7.44056
1074.16	5.11325
1077.53	4.43038
1080.91	3.01364
1084.28	1.14894
1087.66	1.81848
1091.03	1.53976
1094.41	0.818798
1097.78	1.02824
1101.16	0.990925
1104.53	0.863201
1107.91	1.27564
1111.28	0.056625
1114.65	0.021217
1118.03	1.4426
1121.4	2.00534
1124.78	2.25632
1128.15	1.07556
1131.53	0.618206
1134.9	0.407505
1138.28	0.482841
1141.65	1.94052
1145.03	3.75767
1148.4	5.20224
1151.78	9.11925
1155.15	10.0329
1158.53	14.9713
1161.9	19.569
1165.28	25.9258
1168.65	33.9368
1172.03	41.4098
1175.4	50.9098
1178.78	60.5775
1182.15	70.3765
1185.53	80.7962
1188.9	87.8044
1192.28	94.9941
1195.65	99.714
1199.03	101.142
1202.4	98.025
1205.78	96.3283
1209.15	86.212
1212.53	81.3858
1215.9	74.2616
1219.27	67.3917
1222.65	63.2495
1226.02	60.9703
1229.4	58.9596
1232.77	60.1164
1236.15	62.0123
1239.52	63.4866
1242.9	61.0401
1246.27	57.4367
1249.65	51.4729
1253.02	43.842
1256.4	35.7555
1259.77	26.0926
1263.15	18.5726
1266.52	10.0686
1269.9	6.6235
1273.27	2.03238
1276.65	0.965508
1280.02	0.270721
1283.4	0.462044
