Measurement: Raman, 780 nm, unoriented, Raman Data Processed
Mineral: Lipuite
Rruff sample: R140946
Ideal chemistry: KNa_8_Mn^3+^_5_Mg_0.5_(Si_12_O_30_(OH)_4_)(PO_4_)O_2_(OH)_2_4H_2_O
Locality: N'Chwaning III mine, Kalahari Manganese Fields, Northern Cape Province, South Africa
Source: Jaco and Tania Janse van Nieuwenhuizen
Description: Dark reddish brown massive crystalline, associated with sugilite (R130754)
Measured chemistry: K_1.11_Na_8.16_(Mn^3+^_4.86_Fe^3+^_0.14_)Mg_0.39_[Si_12.08_O_30_(OH)_4_](P_0.95_O_4_)O_2_(OH)_2_Â·4H_2_O
Raman shift (cm-1)	intensity
110.362	0
113.737	5.80737
117.112	6.25781
120.487	0.187836
123.862	4.43155
127.237	0.300201
130.611	1.43484
133.986	1.45419
137.361	14.0536
140.736	34.3302
144.111	47.4781
147.485	59.6191
150.86	84.5245
154.235	128.261
157.61	176.682
160.985	186.525
164.359	167.62
167.734	149.204
171.109	145.552
174.484	145.334
177.859	140.446
181.234	119.811
184.608	94.0816
187.983	81.163
191.358	79.8575
194.733	98.9291
198.108	137.553
201.482	178.499
204.857	191.028
208.232	157.473
211.607	119.839
214.982	89.7808
218.357	73.3458
221.731	66.107
225.106	62.9482
228.481	57.6941
231.856	56.7908
235.231	48.7942
238.605	43.1152
241.98	31.8341
245.355	19.7453
248.73	14.4339
252.105	4.15666
255.48	0.069244
258.854	2.49309
262.229	2.19347
265.604	0.712585
268.979	3.58691
272.354	11.9785
275.728	23.5934
279.103	44.227
282.478	63.6215
285.853	71.7232
289.228	62.7801
292.602	40.015
295.977	20.2781
299.352	6.65691
302.727	1.15912
306.102	1.57718
309.476	1.92505
312.851	10.99
316.226	19.7534
319.601	26.7806
322.976	32.2946
326.351	34.5548
329.725	37.7081
333.1	42.9339
336.475	50.6337
339.85	50.1202
343.225	40.2483
346.599	24.8557
349.974	16.9169
353.349	13.9504
356.724	15.2885
360.099	14.0364
363.474	7.68552
366.848	5.76291
370.223	6.28276
373.598	9.0009
376.973	7.94186
380.348	6.59085
383.722	2.94676
387.097	0.702789
390.472	1.63017
393.847	1.86032
397.222	1.28523
400.596	1.80696
403.971	5.39562
407.346	6.51506
410.721	9.93957
414.096	15.9892
417.471	18.9717
420.845	22.9323
424.22	27.4537
427.595	37.6562
430.97	58.5538
434.345	88.8352
437.719	139.248
441.094	206.434
444.469	282.042
447.844	334.274
451.219	332.203
454.594	282.484
457.968	215.708
461.343	156.677
464.718	111.583
468.093	82.9408
471.468	63.2574
474.842	51.0604
478.217	40.0122
481.592	32.4389
484.967	24.246
488.342	18.2183
491.716	13.9165
495.091	12.6049
498.466	8.80154
501.841	6.60178
505.216	9.45557
508.591	16.8876
511.965	27.1118
515.34	36.0496
518.715	34.9769
522.09	26.4733
525.465	14.7381
528.84	4.58354
532.214	0.370506
535.589	2.84994
538.964	1.95308
542.339	0.718529
545.713	1.32489
549.088	3.70293
552.463	6.31287
555.838	7.23139
559.213	7.04594
562.588	4.74201
565.962	3.64308
569.337	1.8481
572.712	0.676849
576.087	0.156395
579.462	0.209015
582.837	1.97283
586.211	5.33839
589.586	8.60615
592.961	13.3803
596.336	17.9701
599.711	25.228
603.085	33.7118
606.46	37.016
609.835	37.652
613.21	31.3536
616.585	23.9925
619.96	14.4978
623.334	10.4814
626.709	7.23012
630.084	2.68157
633.459	0.869522
636.833	0.130829
640.208	1.07684
643.583	4.18949
646.958	9.13425
650.333	17.5153
653.708	29.7621
657.082	48.6162
660.457	68.352
663.832	84.7759
667.207	88.2514
670.582	70.3592
673.957	49.7358
677.331	32.6375
680.706	20.853
684.081	13.9539
687.456	9.81323
690.831	7.70675
694.205	4.49721
697.58	2.64763
700.955	1.15355
704.33	0.419479
707.705	0.382519
711.079	0.043194
714.454	1.76294
717.829	1.96121
721.204	4.61048
724.579	3.53102
727.953	4.85625
731.328	5.51983
734.703	4.87693
738.078	2.79012
741.453	2.37221
744.828	0.258347
748.202	1.62545
751.577	2.25662
754.952	0.611992
758.327	4.26214
761.702	3.11735
765.077	4.94363
768.451	5.41721
771.826	5.53258
775.201	3.85078
778.576	1.75124
781.951	2.33953
785.325	1.26611
788.7	1.01906
792.075	1.98001
795.45	1.88003
798.825	1.68063
802.199	1.94426
805.574	1.2938
808.949	2.00944
812.324	0.880798
815.699	1.99098
819.073	1.03407
822.448	0.868763
825.823	0.272068
829.198	0.359005
832.573	0.028843
835.948	0.677483
839.322	0.710209
842.697	0.006546
846.072	0.428848
849.447	0.538162
852.822	1.20123
856.197	0.117695
859.571	0.362415
862.946	0.999233
866.321	1.42812
869.696	2.83533
873.071	5.95038
876.445	7.16185
879.82	9.54735
883.195	9.07531
886.57	6.58703
889.945	5.5442
893.319	3.18646
896.694	2.84977
900.069	2.50546
903.444	5.18851
906.819	8.23366
910.193	11.3982
913.568	16.9891
916.943	21.7863
920.318	29.2893
923.693	33.7847
927.068	39.8469
930.442	41.2616
933.817	43.0392
937.192	44.3466
940.567	45.3636
943.942	42.1638
947.317	36.6203
950.691	31.1609
954.066	24.9613
957.441	19.1094
960.816	14.8499
964.191	14.0914
967.565	15.8509
970.94	13.1479
974.315	11.8021
977.69	11.6287
981.065	7.74801
984.439	8.99589
987.814	8.42552
991.189	8.63753
994.564	6.31121
997.939	4.92396
1001.31	2.21843
1004.69	0.144791
1008.06	1.04445
1011.44	0.305492
1014.81	0.173172
1018.19	1.89534
1021.56	0.167068
1024.94	0.51038
1028.31	0.410011
1031.69	0.708351
1035.06	2.1692
1038.44	3.24302
1041.81	4.14447
1045.19	7.13804
1048.56	10.6999
1051.94	15.0027
1055.31	16.8131
1058.68	18.9277
1062.06	23.2256
1065.43	28.3272
1068.81	32.3912
1072.18	37.4093
1075.56	43.3181
1078.93	51.3694
1082.31	65.6422
1085.68	91.725
1089.06	119.903
1092.43	134.069
1095.81	114.973
1099.18	78.6021
1102.56	46.7073
1105.93	27.2818
1109.31	19.1894
1112.68	9.79274
1116.06	6.91056
1119.43	3.94928
1122.81	3.55272
1126.18	0.72047
1129.56	1.66571
1132.93	0.318001
1136.31	0.591236
1139.68	1.58877
1143.06	1.26983
1146.43	0.519135
1149.81	1.40071
1153.18	0.911327
1156.56	0.38829
1159.93	0.222477
1163.31	1.34611
1166.68	0.11084
1170.05	1.23969
1173.43	0.715775
1176.8	1.36924
1180.18	1.13705
1183.55	1.54812
1186.93	1.37971
1190.3	2.55912
1193.68	2.78196
1197.05	0.997627
1200.43	2.12592
1203.8	1.01234
1207.18	2.66681
1210.55	2.98692
1213.93	1.89215
1217.3	1.71501
1220.68	1.52821
1224.05	1.24086
1227.43	0.603365
1230.8	2.09965
1234.18	0.342667
1237.55	1.81538
1240.92	0.637615
1244.3	1.10665
1247.67	2.19513
1251.05	1.42381
1254.42	1.37213
1257.8	1.37176
1261.17	0.929159
1264.55	0.182232
1267.92	1.54652
1271.3	0.163649
1274.67	1.02043
1278.05	1.14521
1281.42	0.954107
1284.8	0
