Measurement: Raman, 532 nm, unoriented, Raman Data Processed
Mineral: Lipuite
Rruff sample: R140946
Ideal chemistry: KNa_8_Mn^3+^_5_Mg_0.5_(Si_12_O_30_(OH)_4_)(PO_4_)O_2_(OH)_2_4H_2_O
Locality: N'Chwaning III mine, Kalahari Manganese Fields, Northern Cape Province, South Africa
Source: Jaco and Tania Janse van Nieuwenhuizen
Description: Dark reddish brown massive crystalline, associated with sugilite (R130754)
Measured chemistry: K_1.11_Na_8.16_(Mn^3+^_4.86_Fe^3+^_0.14_)Mg_0.39_[Si_12.08_O_30_(OH)_4_](P_0.95_O_4_)O_2_(OH)_2_Â·4H_2_O
Raman shift (cm-1)	intensity
179.457	0
182.35	3.23224
185.242	6.05039
188.135	15.356
191.028	23.7312
193.92	40.4739
196.813	56.1816
199.706	72.1752
202.599	82.6003
205.491	84.3388
208.384	68.2452
211.277	49.7812
214.169	32.3837
217.062	21.5222
219.955	9.496
222.847	1.72052
225.74	0.436371
228.633	3.62415
231.525	2.6181
234.418	1.28278
237.311	5.87961
240.204	11.4262
243.096	15.1818
245.989	16.2577
248.882	9.61618
251.774	0.767731
254.667	2.61493
257.56	8.09985
260.452	15.9464
263.345	20.2188
266.238	20.2393
269.131	26.2165
272.023	36.4311
274.916	52.395
277.809	68.9929
280.701	90.6705
283.594	103.093
286.487	114.496
289.38	106.705
292.272	87.0891
295.165	65.5342
298.058	41.7024
300.95	27.4072
303.843	21.1269
306.736	27.4573
309.628	39.7969
312.521	57.9588
315.414	81.2755
318.307	104.826
321.199	122.528
324.092	139.178
326.985	150.869
329.877	160.099
332.77	169.644
335.663	180.357
338.555	179.919
341.448	161.219
344.341	121.188
347.233	88.0864
350.126	58.4572
353.019	41.5877
355.912	32.0874
358.804	26.6794
361.697	21.139
364.59	14.1176
367.482	9.80011
370.375	3.01025
373.268	1.55765
376.161	1.63281
379.053	4.54581
381.946	4.85654
384.839	7.09888
387.731	3.02856
390.624	0.793182
393.517	2.62555
396.409	9.15158
399.302	20.1313
402.195	32.854
405.087	47.6829
407.98	63.8097
410.873	81.7121
413.766	104.796
416.658	124.261
419.551	147.08
422.444	180.311
425.336	222.754
428.229	297.695
431.122	394.123
434.014	528.036
436.907	701.724
439.8	910.105
442.693	1122.84
445.585	1284.1
448.478	1329.42
451.371	1243.78
454.263	1058.35
457.156	842.436
460.049	653.334
462.942	505.627
465.834	389.766
468.727	305.486
471.62	247.08
474.512	202.49
477.405	161.604
480.298	128.732
483.19	97.1002
486.083	74.8666
488.976	56.2158
491.868	46.7259
494.761	37.9736
497.654	29.3649
500.547	24.1439
503.439	20.0676
506.332	22.919
509.225	29.8054
512.117	39.9747
515.01	48.0691
517.903	37.071
520.795	28.084
523.688	12.836
526.581	2.45227
529.474	11.2535
532.366	11.3862
535.259	5.95001
538.152	0.601257
541.044	12.9018
543.937	30.209
546.83	35.5648
549.722	41.9147
552.615	39.686
555.508	35.868
558.401	34.3313
561.293	28.2443
564.186	25.9952
567.079	21.5888
569.971	19.9855
572.864	23.6729
575.757	33.9202
578.649	49.6855
581.542	72.5683
584.435	100.999
587.328	139.365
590.22	182.329
593.113	230.698
596.006	288.154
598.898	347.104
601.791	389.565
604.684	420.415
607.577	419.194
610.469	383.244
613.362	323.028
616.255	253.611
619.147	185.068
622.04	131.594
624.933	88.876
627.825	57.934
630.718	32.6703
633.611	13.6988
636.504	2.72772
639.396	3.11035
642.289	3.20508
645.182	3.48468
648.074	13.2334
650.967	36.2253
653.86	70.4127
656.752	108.555
659.645	150.221
662.538	182.761
665.431	196.785
668.323	177.485
671.216	135.975
674.109	96.912
677.001	63.3893
679.894	43.2499
682.787	28.9532
685.679	19.8184
688.572	17.6381
691.465	15.7456
694.357	12.3366
697.25	7.121
700.143	4.04568
703.036	3.11252
705.928	1.71115
708.821	2.5195
711.714	2.13742
714.606	0.623596
717.499	0.762878
720.392	4.46161
723.284	4.44772
726.177	6.17313
729.07	9.69623
731.963	8.79376
734.855	8.83499
737.748	8.49115
740.641	5.29221
743.533	7.63406
746.426	9.45822
749.319	6.45789
752.212	9.36856
755.104	13.3143
757.997	15.2129
760.89	14.6365
763.782	17.9193
766.675	18.2339
769.568	15.1558
772.46	13.7243
775.353	12.753
778.246	10.2401
781.139	7.57523
784.031	11.3919
786.924	10.3996
789.817	9.4443
792.709	20.005
795.602	12.027
798.495	11.9759
801.388	13.5341
804.28	13.2468
807.173	14.7117
810.066	10.9714
812.958	9.14618
815.851	8.7598
818.744	7.83606
821.636	8.37463
824.529	5.46091
827.422	3.04715
830.314	1.18973
833.207	0.454163
836.1	4.35568
838.993	0.460938
841.885	1.98096
844.778	1.7005
847.671	1.16449
850.563	1.62848
853.456	1.35428
856.349	0.726929
859.241	0.522064
862.134	0.157623
865.027	2.04178
867.92	6.78488
870.812	11.4043
873.705	17.6787
876.598	21.7532
879.49	26.3011
882.383	27.691
885.276	26.2822
888.168	14.2922
891.061	9.01965
893.954	8.41363
896.847	4.08633
899.739	3.39725
902.632	4.55868
905.525	7.76288
908.417	15.0506
911.31	17.748
914.203	27.1455
917.096	36.7128
919.988	48.4711
922.881	61.7428
925.774	69.5781
928.666	68.7006
931.559	63.1832
934.452	61.5958
937.344	58.4538
940.237	57.7925
943.13	61.4525
946.023	64.7541
948.915	63.5691
951.808	64.9227
954.701	68.0888
957.593	76.5547
960.486	86.6747
963.379	103.808
966.271	117.918
969.164	128.17
972.057	126.074
974.949	115.879
977.842	104.408
980.735	97.6315
983.628	90.3331
986.52	83.4702
989.413	71.1866
992.306	59.3429
995.198	43.8691
998.091	32.6553
1000.98	19.0109
1003.88	10.0569
1006.77	3.69162
1009.66	1.0838
1012.55	1.99545
1015.45	3.65854
1018.34	4.16904
1021.23	0.590729
1024.12	2.31311
1027.02	1.35791
1029.91	6.64691
1032.8	10.915
1035.7	19.0393
1038.59	26.6992
1041.48	38.3049
1044.37	50.5568
1047.27	63.5458
1050.16	77.0375
1053.05	90.0551
1055.94	101.844
1058.84	115.375
1061.73	129.006
1064.62	148.369
1067.52	171.526
1070.41	192.134
1073.3	212.303
1076.19	242.87
1079.09	287.172
1081.98	354.695
1084.87	448.565
1087.77	550.434
1090.66	620.86
1093.55	590.34
1096.44	469.264
1099.34	321.628
1102.23	214.568
1105.12	139.595
1108.01	91.1891
1110.91	62.5083
1113.8	40.9357
1116.69	27.4019
1119.58	18.184
1122.48	10.5869
1125.37	6.94604
1128.26	2.43509
1131.15	1.1355
1134.05	1.65353
1136.94	5.1358
1139.83	0.917755
1142.73	0.218964
1145.62	0.058929
1148.51	1.91324
1151.4	0.77243
1154.3	0.512421
1157.19	6.79013
1160.08	3.0863
1162.97	2.58377
1165.87	3.72351
1168.76	3.39871
1171.65	4.9158
1174.55	2.91611
1177.44	3.90088
1180.33	5.50592
1183.22	7.57965
1186.12	7.34833
1189.01	6.97781
1191.9	9.73169
1194.8	8.41034
1197.69	7.87045
1200.58	7.59488
1203.47	6.29392
1206.37	8.48615
1209.26	6.7034
1212.15	3.51562
1215.04	2.73724
1217.94	4.45105
1220.83	3.7674
1223.72	2.31018
1226.61	0.686493
1229.51	1.58392
1232.4	0.235504
1235.29	1.70087
1238.18	10.1662
1241.08	2.28861
1243.97	0.599396
1246.86	0.111511
1249.76	0.488708
1252.65	0.483704
1255.54	1.70572
1258.43	2.02869
1261.33	1.0235
1264.22	3.53155
1267.11	1.50708
1270.01	2.49902
1272.9	1.63626
1275.79	0.363007
1278.68	3.23444
1281.58	1.03436
1284.47	2.17645
1287.36	0.258331
1290.25	1.75952
1293.15	2.30655
1296.04	0.163788
1298.93	4.87375
1301.83	0
