Measurement: Raman, 532 nm, unoriented, Raman Data Processed
Mineral: Liroconite
Rruff sample: R050535
Ideal chemistry: Cu^2+^_2_AlAs^5+^O_4_(OH)_4_4H_2_O
Locality: Wheal Gorland, St. Day, Cornwall, England
Source: University of Arizona Mineral Museum
Description: Blue tabular crystals
Raman shift (cm-1)	intensity
145.405	0
148.78	1.07401
152.155	4.7162
155.53	17.307
158.905	30.6695
162.279	47.5873
165.654	78.8778
169.029	135.761
172.404	224.081
175.779	309.081
179.153	316.907
182.528	319.139
185.903	373.607
189.278	446.547
192.653	483.524
196.028	466.819
199.402	417.08
202.777	351.52
206.152	268.464
209.527	215.498
212.902	198.573
216.276	196.708
219.651	181.34
223.026	153.003
226.401	127.18
229.776	107.749
233.15	97.7691
236.525	102.957
239.9	104.714
243.275	106.282
246.65	99.1964
250.025	89.8406
253.399	76.7515
256.774	64.4139
260.149	47.994
263.524	29.8381
266.899	13.19
270.273	1.31397
273.648	5.08446
277.023	10.7819
280.398	9.21529
283.773	4.42783
287.147	2.34451
290.522	15.8286
293.897	31.9402
297.272	51.4702
300.647	72.1146
304.022	79.5211
307.396	67.4262
310.771	54.3649
314.146	47.4756
317.521	50.4294
320.896	62.6977
324.271	78.1296
327.645	79.4115
331.02	57.1269
334.395	33.3624
337.77	19.4681
341.145	15.6716
344.519	22.0545
347.894	32.7602
351.269	46.1892
354.644	58.6797
358.019	62.4417
361.394	58.5308
364.768	46.9754
368.143	35.5181
371.518	25.4523
374.893	22.3591
378.267	20.461
381.642	22.9578
385.017	26.9682
388.392	30.8143
391.767	38.1489
395.142	44.7056
398.516	54.8316
401.891	64.3313
405.266	67.5039
408.641	65.4444
412.016	55.2798
415.39	46.0214
418.765	44.3565
422.14	44.1087
425.515	38.5128
428.89	29.4005
432.265	17.0884
435.639	9.12901
439.014	2.85918
442.389	1.56213
445.764	4.70775
449.139	4.17111
452.514	2.99632
455.888	1.98241
459.263	1.76595
462.638	7.13365
466.013	14.7138
469.388	23.2769
472.762	34.636
476.137	47.8852
479.512	63.6262
482.887	78.6097
486.262	97.6864
489.637	101.246
493.011	103.852
496.386	100.729
499.761	96.9674
503.136	92.5531
506.511	91.1224
509.885	93.4082
513.26	99.1883
516.635	104.895
520.01	108.254
523.385	105.294
526.76	96.5823
530.134	80.3813
533.509	65.118
536.884	50.715
540.259	42.012
543.634	31.7792
547.008	24.0286
550.383	17.217
553.758	11.3665
557.133	6.49139
560.508	3.65773
563.882	1.11322
567.257	0.444351
570.632	1.52661
574.007	0.036865
577.382	0.056068
580.756	1.23555
584.131	4.51434
587.506	8.61959
590.881	12.6104
594.256	14.9756
597.631	17.3711
601.005	20.4278
604.38	21.8311
607.755	23.3342
611.13	22.1409
614.505	18.7492
617.88	14.2751
621.254	9.87308
624.629	5.27993
628.004	2.32584
631.379	0.73053
634.754	0.557365
638.128	0.792641
641.503	0.547958
644.878	0.651428
648.253	1.25069
651.628	0.490631
655.002	0.79213
658.377	1.8591
661.752	2.48219
665.127	3.00294
668.502	3.02215
671.876	3.10244
675.251	2.7821
678.626	2.51717
682.001	4.01434
685.376	3.94325
688.751	4.18816
692.125	4.0695
695.5	3.33362
698.875	3.69278
702.25	3.85657
705.625	4.20411
709	3.92293
712.374	3.52192
715.749	3.96532
719.124	5.25798
722.499	5.94029
725.874	5.51044
729.248	6.10574
732.623	7.98093
735.998	5.86243
739.373	5.44971
742.748	5.53148
746.122	4.73885
749.497	4.00748
752.872	3.39365
756.247	2.14705
759.622	1.3235
762.997	1.17802
766.371	1.43326
769.746	0.246628
773.121	0.471962
776.496	0.907127
779.871	1.17625
783.245	2.08318
786.62	1.82048
789.995	1.64632
793.37	1.57639
796.745	0.138489
800.12	0.624344
803.494	2.64761
806.869	5.52752
810.244	9.60743
813.619	15.4679
816.994	19.6273
820.368	28.4738
823.743	38.7991
827.118	52.1955
830.493	66.3084
833.868	83.0016
837.242	106.725
840.617	124.994
843.992	153.961
847.367	190.393
850.742	244.862
854.117	331.274
857.491	453.794
860.866	617.476
864.241	800.94
867.616	964.097
870.991	1057.84
874.365	1090.71
877.74	1113.26
881.115	1140.41
884.49	1129.43
887.865	1017.49
891.24	801.311
894.614	562.919
897.989	371.809
901.364	242.129
904.739	160.033
908.114	105.383
911.489	69.7961
914.863	46.7709
918.238	30.0331
921.613	17.5754
924.988	9.89942
928.362	4.12006
931.737	1.02982
935.112	2.53397
938.487	3.13309
941.862	3.92972
945.237	3.65628
948.611	0.063568
951.986	5.22891
955.361	14.0541
958.736	24.326
962.111	34.2781
965.486	39.9291
968.86	34.715
972.235	23.4573
975.61	12.7675
978.985	5.84953
982.36	1.80786
985.734	1.85355
989.109	2.86247
992.484	4.89577
995.859	6.35626
999.234	6.24734
1002.61	6.48435
1005.98	4.97799
1009.36	5.49462
1012.73	6.38051
1016.11	5.10318
1019.48	5.10778
1022.86	4.58049
1026.23	3.8298
1029.61	4.55607
1032.98	3.99822
1036.36	4.72972
1039.73	5.0127
1043.11	5.66193
1046.48	5.90092
1049.86	5.71359
1053.23	5.06343
1056.61	3.95166
1059.98	1.65083
1063.36	0.135719
1066.73	0.168587
1070.11	0.410149
1073.48	0.497467
1076.85	1.42835
1080.23	0.564583
1083.6	0.231308
1086.98	0.813705
1090.35	1.96574
1093.73	2.72416
1097.1	4.14054
1100.48	5.09489
1103.85	5.53023
1107.23	5.44634
1110.6	4.96025
1113.98	4.65656
1117.35	4.20091
1120.73	3.67943
1124.1	3.61678
1127.48	3.97053
1130.85	3.89942
1134.23	3.95367
1137.6	4.4034
1140.98	5.60436
1144.35	7.99535
1147.73	10.5288
1151.1	13.8712
1154.47	18.5699
1157.85	23.9638
1161.22	28.5263
1164.6	32.6414
1167.97	33.5539
1171.35	32.6429
1174.72	27.9232
1178.1	23.2299
1181.47	17.5423
1184.85	13.3803
1188.22	9.50192
1191.6	6.80693
1194.97	5.12495
1198.35	4.06318
1201.72	3.47247
1205.1	2.23448
1208.47	1.73038
1211.85	1.25466
1215.22	1.3107
1218.6	0.518707
1221.97	0.161903
1225.35	0.680298
1228.72	0.199471
1232.1	0.262798
1235.47	0.168053
1238.85	0.411564
1242.22	0.164848
1245.6	0.266243
1248.97	0.413536
1252.35	0.230244
1255.72	0.426189
1259.09	0.76086
1262.47	0.585007
1265.84	1.30207
1269.22	1.41713
1272.59	0.953201
1275.97	0.359421
1279.34	1.00592
1282.72	0.308014
1286.09	1.46079
1289.47	0.304832
1292.84	0.754047
1296.22	0.300426
1299.59	0.810986
1302.97	0.002197
