Measurement: Raman, 532 nm, unoriented, Raman Data Processed
Mineral: Liskeardite
Rruff sample: R060768
Ideal chemistry: Al_3_As^5+^O_4_(OH)_6_5H_2_O
Locality: Penberthy Croft mine, St. Hilary, Cornwall, England
Source: Michael Scott
Description: White fibrous earthy crust
Raman shift (cm-1)	intensity
150.932	0
153.825	70.622
156.717	111.192
159.61	224.337
162.503	440.302
165.395	438.957
168.288	488.881
171.181	426.132
174.073	441.313
176.966	498.4
179.859	505.513
182.751	432.112
185.644	399.236
188.537	295.107
191.43	314.045
194.322	283.92
197.215	307.501
200.108	347.917
203	319.703
205.893	315.418
208.786	379.327
211.678	144.3
214.571	104.38
217.464	98.574
220.357	94.123
223.249	105.834
226.142	133.561
229.035	123.713
231.927	130.846
234.82	111.993
237.713	26.87
240.605	36.738
243.498	29.167
246.391	77.829
249.284	56.14
252.176	87.773
255.069	86.705
257.962	114.386
260.854	208.604
263.747	257.396
266.64	250.947
269.533	230.969
272.425	168.806
275.318	236.059
278.211	240.538
281.103	314.902
283.996	382.339
286.889	464.121
289.781	519.308
292.674	508.414
295.567	464.75
298.46	675.396
301.352	606.421
304.245	758.633
307.138	850.822
310.03	981.354
312.923	987.533
315.816	1122.57
318.708	1146.42
321.601	1214.32
324.494	1268.61
327.387	1027.24
330.279	788.696
333.172	600.312
336.065	439.386
338.957	303.014
341.85	226.628
344.743	195.686
347.635	108.024
350.528	175.961
353.421	159.744
356.314	241.496
359.206	288.9
362.099	393.525
364.991	452.335
367.884	476.736
370.777	431.635
373.67	299.482
376.562	237.825
379.455	189.786
382.348	208.493
385.24	284.295
388.133	339.476
391.026	390.523
393.918	305.857
396.811	231.264
399.704	171.735
402.597	66.013
405.489	9.362
408.382	118.667
411.275	115.129
414.167	127.206
417.06	109.461
419.953	18.525
422.845	5.237
425.738	38.637
428.631	56.761
431.524	60.952
434.416	48.548
437.309	6.204
440.202	67.973
443.094	77.79
445.987	107.925
448.88	130.262
451.772	159.953
454.665	166.375
457.558	216.198
460.451	236.431
463.343	252.665
466.236	261.059
469.129	330.717
472.021	410.429
474.914	445.753
477.807	449.347
480.699	607.91
483.592	714.017
486.485	750.059
489.378	819.847
492.27	849.661
495.163	899.99
498.056	1065.98
500.948	1135.09
503.841	1239.24
506.734	1305.96
509.626	1441.62
512.519	1456.67
515.412	1456.49
518.305	1545.86
521.197	1582.84
524.09	1450.79
526.983	1454.96
529.875	1377.9
532.768	1272.46
535.661	1086.42
538.554	1018.93
541.446	917.041
544.339	873.337
547.232	823.175
550.124	718.394
553.017	745.319
555.91	704.851
558.802	774.847
561.695	865.754
564.588	947.007
567.481	1062.3
570.373	1110.84
573.266	1149.93
576.159	1143.23
579.051	1119.4
581.944	1120.61
584.837	994.895
587.729	1054.16
590.622	1035.28
593.515	983.588
596.407	889.682
599.3	901.338
602.193	726.326
605.086	551.558
607.978	485.81
610.871	405.785
613.764	291.799
616.656	238.601
619.549	185.11
622.442	209.736
625.334	184.099
628.227	204.83
631.12	137.143
634.013	61.117
636.905	120.842
639.798	16.712
642.691	100.961
645.583	9.307
648.476	62.527
651.369	79.088
654.261	78.366
657.154	43.919
660.047	53.256
662.94	13.335
665.832	14.967
668.725	16.695
671.618	13.19
674.51	40.629
677.403	176.273
680.296	18.529
683.188	20.091
686.081	48.733
688.974	54.09
691.867	101.726
694.759	7.571
697.652	100.333
700.545	77.623
703.437	56.834
706.33	112.682
709.223	78.826
712.115	91.861
715.008	84.258
717.901	91.882
720.794	82.748
723.686	45.07
726.579	31.358
729.472	50.232
732.364	64.365
735.257	63.204
738.15	63.979
741.042	7.987
743.935	57.732
746.828	37.09
749.721	106.496
752.613	72.124
755.506	44.397
758.399	75.013
761.291	50.799
764.184	96.675
767.077	87.61
769.969	111.548
772.862	128.554
775.755	99.402
778.648	109.849
781.54	342.339
784.433	335.424
787.326	511.222
790.218	588.248
793.111	811.231
796.004	940.443
798.896	1038.25
801.789	1158.86
804.682	1183.67
807.575	1027.6
810.467	1106.05
813.36	1020.02
816.253	1047.76
819.145	1083.26
822.038	1177.14
824.931	1276.5
827.823	1387.09
830.716	1547.05
833.609	1720.2
836.502	2024.66
839.394	2169.26
842.287	2376.5
845.18	2512.01
848.072	2569.68
850.965	2531.49
853.858	2524.05
856.75	2368.37
859.643	2429.26
862.536	2426.89
865.429	2315.9
868.321	2210.01
871.214	2241.62
874.107	2338.02
876.999	2541.38
879.892	2635.85
882.785	2759.24
885.677	2845.55
888.57	3049.35
891.463	3115.94
894.355	3424.7
897.248	3484.82
900.141	3534.3
903.034	3610.01
905.926	3457.59
908.819	3317.33
911.712	2918.1
914.604	2602.71
917.497	2190.97
920.39	1929.97
923.282	1636.06
926.175	1459.77
929.068	1217.81
931.961	1053.34
934.853	814.158
937.746	658.446
940.639	596.86
943.531	453.107
946.424	359.35
949.317	268.854
952.209	220.379
955.102	194.175
957.995	130.137
960.888	36.884
963.78	9.5
966.673	123.037
969.566	165.91
972.458	310.373
975.351	510.894
978.244	684.674
981.136	771.455
984.029	665.651
986.922	391.498
989.815	150.523
992.707	47.939
995.6	16.836
998.493	3.74
1001.38	13.875
1004.28	3.728
1007.17	54.244
1010.06	72.556
1012.96	66.533
1015.85	82.051
1018.74	70.209
1021.63	96.25
1024.53	3.18
1027.42	51.012
1030.31	7.632
1033.2	75.914
1036.1	52.119
1038.99	12.713
1041.88	45.28
1044.78	4.909
1047.67	43.251
1050.56	37.673
1053.45	65.791
1056.35	95.326
1059.24	11.963
1062.13	28.248
1065.03	13.698
1067.92	19.293
1070.81	6.451
1073.7	89.728
1076.6	1.129
1079.49	73.153
1082.38	22.515
1085.27	42.915
1088.17	79.369
1091.06	57.676
1093.95	73.128
1096.84	90.815
1099.74	78.862
1102.63	75.654
1105.52	115.843
1108.41	163.265
1111.31	8.875
1114.2	7.679
1117.09	55.492
1119.99	11.458
1122.88	46.707
1125.77	43.15
1128.66	88.48
1131.56	10.435
1134.45	107.502
1137.34	49.35
1140.23	75.689
1143.13	73.201
1146.02	1.462
1148.91	44.786
1151.81	33.372
1154.7	35.312
1157.59	84.686
1160.48	33.099
1163.38	19.283
1166.27	19.436
1169.16	9.463
1172.06	23.636
1174.95	13.006
1177.84	59.01
1180.73	21.895
1183.62	111.582
1186.52	52.271
1189.41	26.738
1192.3	20.645
1195.2	23.905
1198.09	27.017
1200.98	21.982
1203.87	6.141
1206.77	2.734
1209.66	28.971
1212.55	5.166
1215.44	13.766
1218.34	52.111
1221.23	5.928
1224.12	1.109
1227.02	56.485
1229.91	39.929
1232.8	18.273
1235.69	78.379
1238.59	36.761
1241.48	0.861
1244.37	87.966
1247.27	51.806
1250.16	36.04
1253.05	23.573
1255.94	9.06
1258.84	17.876
1261.73	25.999
1264.62	11.212
1267.51	14.117
1270.41	62.476
1273.3	127.377
1276.19	50.114
1279.08	58.556
1281.98	45.745
1284.87	27.137
1287.76	37.511
1290.65	4.443
