Measurement: Raman, 532 nm, unoriented, Raman Data Processed
Mineral: Lithiophosphate
Rruff sample: R100092
Ideal chemistry: Li_3_PO_4_
Locality: Cachoeira mine, Itinga, Minas Gerais, Brazil
Source: Luiz Menezes
Description: Colorless fragments and prismatic crystals
Raman shift (cm-1)	intensity
90.4922	0
93.867	0.04057
97.2418	0.207248
100.617	0.191249
103.992	1.61774
107.366	3.41056
110.741	5.20362
114.116	6.10219
117.491	3.76135
120.865	2.6831
124.24	0.478406
127.615	0.669178
130.99	0.910974
134.365	1.12128
137.74	2.36963
141.114	1.642
144.489	2.28434
147.864	4.01368
151.239	6.68924
154.614	10.3681
157.988	12.0538
161.363	12.5933
164.738	13.0819
168.113	14.8925
171.488	15.8759
174.863	15.1741
178.237	16.4757
181.612	22.576
184.987	24.4718
188.362	15.3892
191.737	11.4972
195.112	10.9091
198.486	15.5385
201.861	11.3223
205.236	6.32863
208.611	11.1396
211.986	17.5761
215.36	20.788
218.735	29.2121
222.11	46.9783
225.485	86.2942
228.86	60.8389
232.234	19.8715
235.609	13.2294
238.984	14.3261
242.359	17.4539
245.734	15.6641
249.109	7.02034
252.483	4.91845
255.858	3.79507
259.233	2.8237
262.608	1.37953
265.983	1.57713
269.358	0.545956
272.732	0.778681
276.107	0.814734
279.482	0.745605
282.857	0.69401
286.232	0.568298
289.606	1.24145
292.981	0.276674
296.356	0.656607
299.731	0.599064
303.106	1.15935
306.481	4.25693
309.855	9.75552
313.23	18.5108
316.605	29.6755
319.98	45.9599
323.355	66.7735
326.729	73.1647
330.104	59.7901
333.479	61.8433
336.854	82.4738
340.229	117.466
343.603	166.457
346.978	222.466
350.353	274.839
353.728	285.572
357.103	259.995
360.478	245.761
363.852	261.53
367.227	318.197
370.602	398.761
373.977	414.776
377.352	297.051
380.726	174.157
384.101	123.339
387.476	112.037
390.851	123.77
394.226	117.215
397.601	76.1696
400.975	41.5992
404.35	19.5243
407.725	7.06159
411.1	0.473499
414.475	2.66673
417.849	2.1109
421.224	1.9485
424.599	4.36657
427.974	15.7889
431.349	34.0474
434.724	57.531
438.098	93.3176
441.473	139.886
444.848	153.285
448.223	91.3838
451.598	42.7543
454.972	28.1132
458.347	31.8549
461.722	49.6596
465.097	76.6709
468.472	120.652
471.846	184.791
475.221	225.104
478.596	167.086
481.971	119.802
485.346	71.169
488.721	30.1824
492.095	12.7427
495.47	4.05753
498.845	1.63551
502.22	0.452526
505.595	0.756613
508.969	0.984612
512.344	0.960848
515.719	0.005363
519.094	1.37612
522.469	5.02423
525.844	9.51276
529.218	14.1212
532.593	18.6848
535.968	13.8459
539.343	6.22987
542.718	2.92025
546.092	2.22085
549.467	1.91902
552.842	3.33599
556.217	5.25937
559.592	8.3279
562.967	11.0688
566.341	20.4488
569.716	40.0888
573.091	77.9261
576.466	126.413
579.841	211.149
583.216	318.841
586.59	339.25
589.965	161.185
593.34	69.1383
596.715	38.6594
600.09	25.0198
603.464	20.2438
606.839	22.7068
610.214	28.3827
613.589	36.9043
616.964	47.9573
620.338	52.3188
623.713	41.5703
627.088	23.8215
630.463	14.1843
633.838	9.13696
637.212	4.65628
640.587	2.26087
643.962	1.66624
647.337	0.003296
650.712	0.714594
654.087	1.00333
657.461	0.397343
660.836	0.349144
664.211	0.365746
667.586	0.605129
670.961	0.813194
674.335	0.226416
677.71	0.1168
681.085	0.291155
684.46	1.32694
687.835	0.446236
691.21	1.63197
694.584	2.27772
697.959	1.76399
701.334	0.788887
704.709	1.20759
708.084	1.34256
711.458	1.81996
714.833	0.847088
718.208	1.7612
721.583	2.33923
724.958	2.04975
728.332	2.6695
731.707	1.19869
735.082	1.712
738.457	2.42164
741.832	2.46662
745.207	2.97961
748.581	3.19394
751.956	3.26338
755.331	1.82879
758.706	3.81356
762.081	3.92378
765.456	4.34228
768.83	3.79509
772.205	3.35598
775.58	4.4516
778.955	4.02968
782.33	3.77203
785.704	5.68259
789.079	3.48145
792.454	3.69416
795.829	4.00027
799.204	1.27931
802.578	3.18572
805.953	3.13697
809.328	1.92092
812.703	0.249622
816.078	1.24883
819.453	1.18674
822.827	0.928989
826.202	0.595322
829.577	0.379776
832.952	0.704922
836.327	0.417294
839.702	0.213287
843.076	1.06641
846.451	0.011307
849.826	0.364639
853.201	1.71601
856.576	0.417873
859.95	1.42456
863.325	2.01117
866.7	1.25326
870.075	1.85399
873.45	0.153286
876.824	2.32219
880.199	3.4019
883.574	4.88203
886.949	5.48448
890.324	9.09774
893.698	11.6494
897.073	16.3876
900.448	21.1594
903.823	26.3387
907.198	34.7069
910.573	49.7155
913.947	69.5953
917.322	104.823
920.697	159.453
924.072	261.471
927.447	461.76
930.822	918.666
934.196	1633.38
937.571	2674.18
940.946	4204.66
944.321	3926.09
947.696	1517.83
951.07	609.547
954.445	305.329
957.82	172.685
961.195	106.796
964.57	67.1184
967.944	41.8669
971.319	27.5536
974.694	16.6049
978.069	8.8219
981.444	1.94373
984.819	0.419205
988.193	2.59312
991.568	2.05642
994.943	1.36537
998.318	2.67918
1001.69	10.505
1005.07	26.3349
1008.44	62.9966
1011.82	154.025
1015.19	295.006
1018.57	534.88
1021.94	851.617
1025.32	467.926
1028.69	130.498
1032.07	63.2275
1035.44	57.3239
1038.82	73.9539
1042.19	133.726
1045.57	180.577
1048.94	75.6434
1052.32	42.8915
1055.69	16.6715
1059.07	14.1759
1062.44	8.08826
1065.81	1.67912
1069.19	0.079403
1072.56	0.126144
1075.94	0.613791
1079.31	0.718317
1082.69	0.246792
1086.06	0.77648
1089.44	0.991062
1092.81	0.47761
1096.19	0.967611
1099.56	0.994114
1102.94	0.85516
1106.31	1.54453
1109.69	1.96073
1113.06	1.71534
1116.44	3.31044
1119.81	2.88573
1123.19	5.2698
1126.56	4.7865
1129.94	5.27249
1133.31	6.31501
1136.68	5.46084
1140.06	5.47629
1143.43	4.2102
1146.81	1.43558
1150.18	1.66098
1153.56	0.904263
1156.93	0.681938
1160.31	0.322369
1163.68	0.644464
1167.06	0.145802
1170.43	1.48532
1173.81	0.276903
1177.18	1.73822
1180.56	1.29546
1183.93	2.93874
1187.31	1.70428
1190.68	1.53146
1194.06	2.98165
1197.43	2.02782
1200.81	2.88204
1204.18	3.8514
1207.56	2.90573
1210.93	3.64896
1214.31	3.63958
1217.68	1.73391
1221.06	2.72726
1224.43	3.47357
1227.81	2.74219
1231.18	2.86439
1234.56	2.06361
1237.93	2.3497
1241.31	1.84959
1244.68	2.22398
1248.05	1.78011
1251.43	1.96964
1254.8	0.916264
1258.18	1.21934
1261.55	2.91161
1264.93	3.02153
1268.3	2.22785
1271.68	3.76649
1275.05	2.43017
1278.43	2.03676
1281.8	1.43131
1285.18	1.49192
1288.55	2.02882
1291.93	1.05298
1295.3	0.207947
1298.68	0.712776
1302.05	0.966736
