Measurement: Raman, 785 nm, unoriented, Raman Data Processed
Mineral: Litharge
Rruff sample: R060959
Ideal chemistry: PbO
Locality: Langban, Filipstad, Varmland, Sweden
Source: Michael Scott
Description: Red to red-orange crusts associated with black jacobsite and calcite
Raman shift (cm-1)	intensity
135.992	0
138.884	3936.17
141.777	18963.2
144.67	51181.9
147.562	75905.9
150.455	26154.2
153.348	7158.7
156.24	2019.65
159.133	274.36
162.026	56.625
164.918	131.773
167.811	401.606
170.704	354.666
173.597	208.383
176.489	3.9082
179.382	27.856
182.275	142.917
185.167	147.764
188.06	155.294
190.953	155.009
193.845	189.59
196.738	157.307
199.631	79.6773
202.524	70.7549
205.416	154.945
208.309	279.742
211.202	242.753
214.094	319.836
216.987	400.001
219.88	503.043
222.773	509.534
225.665	480.884
228.558	512.75
231.451	554.859
234.343	578.262
237.236	582.206
240.129	614.76
243.021	464.903
245.914	458.379
248.807	329.853
251.7	275.26
254.592	304.531
257.485	213.446
260.378	213.293
263.27	192.713
266.163	280.856
269.056	323.1
271.948	342.838
274.841	392.922
277.734	470.045
280.627	471.806
283.519	562.292
286.412	646.674
289.305	567.903
292.197	589.627
295.09	521.066
297.983	594.459
300.875	671.573
303.768	844.22
306.661	965.777
309.553	1131.39
312.446	1198.06
315.339	1385.94
318.231	1755.71
321.124	2275.6
324.017	3091.76
326.91	4266.21
329.802	6002.81
332.695	8259.8
335.588	10712.6
338.48	12201.5
341.373	11601.7
344.266	8837.61
347.159	5712.2
350.051	3752.23
352.944	2383.83
355.837	1507.69
358.729	970.677
361.622	545.164
364.515	260.959
367.407	162.032
370.3	131.569
373.193	61.5693
376.086	11.2764
378.978	18.707
381.871	42.1133
384.764	76.3516
387.656	25.3496
390.549	36.3809
393.442	31.1045
396.334	63.9531
399.227	118.465
402.12	105.73
405.012	17.1631
407.905	97.3584
410.798	27.4727
413.691	26.6484
416.583	6.97559
419.476	56.4551
422.369	39.3213
425.261	17.7324
428.154	24.8179
431.047	8.39014
433.94	24.4922
436.832	1.9707
439.725	48.5991
442.618	38.5308
445.51	35.9214
448.403	72.6343
451.296	32.9785
454.188	103.693
457.081	122.704
459.974	167.342
462.866	235.262
465.759	169.177
468.652	143.317
471.545	171.523
474.437	94.6773
477.33	86.4814
480.223	103.698
483.115	172.649
486.008	200.171
488.901	120.95
491.793	148.448
494.686	64.6377
497.579	74.8457
500.471	51.7124
503.364	50.2744
506.257	68.8276
509.15	45.9419
512.042	46.8335
514.935	79.3257
517.828	138.54
520.72	116.161
523.613	64.729
526.506	69.4385
529.399	64.3701
532.291	23.9565
535.184	101.019
538.077	103.21
540.969	106.394
543.862	86.0083
546.755	37.6851
549.647	51.9951
552.54	77.0938
555.433	93.7715
558.326	78.272
561.218	125.036
564.111	81.7876
567.004	82.7388
569.896	32.0161
572.789	3.0166
575.682	14.5732
578.574	14.0005
581.467	33.7969
584.36	46.5566
587.252	75.3926
590.145	12.5674
593.038	5.23926
595.931	6.38037
598.823	45.3315
601.716	89.7607
604.609	32.5508
607.501	87.2188
610.394	69.8286
613.287	65.1553
616.179	47.8921
619.072	57.5747
621.965	105.451
624.857	46.4116
627.75	73.9141
630.643	84.5029
633.536	43.7954
636.428	126.281
639.321	99.1816
642.214	103.189
645.106	44.3857
647.999	53.353
650.892	18.8027
653.784	63.7964
656.677	39.5986
659.57	47.5147
662.463	17.6396
665.355	1.97803
668.248	90.6313
671.141	73.0781
674.033	74.6392
676.926	71.1479
679.819	25.5801
682.712	72.7778
685.604	0.372559
688.497	33.0107
691.39	24.46
694.282	3.27832
697.175	68.9053
700.068	58.8643
702.96	71.96
705.853	8.10059
708.746	29.3975
711.639	47.9331
714.531	26.8403
717.424	60.9268
720.317	90.4033
723.209	26.7041
726.102	24.6514
728.995	40.8652
731.887	16.3047
734.78	57.2959
737.673	7.88916
740.566	54.9087
743.458	76.8398
746.351	48.0215
749.244	11.3711
752.136	50.7319
755.029	35.0718
757.922	6.48584
760.814	2.49609
763.707	16.5776
766.6	88.9414
769.492	53.9194
772.385	36.8145
775.278	44.856
778.17	20.127
781.063	106.002
783.956	64.9185
786.849	46.8711
789.741	87.9502
792.634	114.662
795.527	170.763
798.419	51.0308
801.312	114.341
804.205	54.1958
807.097	125.198
809.99	126.538
812.883	103.059
815.776	63.4937
818.668	120.476
821.561	62.4688
824.454	69.5039
827.346	65.7935
830.239	71.0293
833.132	76.4438
836.024	27.6763
838.917	75.4292
841.81	6.35693
844.703	21.6416
847.595	18.3643
850.488	11.5718
853.381	28.5645
856.273	9.72168
859.166	56.7715
862.059	26.7432
864.952	28.2632
867.844	1.50293
870.737	27.6211
873.63	38.8809
876.522	13.2124
879.415	55.8574
882.308	17.0703
885.2	47.9268
888.093	27.7163
890.986	45.1221
893.879	80.3799
896.771	8.76611
899.664	55.0723
902.557	96.374
905.449	46.271
908.342	26.1724
911.235	59.0693
914.127	79.8662
917.02	115.978
919.913	22.79
922.806	89.5225
925.698	73.665
928.591	92.7398
931.484	140.23
934.376	156.366
937.269	66.7222
940.162	83.8618
943.054	76.9707
945.947	62.2095
948.84	83.1035
951.732	90.856
954.625	98.9185
957.518	117.713
960.41	103.887
963.303	76.5996
966.196	142.332
969.089	113.83
971.981	88.2583
974.874	89.854
977.767	66.0264
980.659	146.991
983.552	546.728
986.445	50.6348
989.337	7.09473
992.23	11.3711
995.123	18.2061
998.016	48.3921
1000.91	39.5264
1003.8	38.9785
1006.69	41.5352
1009.59	13.2695
1012.48	54.7407
1015.37	19.3569
1018.26	74.9058
1021.16	39.3179
1024.05	7.44482
1026.94	24.4419
1029.84	37.9302
1032.73	45.5332
1035.62	38.6929
1038.51	53.9805
1041.41	90.7588
1044.3	128.287
1047.19	216.206
1050.08	291.832
1052.98	388.932
1055.87	284.912
1058.76	100.144
1061.65	77.1572
1064.55	47.3452
1067.44	31.3018
1070.33	19.2173
1073.23	38.3223
1076.12	59.8506
1079.01	48.1006
1081.9	12.0732
1084.8	55.9497
1087.69	54.5493
1090.58	7.11816
1093.47	26.9292
1096.37	61.1709
1099.26	29.2617
1102.15	22.9507
1105.05	10.2788
1107.94	58.0312
1110.83	45.2422
1113.72	68.9678
1116.62	35.5151
1119.51	19.6919
1122.4	42.4331
1125.29	23.1436
1128.19	80.6143
1131.08	11.8223
1133.97	62.1514
1136.87	28.8677
1139.76	7.31787
1142.65	69.8735
1145.54	77.6265
1148.44	53.7241
1151.33	54.5513
1154.22	25.2642
1157.11	50.8804
1160.01	55.5093
1162.9	46.7529
1165.79	65.4722
1168.68	75.2207
1171.58	28.0523
1174.47	51.5498
1177.36	29.125
1180.26	44.1352
1183.15	35.8101
1186.04	69.7808
1188.93	7.71387
1191.83	46.1528
1194.72	68.0273
1197.61	61.3984
1200.51	65.6519
1203.4	27.9439
1206.29	59.6226
1209.18	7.15479
1212.08	61.0483
1214.97	49.0605
1217.86	56.3794
1220.75	34.0366
1223.65	53.7451
1226.54	35.7051
1229.43	26.6221
1232.32	40.5518
1235.22	6.85596
1238.11	54.2417
1241	31.2368
1243.89	3.32519
1246.79	10.6729
1249.68	12.0107
1252.57	19.5464
1255.47	0
