Measurement: Raman, 780 nm, unoriented, Raman Data Processed
Mineral: Lithiotantite
Rruff sample: R100165
Ideal chemistry: LiTa_3_O_8_
Locality: Murundu mine, Jenipapo district, Itinga, Minas Gerais, Brazil
Source: Luiz Menezes
Description: Brown bladed crystals associated with reddish brown prismatic tantalite, and black cassiterite. Used in the Menezes et al (2012) study.
Raman shift (cm-1)	intensity
90.6055	0
93.9803	363.264
97.3551	1236.24
100.73	2048.96
104.105	2353.35
107.48	2218.88
110.854	1124.62
114.229	180.818
117.604	48.2529
120.979	200.947
124.354	741.724
127.728	1503.21
131.103	2222.29
134.478	2958.34
137.853	3456.59
141.228	3133.4
144.602	2129.96
147.977	1239.53
151.352	684.968
154.727	318.33
158.102	58.4419
161.477	83.281
164.851	89.0171
168.226	7.96655
171.601	157.994
174.976	373.228
178.351	595.568
181.726	682.078
185.1	622.571
188.475	584.609
191.85	392.288
195.225	120.484
198.6	9.14331
201.974	4.92554
205.349	130.467
208.724	351.516
212.099	685.397
215.474	1157.9
218.848	1666.47
222.223	1968.93
225.598	1947.61
228.973	1803.15
232.348	1681.09
235.722	1613.64
239.097	1420.33
242.472	1185.93
245.847	1249.69
249.222	1591.79
252.597	2121
255.971	2627.05
259.346	2834.31
262.721	2453.02
266.096	1892.99
269.471	1716.45
272.846	2116.62
276.22	2998.17
279.595	4235.26
282.97	4666.7
286.345	3428.68
289.719	2559.58
293.094	1956.92
296.469	1114.18
299.844	469.768
303.219	148.174
306.594	23.0742
309.968	103.582
313.343	134.329
316.718	26.2234
320.093	230.586
323.468	656.581
326.842	1241.94
330.217	1992.57
333.592	2784.24
336.967	3703.64
340.342	4781.59
343.717	5098.04
347.091	3467.6
350.466	1649.98
353.841	837.529
357.216	662.36
360.591	797.798
363.965	1064.56
367.34	1188.57
370.715	1129.49
374.09	950.175
377.465	599.446
380.839	238.42
384.214	33.7107
387.589	5.01831
390.964	107.867
394.339	272.253
397.714	405.233
401.088	487.627
404.463	618.011
407.838	903.726
411.213	1207.77
414.588	1368.48
417.962	1231.14
421.337	943.729
424.712	712.593
428.087	740.354
431.462	787.263
434.837	644.839
438.211	456.947
441.586	319.406
444.961	240.331
448.336	212.709
451.711	285.088
455.085	435.806
458.46	630.259
461.835	757.173
465.21	665.211
468.585	435.901
471.959	225.588
475.334	80.4675
478.709	11.7415
482.084	19.031
485.459	25.2061
488.834	46.5662
492.208	44.7332
495.583	26.7893
498.958	7.33545
502.333	34.741
505.708	68.1406
509.082	107.748
512.457	148.257
515.832	183.031
519.207	226.96
522.582	291.456
525.957	395.153
529.331	545.047
532.706	752.859
536.081	1066.25
539.456	1464.11
542.831	1960.9
546.205	2542.68
549.58	3127.82
552.955	3655.09
556.33	4065.49
559.705	4326.43
563.08	4400.83
566.454	4238.42
569.829	3806.14
573.204	3199.9
576.579	2558.85
579.954	1942.1
583.328	1385.72
586.703	943.905
590.078	598.493
593.453	351.938
596.828	174.699
600.202	33.2747
603.577	31.658
606.952	54.3967
610.327	6.45508
613.702	130.172
617.077	284.138
620.451	453.275
623.826	587.749
627.201	639.524
630.576	593.508
633.951	518.174
637.325	416.413
640.7	335.754
644.075	242.511
647.45	159.018
650.825	157.806
654.199	239.339
657.574	460.049
660.949	858.904
664.324	1423.63
667.699	2192.59
671.073	3105.5
674.448	4046.48
677.823	4895.96
681.198	5396.33
684.573	5318.59
687.948	4694.61
691.322	3764.33
694.697	2857.32
698.072	2063.22
701.447	1466.69
704.822	1007.05
708.197	688.585
711.571	452.548
714.946	298.055
718.321	183.971
721.696	97.8025
725.071	41.5953
728.445	3.28491
731.82	17.7895
735.195	28.5875
738.57	34.7065
741.945	16.3821
745.319	16.8131
748.694	7.33386
752.069	1.44482
755.444	11.4193
758.819	24.0773
762.193	37.6179
765.568	58.3259
768.943	73.1887
772.318	95.9769
775.693	114.983
779.068	145.2
782.442	175.383
785.817	195.126
789.192	226.352
792.567	243.424
795.942	255.098
799.317	264.137
802.691	282.896
806.066	310.55
809.441	339.865
812.816	374.906
816.191	427.441
819.565	474.352
822.94	480.608
826.315	452.053
829.69	397.012
833.065	331.322
836.439	270.583
839.814	227.275
843.189	197.71
846.564	158.144
849.939	138.394
853.313	106.331
856.688	87.8503
860.063	70.1388
863.438	59.321
866.813	55.1063
870.188	50.0991
873.562	70.9558
876.937	94.0482
880.312	139.295
883.687	192.802
887.062	250.439
890.437	314.827
893.811	386.534
897.186	436.13
900.561	470.062
903.936	470.001
907.311	440.933
910.685	379.511
914.06	314.314
917.435	243.031
920.81	177.252
924.185	117.353
927.559	79.4391
930.934	45.1938
934.309	17.924
937.684	4.64667
941.059	4.15991
944.433	9.62323
947.808	11.3103
951.183	10.0629
954.558	10.4487
957.933	1.55231
961.308	5.89026
964.682	3.05969
968.057	4.67065
971.432	4.26532
974.807	2.60217
978.182	7.77332
981.557	12.1774
984.931	14.761
988.306	19.3637
991.681	18.4242
995.056	24.8437
998.431	25.4872
1001.8	29.6711
1005.18	29.374
1008.55	26.2989
1011.93	22.9667
1015.3	18.2898
1018.68	19.8485
1022.05	13.7872
1025.43	16.7413
1028.8	15.1907
1032.18	16.0834
1035.55	14.2642
1038.93	9.39056
1042.3	9.34869
1045.68	9.82574
1049.05	11.1986
1052.43	7.69696
1055.8	7.37653
1059.18	7.65424
1062.55	7.92444
1065.93	6.64654
1069.3	11.5396
1072.68	6.80255
1076.05	7.58014
1079.43	10.5661
1082.8	5.48804
1086.18	8.29791
1089.55	8.90253
1092.92	9.0058
1096.3	7.93683
1099.67	8.24524
1103.05	9.5545
1106.42	11.7443
1109.8	9.35748
1113.17	5.06158
1116.55	6.13788
1119.92	5.42456
1123.3	6.80481
1126.67	0.333313
1130.05	2.27142
1133.42	2.13641
1136.8	1.26819
1140.17	5.927
1143.55	3.00854
1146.92	9.31616
1150.3	6.94678
1153.67	4.63123
1157.05	2.18268
1160.42	3.11169
1163.8	1.6709
1167.17	2.90161
1170.55	3.07678
1173.92	0.770264
1177.3	6.71039
1180.67	4.40149
1184.05	4.18359
1187.42	3.32776
1190.8	4.73529
1194.17	2.81067
1197.55	5.48614
1200.92	1.56702
1204.29	2.77307
1207.67	4.44086
1211.04	0.460327
1214.42	0.244934
1217.79	1.57782
1221.17	0.691956
1224.54	0.870178
1227.92	0.758545
1231.29	0.238159
1234.67	2.70386
1238.04	1.95843
1241.42	2.48383
1244.79	3.5871
1248.17	2.78742
1251.54	7.4046
1254.92	8.28241
1258.29	5.67248
1261.67	4.71808
1265.04	4.42804
1268.42	6.42389
1271.79	4.5882
1275.16	2.18408
1278.54	2.56213
1281.91	1.64642
