Measurement: Raman, 532 nm, unoriented, Raman Data Processed
Mineral: Lithiomarsturite
Rruff sample: R100094
Ideal chemistry: LiCa_2_Mn^2+^_2_Si_5_O_14_(OH)
Locality: Foote mine, Kings Mountain, North Carolina, USA
Description: Tan colored prismatic crystals, associated with brannockite, fluorapatite, albite, bavenite, and pyrite
Raman shift (cm-1)	intensity
123.276	0
126.651	2.52093
130.026	2.83982
133.401	0.094227
136.775	4.59097
140.15	14.1272
143.525	33.4766
146.9	33.9001
150.275	40.648
153.649	49.6537
157.024	58.5453
160.399	60.2161
163.774	71.7975
167.149	75.4128
170.524	85.3414
173.898	88.1599
177.273	85.0923
180.648	77.0157
184.023	65.5779
187.398	46.3013
190.773	33.1518
194.147	19.378
197.522	11.4662
200.897	4.32152
204.272	0.538933
207.647	0.098511
211.021	0.364441
214.396	1.56542
217.771	1.39818
221.146	6.48881
224.521	8.16722
227.895	16.2856
231.27	14.2308
234.645	14.8796
238.02	7.562
241.395	7.77791
244.769	9.67563
248.144	16.7972
251.519	23.9055
254.894	35.0348
258.269	49.8193
261.644	68.048
265.018	80.1038
268.393	82.7423
271.768	69.9156
275.143	46.1178
278.518	21.991
281.892	4.47293
285.267	1.89268
288.642	2.85329
292.017	6.21146
295.392	19.8827
298.767	35.9595
302.141	55.4823
305.516	66.1116
308.891	69.4365
312.266	72.6855
315.641	77.2901
319.015	87.1909
322.39	107.221
325.765	133.771
329.14	140.989
332.515	103.77
335.89	60.6262
339.264	27.101
342.639	8.95431
346.014	2.59125
349.389	1.98328
352.764	13.2253
356.139	33.4672
359.513	63.6746
362.888	87.0043
366.263	88.7044
369.638	71.5769
373.012	60.7239
376.387	65.9733
379.762	76.9919
383.137	101.77
386.512	123.673
389.887	130.595
393.261	106.746
396.636	73.2458
400.011	49.0598
403.386	33.384
406.761	24.65
410.135	18.8507
413.51	15.7428
416.885	10.819
420.26	5.14246
423.635	0.721436
427.01	2.75999
430.384	3.21057
433.759	0.505516
437.134	4.20308
440.509	3.3577
443.884	2.44175
447.259	1.3905
450.633	0.868248
454.008	1.35884
457.383	0.67939
460.758	4.78003
464.133	2.98549
467.507	8.29273
470.882	10.1117
474.257	14.0964
477.632	19.3891
481.007	25.3685
484.382	35.687
487.756	40.3321
491.131	46.8888
494.506	53.6572
497.881	60.6995
501.256	64.8828
504.63	62.6774
508.005	58.6896
511.38	53.7825
514.755	52.8743
518.13	51.7281
521.505	51.9388
524.879	55.294
528.254	62.762
531.629	70.0587
535.004	77.6186
538.379	81.3849
541.753	81.4291
545.128	73.3915
548.503	57.3509
551.878	46.3984
555.253	37.9099
558.628	36.4385
562.002	31.9569
565.377	28.5985
568.752	21.3303
572.127	13.1276
575.502	8.68871
578.876	6.17653
582.251	0.484756
585.626	0.72081
589.001	2.04572
592.376	1.90862
595.75	1.66499
599.125	2.34891
602.5	0.44767
605.875	0.701294
609.25	2.35182
612.625	6.88974
615.999	11.4764
619.374	16.4361
622.749	24.6849
626.124	35.3007
629.499	49.8851
632.873	69.2532
636.248	93.4989
639.623	127.97
642.998	175.222
646.373	248.776
649.747	366.534
653.122	528.737
656.497	730.472
659.872	954.02
663.247	1059.78
666.622	904.39
669.996	606.549
673.371	391.052
676.746	273.498
680.121	197.616
683.496	138.757
686.87	100.134
690.245	83.7215
693.62	75.3774
696.995	73.9963
700.37	67.7404
703.745	53.8611
707.119	37.9153
710.494	22.424
713.869	16.257
717.244	11.1868
720.619	7.72934
723.994	9.96774
727.368	10.5897
730.743	7.40876
734.118	5.85586
737.493	1.15699
740.868	1.27169
744.242	0.225792
747.617	1.54854
750.992	0.482536
754.367	0.043297
757.742	1.74054
761.116	0.587593
764.491	0.34584
767.866	1.10712
771.241	1.27889
774.616	1.45438
777.99	2.27293
781.365	2.14522
784.74	3.46444
788.115	4.88747
791.49	4.12317
794.865	6.18759
798.239	4.71477
801.614	5.58596
804.989	6.4139
808.364	4.53468
811.739	7.10311
815.114	5.47681
818.488	5.34007
821.863	3.49984
825.238	4.00014
828.613	2.94881
831.988	3.99384
835.362	3.01438
838.737	1.2507
842.112	1.0612
845.487	2.27471
848.862	0.016541
852.236	1.50447
855.611	0.406319
858.986	1.78809
862.361	0.75135
865.736	0.240829
869.111	3.00197
872.485	4.37309
875.86	10.6108
879.235	13.5913
882.61	18.2263
885.985	21.7349
889.36	29.4808
892.734	37.396
896.109	45.393
899.484	52.1647
902.859	46.2221
906.234	41.3351
909.608	33.0306
912.983	24.7598
916.358	12.6738
919.733	6.84802
923.108	0.237274
926.482	3.69667
929.857	5.01012
933.232	4.70435
936.607	2.2963
939.982	5.88397
943.357	16.064
946.731	30.6688
950.106	48.833
953.481	72.1424
956.856	96.6141
960.231	129.279
963.606	155.707
966.98	168.662
970.355	169.658
973.73	169.748
977.105	176.709
980.48	186.735
983.854	203.079
987.229	214.898
990.604	226.207
993.979	232.938
997.354	241.278
1000.73	260.691
1004.1	283.864
1007.48	325.877
1010.85	382.12
1014.23	436.03
1017.6	501.6
1020.98	565.714
1024.35	609.75
1027.73	553.31
1031.1	419.267
1034.48	295.277
1037.85	185.325
1041.23	119.67
1044.6	72.1141
1047.98	43.9278
1051.35	21.6789
1054.73	12.134
1058.1	6.4301
1061.47	2.90428
1064.85	1.24763
1068.22	10.199
1071.6	0.327927
1074.97	2.53706
1078.35	2.31297
1081.72	2.73357
1085.1	1.17319
1088.47	0.412819
1091.85	0.40361
1095.22	1.44611
1098.6	1.74775
1101.97	3.61803
1105.35	4.36621
1108.72	5.80207
1112.1	5.1373
1115.47	3.84055
1118.85	4.94228
1122.22	3.48785
1125.6	1.69253
1128.97	2.23204
1132.35	1.32182
1135.72	0.967934
1139.1	0.459583
1142.47	0.60873
1145.85	1.17302
1149.22	0.764008
1152.6	1.35287
1155.97	1.57119
1159.35	2.55786
1162.72	3.14109
1166.09	4.45116
1169.47	5.23281
1172.84	4.21358
1176.22	5.10867
1179.59	5.88884
1182.97	8.09845
1186.34	6.57184
1189.72	6.50446
1193.09	5.85286
1196.47	4.00505
1199.84	6.18443
1203.22	5.35543
1206.59	4.78458
1209.97	6.22266
1213.34	5.61791
1216.72	3.1319
1220.09	3.67419
1223.47	3.79065
1226.84	4.78499
1230.22	3.6706
1233.59	2.17445
1236.97	3.02168
1240.34	2.29784
1243.71	2.59313
1247.09	3.26995
1250.46	2.42671
1253.84	3.14658
1257.21	0.706463
1260.59	1.86704
1263.96	1.46646
1267.34	1.77427
1270.71	2.33666
1274.09	1.64424
1277.46	2.21371
1280.84	1.18093
1284.21	0.112438
1287.59	0.406952
1290.96	1.55429
1294.34	0.532394
1297.71	0.842316
1301.09	1.02993
