Measurement: Raman, 532 nm, unoriented, Raman Data Processed
Mineral: Lithiophilite
Rruff sample: R070303
Ideal chemistry: LiMn^2+^PO_4_
Locality: Vittaniemi, Erajarvi, Orivesi, Etela-Suomen Laani, Finland
Source: James Shigley
Description: Yellowish brown massive associated with muscovite
Measured chemistry: Li_1.00_(Mn^2+^_0.67_Fe^2+^_0.33_)_Î£=1_P_1.00_O_4_; trace amounts of Ca and Mg; Li estimated by difference and charge balance
Raman shift (cm-1)	intensity
133.27	0
136.645	30.4785
140.019	104.626
143.394	172.373
146.769	227.626
150.144	268.716
153.519	93.9062
156.894	65.3546
160.268	37.6338
163.643	18.2922
167.018	16.517
170.393	26.7281
173.768	17.5366
177.143	24.8756
180.517	27.7982
183.892	31.2389
187.267	59.4241
190.642	78.8957
194.017	168.977
197.391	259.091
200.766	272.385
204.141	106.892
207.516	14.233
210.891	4.01038
214.266	8.06079
217.64	14.0017
221.015	63.6692
224.39	109.058
227.765	220.141
231.14	226.26
234.514	170.028
237.889	201.124
241.264	250.702
244.639	247.024
248.014	149.32
251.388	50.7507
254.763	31.9767
258.138	15.6232
261.513	13.2896
264.888	16.33
268.263	40.1891
271.637	8.17279
275.012	20.5067
278.387	5.0238
281.762	3.13086
285.137	28.5004
288.512	17.8501
291.886	48.7606
295.261	46.8449
298.636	52.3471
302.011	102.02
305.386	145.682
308.76	215.635
312.135	249.843
315.51	196.184
318.885	110.358
322.26	69.908
325.635	58.2452
329.009	39.6366
332.384	0.308472
335.759	10.1882
339.134	2.21204
342.509	25.0493
345.883	13.1361
349.258	14.9183
352.633	25.9479
356.008	11.172
359.383	22.7805
362.757	12.0258
366.132	5.92236
369.507	9.57617
372.882	25.2969
376.257	37.054
379.632	48.027
383.006	48.9371
386.381	75.4
389.756	55.2572
393.131	66.7393
396.506	126.61
399.88	151.445
403.255	176.567
406.63	208.727
410.005	281.335
413.38	360.849
416.755	394.647
420.129	480.817
423.504	516.41
426.879	550.508
430.254	512.08
433.629	498.485
437.003	499.527
440.378	414.446
443.753	356.902
447.128	288.019
450.503	223.869
453.878	159.736
457.252	144.525
460.627	92.2325
464.002	85.9653
467.377	48.5
470.752	46.0306
474.127	9.23755
477.501	54.8512
480.876	24.4399
484.251	30.3252
487.626	5.38135
491.001	1.20373
494.375	14.8538
497.75	3.09534
501.125	34.7116
504.5	22.3484
507.875	3.95923
511.25	6.31909
514.624	12.3628
517.999	6.41504
521.374	15.8569
524.749	1.38672
528.124	20.9723
531.498	5.08765
534.873	1.14441
538.248	21.8209
541.623	9.70935
544.998	12.8667
548.372	46.7585
551.747	83.6309
555.122	55.6143
558.497	96.8401
561.872	176.094
565.247	289.187
568.621	464.477
571.996	609.029
575.371	848.665
578.746	871.819
582.121	704.973
585.495	813.722
588.87	733.668
592.245	375.993
595.62	145.091
598.995	113.199
602.37	93.2039
605.744	100.33
609.119	199.315
612.494	383.652
615.869	788.991
619.244	1293.8
622.619	2017.12
625.993	2292.8
629.368	1148.38
632.743	476.906
636.118	222.456
639.493	127.842
642.867	94.8757
646.242	49.199
649.617	35.9498
652.992	41.516
656.367	8.57019
659.741	6.4729
663.116	27.0607
666.491	0.644775
669.866	19.681
673.241	13.4054
676.616	1.50916
679.99	5.88318
683.365	10.3274
686.74	7.23279
690.115	1.86731
693.49	0.474976
696.865	26.4835
700.239	32.4308
703.614	29.5879
706.989	8.45068
710.364	14.7129
713.739	13.3195
717.113	21.4615
720.488	28.3024
723.863	24.3578
727.238	26.7007
730.613	41.8019
733.987	6.43457
737.362	39.5125
740.737	21.8112
744.112	43.7816
747.487	57.3428
750.862	22.6158
754.236	9.56384
757.611	47.7356
760.986	20.3312
764.361	76.1309
767.736	8.39062
771.111	18.4175
774.485	36.4955
777.86	20.7599
781.235	54.4226
784.61	21.1449
787.985	27.8529
791.359	17.677
794.734	11.9423
798.109	37.6296
801.484	28.1617
804.859	37.3966
808.234	26.2349
811.608	26.1793
814.983	16.6615
818.358	18.2031
821.733	21.8495
825.108	13.4203
828.482	38.1715
831.857	6.59936
835.232	16.928
838.607	35.6056
841.982	27.465
845.356	29.8842
848.731	21.1354
852.106	3.49463
855.481	25.1503
858.856	10.9076
862.231	16.3912
865.605	15.5874
868.98	3.70886
872.355	17.7446
875.73	0.633057
879.105	1.46655
882.48	10.9416
885.854	6.64282
889.229	35.5818
892.604	12.604
895.979	2.57715
899.354	34.6997
902.729	36.218
906.103	29.8848
909.478	40.7634
912.853	28.9678
916.228	87.3782
919.602	111.441
922.977	164.696
926.352	229.514
929.727	392.715
933.102	735.843
936.477	1635.84
939.851	4663.76
943.226	10955.4
946.601	20593.1
949.976	25592.8
953.351	10985.1
956.726	2875.2
960.1	939.333
963.475	461.754
966.85	296.848
970.225	209.547
973.6	144.514
976.974	139.872
980.349	137.864
983.724	152.524
987.099	197.522
990.474	301.009
993.848	551.935
997.223	995.353
1000.6	1545.6
1003.97	1793.14
1007.35	900.214
1010.72	347.489
1014.1	178.605
1017.47	96.4058
1020.85	26.1511
1024.22	1.42139
1027.6	4.0459
1030.97	6.13354
1034.35	22.5234
1037.72	2.29785
1041.1	13.4744
1044.47	37.3757
1047.85	24.2515
1051.22	85.781
1054.6	182.019
1057.97	466.368
1061.35	1259.01
1064.72	2445.4
1068.09	3215.19
1071.47	1313.37
1074.84	400.973
1078.22	281.092
1081.59	239.64
1084.97	217.505
1088.34	152.081
1091.72	103.002
1095.09	67.5081
1098.47	17.6382
1101.84	32.7656
1105.22	50.4946
1108.59	7.87378
1111.97	42.6519
1115.34	1.80469
1118.72	30.6245
1122.09	26.3677
1125.47	47.905
1128.84	27.3628
1132.22	30.6086
1135.59	45.4919
1138.97	41.1553
1142.34	56.6531
1145.71	6.23828
1149.09	3.27246
1152.46	9.66016
1155.84	51.1934
1159.21	24.8377
1162.59	64.3347
1165.96	28.0576
1169.34	51.6443
1172.71	47.7744
1176.09	49.3308
1179.46	59.8892
1182.84	42.9236
1186.21	50.5793
1189.59	65.2876
1192.96	23.2373
1196.34	36.2305
1199.71	8.90088
1203.09	4.83594
1206.46	28.1584
1209.84	47.0325
1213.21	0.114258
1216.59	9.2168
1219.96	14.3694
1223.34	16.7439
1226.71	19.0891
1230.09	6.00928
1233.46	17.7207
1236.84	11.0813
1240.21	23.2837
1243.59	39.4263
1246.96	30.5422
1250.34	57.6245
1253.71	62.3306
1257.08	20.9373
1260.46	51.9956
1263.83	41.6482
1267.21	41.864
1270.58	53.6594
1273.96	4.91504
1277.33	21.2041
1280.71	45.3745
1284.08	19.8018
1287.46	18.5386
1290.83	10.0605
1294.21	15.0652
1297.58	26.4421
1300.96	9.21729
