Measurement: Raman, 532 nm, unoriented, Raman Data Processed
Mineral: Lithiophilite
Rruff sample: R100096
Ideal chemistry: LiMn^2+^PO_4_
Locality: Foote mine, Kings Mountain, North Carolina, USA
Description: Parallel aggregate of pale pink acicular crystals, associated with quartz, muscovite, and elongated platy bertrandite, R110025.
Raman shift (cm-1)	intensity
123.276	0
126.651	0.830181
130.026	1.39477
133.401	0.270839
136.775	1.76472
140.15	2.5274
143.525	7.40441
146.9	5.85883
150.275	7.60758
153.649	8.89544
157.024	11.3955
160.399	13.3044
163.774	14.2876
167.149	13.9327
170.524	13.8371
173.898	15.5581
177.273	14.0284
180.648	13.8557
184.023	13.0227
187.398	15.3497
190.773	13.9261
194.147	16.0237
197.522	17.7568
200.897	22.2567
204.272	17.7776
207.647	11.8417
211.021	9.61297
214.396	9.18617
217.771	12.5976
221.146	17.2803
224.521	14.9517
227.895	17.0753
231.27	19.2123
234.645	21.8233
238.02	25.2397
241.395	15.7331
244.769	6.71727
248.144	2.97491
251.519	2.18677
254.894	0.113506
258.269	0.186958
261.644	2.37388
265.018	1.62772
268.393	0.301548
271.768	0.15202
275.143	0.329037
278.518	0.040878
281.892	0.545963
285.267	1.6932
288.642	1.87501
292.017	5.46316
295.392	5.95091
298.767	6.65781
302.141	8.59883
305.516	9.02648
308.891	5.41157
312.266	3.21422
315.641	2.38325
319.015	1.94662
322.39	0.68261
325.765	0.122139
329.14	0.886951
332.515	0.04583
335.89	0.61068
339.264	0.420486
342.639	0.801147
346.014	1.0203
349.389	0.239712
352.764	0.163471
356.139	0.313725
359.513	0.977634
362.888	0.375969
366.263	0.04752
369.638	1.63632
373.012	0.516949
376.387	1.58753
379.762	2.20657
383.137	2.85972
386.512	4.00977
389.887	4.82704
393.261	7.63034
396.636	8.89566
400.011	10.6425
403.386	14.2844
406.761	16.2181
410.135	19.0648
413.51	20.4097
416.885	22.9665
420.26	25.7773
423.635	26.5891
427.01	27.155
430.384	27.6364
433.759	29.3387
437.134	29.3249
440.509	24.5253
443.884	22.8693
447.259	16.6648
450.633	13.8906
454.008	10.7314
457.383	8.11368
460.758	10.0876
464.133	7.80349
467.507	7.01345
470.882	3.59953
474.257	2.49038
477.632	2.8655
481.007	1.85865
484.382	2.15249
487.756	0.75021
491.131	1.10893
494.506	0.172489
497.881	0.290188
501.256	1.25609
504.63	1.08765
508.005	1.53656
511.38	1.94313
514.755	0.106819
518.13	0.864761
521.505	0.349895
524.879	0.440037
528.254	0.739948
531.629	0.079025
535.004	0.746861
538.379	0.02565
541.753	0.989769
545.128	1.65219
548.503	0.800137
551.878	2.21085
555.253	1.86782
558.628	3.8346
562.002	7.30521
565.377	10.8577
568.752	14.746
572.127	22.9524
575.502	33.0574
578.876	40.8355
582.251	37.6612
585.626	35.1962
589.001	32.5238
592.376	19.0393
595.75	11.9246
599.125	6.68521
602.5	3.81477
605.875	5.63767
609.25	12.7908
612.625	18.5464
615.999	27.8072
619.374	41.4931
622.749	56.1816
626.124	45.7448
629.499	16.5821
632.873	6.60698
636.248	3.46071
639.623	1.44591
642.998	1.92958
646.373	0.228123
649.747	0.728001
653.122	0.760582
656.497	1.45586
659.872	0.913246
663.247	0.276592
666.622	0.774879
669.996	1.02346
673.371	0.426483
676.746	0.016407
680.121	0.398087
683.496	0.035488
686.87	0.299549
690.245	0.6726
693.62	0.866119
696.995	0.390991
700.37	1.05686
703.745	0.005543
707.119	0.114517
710.494	0.932629
713.869	0.960266
717.244	1.16442
720.619	0.168808
723.994	0.62077
727.368	1.27268
730.743	0.182693
734.118	1.51431
737.493	0.630737
740.868	0.456665
744.242	1.79623
747.617	1.22012
750.992	0.762047
754.367	1.80605
757.742	0.315327
761.116	1.48496
764.491	1.01786
767.866	1.40708
771.241	0.979019
774.616	1.14251
777.99	1.14645
781.365	0.635067
784.74	0.804546
788.115	1.7791
791.49	1.3697
794.865	0.042007
798.239	0.02684
801.614	0.080399
804.989	1.37964
808.364	0.958199
811.739	1.87103
815.114	0.965645
818.488	0.939178
821.863	0.408604
825.238	0.834732
828.613	0.659367
831.988	1.69564
835.362	1.20414
838.737	1.00145
842.112	1.01398
845.487	2.04046
848.862	0.74086
852.236	1.74934
855.611	0.80233
858.986	0.671059
862.361	1.01423
865.736	0.758839
869.111	0.667679
872.485	0.462105
875.86	0.312008
879.235	0.115524
882.61	0.074505
885.985	0.643642
889.36	0.50267
892.734	0.101833
896.109	0.034504
899.484	1.61019
902.859	0.527271
906.234	0.512516
909.608	1.79051
912.983	2.91018
916.358	5.30261
919.733	6.63016
923.108	10.0134
926.482	16.7389
929.857	25.1832
933.232	46.5739
936.607	138.318
939.982	321.484
943.357	472.358
946.731	919.703
950.106	1605.64
953.481	460.812
956.856	94.9645
960.231	37.6718
963.606	19.5461
966.98	11.2767
970.355	7.33939
973.73	4.26396
977.105	3.24386
980.48	2.72743
983.854	2.41623
987.229	3.84269
990.604	6.94571
993.979	17.8689
997.354	42.1784
1000.73	62.5669
1004.1	91.4617
1007.48	160.078
1010.85	37.1029
1014.23	10.764
1017.6	9.16732
1020.98	6.7901
1024.35	0.997959
1027.73	1.1452
1031.1	0.107655
1034.48	0.517262
1037.85	0.024948
1041.23	0.778427
1044.6	0.424381
1047.98	0.929054
1051.35	2.07439
1054.73	6.94534
1058.1	16.9236
1061.47	28.6869
1064.85	49.2275
1068.22	82.0761
1071.6	34.055
1074.97	13.363
1078.35	10.3282
1081.72	8.66412
1085.1	4.58718
1088.47	2.8933
1091.85	2.16835
1095.22	1.4804
1098.6	1.00586
1101.97	0.518166
1105.35	0.61977
1108.72	1.22645
1112.1	1.0019
1115.47	0.113403
1118.85	2.53744
1122.22	1.57735
1125.6	0.075207
1128.97	0.367359
1132.35	1.07
1135.72	0.998798
1139.1	1.31935
1142.47	0.789387
1145.85	1.64893
1149.22	0.400101
1152.6	0.278477
1155.97	0.41724
1159.35	1.00713
1162.72	2.38459
1166.09	1.36723
1169.47	1.87807
1172.84	1.16099
1176.22	1.24514
1179.59	1.50416
1182.97	3.8503
1186.34	1.6238
1189.72	1.55801
1193.09	0.759995
1196.47	0.160717
1199.84	1.24595
1203.22	0.130756
1206.59	0.095753
1209.97	0.937893
1213.34	0.380562
1216.72	0.351192
1220.09	0.652267
1223.47	0.316231
1226.84	0.34845
1230.22	1.27758
1233.59	1.1591
1236.97	0.871616
1240.34	1.66983
1243.71	1.92191
1247.09	2.31734
1250.46	2.20386
1253.84	2.38655
1257.21	0.840557
1260.59	2.11505
1263.96	1.35302
1267.34	2.05726
1270.71	2.49155
1274.09	1.06386
1277.46	1.53898
1280.84	1.50325
1284.21	0.562
1287.59	0.357174
1290.96	0.952198
1294.34	0.106976
1297.71	0.025612
1301.09	1.4157
