Measurement: Raman, 532 nm, unoriented, Raman Data Processed
Mineral: Lithiotantite
Rruff sample: R100165
Ideal chemistry: LiTa_3_O_8_
Locality: Murundu mine, Jenipapo district, Itinga, Minas Gerais, Brazil
Source: Luiz Menezes
Description: Brown bladed crystals associated with reddish brown prismatic tantalite, and black cassiterite. Used in the Menezes et al (2012) study.
Raman shift (cm-1)	intensity
147.925	0
150.818	37.0772
153.71	370.719
156.603	582.998
159.496	429.638
162.388	169.846
165.281	252.853
168.174	681.017
171.067	1061.94
173.959	1271.31
176.852	1503.81
179.745	1638.94
182.637	1637.82
185.53	1464.88
188.423	1332.47
191.315	1092.35
194.208	540.662
197.101	88.7012
199.994	92.9697
202.886	53.0825
205.779	101.548
208.672	364.57
211.565	747.118
214.457	1384.62
217.35	2314.19
220.243	3272.15
223.135	3841.15
226.028	3746.19
228.921	3300.1
231.813	2832.77
234.706	2578.59
237.599	2356.08
240.492	1957.04
243.384	1617.06
246.277	1653.55
249.17	2121.46
252.062	2886.82
254.955	3840.72
257.848	4735.55
260.74	5103.85
263.633	4611.55
266.526	3782.78
269.418	3236.19
272.311	3325.23
275.204	4153.48
278.097	5880.67
280.989	8061.73
283.882	8503.97
286.775	6564
289.667	4981.04
292.56	3838.43
295.453	2514.96
298.346	1187.42
301.238	398.569
304.131	7.09668
307.024	187.833
309.916	240.273
312.809	212.935
315.702	10.2549
318.594	423.385
321.487	1035.29
324.38	1905.8
327.273	3061.51
330.165	4359.32
333.058	5603.49
335.951	7038.05
338.843	9082.97
341.736	11414.2
344.629	11834.9
347.522	8686.73
350.414	4869.16
353.307	2693.49
356.2	1856.92
359.092	1728.52
361.985	2019.29
364.878	2357.1
367.77	2488.41
370.663	2430.7
373.556	2353.13
376.449	2065.35
379.341	1395.32
382.234	701.831
385.127	264.799
388.019	68.417
390.912	140.657
393.805	362.009
396.697	576.977
399.59	682.016
402.483	734.64
405.376	909.669
408.268	1183.93
411.161	1628.22
414.054	2023.49
416.946	2073.09
419.839	1674.38
422.732	1237.19
425.625	1042.65
428.517	1298.1
431.41	1577.69
434.303	1461.58
437.195	1114.89
440.088	866.737
442.981	714.283
445.873	633.094
448.766	635.008
451.659	756.363
454.551	1034.46
457.444	1452.59
460.337	1864.29
463.23	1982.37
466.122	1657.78
469.015	1109.6
471.908	618.46
474.8	275.321
477.693	61.669
480.586	16.7012
483.479	67.3769
486.371	91.3711
489.264	102.911
492.157	99.7378
495.049	78.8818
497.942	25.9795
500.835	30.8218
503.728	96.0019
506.62	146.126
509.513	205.011
512.406	263.139
515.298	319.879
518.191	352.927
521.084	428.612
523.976	584.665
526.869	785.161
529.762	1093.4
532.654	1556.95
535.547	2123.15
538.44	2851.42
541.333	3770.36
544.225	4860.35
547.118	6091.99
550.011	7343.66
552.903	8490
555.796	9390.68
558.689	10100.6
561.582	10592.1
564.474	10691.7
567.367	10292.1
570.26	9461.65
573.152	8242.36
576.045	6891.75
578.938	5571.13
581.83	4364.62
584.723	3337.43
587.616	2514.39
590.509	1794.37
593.401	1223.26
596.294	755.776
599.187	405.849
602.079	108.175
604.972	77.792
607.865	165.984
610.758	86.0147
613.65	106.358
616.543	389.535
619.436	729.788
622.328	1049.02
625.221	1292.68
628.114	1392.6
631.006	1364.58
633.899	1283.06
636.792	1233.56
639.684	1179.31
642.577	1077.52
645.47	945.296
648.363	805.165
651.255	808.768
654.148	1052.27
657.041	1566.45
659.933	2426.03
662.826	3632.89
665.719	5119.13
668.612	6957.16
671.504	8954.75
674.397	10926
677.29	12549.5
680.182	13569.5
683.075	13773.6
685.968	12849.8
688.861	11129.9
691.753	9043.28
694.646	7061.15
697.539	5375.01
700.431	4025.01
703.324	2972.59
706.217	2175.46
709.109	1571.59
712.002	1126.16
714.895	799.67
717.788	536.917
720.68	329.967
723.573	177.947
726.466	73.9734
729.358	1.44409
732.251	34.0706
735.144	58.678
738.036	64.093
740.929	58.6711
743.822	54.7253
746.715	40.822
749.607	28.5328
752.5	14.467
755.393	10.6519
758.285	45.307
761.178	71.5409
764.071	102.541
766.963	138.237
769.856	177.627
772.749	222.794
775.642	277.644
778.534	342.606
781.427	424.421
784.32	495.149
787.212	568.244
790.105	645.342
792.998	694.281
795.89	750.538
798.783	804.162
801.676	860.66
804.569	934.335
807.461	1034.68
810.354	1159.91
813.247	1308.9
816.139	1471.85
819.032	1612.42
821.925	1694.38
824.818	1663.24
827.71	1544.28
830.603	1352.94
833.496	1162.34
836.388	980.842
839.281	840.811
842.174	726.379
845.067	630.977
847.959	540.878
850.852	471.801
853.745	398.712
856.637	335.832
859.53	268.505
862.423	223.172
865.315	190.954
868.208	175.575
871.101	183.753
873.994	218.869
876.886	277.396
879.779	381.336
882.672	502.769
885.564	648.609
888.457	815.673
891.35	958.653
894.242	1117.67
897.135	1255.92
900.028	1357.93
902.92	1381.01
905.813	1325.87
908.706	1222.76
911.599	1073.7
914.491	903.299
917.384	735.223
920.277	566.45
923.169	418.095
926.062	282.684
928.955	183.489
931.847	110.776
934.74	59.5753
937.633	20.4654
940.526	10.0573
943.418	24.748
946.311	25.7311
949.204	29.1162
952.096	30.9771
954.989	24.5439
957.882	14.7182
960.775	15.5629
963.667	4.60571
966.56	6.45489
969.453	12.0333
972.345	17.7315
975.238	23.1157
978.131	37.5459
981.024	42.5709
983.916	48.2359
986.809	56.9314
989.702	64.6061
992.594	69.853
995.487	77.2374
998.38	85.6873
1001.27	86.0776
1004.16	82.8775
1007.06	77.9448
1009.95	74.5781
1012.84	68.2776
1015.74	62.0184
1018.63	51.1537
1021.52	45.3625
1024.41	37.9984
1027.31	38.4652
1030.2	32.2345
1033.09	24.7366
1035.98	24.5868
1038.88	24.4275
1041.77	21.3471
1044.66	21.1118
1047.56	17.4164
1050.45	18.117
1053.34	17.5508
1056.23	17.6207
1059.13	16.858
1062.02	13.7167
1064.91	15.4004
1067.81	17.7749
1070.7	18.0852
1073.59	17.1572
1076.48	19.8209
1079.38	21.1909
1082.27	24.5559
1085.16	24.7819
1088.05	24.753
1090.95	24.5761
1093.84	25.5566
1096.73	24.3752
1099.62	27.3875
1102.52	29.7892
1105.41	29.566
1108.3	26.7853
1111.19	28.5232
1114.09	22.3943
1116.98	31.4256
1119.87	29.8343
1122.77	21.2015
1125.66	17.623
1128.55	16.4456
1131.44	14.6402
1134.34	15.8737
1137.23	10.3364
1140.12	8.4133
1143.02	28.1017
1145.91	4.83771
1148.8	6.9751
1151.69	1.11972
1154.59	6.27078
1157.48	3.16547
1160.37	0.336395
1163.26	4.51016
1166.16	3.35379
1169.05	2.14386
1171.94	0.340454
1174.84	1.51514
1177.73	0.967529
1180.62	1.16641
1183.51	4.8317
1186.4	5.31729
1189.3	3.89697
1192.19	1.71323
1195.08	1.31387
1197.98	1.24481
1200.87	5.54983
1203.76	0.14566
1206.65	1.61392
1209.55	1.64062
1212.44	0.128326
1215.33	0.718048
1218.22	2.93533
1221.12	1.68521
1224.01	0.639374
1226.9	0.035278
1229.8	1.07355
1232.69	1.55087
1235.58	2.11838
1238.47	2.41843
1241.37	1.17178
1244.26	2.69287
1247.15	4.4635
1250.05	4.09335
1252.94	3.76236
1255.83	6.9368
1258.72	6.62598
1261.62	9.73541
1264.51	20.2329
1267.4	14.1765
1270.29	26.393
1273.19	10.9038
1276.08	10.2467
1278.97	7.36121
1281.87	9.46256
1284.76	8.25839
1287.65	5.5827
1290.54	7.98459
1293.43	5.43225
1296.33	4.78949
1299.22	1.53155
1302.11	0.08078
