Measurement: Raman, 532 nm, unoriented, Raman Data Processed
Mineral: Litharge
Rruff sample: R060959
Ideal chemistry: PbO
Locality: Langban, Filipstad, Varmland, Sweden
Source: Michael Scott
Description: Red to red-orange crusts associated with black jacobsite and calcite
Raman shift (cm-1)	intensity
122.969	0
126.344	153.231
129.719	1262.97
133.094	5465.84
136.469	16568.4
139.843	33420.6
143.218	54347.6
146.593	66237.5
149.968	23334.4
153.343	9431.11
156.718	4894.08
160.092	3041.34
163.467	1975.76
166.842	1296.75
170.217	833.522
173.592	548.022
176.966	488.011
180.341	333.971
183.716	164.818
187.091	34.6846
190.466	9.43213
193.84	94.2705
197.215	60.334
200.59	101.209
203.965	77.2266
207.34	7.22705
210.714	11.6953
214.089	0.624512
217.464	6.33496
220.839	15.937
224.214	8.19971
227.589	6.25391
230.963	63.3613
234.338	34.5269
237.713	17.7017
241.088	107.287
244.463	136.788
247.838	166.401
251.212	211.296
254.587	177.412
257.962	208.238
261.337	315.127
264.712	375.235
268.086	479.397
271.461	521.429
274.836	589.456
278.211	633.125
281.586	653.269
284.96	630.506
288.335	596.764
291.71	635.984
295.085	686.307
298.46	690.763
301.834	830.389
305.209	972.626
308.584	1164.34
311.959	1368.39
315.334	1729.14
318.709	2101.69
322.083	2767.69
325.458	3696.89
328.833	4938.82
332.208	6021.13
335.583	6630.14
338.957	6440.5
342.332	5171.71
345.707	3653.73
349.082	2454.82
352.457	1657.19
355.832	1129.13
359.206	748.823
362.581	494.745
365.956	324.348
369.331	239.71
372.706	175.172
376.08	97.5996
379.455	81.4126
382.83	22.4844
386.205	50.5039
389.58	25.1685
392.954	5.62598
396.329	52.0967
399.704	53.9688
403.079	13.5327
406.454	6.62744
409.829	34.4526
413.203	7.25098
416.578	29.7681
419.953	28.5161
423.328	35.9863
426.703	41.1602
430.077	64.6191
433.452	51.5112
436.827	82.9531
440.202	107.551
443.577	94.2671
446.952	153.591
450.326	133.804
453.701	189.213
457.076	204.739
460.451	166.033
463.826	142.682
467.2	144.162
470.575	176.206
473.95	87.6309
477.325	135.416
480.7	41.1108
484.074	77.5933
487.449	79.5928
490.824	71.4522
494.199	80.1943
497.574	69.7925
500.949	26.5781
504.323	77.6987
507.698	25.8945
511.073	45.6406
514.448	4.31152
517.823	58.0747
521.197	24.9546
524.572	46.938
527.947	53.1782
531.322	1.00293
534.697	7.52441
538.072	36.1733
541.446	26.5259
544.821	67.3169
548.196	4.47412
551.571	7.21924
554.946	16.7637
558.32	50.8418
561.695	49.5312
565.07	31.1763
568.445	50.1973
571.82	38.9033
575.194	19.2061
578.569	35.544
581.944	48.9614
585.319	93.1182
588.694	53.1724
592.068	46.0732
595.443	81.0552
598.818	63.8345
602.193	66.481
605.568	56.6841
608.942	108.975
612.317	124.089
615.692	90.7866
619.067	102.952
622.442	125.239
625.817	115.519
629.191	116.233
632.566	69.0762
635.941	50.1001
639.316	118.092
642.691	81.1631
646.066	47.4805
649.44	93.5947
652.815	84.6284
656.19	53.3369
659.565	49.9194
662.94	75.23
666.314	37.2637
669.689	55.606
673.064	89.5938
676.439	92.1899
679.814	51.9414
683.188	44.9145
686.563	26.9526
689.938	46.7905
693.313	57.7891
696.688	82.04
700.062	72.9297
703.437	67.9004
706.812	34.5757
710.187	52.584
713.562	28.2368
716.937	11.791
720.311	4.38086
723.686	3.27832
727.061	21.6392
730.436	31.2847
733.811	27.4355
737.185	44.438
740.56	10.7466
743.935	60.1108
747.31	78.8701
750.685	57.2529
754.059	55.1475
757.434	62.0806
760.809	2.57373
764.184	6.37939
767.559	60.8198
770.934	65.8682
774.308	2.32031
777.683	18.1548
781.058	82.0772
784.433	94.8359
787.808	93.7158
791.183	93.0845
794.557	125.126
797.932	90.7695
801.307	95.7212
804.682	159.274
808.057	110.144
811.431	156.391
814.806	169.973
818.181	141.283
821.556	165.034
824.931	171.07
828.305	183.505
831.68	214.148
835.055	140.185
838.43	75.1655
841.805	92.3594
845.179	114.163
848.554	76.5444
851.929	17.7251
855.304	55.9453
858.679	51.2056
862.053	24.2134
865.428	19.4751
868.803	29.9395
872.178	19.938
875.553	0.383301
878.928	27.6973
882.302	32.1694
885.677	6.65576
889.052	5.92529
892.427	94.3496
895.802	147.001
899.177	101.187
902.551	109.086
905.926	91.4751
909.301	95.896
912.676	83.603
916.051	101.781
919.425	108.235
922.8	127.257
926.175	202.888
929.55	235.815
932.925	101.62
936.299	90.7988
939.674	161.477
943.049	114.388
946.424	111.231
949.799	107.608
953.173	105.186
956.548	119.828
959.923	117.844
963.298	134.266
966.673	116.913
970.048	61.0215
973.422	64.4985
976.797	105.129
980.172	51.4355
983.547	8.521
986.922	12.4521
990.296	29.6299
993.671	23.9219
997.046	11.6084
1000.42	32.4873
1003.8	15.081
1007.17	43.6025
1010.54	29.9082
1013.92	57.7353
1017.29	34.1357
1020.67	30.6914
1024.05	51.0727
1027.42	72.2817
1030.79	69.3462
1034.17	57.0317
1037.54	157.202
1040.92	292.999
1044.29	457.834
1047.67	728.539
1051.04	807.068
1054.42	797.984
1057.79	329.418
1061.17	171.955
1064.54	84.2197
1067.92	32.5991
1071.29	29.2222
1074.67	77.3897
1078.04	13.4058
1081.42	14.3057
1084.79	90.8677
1088.17	61.8252
1091.54	94.2378
1094.92	42.1499
1098.29	110.414
1101.66	82.1856
1105.04	80.3877
1108.41	106.607
1111.79	41.0845
1115.16	33.9385
1118.54	81.8603
1121.91	65.9863
1125.29	41.4702
1128.66	88.9394
1132.04	127.983
1135.41	63.4062
1138.79	104.038
1142.16	85.7207
1145.54	55.4023
1148.91	12.606
1152.29	45.896
1155.66	75.3066
1159.04	90.6479
1162.41	81.5659
1165.79	28.563
1169.16	53.2236
1172.54	7.55713
1175.91	82.5562
1179.29	93.1909
1182.66	136.597
1186.04	80.0283
1189.41	44.4907
1192.79	20.0327
1196.16	22.4941
1199.54	0.960938
1202.91	11.0552
1206.29	63.2895
1209.66	62.4946
1213.03	45.2324
1216.41	58.8828
1219.78	8.84863
1223.16	11.4404
1226.53	83.5332
1229.91	65.1401
1233.28	24.7812
1236.66	89.6611
1240.03	46.1328
1243.41	31.4062
1246.78	106.101
1250.16	17.3511
1253.53	74.5269
1256.91	76.1963
1260.28	38.5713
1263.66	9.67627
1267.03	22.6641
1270.41	75.1289
1273.78	95.8828
1277.16	18.0679
1280.53	51.916
1283.9	71.8193
1287.28	31.9395
1290.65	50.2759
1294.03	32.8496
