Measurement: Raman, 785 nm, unoriented, Raman Data Processed
Mineral: Lithiophilite
Rruff sample: R070303
Ideal chemistry: LiMn^2+^PO_4_
Locality: Vittaniemi, Erajarvi, Orivesi, Etela-Suomen Laani, Finland
Source: James Shigley
Description: Yellowish brown massive associated with muscovite
Measured chemistry: Li_1.00_(Mn^2+^_0.67_Fe^2+^_0.33_)_Î£=1_P_1.00_O_4_; trace amounts of Ca and Mg; Li estimated by difference and charge balance
Raman shift (cm-1)	intensity
143.197	0
146.089	77.9009
148.982	194.02
151.875	126.884
154.768	57.5084
157.66	2.72485
160.553	22.1795
163.446	54.4973
166.338	91.9705
169.231	112.959
172.124	79.2404
175.017	94.5854
177.909	100.826
180.802	108.358
183.695	144.785
186.587	125.927
189.48	154.478
192.373	157.508
195.265	182.088
198.158	256.273
201.051	247.611
203.944	152.605
206.836	84.3068
209.729	71.9188
212.622	42.0704
215.514	72.5386
218.407	60.6222
221.3	88.7153
224.192	106.782
227.085	173.656
229.978	128.746
232.87	152.434
235.763	127.48
238.656	189.817
241.549	214.546
244.441	181.409
247.334	121.96
250.227	85.0196
253.119	58.1835
256.012	30.6697
258.905	17.7393
261.798	9.38001
264.69	23.9828
267.583	9.79175
270.476	20.9108
273.368	17.7248
276.261	6.73389
279.154	10.0004
282.046	1.76282
284.939	14.479
287.832	13.5966
290.724	7.91931
293.617	31.573
296.51	17.0199
299.403	34.4664
302.295	61.8572
305.188	53.4685
308.081	74.9934
310.973	93.4203
313.866	90.7955
316.759	68.2433
319.651	35.6235
322.544	24.3967
325.437	22.9145
328.33	23.812
331.222	29.634
334.115	23.9104
337.008	7.11707
339.9	23.1799
342.793	19.674
345.686	24.1547
348.579	16.389
351.471	30.1249
354.364	15.1829
357.257	0.391235
360.149	12.2948
363.042	4.28259
365.935	5.84546
368.827	29.9821
371.72	30.7436
374.613	19.4608
377.505	15.7367
380.398	13.2947
383.291	33.7759
386.184	13.206
389.076	42.5505
391.969	29.4105
394.862	39.1924
397.754	53.446
400.647	57.6935
403.54	77.5552
406.433	67.2932
409.325	76.1758
412.218	72.6694
415.111	108.433
418.003	141.748
420.896	139.714
423.789	154.571
426.681	159.715
429.574	162.336
432.467	149.736
435.36	161.135
438.252	138.983
441.145	101.726
444.038	93.8229
446.93	84.401
449.823	50.7169
452.716	62.0557
455.608	17.4383
458.501	49.2216
461.394	24.8123
464.286	9.68262
467.179	28.1926
470.072	21.871
472.965	16.8314
475.857	19.2172
478.75	13.4713
481.643	20.4258
484.535	9.01843
487.428	4.7135
490.321	10.9531
493.214	6.91894
496.106	10.6148
498.999	22.7211
501.892	29.3383
504.784	12.2662
507.677	0.424438
510.57	18.3541
513.462	4.31824
516.355	1.8457
519.248	7.95642
522.14	3.7179
525.033	12.919
527.926	15.3469
530.819	32.0615
533.711	34.6418
536.604	18.9563
539.497	20.3916
542.389	8.0658
545.282	20.4507
548.175	9.23657
551.067	25.3419
553.96	43.0955
556.853	39.8636
559.745	43.7306
562.638	79.1467
565.531	104.158
568.424	136.221
571.316	218.541
574.209	296.425
577.102	318.688
579.994	255.366
582.887	232.861
585.78	216.369
588.673	196.688
591.565	132.387
594.458	75.3827
597.351	34.1491
600.243	24.7181
603.136	16.2141
606.029	29.131
608.921	3.01184
611.814	44.2368
614.707	77.5498
617.6	133.29
620.492	175.238
623.385	225.19
626.278	241.878
629.17	119.892
632.063	56.0569
634.956	23.5493
637.848	39.5012
640.741	8.1134
643.634	6.26929
646.527	34.0072
649.419	25.0177
652.312	17.6245
655.205	16.9056
658.097	8.11609
660.99	2.27771
663.883	13.5922
666.775	5.07983
669.668	1.29053
672.561	2.073
675.454	14.3464
678.346	2.43738
681.239	20.3939
684.132	20.3618
687.024	18.4596
689.917	14.9097
692.81	1.68408
695.702	13.1403
698.595	34.0383
701.488	47.8102
704.381	8.66126
707.273	18.0526
710.166	2.4895
713.059	42.6947
715.951	15.9263
718.844	39.0627
721.737	9.28076
724.63	29.0392
727.522	30.3878
730.415	32.1525
733.308	7.20557
736.2	29.9145
739.093	9.81335
741.986	16.069
744.878	33.6736
747.771	28.5263
750.664	23.5902
753.557	27.3441
756.449	37.2339
759.342	40.5375
762.235	0.804443
765.127	27.6808
768.02	5.8905
770.913	49.8846
773.805	17.694
776.698	44.0996
779.591	0.483398
782.484	40.731
785.376	3.86096
788.269	34.543
791.162	16.4225
794.054	33.0729
796.947	3.56848
799.84	18.0098
802.732	32.9064
805.625	14.3173
808.518	5.85986
811.41	12.3589
814.303	19.0043
817.196	42.4242
820.089	15.2301
822.981	3.15234
825.874	9.83191
828.767	17.36
831.659	4.92188
834.552	35.3787
837.445	30.3663
840.337	16.9778
843.23	16.5371
846.123	43.1332
849.016	20.915
851.908	21.652
854.801	10.01
857.694	4.52246
860.586	33.4735
863.479	39.483
866.372	23.8169
869.264	17.9609
872.157	26.3187
875.05	16.1326
877.943	15.4606
880.835	19.5944
883.728	30.0198
886.621	33.9009
889.513	10.7612
892.406	20.7041
895.299	10.0278
898.192	14.5647
901.084	16.3984
903.977	3.64941
906.87	22.8804
909.762	6.23999
912.655	53.5234
915.548	48.9746
918.44	41.0277
921.333	62.1057
924.226	51.6151
927.119	99.5987
930.011	165.328
932.904	238.21
935.797	428.292
938.689	1026.02
941.582	2125.11
944.475	4042.54
947.367	7138.48
950.26	7110.98
953.153	3460.06
956.045	1133.32
958.938	406.425
961.831	188.894
964.724	118.405
967.616	46.1307
970.509	51.7031
973.402	42.9397
976.294	14.0558
979.187	30.7341
982.08	56.0147
984.972	65.1976
987.865	75.0514
990.758	114.766
993.651	182.793
996.543	352.051
999.436	523.457
1002.33	799.1
1005.22	638.835
1008.11	344.525
1011.01	183.011
1013.9	79.0377
1016.79	56.3375
1019.68	27.7816
1022.58	14.1787
1025.47	20.7935
1028.36	19.4633
1031.26	5.46729
1034.15	20.324
1037.04	14.1427
1039.93	8.08679
1042.83	0.580933
1045.72	7.30896
1048.61	10.7998
1051.51	7.75671
1054.4	6.90051
1057.29	65.5264
1060.18	102.937
1063.08	230.414
1065.97	402.456
1068.86	419.744
1071.75	177.919
1074.65	66.0652
1077.54	52.0162
1080.43	68.8657
1083.32	89.5237
1086.22	77.3955
1089.11	58.0452
1092	41.2637
1094.89	25.4697
1097.79	6.31372
1100.68	10.2452
1103.57	31.6775
1106.47	15.1345
1109.36	2.99548
1112.25	18.4185
1115.14	2.49817
1118.04	17.324
1120.93	26.8758
1123.82	11.1741
1126.71	13.047
1129.61	33.3186
1132.5	18.8776
1135.39	7.95593
1138.29	22.8367
1141.18	13.9168
1144.07	7.12653
1146.96	9.68671
1149.86	29.0933
1152.75	18.3193
1155.64	23.8533
1158.53	16.79
1161.43	11.5192
1164.32	14.0645
1167.21	28.0607
1170.11	9.82721
1173	38.0627
1175.89	55.9673
1178.78	42.1425
1181.68	33.9367
1184.57	39.623
1187.46	30.2474
1190.35	38.6464
1193.25	30.9175
1196.14	27.7488
1199.03	54.4356
1201.92	14.5304
1204.82	54.3268
1207.71	42.7039
1210.6	19.9341
1213.5	37.5629
1216.39	23.1932
1219.28	41.589
1222.17	28.7314
1225.07	26.1991
1227.96	17.3909
1230.85	34.5786
1233.74	0
