Measurement: Raman, 780 nm, unoriented, Raman Data Processed
Mineral: Lithiomarsturite
Rruff sample: R100094
Ideal chemistry: LiCa_2_Mn^2+^_2_Si_5_O_14_(OH)
Locality: Foote mine, Kings Mountain, North Carolina, USA
Description: Tan colored prismatic crystals, associated with brannockite, fluorapatite, albite, bavenite, and pyrite
Raman shift (cm-1)	intensity
140.709	0
143.602	11.6102
146.494	10.3891
149.387	7.67327
152.28	1.37458
155.173	0.333351
158.065	0.853439
160.958	4.46381
163.851	6.54054
166.743	11.5482
169.636	20.4153
172.529	25.0844
175.422	28.5684
178.314	26.7988
181.207	20.2677
184.1	14.1167
186.992	8.85462
189.885	4.09156
192.778	0.178413
195.67	2.35966
198.563	1.206
201.456	2.01778
204.349	0.668152
207.241	0.391457
210.134	1.26978
213.027	4.35347
215.919	5.11454
218.812	6.7875
221.705	11.8073
224.597	13.7398
227.49	17.1462
230.383	16.7839
233.275	17.7921
236.168	16.1446
239.061	15.0176
241.954	16.2635
244.846	16.2036
247.739	20.1181
250.632	24.5841
253.524	29.3852
256.417	35.7064
259.31	43.7721
262.202	50.9501
265.095	55.1922
267.988	54.7427
270.881	46.6167
273.773	35.2668
276.666	22.6541
279.559	9.41773
282.451	2.81699
285.344	0.125511
288.237	1.03501
291.13	3.57553
294.022	11.3298
296.915	18.9854
299.808	27.8631
302.7	33.4713
305.593	38.6677
308.486	39.6358
311.378	39.0686
314.271	42.372
317.164	44.749
320.057	52.185
322.949	62.0922
325.842	73.2366
328.735	70.954
331.627	49.4086
334.52	27.3003
337.413	12.2479
340.305	2.44866
343.198	4.24665
346.091	5.37748
348.984	11.8282
351.876	19.8277
354.769	32.6353
357.662	47.5203
360.554	59.9268
363.447	65.3477
366.34	56.4551
369.233	40.4938
372.125	28.219
375.018	19.6807
377.911	17.2966
380.803	17.5103
383.696	21.2721
386.589	23.2542
389.481	25.0199
392.374	20.6425
395.267	17.2824
398.159	11.3923
401.052	7.43109
403.945	5.69297
406.838	4.03689
409.73	2.86042
412.623	1.78871
415.516	2.34302
418.408	1.00207
421.301	0.194901
424.194	1.42071
427.087	2.65172
429.979	1.84306
432.872	1.59037
435.765	1.81544
438.657	0.594048
441.55	1.19981
444.443	1.63449
447.335	2.28326
450.228	2.30799
453.121	2.25003
456.014	3.96974
458.906	4.30459
461.799	6.85362
464.692	7.37423
467.584	10.0192
470.477	11.6191
473.37	15.1209
476.262	16.0113
479.155	20.4484
482.048	23.1887
484.94	27.394
487.833	29.1475
490.726	32.9398
493.619	33.7054
496.511	35.2672
499.404	35.317
502.297	35.5296
505.189	34.6573
508.082	34.0914
510.975	32.1233
513.867	29.0526
516.76	29.4984
519.653	28.1553
522.545	28.7483
525.438	30.8497
528.331	34.689
531.224	37.1201
534.116	40.1567
537.009	41.5947
539.902	40.7678
542.794	36.6839
545.687	30.9121
548.58	24.0584
551.472	20.1334
554.365	16.515
557.258	16.2593
560.151	14.3515
563.043	11.7637
565.936	9.89274
568.829	7.49152
571.721	4.38272
574.614	3.43362
577.507	2.38702
580.399	0.632666
583.292	0.094114
586.185	0.667631
589.078	1.70474
591.97	1.66545
594.863	0.176373
597.756	1.02473
600.649	0.16316
603.541	1.02245
606.434	0.630863
609.327	2.10588
612.219	3.40249
615.112	5.11187
618.005	7.29183
620.897	9.46498
623.79	13.3044
626.683	17.9288
629.576	22.8692
632.468	31.3834
635.361	40.5693
638.254	53.6172
641.146	72.5311
644.039	101.587
646.932	140.431
649.824	194.185
652.717	249.993
655.61	317.967
658.503	388.816
661.395	449.748
664.288	445.923
667.181	353.301
670.073	241.644
672.966	165.655
675.859	121.917
678.751	92.0875
681.644	69.1759
684.537	52.471
687.429	43.8946
690.322	40.0328
693.215	38.9893
696.108	37.6599
699	35.311
701.893	30.1597
704.786	24.2924
707.678	16.7529
710.571	10.8237
713.464	7.15147
716.356	3.93712
719.249	4.36241
722.142	2.54306
725.035	2.66706
727.927	1.10263
730.82	2.21875
733.713	1.19762
736.605	0.372654
739.498	0.292269
742.391	0.435596
745.284	0.679785
748.176	0.055946
751.069	0.793652
753.962	0.538689
756.854	0.494778
759.747	0.211004
762.64	0.128456
765.532	0.544983
768.425	0.443848
771.318	0.325893
774.211	0.651644
777.103	0.716488
779.996	0.058908
782.889	1.12475
785.781	1.02866
788.674	0.491901
791.567	1.20375
794.459	0.507076
797.352	2.40638
800.245	3.0727
803.138	2.23088
806.03	3.07933
808.923	1.77936
811.816	1.93592
814.708	2.14934
817.601	2.20706
820.494	1.86697
823.386	2.07943
826.279	1.58633
829.172	2.33598
832.064	1.5714
834.957	2.12116
837.85	0.652851
840.743	0.646595
843.635	0.840179
846.528	0.108116
849.421	0.474222
852.313	0.373459
855.206	0.395956
858.099	0.482529
860.991	0.41592
863.884	0.118261
866.777	0.050516
869.67	2.01089
872.562	1.03885
875.455	3.92344
878.348	5.42906
881.24	5.39869
884.133	7.36365
887.026	10.1988
889.918	10.9872
892.811	14.8165
895.704	16.6763
898.597	18.6985
901.489	19.3903
904.382	17.1116
907.275	15.5333
910.167	13.4688
913.06	9.10184
915.953	5.52408
918.846	2.90012
921.738	1.01651
924.631	0.999142
927.524	1.21537
930.416	1.70438
933.309	1.48294
936.202	0.356533
939.094	2.44639
941.987	4.36861
944.88	9.89525
947.773	15.6296
950.665	22.6062
953.558	31.6302
956.451	41.3774
959.343	52.0148
962.236	61.6857
965.129	69.7741
968.021	72.768
970.914	72.3459
973.807	72.0804
976.699	75.3824
979.592	79.7599
982.485	83.2582
985.378	89.991
988.27	92.4282
991.163	94.0909
994.056	97.2862
996.948	98.2337
999.841	101.565
1002.73	110.036
1005.63	115.174
1008.52	128.784
1011.41	144.677
1014.3	153.833
1017.2	160.099
1020.09	165.48
1022.98	171.404
1025.88	163.566
1028.77	134.455
1031.66	100.177
1034.55	68.3653
1037.45	44.1902
1040.34	29.1682
1043.23	18.2148
1046.12	12.4172
1049.02	7.76924
1051.91	4.57222
1054.8	2.66734
1057.69	1.13848
1060.59	1.20879
1063.48	0.883308
1066.37	1.15774
1069.27	0.017311
1072.16	1.4484
1075.05	0.399124
1077.94	0.018948
1080.84	0.707346
1083.73	0.51753
1086.62	0.388655
1089.52	0.709415
1092.41	0.335281
1095.3	1.25782
1098.19	1.63763
1101.09	1.05655
1103.98	1.2712
1106.87	2.34481
1109.76	1.87719
1112.66	1.04153
1115.55	1.87232
1118.44	1.88386
1121.34	2.15745
1124.23	1.30016
1127.12	1.63824
1130.01	0.802645
1132.9	1.34987
1135.8	0.029583
1138.69	1.69616
1141.58	0.270201
1144.48	0.347969
1147.37	1.32514
1150.26	0.925038
1153.15	0.874484
1156.05	1.16527
1158.94	0.963395
1161.83	1.36706
1164.72	0.041078
1167.62	2.08393
1170.51	1.98645
1173.4	3.10328
1176.3	1.78173
1179.19	2.64338
1182.08	1.27733
1184.97	2.50057
1187.87	2.06271
1190.76	1.57469
1193.65	1.59113
1196.55	1.7664
1199.44	2.0747
1202.33	1.55035
1205.22	1.33273
1208.12	1.45605
1211.01	2.29433
1213.9	1.88601
1216.79	1.58519
1219.69	1.26493
1222.58	1.86441
1225.47	1.45728
1228.37	1.72481
1231.26	1.18799
1234.15	0.054339
1237.04	0.998338
1239.93	1.22799
1242.83	0.389501
1245.72	0.987004
1248.61	3.63417
1251.51	0.501616
1254.4	0.97702
1257.29	1.03948
1260.18	1.41507
1263.08	0.983679
1265.97	0.048227
1268.86	1.19262
1271.76	1.71722
1274.65	2.01766
1277.54	0.315587
1280.43	0.073235
1283.33	1.36075
