Measurement: Raman, 780 nm, unoriented, Raman Data Processed
Mineral: Lithiophosphate
Rruff sample: R100092
Ideal chemistry: Li_3_PO_4_
Locality: Cachoeira mine, Itinga, Minas Gerais, Brazil
Source: Luiz Menezes
Description: Colorless fragments and prismatic crystals
Raman shift (cm-1)	intensity
132.995	0
135.888	1.75545
138.781	2.65301
141.673	0.238785
144.566	2.00232
147.459	0.720047
150.351	0.027557
153.244	3.78877
156.137	1.96321
159.03	5.22892
161.922	3.01983
164.815	1.61486
167.708	1.23023
170.6	0.326866
173.493	0.104225
176.386	0.183769
179.278	3.56935
182.171	9.98932
185.064	6.21622
187.957	4.58677
190.849	1.44675
193.742	4.74484
196.635	9.34403
199.527	13.0975
202.42	3.05511
205.313	2.51605
208.205	5.07915
211.098	5.51363
213.991	7.4311
216.884	10.1705
219.776	15.8924
222.669	32.7546
225.562	56.5079
228.454	35.4219
231.347	11.4534
234.24	10.4751
237.132	14.0746
240.025	19.5077
242.918	26.5607
245.811	15.753
248.703	9.1882
251.596	6.01382
254.489	2.99495
257.381	3.21866
260.274	1.90986
263.167	2.94774
266.059	3.35675
268.952	0.147083
271.845	0.678188
274.738	0.355766
277.63	1.15742
280.523	1.13694
283.416	1.40443
286.308	0.242062
289.201	2.11404
292.094	0.79237
294.986	0.091133
297.879	0.217655
300.772	2.55002
303.665	2.64083
306.557	10.1347
309.45	9.73029
312.343	19.0687
315.235	28.2792
318.128	45.1503
321.021	69.0839
323.913	93.1492
326.806	86.7977
329.699	64.3383
332.592	49.7908
335.484	53.3238
338.377	63.343
341.27	83.6921
344.162	112.611
347.055	143.478
349.948	179.055
352.841	182.027
355.733	167.746
358.626	149.06
361.519	142.014
364.411	156.099
367.304	194.163
370.197	247.77
373.089	271.533
375.982	222.381
378.875	149.243
381.767	109.188
384.66	100.593
387.553	114.727
390.446	140.098
393.338	146.223
396.231	104.662
399.124	61.8786
402.016	32.8207
404.909	13.0301
407.802	4.79904
410.695	1.04618
413.587	0.831596
416.48	1.84322
419.373	1.90614
422.265	2.99779
425.158	11.4695
428.051	24.1953
430.943	40.0347
433.836	59.0374
436.729	93.2459
439.622	147.372
442.514	203.318
445.407	181.517
448.3	105.42
451.192	53.6511
454.085	33.6295
456.978	29.8972
459.87	33.4338
462.763	43.3664
465.656	60.5731
468.548	88.8687
471.441	137.947
474.334	172.605
477.227	156.207
480.119	132.884
483.012	104.091
485.905	55.7659
488.797	25.4018
491.69	12.8735
494.583	4.21603
497.476	0.050194
500.368	0.207291
503.261	1.4823
506.154	0.724483
509.046	0.559994
511.939	1.47703
514.832	0.931171
517.724	1.45077
520.617	4.81031
523.51	8.80115
526.403	15.068
529.295	19.0897
532.188	25.7034
535.081	20.5387
537.973	11.0485
540.866	8.13767
543.759	4.36555
546.651	4.71875
549.544	2.31372
552.437	4.1997
555.33	3.76032
558.222	7.49455
561.115	9.13572
564.008	14.444
566.9	23.8746
569.793	45.4241
572.686	63.0826
575.578	92.0962
578.471	148.654
581.364	236.865
584.256	327.583
587.149	261.394
590.042	131.078
592.935	63.7202
595.827	35.664
598.72	21.9229
601.613	15.3266
604.505	14.4283
607.398	15.8218
610.291	17.8952
613.183	23.6139
616.076	30.1719
618.969	39.0166
621.862	34.4672
624.754	25.3605
627.647	16.2014
630.54	9.79155
633.432	7.65044
636.325	3.81245
639.218	2.26592
642.111	1.33956
645.003	0.555702
647.896	0.650208
650.789	0.644588
653.681	0.953003
656.574	0.195969
659.467	0.585262
662.359	0.454426
665.252	0.328125
668.145	1.13874
671.038	0.108524
673.93	0.258327
676.823	1.82229
679.716	0.044369
682.608	1.9746
685.501	0.185429
688.394	3.57026
691.286	1.33531
694.179	2.24426
697.072	2.87303
699.965	2.63019
702.857	2.86563
705.75	0.55003
708.643	2.76
711.535	1.66348
714.428	2.00269
717.321	0.008686
720.213	2.46344
723.106	2.26607
725.999	0.664295
728.891	0.24802
731.784	0.04644
734.677	1.79814
737.57	2.08035
740.462	2.09554
743.355	3.88782
746.248	2.1547
749.14	3.33077
752.033	2.66948
754.926	1.82428
757.818	2.08215
760.711	2.0081
763.604	2.34356
766.497	1.11933
769.389	2.91196
772.282	2.88563
775.175	2.09462
778.067	0.787571
780.96	4.1444
783.853	3.01158
786.745	1.01709
789.638	2.5367
792.531	3.27065
795.424	0.400745
798.316	1.96632
801.209	2.84674
804.102	0.387291
806.994	3.4708
809.887	2.0264
812.78	1.39507
815.673	1.55378
818.565	2.28439
821.458	0.547993
824.351	0.707085
827.243	1.63646
830.136	0.995293
833.029	0.962936
835.921	0.427246
838.814	0.519802
841.707	1.28665
844.6	0.75214
847.492	1.10731
850.385	0.225925
853.278	2.07494
856.17	1.0799
859.063	0.954659
861.956	0.906288
864.848	1.1065
867.741	0.896034
870.634	0.575626
873.527	0.097942
876.419	0.065327
879.312	0.756115
882.205	0.860489
885.097	0.249477
887.99	3.05001
890.883	5.48033
893.775	7.0416
896.668	7.63599
899.561	10.0057
902.454	15.2594
905.346	18.7868
908.239	22.5031
911.132	33.4583
914.024	45.1516
916.917	65.8034
919.81	94.5722
922.702	145.978
925.595	237.737
928.488	415.515
931.381	678.035
934.273	993.994
937.166	1552.95
940.059	2554.47
942.951	2977.55
945.844	1556.28
948.737	644.071
951.63	318.816
954.522	179.72
957.415	112.512
960.308	72.1416
963.2	53.1045
966.093	33.3381
968.986	23.9426
971.878	15.701
974.771	8.36049
977.664	3.23886
980.557	2.35925
983.449	0.382092
986.342	1.9146
989.235	1.88308
992.127	0.553852
995.02	0.034603
997.913	2.93306
1000.8	9.57237
1003.7	16.1425
1006.59	30.489
1009.48	67.1641
1012.38	109.593
1015.27	178.428
1018.16	321.565
1021.05	544.886
1023.95	420.228
1026.84	140.161
1029.73	58.5562
1032.62	43.9204
1035.52	41.9121
1038.41	55.4646
1041.3	95.6345
1044.2	164.009
1047.09	88.7158
1049.98	57.1181
1052.87	27.202
1055.77	12.0333
1058.66	12.8775
1061.55	10.0247
1064.44	3.33851
1067.34	1.02662
1070.23	0.663788
1073.12	0.185766
1076.02	1.04259
1078.91	0.100506
1081.8	0.451614
1084.69	0.372507
1087.59	0.286161
1090.48	0.591145
1093.37	0.408913
1096.27	1.26746
1099.16	1.55882
1102.05	0.450203
1104.94	4.06477
1107.84	1.34817
1110.73	2.60495
1113.62	1.98
1116.51	1.43349
1119.41	3.2696
1122.3	4.53128
1125.19	4.94853
1128.08	5.14471
1130.98	6.22454
1133.87	5.39802
1136.76	6.33927
1139.65	5.08445
1142.55	3.89753
1145.44	3.70055
1148.33	2.00287
1151.23	2.3344
1154.12	0.2826
1157.01	3.34283
1159.9	0.682783
1162.8	1.77101
1165.69	1.00295
1168.58	1.56126
1171.47	0.900646
1174.37	0.732075
1177.26	1.02577
1180.15	2.23158
1183.05	1.41769
1185.94	3.02305
1188.83	2.21494
1191.72	2.169
1194.62	3.47722
1197.51	2.10732
1200.4	3.1508
1203.29	2.35792
1206.19	2.2355
1209.08	2.86766
1211.97	5.0785
1214.87	3.93671
1217.76	2.47933
1220.65	1.4614
1223.54	2.12434
1226.44	3.17872
1229.33	2.96116
1232.22	2.80638
1235.11	3.61009
1238.01	3.37809
1240.9	1.01859
1243.79	1.31818
1246.68	1.74532
1249.58	3.69506
1252.47	1.46173
1255.36	1.48825
1258.26	1.01147
1261.15	2.35609
1264.04	1.33555
1266.93	0.270256
1269.83	0.280422
1272.72	1.98337
1275.61	1.44772
1278.51	0.632872
1281.4	1.79951
1284.29	1.58621
