Measurement: Raman, 780 nm, unoriented, Raman Data Processed
Mineral: Lithiophilite
Rruff sample: R100096
Ideal chemistry: LiMn^2+^PO_4_
Locality: Foote mine, Kings Mountain, North Carolina, USA
Description: Parallel aggregate of pale pink acicular crystals, associated with quartz, muscovite, and elongated platy bertrandite, R110025.
Raman shift (cm-1)	intensity
91.5332	0
94.908	6.16856
98.2828	2.92803
101.658	3.81921
105.032	19.985
108.407	9.21487
111.782	0.117706
115.157	0.249451
118.532	0.435387
121.907	5.60374
125.281	9.62229
128.656	12.7349
132.031	16.581
135.406	23.1849
138.781	34.6945
142.155	53.3043
145.53	35.0143
148.905	6.99759
152.28	1.60957
155.655	1.00909
159.03	2.02673
162.404	1.20002
165.779	3.18482
169.154	1.56099
172.529	1.01329
175.904	0.819275
179.278	0.93071
182.653	2.42759
186.028	3.59127
189.403	3.097
192.778	4.55653
196.153	5.65188
199.527	10.3677
202.902	12.3359
206.277	5.547
209.652	6.34889
213.027	6.46615
216.401	7.03418
219.776	10.8895
223.151	15.1127
226.526	14.1209
229.901	16.7074
233.275	18.7713
236.65	22.4226
240.025	17.0183
243.4	8.27547
246.775	4.63629
250.15	2.43176
253.524	1.99639
256.899	0.481564
260.274	0.000896
263.649	2.67911
267.024	1.31386
270.399	1.37426
273.773	0.573612
277.148	0.885052
280.523	1.38668
283.898	2.24938
287.273	2.72075
290.647	5.58576
294.022	6.98247
297.397	7.08542
300.772	7.21641
304.147	6.91428
307.522	5.81723
310.896	3.69117
314.271	1.25858
317.646	1.17463
321.021	0.632793
324.396	0.935604
327.77	0.590878
331.145	1.45646
334.52	0.649567
337.895	0.15387
341.27	0.133976
344.644	0.818855
348.019	0.603657
351.394	0.81945
354.769	0.883972
358.144	0.809696
361.519	1.11254
364.893	1.11186
368.268	0.440742
371.643	0.654007
375.018	1.51638
378.393	3.32122
381.767	2.74338
385.142	4.18604
388.517	3.81004
391.892	7.33031
395.267	11.2179
398.642	12.3424
402.016	14.8175
405.391	18.2683
408.766	21.3493
412.141	23.0141
415.516	26.5008
418.89	30.2931
422.265	33.7806
425.64	38.8061
429.015	43.0737
432.39	47.4445
435.765	46.7833
439.139	46.2984
442.514	41.5704
445.889	33.4515
449.264	24.0034
452.639	17.1631
456.014	12.5721
459.388	7.22007
462.763	6.5992
466.138	5.5098
469.513	4.69361
472.887	3.73705
476.262	2.9184
479.637	3.22982
483.012	3.50415
486.387	1.94692
489.762	0.266411
493.136	1.09926
496.511	0.767574
499.886	0.120129
503.261	1.60806
506.636	3.15303
510.01	3.77088
513.385	1.15878
516.76	0.407848
520.135	0.197624
523.51	0.162601
526.885	0.897545
530.259	0.871498
533.634	0.406757
537.009	0.029697
540.384	0.75172
543.759	2.40854
547.134	1.10938
550.508	1.12394
553.883	1.57849
557.258	4.76208
560.633	5.8753
564.008	7.62608
567.382	11.3213
570.757	16.7442
574.132	25.2113
577.507	33.2376
580.882	34.0165
584.256	34.5751
587.631	36.9906
591.006	30.3901
594.381	20.3937
597.756	11.0109
601.131	6.27179
604.505	7.13918
607.88	13.4529
611.255	21.189
614.63	27.5429
618.005	38.9741
621.38	54.6966
624.754	57.6156
628.129	25.6939
631.504	9.71368
634.879	4.17868
638.254	2.48472
641.628	2.09758
645.003	1.3155
648.378	0.252674
651.753	1.26059
655.128	0.673157
658.503	0.856033
661.877	0.766975
665.252	0.485344
668.627	2.16626
672.002	0.45435
675.377	0.715702
678.751	0.193783
682.126	0.989799
685.501	0.409817
688.876	1.51119
692.251	1.67643
695.625	1.26604
699	0.093163
702.375	2.07466
705.75	0.792053
709.125	1.9149
712.5	0.479309
715.874	0.820137
719.249	2.59962
722.624	1.87766
725.999	0.856743
729.374	2.19192
732.749	1.21299
736.123	0.045914
739.498	1.41322
742.873	1.95298
746.248	1.42108
749.623	2.81576
752.997	0.682831
756.372	0.953934
759.747	2.28155
763.122	1.55116
766.497	0.210449
769.871	1.90276
773.246	0.585457
776.621	0.212173
779.996	0.265678
783.371	0.839699
786.745	0.633957
790.12	1.45631
793.495	1.20165
796.87	2.35597
800.245	1.33536
803.62	0.282211
806.994	2.02565
810.369	2.10078
813.744	1.77192
817.119	3.02873
820.494	1.89393
823.869	1.26811
827.243	1.94668
830.618	1.10944
833.993	3.78918
837.368	2.34233
840.743	3.23973
844.117	1.42884
847.492	3.42323
850.867	3.08434
854.242	3.4884
857.617	3.4738
860.991	1.55518
864.366	2.96945
867.741	0.570915
871.116	2.2381
874.491	1.76999
877.866	2.15707
881.24	0.519661
884.615	0.078506
887.99	1.29085
891.365	1.16254
894.74	1.69949
898.115	0.722
901.489	0.180016
904.864	0.02076
908.239	0.616493
911.614	0.362198
914.989	1.16026
918.363	3.40496
921.738	7.11497
925.113	12.305
928.488	16.1277
931.863	31.8408
935.237	96.1972
938.612	226.488
941.987	309.903
945.362	508.316
948.737	982.046
952.112	574.854
955.486	96.9385
958.861	31.9255
962.236	14.7718
965.611	8.83558
968.986	5.87735
972.361	2.55683
975.735	2.33119
979.11	0.992935
982.485	1.30814
985.86	3.50863
989.235	7.87232
992.609	18.895
995.984	44.0091
999.359	69.2298
1002.73	75.8661
1006.11	128.495
1009.48	71.8311
1012.86	16.4114
1016.23	16.4321
1019.61	16.6521
1022.98	4.95219
1026.36	0.391289
1029.73	0.867973
1033.11	0.610023
1036.48	0.61837
1039.86	1.72797
1043.23	0.156891
1046.61	0.422562
1049.98	2.52296
1053.36	6.6589
1056.73	15.3362
1060.11	22.4037
1063.48	32.7658
1066.86	58.6264
1070.23	44.2546
1073.61	14.3026
1076.98	11.1556
1080.36	10.9841
1083.73	5.17954
1087.1	1.59753
1090.48	1.65158
1093.85	1.8473
1097.23	0.092659
1100.6	0.153671
1103.98	0.101341
1107.35	2.42317
1110.73	1.88497
1114.1	2.63495
1117.48	0.027229
1120.85	0.413216
1124.23	2.18552
1127.6	2.23789
1130.98	2.40049
1134.35	0.04319
1137.73	1.56577
1141.1	2.05221
1144.48	1.76258
1147.85	2.16406
1151.23	2.15756
1154.6	0.552078
1157.97	1.56815
1161.35	1.07526
1164.72	0.843437
1168.1	1.63982
1171.47	1.48565
1174.85	2.57714
1178.22	3.18753
1181.6	1.42477
1184.97	2.68195
1188.35	2.07308
1191.72	0.491997
1195.1	2.85129
1198.47	2.31656
1201.85	0.3666
1205.22	1.00531
1208.6	1.5527
1211.97	3.34197
1215.35	2.3484
1218.72	2.02529
1222.1	0.745735
1225.47	1.37109
1228.85	2.811
1232.22	1.77625
1235.6	2.20989
1238.97	1.95046
1242.35	1.37109
1245.72	1.66875
1249.1	3.52886
1252.47	1.14015
1255.85	1.85796
1259.22	2.36537
1262.6	1.06841
1265.97	0.093338
1269.34	1.48937
1272.72	0.836929
1276.09	0.857071
1279.47	1.09108
1282.84	3.34069
