Measurement: Raman, 532 nm, unoriented, Raman Data Processed
Mineral: Litidionite
Rruff sample: R130088
Ideal chemistry: KNaCuSi_4_O_10_
Locality: Mt Vesuvius, Napoli, Italy
Source: Rock Currier
Description: Blue to green glassy, massive. The two larger fragments are from the 1880 eruption. The smaller fragment is from 1873.
Raman shift (cm-1)	intensity
198.802	0
201.695	1.03656
204.588	0.681763
207.48	1.94907
210.373	4.72226
213.266	4.70709
216.158	9.57858
219.051	18.032
221.944	25.706
224.836	29.0581
227.729	27.9861
230.622	26.1645
233.514	31.1043
236.407	41.2794
239.3	52.1857
242.193	46.7074
245.085	35.525
247.978	30.8576
250.871	27.9153
253.763	30.4716
256.656	35.031
259.549	38.4346
262.442	46.8214
265.334	53.8434
268.227	55.2757
271.12	50.8914
274.012	34.3028
276.905	25.0742
279.798	17.6376
282.69	8.63275
285.583	3.94052
288.476	0.699249
291.368	0.127228
294.261	1.89392
297.154	0.765411
300.047	1.95035
302.939	6.46701
305.832	8.8121
308.725	11.5329
311.617	15.4521
314.51	23.7855
317.403	31.5743
320.296	34.9088
323.188	34.4789
326.081	27.5196
328.974	20.2038
331.866	12.9662
334.759	9.45288
337.652	2.6279
340.544	2.38681
343.437	1.20322
346.33	3.19019
349.223	2.16882
352.115	1.46014
355.008	1.99143
357.901	1.66974
360.793	0.073059
363.686	1.67786
366.579	1.20731
369.471	2.87433
372.364	6.35748
375.257	8.43961
378.149	11.8879
381.042	16.6943
383.935	26.0377
386.828	38.2784
389.72	48.4825
392.613	50.3347
395.506	37.3534
398.398	24.3632
401.291	11.744
404.184	7.05862
407.077	5.91867
409.969	11.2191
412.862	12.7396
415.755	8.97778
418.647	2.9165
421.54	1.91034
424.433	6.271
427.325	7.94907
430.218	11.1288
433.111	9.47769
436.003	6.22
438.896	1.59842
441.789	0.043304
444.682	0.711426
447.574	1.58771
450.467	0.37915
453.36	1.86755
456.252	3.72418
459.145	2.64325
462.038	2.43494
464.93	4.17871
467.823	4.91296
470.716	2.69083
473.609	3.07858
476.501	1.0986
479.394	2.90939
482.287	2.5654
485.179	4.54153
488.072	5.21866
490.965	11.9938
493.858	22.0693
496.75	36.8557
499.643	47.8873
502.536	67.651
505.428	87.645
508.321	89.6902
511.214	66.5139
514.106	41.0855
516.999	23.478
519.892	16.1091
522.784	14.0894
525.677	17.3289
528.57	20.475
531.463	22.6364
534.355	22.1508
537.248	15.6866
540.141	8.55179
543.033	4.97012
545.926	2.07379
548.819	0.340698
551.712	0.209991
554.604	1.31863
557.497	0.367676
560.39	0.576935
563.282	0.388885
566.175	0.097198
569.068	1.00037
571.96	3.33746
574.853	11.6303
577.746	15.3729
580.639	30.4493
583.531	46.6015
586.424	70.0425
589.317	96.5895
592.209	120.363
595.102	108.603
597.995	68.3269
600.888	35.2101
603.78	18.5742
606.673	12.6851
609.566	7.96881
612.458	4.69067
615.351	5.25851
618.244	3.74039
621.136	3.07922
624.029	1.78894
626.922	0.856934
629.814	1.32919
632.707	1.53757
635.6	0.050659
638.493	0.216248
641.385	0.015747
644.278	0.045502
647.171	1.39386
650.063	1.9913
652.956	2.55536
655.849	4.6517
658.741	5.33212
661.634	8.31552
664.527	11.7634
667.42	15.0395
670.312	14.47
673.205	13.0016
676.098	16.8945
678.99	17.4432
681.883	27.0331
684.776	34.3796
687.668	40.3567
690.561	34.8946
693.454	29.2407
696.347	21.0924
699.239	18.7819
702.132	19.4264
705.025	20.7528
707.917	14.5629
710.81	8.39398
713.703	5.03024
716.596	3.34964
719.488	1.54431
722.381	2.95761
725.274	1.53601
728.166	0.463806
731.059	2.50296
733.952	2.63171
736.844	1.06146
739.737	1.76047
742.63	1.33466
745.523	2.22385
748.415	1.95035
751.308	0.591248
754.201	1.52686
757.093	0.855713
759.986	1.71976
762.879	0.938538
765.771	3.93005
768.664	2.30109
771.557	4.76294
774.449	6.75565
777.342	7.39151
780.235	7.89731
783.128	12.2833
786.02	16.147
788.913	23.2401
791.806	27.3999
794.698	31.1303
797.591	21.9175
800.484	13.6849
803.376	5.91257
806.269	5.46561
809.162	3.80643
812.055	2.47168
814.947	0.255554
817.84	3.02203
820.733	3.64947
823.625	1.63303
826.518	3.59296
829.411	0.68869
832.303	0.294708
835.196	1.57809
838.089	2.11526
840.982	1.72903
843.874	3.77585
846.767	3.29965
849.66	2.9223
852.552	0.257629
855.445	2.91376
858.338	2.53449
861.231	2.7016
864.123	0.976807
867.016	1.78995
869.909	0.151855
872.801	2.22903
875.694	0.377747
878.587	0.004639
881.479	1.43149
884.372	0.616516
887.265	1.867
890.158	2.33356
893.05	0.957428
895.943	4.13577
898.836	2.74438
901.728	4.63522
904.621	4.66873
907.514	2.55591
910.406	1.55869
913.299	0.064636
916.192	1.75189
919.085	0.885803
921.977	1.69492
924.87	4.76605
927.763	1.95126
930.655	0.075409
933.548	2.11096
936.441	1.42511
939.333	2.66779
942.226	2.06348
945.119	2.70755
948.011	1.64651
950.904	0.563568
953.797	0.522644
956.69	0.944733
959.582	0.974182
962.475	1.03
965.368	3.74085
968.26	5.3205
971.153	5.53851
974.046	4.38422
976.938	4.80399
979.831	7.87836
982.724	9.48798
985.617	10.4094
988.509	11.2547
991.402	15.1753
994.295	18.5568
997.187	24.5155
1000.08	34.4102
1002.97	36.1982
1005.87	37.3845
1008.76	38.1512
1011.65	41.034
1014.54	37.5879
1017.44	30.9859
1020.33	19.9264
1023.22	14.3598
1026.11	13.619
1029.01	12.0853
1031.9	6.72156
1034.79	4.60831
1037.68	2.11865
1040.58	1.56943
1043.47	0.793152
1046.36	2.73917
1049.26	0.912506
1052.15	0.673065
1055.04	0.072418
1057.93	1.27399
1060.83	0.401581
1063.72	2.3147
1066.61	2.05273
1069.51	1.12769
1072.4	3.4068
1075.29	6.9545
1078.18	7.33627
1081.08	10.919
1083.97	16.3926
1086.86	15.6521
1089.75	17.8332
1092.65	19.5941
1095.54	25.7568
1098.43	33.0342
1101.33	48.8798
1104.22	63.6801
1107.11	76.9865
1110	92.5919
1112.89	108.378
1115.79	117.235
1118.68	96.1942
1121.57	62.2619
1124.47	38.5168
1127.36	30.7979
1130.25	20.8518
1133.14	16.2781
1136.04	10.5517
1138.93	9.15045
1141.82	6.36398
1144.71	3.24875
1147.61	4.12732
1150.5	2.67999
1153.39	1.89038
1156.29	0.137299
1159.18	0.804749
1162.07	1.75909
1164.96	0.115509
1167.86	2.21204
1170.75	2.47357
1173.64	0.968353
1176.54	1.36926
1179.43	1.54602
1182.32	2.38821
1185.21	2.37161
1188.11	1.27487
1191	0.753998
1193.89	3.40994
1196.78	2.82483
1199.68	2.09161
1202.57	2.45401
1205.46	1.90036
1208.35	2.55206
1211.25	3.879
1214.14	7.66791
1217.03	2.76111
1219.92	2.61282
1222.82	0.082245
1225.71	0.950714
1228.6	0.844452
1231.5	4.22339
1234.39	3.21445
1237.28	1.80331
1240.17	0.752075
1243.07	0.708527
1245.96	0.9375
1248.85	2.1113
1251.74	2.95905
1254.64	1.72723
1257.53	1.49188
1260.42	2.23822
1263.32	3.21042
1266.21	1.36475
1269.1	1.57837
1271.99	2.31741
1274.89	2.74737
1277.78	2.85062
1280.67	1.69775
1283.57	1.00571
1286.46	0.84491
1289.35	0.656494
1292.24	0.078796
1295.13	2.70429
1298.03	0.188843
1300.92	2.1987
