Measurement: Raman, 532 nm, unoriented, Raman Data Processed
Mineral: Livingstonite
Rruff sample: R050427
Ideal chemistry: HgSb_4_S_8_
Locality: Huitzuco, Guerrero, Mexico
Source: University of Arizona Mineral Museum
Description: Aggregate of blackish-gray elongated crystals
Measured chemistry: Hg_1.00_Sb_4.00_S_8.00_
Raman shift (cm-1)	intensity
167.182	0
170.075	2.29169
172.968	0.066467
175.86	0.200851
178.753	1.8178
181.646	0.641083
184.538	3.16148
187.431	2.618
190.324	2.8996
193.217	7.50336
196.109	7.86156
199.002	16.9605
201.895	23.2765
204.787	31.2335
207.68	40.4275
210.573	49.058
213.465	58.3288
216.358	68.1889
219.251	77.6661
222.143	82.6994
225.036	85.3294
227.929	81.5688
230.822	75.2077
233.714	66.7739
236.607	58.0316
239.5	47.4528
242.392	39.0495
245.285	32.3795
248.178	24.6873
251.071	20.8296
253.963	17.8727
256.856	19.1695
259.749	20.3186
262.641	23.9149
265.534	26.3441
268.427	30.5547
271.32	36.0026
274.212	36.5805
277.105	39.2936
279.998	40.1099
282.89	40.3543
285.783	38.2402
288.676	39.1374
291.568	35.0137
294.461	39.9395
297.354	42.6149
300.247	45.8454
303.139	51.4674
306.032	59.3901
308.925	61.4476
311.817	55.5617
314.71	44.2879
317.603	35.482
320.495	26.371
323.388	25.0304
326.281	26.2255
329.173	28.4795
332.066	26.9397
334.959	16.685
337.852	5.7407
340.744	0.665474
343.637	3.2064
346.53	1.90615
349.422	1.8102
352.315	2.321
355.208	0.504768
358.1	0.075012
360.993	0.360748
363.886	0.114136
366.779	0.805092
369.671	0.866348
372.564	1.94005
375.457	2.58894
378.349	3.44507
381.242	3.08232
384.135	4.04933
387.027	4.77538
389.92	4.62397
392.813	5.67924
395.705	6.68733
398.598	7.55499
401.491	7.21024
404.384	6.31
407.276	7.86961
410.169	5.61166
413.062	6.71547
415.954	6.11874
418.847	4.56907
421.74	4.18062
424.632	3.04422
427.525	4.71992
430.418	3.3596
433.311	3.80426
436.203	2.83361
439.096	4.11879
441.989	3.8658
444.881	4.9946
447.774	2.79927
450.667	3.74387
453.56	4.37941
456.452	3.77369
459.345	3.63241
462.238	5.74825
465.13	4.51686
468.023	4.28987
470.916	5.65889
473.808	5.31541
476.701	4.01533
479.594	1.86176
482.486	0.441296
485.379	1.89049
488.272	0.441063
491.165	1.17538
494.057	0.619675
496.95	0.869526
499.843	0.4659
502.735	1.40637
505.628	1.5066
508.521	2.08157
511.413	1.97465
514.306	2.18274
517.199	1.17186
520.092	1.56704
522.984	0.117378
525.877	0.943611
528.77	3.13741
531.663	2.6309
534.555	2.0224
537.448	1.38153
540.341	1.79847
543.233	0.60107
546.126	1.22021
549.019	0.424603
551.911	0.58567
554.804	0.084618
557.697	0.181538
560.59	1.05914
563.482	0.59071
566.375	0.698639
569.268	0.139355
572.16	0.849384
575.053	0.115349
577.946	0.64423
580.838	0.812759
583.731	0.619129
586.624	0.519367
589.516	0.5443
592.409	0.034138
595.302	0.570148
598.194	0.530624
601.087	0.844055
603.98	0.712112
606.873	0.404594
609.765	1.17397
612.658	1.84625
615.551	0.689945
618.443	0.619942
621.336	2.1734
624.229	0.138737
627.121	1.85589
630.014	1.37577
632.907	0.826416
635.8	1.73307
638.692	1.06282
641.585	2.39889
644.478	2.82739
647.37	3.13537
650.263	2.80515
653.156	3.22839
656.048	2.75991
658.941	1.95302
661.834	1.69835
664.727	0.423977
667.619	1.79384
670.512	1.01988
673.405	0.030396
676.297	1.08836
679.19	1.31754
682.083	3.03569
684.976	0.26833
687.868	1.25105
690.761	0.777424
693.654	1.02511
696.546	1.25093
699.439	0.177616
702.332	0.828239
705.224	1.43532
708.117	1.12438
711.01	0.975044
713.903	1.10034
716.795	1.47248
719.688	1.11697
722.581	2.50114
725.473	1.47477
728.366	2.17709
731.259	1.75288
734.151	2.35368
737.044	1.60449
739.937	2.71326
742.83	1.30601
745.722	0.46912
748.615	1.21706
751.508	0.423672
754.4	0.050365
757.293	1.63686
760.186	0.99165
763.078	1.25317
765.971	0.569279
768.864	0.470963
771.756	0.346462
774.649	0.094795
777.542	1.1303
780.435	0.60342
783.327	0.278587
786.22	1.19893
789.113	0.592659
792.005	0.114735
794.898	0.333969
797.791	1.6667
800.683	0.110054
803.576	0.641651
806.469	0.956486
809.362	1.07865
812.254	0.491539
815.147	0.956669
818.04	0.283272
820.932	1.92943
823.825	1.64547
826.718	0.779427
829.611	0.913086
832.503	1.51475
835.396	1.36529
838.289	1.24123
841.181	1.53684
844.074	2.19698
846.967	1.55896
849.859	1.40829
852.752	1.1937
855.645	0.209545
858.538	0.920189
861.43	1.24334
864.323	0.923241
867.216	1.50086
870.108	2.13186
873.001	0.927685
875.894	1.03121
878.786	1.35635
881.679	0.677666
884.572	1.69324
887.465	1.77902
890.357	1.78361
893.25	0.69244
896.143	0.428402
899.035	1.4058
901.928	0.572882
904.821	0.182661
907.713	0.587599
910.606	1.32353
913.499	1.2225
916.391	1.73066
919.284	1.48502
922.177	3.10992
925.07	3.11554
927.962	3.48292
930.855	4.19424
933.748	4.16859
936.64	2.66326
939.533	4.39093
942.426	2.35999
945.318	2.84119
948.211	1.64729
951.104	0.104805
953.997	0.784937
956.889	0.399826
959.782	1.08411
962.675	0.12076
965.567	0.59819
968.46	1.01835
971.353	0.395493
974.245	0.907991
977.138	0.200518
980.031	1.78992
982.924	0.77865
985.816	0.953302
988.709	0.460695
991.602	1.09047
994.494	1.26358
997.387	0.230947
1000.28	0.393686
1003.17	0.739086
1006.07	0.5903
1008.96	0.942173
1011.85	1.38841
1014.74	1.29273
1017.64	1.18755
1020.53	1.28909
1023.42	2.11072
1026.31	1.10716
1029.21	2.04363
1032.1	0.783461
1034.99	0.864878
1037.88	0.993149
1040.78	1.78851
1043.67	0.520189
1046.56	2.14315
1049.46	0.774035
1052.35	0.101822
1055.24	0.855652
1058.13	0.618275
1061.03	1.39313
1063.92	1.83576
1066.81	0.41189
1069.7	0.760115
1072.6	1.14291
1075.49	0.743587
1078.38	1.28012
1081.28	0.829788
1084.17	0.09326
1087.06	0.754351
1089.95	0.314659
1092.85	1.03239
1095.74	0.553247
1098.63	0.510099
1101.52	0.345707
1104.42	1.09833
1107.31	0.643023
1110.2	0.730925
1113.1	0.894342
1115.99	0.677301
1118.88	1.53516
1121.77	0.705742
1124.67	0.453806
1127.56	0.245781
1130.45	0.434757
1133.34	0.141731
1136.24	1.30275
1139.13	0.781935
1142.02	0.426476
1144.91	1.61752
1147.81	0.787237
1150.7	1.25736
1153.59	1.76262
1156.49	0.218847
1159.38	1.16498
1162.27	0.886213
1165.16	0.822029
1168.06	1.21955
1170.95	0.078562
1173.84	0.642653
1176.73	0.205513
1179.63	0.050665
1182.52	1.133
1185.41	0.525101
1188.31	1.76839
1191.2	0.090424
1194.09	0.130833
1196.98	0.953568
1199.88	1.35352
1202.77	0.307877
1205.66	1.28608
1208.55	1.50379
1211.45	1.07468
1214.34	1.31515
1217.23	1.73381
1220.12	2.27848
1223.02	1.51964
1225.91	1.9299
1228.8	1.60612
1231.7	1.6051
1234.59	1.07936
1237.48	0.99892
1240.37	1.27599
1243.27	1.67648
1246.16	1.3679
1249.05	2.18421
1251.94	1.92909
1254.84	1.04055
1257.73	2.22153
1260.62	1.23257
1263.52	0.84766
1266.41	0.521275
1269.3	1.19112
1272.19	2.06073
1275.09	0.972788
1277.98	1.26887
1280.87	0.188225
