Measurement: Raman, 785 nm, unoriented, Raman Data Processed
Mineral: Livingstonite
Rruff sample: R050427
Ideal chemistry: HgSb_4_S_8_
Locality: Huitzuco, Guerrero, Mexico
Source: University of Arizona Mineral Museum
Description: Aggregate of blackish-gray elongated crystals
Measured chemistry: Hg_1.00_Sb_4.00_S_8.00_
Raman shift (cm-1)	intensity
88.744	0
92.119	1665.19
95.493	3205.93
98.868	6082.41
102.243	2652.39
105.618	33.614
108.993	538.429
112.368	4650.05
115.742	7957.06
119.117	6640.7
122.492	7247.02
125.867	34424.1
129.242	57387.8
132.616	58258.6
135.991	43929.8
139.366	40414.9
142.741	63685.2
146.116	85636.3
149.49	69543.2
152.865	47514.6
156.24	28626.5
159.615	17421.7
162.99	11176.1
166.365	1610.17
169.739	3137.56
173.114	2894.56
176.489	2647.38
179.864	14018.2
183.239	26674.2
186.613	26806.8
189.988	15407.9
193.363	3636.03
196.738	3064.41
200.113	2611
203.488	5557.26
206.862	21784.1
210.237	48702
213.612	87925.8
216.987	137068
220.362	178692
223.736	190780
227.111	174721
230.486	154889
233.861	146638
237.236	142960
240.611	126040
243.985	92250.9
247.36	57387.2
250.735	32922.7
254.11	20835
257.485	17487.5
260.859	20009.3
264.234	26762.4
267.609	42166.3
270.984	66451.2
274.359	86492.7
277.733	103243
281.108	144057
284.483	192808
287.858	186046
291.233	120041
294.608	69426.9
297.982	52039.2
301.357	67868.7
304.732	129173
308.107	249142
311.482	373593
314.857	245374
318.231	103000
321.606	56696.6
324.981	43040.1
328.356	45740.5
331.731	63070.3
335.105	68470
338.48	23505.6
341.855	3653.79
345.23	1893.04
348.605	3198.61
351.979	2437.97
355.354	1084.56
358.729	459.283
362.104	477.975
365.479	235.84
368.853	1476.89
372.228	1742.53
375.603	1711
378.978	2171.97
382.353	2942.49
385.728	3730.82
389.102	4594.4
392.477	5555.66
395.852	6606.33
399.227	7438.36
402.602	8125.84
405.977	7814.44
409.351	7050.28
412.726	6507.8
416.101	6177.25
419.476	5475.36
422.851	4797.87
426.225	4436.73
429.6	4155.17
432.975	3890.64
436.35	3604.2
439.725	3312.44
443.099	3076.1
446.474	2818.7
449.849	2671.36
453.224	2533.69
456.599	2605.09
459.974	2921.71
463.348	3593.02
466.723	5049.13
470.098	7060.09
473.473	8920.98
476.848	4246.77
480.223	1212.01
483.597	652.53
486.972	384.819
490.347	301.726
493.722	224.612
497.097	162.824
500.471	75.768
503.846	7.082
507.221	87.772
510.596	133.055
513.971	147.421
517.346	81.481
520.72	41.88
524.095	230.755
527.47	567.577
530.845	710.78
534.219	775.051
537.594	812.802
540.969	818.104
544.344	738.079
547.719	668.68
551.094	533.963
554.468	380.917
557.843	227.268
561.218	214.398
564.593	204.149
567.968	240.126
571.343	397.306
574.717	418.393
578.092	415.779
581.467	399.622
584.842	298.924
588.217	134.474
591.591	26.396
594.966	133.715
598.341	90.07
601.716	7.146
605.091	107.561
608.466	313.55
611.84	405.807
615.215	562.702
618.59	589.142
621.965	463.057
625.34	351.897
628.714	351.778
632.089	351.624
635.464	417.337
638.839	457.112
642.214	505.119
645.589	631.84
648.963	752.237
652.338	838.418
655.713	865.367
659.088	860.633
662.463	814.52
665.837	632.404
669.212	569.277
672.587	416.452
675.962	288.185
679.337	184.517
682.711	127.909
686.086	25.588
689.461	8.752
692.836	24.13
696.211	59.979
699.586	70.373
702.96	178.276
706.335	237.137
709.71	331.572
713.085	391.818
716.46	402.125
719.834	409.141
723.209	423.844
726.584	484.668
729.959	562.03
733.334	705.621
736.709	761.749
740.083	782.281
743.458	804.348
746.833	804.759
750.208	882.196
753.583	957.616
756.958	1010.15
760.332	952.567
763.707	801.393
767.082	560.263
770.457	405.032
773.831	299.732
777.206	277.951
780.581	311.156
783.956	377.669
787.331	357.461
790.706	315.249
794.08	274.942
797.455	184.706
800.83	121.564
804.205	97.226
807.58	35.93
810.955	38.088
814.329	38.555
817.704	15.043
821.079	3.04
824.454	3.703
827.829	3.555
831.203	55.09
834.578	45.76
837.953	20.447
841.328	6.475
844.703	7.59
848.078	19.288
851.452	8.652
854.827	0.326
858.202	0.54
861.577	11.669
864.951	24.492
868.326	43.588
871.701	74.398
875.076	58.85
878.451	88.718
881.826	60.306
885.2	101.92
888.575	94.472
891.95	99.856
895.325	114.768
898.7	178.79
902.075	283.184
905.449	365.918
908.824	550.534
912.199	727.737
915.574	1308.4
918.949	1554.31
922.323	2297.8
925.698	3342.05
929.073	4845.46
932.448	6089.3
935.823	7427.94
939.198	9801.25
942.572	12806.4
945.947	9591.99
949.322	4332.52
952.697	1882.51
956.072	914.671
959.446	488.767
962.821	257.314
966.196	117.639
969.571	75.156
972.946	56.109
976.32	6.971
979.695	3.474
983.07	18.411
986.445	20.915
989.82	1.143
993.195	10.182
996.569	10.024
999.944	15.273
1003.32	5.653
1006.69	34.045
1010.07	83.359
1013.44	234.893
1016.82	431.71
1020.19	114.094
1023.57	37.699
1026.94	4.44
1030.32	29.89
1033.69	20.022
1037.07	1.781
1040.44	16.927
1043.82	2.771
1047.19	3.971
1050.57	10.015
1053.94	37.587
1057.32	18.897
1060.69	37.592
1064.07	44.709
1067.44	21.528
1070.82	24.455
1074.19	20.029
1077.57	31.362
1080.94	38.331
1084.32	72.186
1087.69	78.644
1091.06	42.414
1094.44	58.409
1097.81	60.93
1101.19	39.068
1104.56	16.412
1107.94	9.02
1111.31	20.971
1114.69	10.665
1118.06	52.085
1121.44	70.152
1124.81	92.465
1128.19	130.589
1131.56	89.965
1134.94	32.837
1138.31	53.724
1141.69	22.87
1145.06	3.023
1148.44	0.356
1151.81	32.846
1155.19	33.2
1158.56	46.254
1161.93	44.238
1165.31	43.508
1168.68	57.705
1172.06	72.573
1175.43	44.126
1178.81	33.716
1182.18	30.871
1185.56	27.739
1188.93	34.381
1192.31	67.326
1195.68	22.005
1199.06	79.945
1202.43	67.361
1205.81	52.337
1209.18	50.924
1212.56	52.153
1215.93	26.543
1219.31	21.391
1222.68	40.787
1226.06	14.262
1229.43	46
1232.81	27.514
1236.18	19.317
1239.56	69.534
1242.93	34.328
1246.31	23.166
1249.68	24.919
1253.06	13.234
1256.43	0.809
1259.81	26.872
1263.18	29.105
1266.56	29.314
1269.93	11.28
