Measurement: Raman, 785 nm, unoriented, Raman Data Processed
Mineral: Livingstonite
Rruff sample: R050427
Ideal chemistry: HgSb_4_S_8_
Locality: Huitzuco, Guerrero, Mexico
Source: University of Arizona Mineral Museum
Description: Aggregate of blackish-gray elongated crystals
Measured chemistry: Hg_1.00_Sb_4.00_S_8.00_
Raman shift (cm-1)	intensity
109.957	0
113.332	57.961
116.706	359.368
120.081	13.982
123.456	629.205
126.831	4039.15
130.206	5291.33
133.581	4870.89
136.955	3341.72
140.33	3874.9
143.705	6958.98
147.08	8025.83
150.455	6158.31
153.829	4002.89
157.204	2362.43
160.579	1582.66
163.954	816.775
167.329	68.829
170.704	367.616
174.078	258.341
177.453	376.952
180.828	1597.81
184.203	2704.31
187.578	2253.72
190.952	1156.54
194.327	164.23
197.702	277.434
201.077	39.601
204.452	956.25
207.827	2785.23
211.201	5916.31
214.576	10344.4
217.951	15716
221.326	19539.2
224.701	19518.5
228.076	17013.4
231.45	14931.4
234.825	14631.4
238.2	14465.3
241.575	12543.9
244.95	8680.94
248.324	5098.98
251.699	2843.01
255.074	1845.58
258.449	1694.12
261.824	1993.52
265.198	2704.06
268.573	4408.53
271.948	6955.38
275.323	8962.83
278.698	10926.7
282.073	15468.8
285.447	19912
288.822	17370
292.197	10469.6
295.572	5939.76
298.947	5062.37
302.321	7658.68
305.696	15119.7
309.071	28654.8
312.446	37703.5
315.821	19313
319.195	8510.5
322.57	4817.46
325.945	3924.36
329.32	4369.38
332.695	6387.41
336.07	5890.48
339.444	1592.56
342.819	234.727
346.194	231.607
349.569	244.907
352.944	223.816
356.319	51.96
359.693	62.197
363.068	73.081
366.443	7.152
369.818	170.102
373.193	130.045
376.567	204.048
379.942	250.132
383.317	271.506
386.692	370.594
390.067	428.125
393.441	553.688
396.816	602.905
400.191	704.968
403.566	791.71
406.941	709.285
410.316	673.443
413.69	623.871
417.065	589.002
420.44	523.323
423.815	453.168
427.19	451.647
430.565	415.547
433.939	343.798
437.314	298.49
440.689	320.484
444.064	320.241
447.439	303.056
450.813	251.018
454.188	219.01
457.563	231.8
460.938	296.084
464.313	374.634
467.687	530.107
471.062	797.215
474.437	843.044
477.812	317.643
481.187	52.791
484.561	95.196
487.936	90.997
491.311	27.773
494.686	52.757
498.061	16.678
501.436	5.912
504.81	16.313
508.185	3.441
511.56	18.646
514.935	23.731
518.31	0.276
521.685	38.392
525.059	45.368
528.434	91.123
531.809	64.948
535.184	65.38
538.559	86.743
541.933	61.213
545.308	61.123
548.683	54.555
552.058	49.786
555.433	53.54
558.807	41.211
562.182	24.037
565.557	3.112
568.932	21.81
572.307	62.299
575.682	47.431
579.056	55.272
582.431	29.102
585.806	13.733
589.181	17.499
592.556	0.087
595.93	26.268
599.305	5.662
602.68	32.107
606.055	3.992
609.43	49.599
612.805	39.571
616.179	90.174
619.554	68.165
622.929	47.042
626.304	27.642
629.679	25.277
633.054	37.934
636.428	25.509
639.803	28.954
643.178	69.142
646.553	60.569
649.928	48.045
653.302	77.04
656.677	111.196
660.052	49.649
663.427	54.482
666.802	70.958
670.177	81.22
673.551	0.018
676.926	54.453
680.301	53.213
683.676	38.154
687.05	28.388
690.425	47.749
693.8	42.074
697.175	10.652
700.55	4.432
703.925	22.437
707.299	55.254
710.674	48.817
714.049	79.223
717.424	75.281
720.799	61.893
724.174	90.009
727.548	51.819
730.923	117.874
734.298	85.829
737.673	113.346
741.048	90.593
744.422	69.751
747.797	79.636
751.172	118.425
754.547	84.754
757.922	148.732
761.297	101.555
764.671	92.083
768.046	96.367
771.421	59.218
774.796	92.671
778.171	59.741
781.545	72.886
784.92	84.774
788.295	41.1
791.67	23.911
795.045	61.371
798.419	42.233
801.794	12.026
805.169	51.185
808.544	8.491
811.919	48.299
815.294	24.978
818.668	5.031
822.043	1.769
825.418	43.175
828.793	38.139
832.168	55.785
835.542	49.56
838.917	1.706
842.292	16.48
845.667	80.06
849.042	36.542
852.417	42.014
855.791	28.791
859.166	0.935
862.541	37.416
865.916	38.123
869.291	6.699
872.665	23.83
876.04	39.52
879.415	20.669
882.79	9.575
886.165	19.224
889.539	18.08
892.914	58.012
896.289	52.268
899.664	3.376
903.039	42.817
906.414	34.906
909.788	39.43
913.163	135.95
916.538	118.351
919.913	184.478
923.288	250.805
926.662	361.645
930.037	483.49
933.412	638.223
936.787	766.703
940.162	1114.95
943.537	1392.43
946.911	855.039
950.286	359.399
953.661	191.317
957.036	112.146
960.411	77.912
963.786	41.458
967.16	54.1
970.535	25.012
973.91	33.716
977.285	26.194
980.659	15.229
984.034	51.577
987.409	1.171
990.784	23.037
994.159	31.076
997.534	12.043
1000.91	57.416
1004.28	4.494
1007.66	46.679
1011.03	14.223
1014.41	45.786
1017.78	8.072
1021.16	26.678
1024.53	74.962
1027.91	61.989
1031.28	41.761
1034.66	53.633
1038.03	7.359
1041.41	62.703
1044.78	18.175
1048.16	30.707
1051.53	37.262
1054.91	56.559
1058.28	20.898
1061.65	14.026
1065.03	40.6
1068.4	50.327
1071.78	36.512
1075.15	65.373
1078.53	38.641
1081.9	32.48
1085.28	26.133
1088.65	59.655
1092.03	5.661
1095.4	11.634
1098.78	48.06
1102.15	56.746
1105.53	55.583
1108.9	63.635
1112.28	50.705
1115.65	52.709
1119.03	42.271
1122.4	35.465
1125.78	64.898
1129.15	43.114
1132.53	18.645
1135.9	22.176
1139.28	34.392
1142.65	13.337
1146.03	61.948
1149.4	29.428
1152.78	41.323
1156.15	83.107
1159.53	8.557
1162.9	40.91
1166.27	21.239
1169.65	52.699
1173.02	70.911
1176.4	67.94
1179.77	73.568
1183.15	49.11
1186.52	47.918
1189.9	83.461
1193.27	44.783
1196.65	23.78
1200.02	54.073
1203.4	30.512
1206.77	61.045
1210.15	35.556
1213.52	18.855
1216.9	51.644
1220.27	94.228
1223.65	7.143
1227.02	88.912
1230.4	25.678
1233.77	33.48
1237.15	36.942
1240.52	19.763
1243.89	41.227
1247.27	23.41
1250.64	85.305
1254.02	25.301
1257.39	86.753
1260.77	32.604
1264.14	33.615
1267.52	13.463
1270.89	25.33
