Measurement: Raman, 532 nm, unoriented, Raman Data Processed
Mineral: Livingstonite
Rruff sample: R050453
Ideal chemistry: HgSb_4_S_8_
Locality: Huitzuco, Guerrero, Mexico
Source: University of Arizona Mineral Museum
Description: Aggregate of gray columnar crystals
Measured chemistry: Hg_1.00_Sb_4.00_S_8.00_
Raman shift (cm-1)	intensity
103.685	0
107.06	3.952
110.434	68.599
113.809	161.819
117.184	263.464
120.559	320.596
123.934	231.101
127.308	176
130.683	159.136
134.058	154.807
137.433	175.854
140.808	174.481
144.182	135.912
147.557	64.302
150.932	35.917
154.307	21.576
157.682	54.162
161.057	49.304
164.431	59.623
167.806	40.418
171.181	36.98
174.556	43.628
177.931	56.325
181.305	79.419
184.68	51.035
188.055	19.101
191.43	28.432
194.805	16.621
198.18	20.911
201.554	8.223
204.929	16.773
208.304	26.742
211.679	51.047
215.054	60.875
218.428	90.234
221.803	100.02
225.178	139.713
228.553	148.1
231.928	110.962
235.303	101.554
238.677	58.687
242.052	24.97
245.427	18.398
248.802	0.751
252.177	21.389
255.551	16.497
258.926	88.684
262.301	158.052
265.676	268.7
269.051	354.056
272.426	434.12
275.8	499.007
279.175	503.045
282.55	532.433
285.925	542.623
289.299	544.215
292.674	576.33
296.049	604.029
299.424	606.997
302.799	603.34
306.174	558.164
309.548	463.353
312.923	288.354
316.298	153.584
319.673	89.405
323.048	96.543
326.422	109.615
329.797	99.611
333.172	84.125
336.547	23.226
339.922	17.562
343.297	24.317
346.671	16.604
350.046	4.446
353.421	7.235
356.796	42.805
360.171	31.995
363.546	43.51
366.92	54.368
370.295	45.877
373.67	74.29
377.045	89.336
380.419	87.687
383.794	93.317
387.169	86.713
390.544	132.874
393.919	127.882
397.294	127.763
400.668	108.569
404.043	105.828
407.418	89.297
410.793	95.514
414.168	59.889
417.543	85.415
420.917	72.305
424.292	61.72
427.667	58.327
431.042	63.966
434.417	53.436
437.791	47.911
441.166	32.585
444.541	57.693
447.916	53.325
451.291	55.476
454.665	55.921
458.04	47.534
461.415	41.463
464.79	55.836
468.165	59.111
471.539	55.945
474.914	47.194
478.289	20.15
481.664	28.626
485.039	9.099
488.414	16.198
491.788	21.957
495.163	28.49
498.538	24.08
501.913	14.551
505.288	2.072
508.663	1.898
512.037	4.015
515.412	9.803
518.787	16.187
522.162	19.732
525.537	28.728
528.911	26.714
532.286	30.074
535.661	15.605
539.036	9.276
542.411	20.129
545.786	10.953
549.16	17.871
552.535	3.695
555.91	0.577
559.285	14.006
562.659	8.143
566.034	5.08
569.409	0.621
572.784	33.317
576.159	9.356
579.534	11.19
582.908	16.877
586.283	12.435
589.658	13.356
593.033	18.576
596.408	5.597
599.782	0.112
603.157	15.307
606.532	17.082
609.907	11.699
613.282	8.893
616.657	18.672
620.031	13.7
623.406	20.353
626.781	13.1
630.156	8.445
633.531	10.547
636.906	6.027
640.28	12.779
643.655	10.499
647.03	7.428
650.405	21.376
653.779	11.37
657.154	6.98
660.529	17.59
663.904	14.593
667.279	15.505
670.654	9.858
674.028	4.991
677.403	4.196
680.778	0.015
684.153	13.683
687.528	8.522
690.903	20.103
694.277	25.95
697.652	14.007
701.027	23.835
704.402	17.508
707.777	17.471
711.151	10.226
714.526	14.916
717.901	19.459
721.276	19.269
724.651	14.483
728.026	4.864
731.4	11.283
734.775	31.901
738.15	27.569
741.525	33.363
744.899	22.106
748.274	20.52
751.649	11.814
755.024	16.541
758.399	3.441
761.774	7.077
765.148	9.361
768.523	14.335
771.898	19.438
775.273	21.295
778.648	22.248
782.023	31.347
785.397	24.916
788.772	15.413
792.147	21.929
795.522	16.65
798.896	18.86
802.271	19.325
805.646	18.256
809.021	21.647
812.396	27.174
815.771	19.518
819.145	18.087
822.52	13.642
825.895	3.29
829.27	9.244
832.645	1.247
836.019	7.505
839.394	14.576
842.769	19.042
846.144	3.674
849.519	7.058
852.894	0.329
856.268	20.288
859.643	24.5
863.018	21.369
866.393	9.178
869.768	26.959
873.143	12.041
876.517	2.896
879.892	13.219
883.267	7.038
886.642	2.78
890.016	8.947
893.391	19.44
896.766	10.372
900.141	13.97
903.516	15.858
906.891	35.191
910.265	18.787
913.64	37.103
917.015	16.656
920.39	19.59
923.765	38.284
927.14	37.942
930.514	40.368
933.889	42.974
937.264	27.813
940.639	44.871
944.013	31.414
947.388	14.69
950.763	8.902
954.138	10.491
957.513	2.758
960.888	14.538
964.263	6.245
967.637	5.57
971.012	20.511
974.387	11.095
977.762	6.78
981.136	5.244
984.511	20.233
987.886	25.461
991.261	12.217
994.636	2.935
998.011	0.971
1001.38	14.726
1004.76	9.937
1008.13	11.422
1011.51	6.337
1014.88	26.802
1018.26	13.371
1021.63	8.522
1025.01	20.739
1028.38	15.356
1031.76	15.823
1035.13	5.428
1038.51	7.544
1041.88	4.819
1045.26	11.037
1048.63	4.198
1052.01	0.928
1055.38	27.837
1058.76	18.499
1062.13	15.443
1065.51	8.888
1068.88	12.513
1072.26	6.519
1075.63	0.958
1079.01	13.658
1082.38	7.456
1085.76	13.118
1089.13	18.152
1092.51	12.316
1095.88	21.442
1099.26	25.094
1102.63	19.365
1106.01	13.465
1109.38	14.164
1112.75	2.786
1116.13	5.087
1119.5	15.189
1122.88	17.717
1126.25	13.843
1129.63	20.465
1133	17.724
1136.38	8.557
1139.75	24.262
1143.13	17.892
1146.5	8.01
1149.88	5.101
1153.25	4.193
1156.63	12.314
1160	2.938
1163.38	12.585
1166.75	11.282
1170.13	8.039
1173.5	19.364
1176.88	37.7
1180.25	17.104
1183.62	7.639
1187	0.692
1190.38	14.289
1193.75	12.041
1197.12	25.314
1200.5	11.716
1203.87	13.69
1207.25	5.41
1210.62	11.072
1214	27.267
1217.37	21.11
1220.75	7.568
1224.12	5.242
1227.5	10.264
1230.87	12.658
1234.25	14.761
1237.62	1.221
1241	10.703
1244.37	5.944
1247.75	18.494
1251.12	20.817
1254.5	25.221
1257.87	19.175
1261.25	5.86
1264.62	6.886
1268	17.965
1271.37	4.174
1274.74	9.234
1278.12	21.33
1281.49	19.28
1284.87	23.674
1288.24	11.071
1291.62	11.922
1294.99	15.125
1298.37	0.185
