Measurement: Raman, 532 nm, unoriented, Raman Data Processed
Mineral: Livingstonite
Rruff sample: R050453
Ideal chemistry: HgSb_4_S_8_
Locality: Huitzuco, Guerrero, Mexico
Source: University of Arizona Mineral Museum
Description: Aggregate of gray columnar crystals
Measured chemistry: Hg_1.00_Sb_4.00_S_8.00_
Raman shift (cm-1)	intensity
164.772	0
167.664	1.5678
170.557	3.67499
173.45	0.620331
176.343	0.69725
179.235	1.39976
182.128	3.05298
185.021	8.88155
187.913	4.02046
190.806	3.64209
193.699	7.80479
196.591	3.60341
199.484	6.07384
202.377	10.3885
205.269	10.8999
208.162	17.2297
211.055	20.4733
213.948	25.3526
216.84	35.2151
219.733	37.6615
222.626	46.3423
225.518	49.4245
228.411	50.6756
231.304	50.3501
234.196	48.7013
237.089	40.7395
239.982	35.9504
242.875	32.4176
245.767	25.0558
248.66	20.2876
251.553	19.8364
254.445	19.6878
257.338	25.2675
260.231	29.1723
263.123	37.2747
266.016	46.657
268.909	58.1836
271.802	67.4713
274.694	75.9092
277.587	88.9806
280.48	95.0975
283.372	96.432
286.265	96.9044
289.158	98.9212
292.05	105.807
294.943	116.379
297.836	123.231
300.729	129.796
303.621	132.785
306.514	133.013
309.407	128.236
312.299	109.494
315.192	78.6911
318.085	55.9109
320.978	39.9355
323.87	35.0385
326.763	32.3836
329.656	33.711
332.548	28.1347
335.441	17.6605
338.334	5.00857
341.226	0.202896
344.119	1.72092
347.012	4.19138
349.904	1.59975
352.797	0.82534
355.69	0.791115
358.583	0.364723
361.475	0.047195
364.368	1.61737
367.261	1.0613
370.153	1.74786
373.046	2.55638
375.939	3.4806
378.832	4.71242
381.724	5.34935
384.617	5.86546
387.51	5.99658
390.402	7.32692
393.295	7.38366
396.188	7.67273
399.08	8.40533
401.973	8.55917
404.866	7.62125
407.759	7.43656
410.651	6.85623
413.544	5.1465
416.437	5.37993
419.329	4.60146
422.222	2.71011
425.115	3.34388
428.007	3.02151
430.9	3.68841
433.793	2.95145
436.685	2.94863
439.578	4.02101
442.471	2.89957
445.364	2.88282
448.256	3.32186
451.149	3.10394
454.042	5.65084
456.934	4.15157
459.827	5.05045
462.72	4.82731
465.613	5.20581
468.505	6.03072
471.398	6.73393
474.291	7.10871
477.183	3.13723
480.076	1.69705
482.969	0.663788
485.861	0.87114
488.754	1.18009
491.647	0.931099
494.539	2.51141
497.432	0.32518
500.325	0.150375
503.218	1.63675
506.11	1.06958
509.003	1.11801
511.896	1.62164
514.788	3.686
517.681	1.08752
520.574	2.39081
523.466	0.790642
526.359	0.16832
529.252	2.58921
532.145	2.84028
535.037	2.34621
537.93	0.345032
540.823	2.09937
543.715	0.974297
546.608	1.5956
549.501	0.181404
552.394	1.10585
555.286	0.727448
558.179	0.750648
561.072	0.670395
563.964	1.18207
566.857	1.4646
569.75	0.5756
572.642	1.89809
575.535	0.963375
578.428	0.887173
581.321	0.664211
584.213	1.25863
587.106	0.474674
589.999	0.221195
592.891	0.328236
595.784	1.84955
598.677	0.588604
601.569	0.83778
604.462	0.256138
607.355	1.61246
610.247	2.03263
613.14	3.0029
616.033	1.69221
618.926	1.22643
621.818	1.91917
624.711	0.229206
627.604	0.234921
630.496	0.291882
633.389	2.37277
636.282	1.77191
639.174	2.47717
642.067	2.75204
644.96	2.82244
647.852	3.85358
650.745	3.3065
653.638	3.11573
656.531	3.77316
659.423	1.77864
662.316	2.28516
665.209	1.43274
668.101	1.88665
670.994	1.67719
673.887	0.292706
676.779	0.551117
679.672	1.18399
682.565	0.938065
685.458	0.734394
688.35	1.39002
691.243	1.88119
694.136	1.19213
697.028	1.07738
699.921	0.023708
702.814	1.0946
705.707	0.367287
708.599	1.4188
711.492	0.54866
714.385	1.43668
717.277	2.51542
720.17	0.620113
723.063	2.29459
725.955	1.99995
728.848	2.83969
731.741	3.21144
734.634	2.14099
737.526	2.25961
740.419	2.87305
743.312	1.38995
746.204	1.54069
749.097	2.19675
751.99	1.33003
754.882	0.98201
757.775	1.86675
760.668	1.86197
763.561	2.08079
766.453	1.32652
769.346	0.704418
772.239	0.422588
775.131	0.754292
778.024	0.105492
780.917	1.60429
783.809	0.404087
786.702	1.13892
789.595	0.949234
792.487	0.547817
795.38	0.39809
798.273	1.25016
801.166	0.423054
804.058	1.98786
806.951	3.19361
809.844	0.955048
812.736	1.25223
815.629	1.75692
818.522	0.012829
821.415	1.35426
824.307	2.09378
827.2	1.4278
830.093	1.31236
832.985	1.58077
835.878	0.787971
838.771	0.624931
841.663	0.891415
844.556	1.2398
847.449	0.341602
850.342	0.601696
853.234	0.124096
856.127	0.479877
859.02	1.44301
861.912	1.42528
864.805	2.28168
867.698	1.163
870.591	1.49403
873.483	1.80053
876.376	0.020653
879.269	1.63683
882.161	0.228703
885.054	2.33959
887.947	0.52702
890.839	2.35418
893.732	0.336582
896.625	0.28075
899.518	2.04953
902.41	0.281372
905.303	0.669388
908.196	2.33634
911.088	1.78353
913.981	2.03449
916.874	2.60355
919.766	3.87951
922.659	4.93334
925.552	5.17329
928.444	5.83926
931.337	7.14663
934.23	6.50345
937.123	5.83778
940.015	7.10897
942.908	6.25411
945.801	4.12797
948.693	2.7721
951.586	1.69346
954.479	2.09094
957.371	0.596104
960.264	1.42172
963.157	0.022995
966.05	0.175144
968.942	0.363102
971.835	0.13055
974.728	0.897873
977.62	0.435684
980.513	1.59861
983.406	0.055984
986.298	1.67707
989.191	0.803802
992.084	1.68183
994.977	0.576454
997.869	0.327698
1000.76	0.379238
1003.65	0.111946
1006.55	0.97274
1009.44	0.393925
1012.33	1.55632
1015.23	1.26454
1018.12	1.06941
1021.01	2.09855
1023.9	1.79888
1026.8	0.256924
1029.69	2.04768
1032.58	0.839745
1035.47	2.05666
1038.37	1.27129
1041.26	1.577
1044.15	2.07783
1047.05	1.78803
1049.94	1.47059
1052.83	0.169617
1055.72	1.78291
1058.62	1.24964
1061.51	2.36708
1064.4	1.6197
1067.29	0.094257
1070.19	2.42318
1073.08	1.2718
1075.97	0.455688
1078.87	1.21514
1081.76	0.911373
1084.65	0.082115
1087.54	0.696522
1090.44	1.35508
1093.33	0.253517
1096.22	1.77743
1099.11	1.09407
1102.01	0.045631
1104.9	2.01305
1107.79	1.063
1110.68	1.70712
1113.58	2.06974
1116.47	2.02769
1119.36	3.07596
1122.26	1.73923
1125.15	0.544167
1128.04	1.16051
1130.93	0.947762
1133.83	0.201641
1136.72	0.929741
1139.61	0.66811
1142.5	1.13525
1145.4	2.17021
1148.29	1.03281
1151.18	1.56018
1154.08	0.052311
1156.97	0.636307
1159.86	3.12219
1162.75	2.56828
1165.65	1.55596
1168.54	2.19161
1171.43	1.05151
1174.32	0.662708
1177.22	0.156513
1180.11	1.61446
1183	1.86663
1185.89	0.827522
1188.79	1.81073
1191.68	0.131588
1194.57	1.27369
1197.47	1.39683
1200.36	2.32797
1203.25	1.706
1206.14	2.50309
1209.04	2.29087
1211.93	1.6691
1214.82	2.26228
1217.71	1.55947
1220.61	2.37718
1223.5	2.25847
1226.39	2.27204
1229.29	1.06481
1232.18	1.39586
1235.07	0.364216
1237.96	1.33428
1240.86	2.29026
1243.75	1.68518
1246.64	1.89133
1249.53	2.03101
1252.43	1.70775
1255.32	0.680374
1258.21	2.35461
1261.11	1.86436
1264	0.761887
1266.89	0.240547
1269.78	1.0594
1272.68	0.273315
