Measurement: Raman, 780 nm, unoriented, Raman Data Processed
Mineral: Livingstonite
Rruff sample: R050453
Ideal chemistry: HgSb_4_S_8_
Locality: Huitzuco, Guerrero, Mexico
Source: University of Arizona Mineral Museum
Description: Aggregate of gray columnar crystals
Measured chemistry: Hg_1.00_Sb_4.00_S_8.00_
Raman shift (cm-1)	intensity
166.101	0
168.994	27.3993
171.886	20.1789
174.779	4.77997
177.672	9.16907
180.564	43.1244
183.457	65.8202
186.35	67.715
189.242	27.0998
192.135	14.497
195.028	17.9928
197.921	52.8862
200.813	210.325
203.706	433.459
206.599	737.878
209.491	1069.08
212.384	1454.05
215.277	1894.39
218.169	2295.63
221.062	2603.95
223.955	2732.72
226.847	2636.75
229.74	2420.89
232.633	2192.99
235.526	2002.3
238.418	1770.47
241.311	1483.91
244.204	1113.96
247.096	762.817
249.989	499.213
252.882	361.66
255.774	302.013
258.667	326.031
261.56	423.603
264.453	595.723
267.345	835.604
270.238	1096.55
273.131	1342.79
276.023	1547.45
278.916	1747.9
281.809	1972.12
284.702	2147.55
287.594	1999.94
290.487	1564.37
293.38	1200.22
296.272	1031.36
299.165	977.364
302.058	1100.24
304.95	1319.81
307.843	1637
310.736	2037.12
313.628	2034.67
316.521	1204.68
319.414	593.875
322.307	355.843
325.199	252.156
328.092	206.996
330.985	193.905
333.877	212.873
336.77	151.026
339.663	32.9275
342.556	21.688
345.448	27.3728
348.341	36.2255
351.234	26.1809
354.126	19.9318
357.019	7.58289
359.912	1.05948
362.805	9.17166
365.697	20.1574
368.59	30.8287
371.483	37.1536
374.375	44.1009
377.268	46.4372
380.161	56.0998
383.053	62.1255
385.946	75.7674
388.839	79.5024
391.731	94.1902
394.624	100.217
397.517	108.552
400.41	111.974
403.302	108.504
406.195	96.5626
409.088	91.3874
411.98	76.805
414.873	66.4868
417.766	59.6532
420.659	51.7622
423.551	46.4635
426.444	45.2214
429.337	42.6058
432.229	38.3508
435.122	37.765
438.015	35.7695
440.907	31.8276
443.8	29.7972
446.693	28.0768
449.586	29.97
452.478	27.3884
455.371	28.1775
458.264	33.7996
461.156	31.9369
464.049	34.8937
466.942	38.7083
469.834	42.9383
472.727	45.7085
475.62	39.9491
478.513	17.6986
481.405	7.13639
484.298	2.27631
487.191	2.98913
490.083	3.96697
492.976	1.69388
495.869	1.24142
498.762	2.19936
501.654	1.03355
504.547	0.61097
507.44	0.421356
510.332	0.588737
513.225	0.433434
516.118	0.300514
519.01	0.432556
521.903	0.161186
524.796	2.38313
527.688	5.15566
530.581	6.35425
533.474	7.0169
536.367	6.1338
539.259	7.51945
542.152	3.52999
545.045	2.90795
547.937	4.1512
550.83	3.57814
553.723	3.08595
556.615	1.87617
559.508	2.62495
562.401	2.62045
565.294	4.11761
568.186	2.75054
571.079	4.10822
573.972	1.06361
576.864	3.39636
579.757	0.726936
582.65	0.514946
585.543	0.062943
588.435	1.41387
591.328	0.164253
594.221	0.829155
597.113	0.895546
600.006	1.60645
602.899	0.544796
605.791	3.5735
608.684	4.43829
611.577	3.58067
614.47	3.7464
617.362	4.89143
620.255	3.54037
623.148	6.09833
626.04	2.61992
628.933	2.07568
631.826	5.57446
634.718	4.35582
637.611	5.71617
640.504	7.4406
643.397	6.73013
646.289	9.33135
649.182	7.88709
652.075	9.16107
654.967	7.19439
657.86	4.28731
660.753	7.12535
663.645	5.61569
666.538	6.37329
669.431	3.74303
672.324	2.63394
675.216	1.94345
678.109	1.66203
681.002	1.71603
683.894	2.12761
686.787	1.73679
689.68	0.493443
692.572	1.50656
695.465	0.324284
698.358	1.89183
701.251	0.157387
704.143	2.14645
707.036	4.27204
709.929	0.483459
712.821	3.87929
715.714	2.68423
718.607	4.90984
721.5	3.63165
724.392	5.40518
727.285	4.08688
730.178	5.12674
733.07	6.18443
735.963	5.8948
738.856	6.18454
741.749	6.46427
744.641	6.42424
747.534	5.94482
750.427	8.18324
753.319	6.81781
756.212	8.1872
759.105	6.51945
761.997	5.24758
764.89	3.96658
767.783	5.44225
770.676	1.94121
773.568	1.59469
776.461	2.1218
779.354	2.62877
782.246	2.15451
785.139	2.28979
788.032	1.81751
790.924	2.58384
793.817	0.480644
796.71	2.52549
799.602	0.309429
802.495	2.53902
805.388	0.432966
808.281	0.49505
811.173	0.081339
814.066	1.01386
816.959	2.52532
819.851	2.09696
822.744	1.08141
825.637	1.79722
828.529	1.89756
831.422	1.37526
834.315	2.25399
837.208	0.960361
840.1	0.01576
842.993	1.27834
845.886	1.76324
848.778	0.139532
851.671	0.395853
854.564	1.42361
857.457	0.823557
860.349	0.18041
863.242	1.38501
866.135	0.113646
869.027	0.803802
871.92	0.437492
874.813	0.69335
877.705	2.50925
880.598	0.094921
883.491	1.75969
886.384	1.37189
889.276	0.74337
892.169	2.10646
895.062	1.6856
897.954	1.25731
900.847	3.27813
903.74	1.71805
906.632	5.22307
909.525	5.88482
912.418	6.40333
915.311	10.355
918.203	12.6089
921.096	18.2748
923.989	24.5611
926.881	29.671
929.774	40.4783
932.667	49.2625
935.559	56.5217
938.452	57.4935
941.345	62.6406
944.238	62.9504
947.13	44.7637
950.023	24.2916
952.916	12.4851
955.808	8.05397
958.701	4.79337
961.594	1.42725
964.486	0.509886
967.379	0.126854
970.272	1.80346
973.165	0.131628
976.057	2.26627
978.95	0.293074
981.843	0.074743
984.735	0.054626
987.628	1.4052
990.521	0.075016
993.413	0.617464
996.306	0.874304
999.199	0.883354
1002.09	1.53646
1004.98	0.192333
1007.88	0.735479
1010.77	2.71007
1013.66	1.11119
1016.55	1.15903
1019.45	1.83801
1022.34	1.23199
1025.23	1.45152
1028.13	0.527195
1031.02	0.394571
1033.91	0.962189
1036.8	1.30816
1039.7	0.452303
1042.59	1.29215
1045.48	2.64081
1048.38	19.5537
1051.27	5.8015
1054.16	1.86396
1057.05	1.5434
1059.95	1.31231
1062.84	3.93528
1065.73	1.49719
1068.62	1.55839
1071.52	1.85572
1074.41	2.38647
1077.3	0.718346
1080.19	1.81235
1083.09	2.55513
1085.98	2.89527
1088.87	2.68499
1091.77	2.16168
1094.66	2.42691
1097.55	1.63723
1100.44	1.79701
1103.34	1.01989
1106.23	0.793896
1109.12	2.05872
1112.01	0.112606
1114.91	0.783207
1117.8	1.83769
1120.69	2.04413
1123.59	1.39511
1126.48	1.91515
1129.37	0.633543
1132.26	1.74094
1135.16	2.63408
1138.05	1.23525
1140.94	1.45667
1143.83	2.43863
1146.73	1.76068
1149.62	1.42407
1152.51	0.145546
1155.4	2.26991
1158.3	1.84366
1161.19	2.1658
1164.08	2.26354
1166.98	0.618647
1169.87	1.41934
1172.76	3.02476
1175.65	1.86399
1178.55	1.68313
1181.44	1.90572
1184.33	2.98777
1187.22	1.40488
1190.12	2.83475
1193.01	1.42382
1195.9	2.21838
1198.8	2.82164
1201.69	0.488171
1204.58	1.32104
1207.47	1.34195
1210.37	1.29682
1213.26	0.291733
1216.15	2.531
1219.04	0.057575
1221.94	1.48138
1224.83	1.68142
1227.72	1.0198
1230.62	1.05039
1233.51	0.881077
1236.4	0.887291
1239.29	2.985
1242.19	1.35217
1245.08	2.13897
1247.97	1.33003
1250.86	1.34955
1253.76	1.46685
1256.65	2.47523
1259.54	2.17759
1262.43	2.39017
1265.33	2.12402
1268.22	1.37627
1271.11	0
