Measurement: Raman, 532 nm, unoriented, Raman Data Processed
Mineral: Livingstonite
Rruff sample: R050427
Ideal chemistry: HgSb_4_S_8_
Locality: Huitzuco, Guerrero, Mexico
Source: University of Arizona Mineral Museum
Description: Aggregate of blackish-gray elongated crystals
Measured chemistry: Hg_1.00_Sb_4.00_S_8.00_
Raman shift (cm-1)	intensity
106.577	0
109.952	161.646
113.327	1064.2
116.702	2633.09
120.077	2425.32
123.451	1933.69
126.826	1409.19
130.201	1688.51
133.576	2665.4
136.951	4520.43
140.326	6793.73
143.7	8491.8
147.075	7603.56
150.45	5397.22
153.825	3665.37
157.2	2535.22
160.574	1720.89
163.949	1430.96
167.324	1169.7
170.699	1060.42
174.074	1274.97
177.449	2608.5
180.823	5352.23
184.198	9518.72
187.573	13854.8
190.948	4374.91
194.323	869.899
197.697	76.561
201.072	120.587
204.447	110.645
207.822	72.628
211.197	53.243
214.572	57.523
217.946	19.596
221.321	235.436
224.696	485.449
228.071	944.897
231.446	1419.42
234.82	2291.07
238.195	4438.79
241.57	9533.18
244.945	17436.5
248.32	29103.7
251.695	28184.7
255.069	11850.7
258.444	6187.19
261.819	4665.12
265.194	4295.15
268.569	4199.4
271.943	4466.84
275.318	4583.73
278.693	4779.31
282.068	4729.59
285.443	4699.82
288.817	4847.39
292.192	5016.99
295.567	4912.46
298.942	4477.87
302.317	3967.61
305.691	3046.18
309.066	1955.46
312.441	1147.78
315.816	597.487
319.191	264.75
322.566	90.19
325.94	24.033
329.315	67.849
332.69	69.784
336.065	36.547
339.44	42.163
342.815	153.985
346.189	221.788
349.564	394.798
352.939	413.273
356.314	385.85
359.689	526.468
363.063	902.354
366.438	1500.11
369.813	1930.67
373.188	1552.34
376.563	866.215
379.937	535.75
383.312	294.607
386.687	256.944
390.062	168.439
393.437	69.865
396.811	54.82
400.186	5.754
403.561	10.323
406.936	5.588
410.311	43.66
413.686	120.934
417.06	189.584
420.435	135.701
423.81	239.577
427.185	332.838
430.56	492.678
433.934	903.046
437.309	1586.15
440.684	2695.73
444.059	4278.15
447.434	5333.65
450.809	4241.64
454.183	2436.31
457.558	1430.32
460.933	869.042
464.308	572.854
467.683	436.146
471.057	346.417
474.432	266.981
477.807	277.858
481.182	183.66
484.557	175.329
487.931	146.163
491.306	99.386
494.681	28.811
498.056	42.269
501.431	7.657
504.806	0.845
508.18	24.437
511.555	23.755
514.93	16.038
518.305	32.974
521.68	26.231
525.054	58.348
528.429	77.867
531.804	36.478
535.179	1.456
538.554	70.324
541.929	37.708
545.303	2.201
548.678	19.903
552.053	31.27
555.428	17.65
558.803	19.881
562.177	25.877
565.552	25.572
568.927	10.284
572.302	16.639
575.677	34.949
579.052	27.198
582.426	24.2
585.801	20.047
589.176	9.499
592.551	63.78
595.925	32.969
599.3	24.99
602.675	48.26
606.05	44.327
609.425	66.953
612.8	92.851
616.174	122.616
619.549	110.757
622.924	124.053
626.299	100.267
629.674	75.23
633.049	55.314
636.423	79.056
639.798	54.23
643.173	35.594
646.548	61.082
649.923	59.815
653.297	80.98
656.672	36.533
660.047	49.817
663.422	58.536
666.797	54.137
670.171	92.351
673.546	61.935
676.921	56.399
680.296	76.518
683.671	136.665
687.045	172.546
690.42	275.663
693.795	340.829
697.17	441.762
700.545	528.399
703.92	558.384
707.294	567.853
710.669	465.6
714.044	328.916
717.419	197.735
720.794	71.915
724.169	80.849
727.543	10.031
730.918	1.934
734.293	10.491
737.668	3.249
741.043	11.925
744.417	8.131
747.792	73.855
751.167	58.799
754.542	46.059
757.917	17.865
761.291	4.072
764.666	17.458
768.041	18.173
771.416	64.61
774.791	64.399
778.166	42.931
781.54	26.685
784.915	39.458
788.29	13.027
791.665	22.958
795.04	23.03
798.414	31.998
801.789	15.123
805.164	5.884
808.539	61.892
811.914	23.739
815.289	41.029
818.663	48.658
822.038	17.278
825.413	39.01
828.788	76.287
832.163	74.76
835.537	23.476
838.912	27.926
842.287	20.531
845.662	49.671
849.037	53.027
852.411	24.161
855.786	15.875
859.161	44.913
862.536	39.22
865.911	31.993
869.286	37.888
872.66	3.204
876.035	45.602
879.41	0.46
882.785	23.235
886.16	76.088
889.534	75.227
892.909	63.61
896.284	125.832
899.659	124.504
903.034	120.646
906.409	102.068
909.783	68.038
913.158	41.439
916.533	12.867
919.908	31.274
923.283	0.29
926.657	82.714
930.032	43.205
933.407	24.778
936.782	20.24
940.157	46.384
943.531	51.762
946.906	4.193
950.281	28.372
953.656	72.854
957.031	9.085
960.406	15.074
963.78	31.907
967.155	28.687
970.53	58.941
973.905	34.412
977.28	48.969
980.654	43.314
984.029	80.414
987.404	28.259
990.779	3.221
994.154	27.812
997.529	2.083
1000.9	9.025
1004.28	11.525
1007.65	30.098
1011.03	39.282
1014.4	12.905
1017.78	71.986
1021.15	74.002
1024.53	54.131
1027.9	13.909
1031.28	10.421
1034.65	23.826
1038.03	18.487
1041.4	34.346
1044.78	11.269
1048.15	68.684
1051.53	49.627
1054.9	30.72
1058.28	56.512
1061.65	11.243
1065.03	5.668
1068.4	26.081
1071.77	33.963
1075.15	4.348
1078.52	14.592
1081.9	7.576
1085.27	30.938
1088.65	32.15
1092.02	6.378
1095.4	112.84
1098.77	25.231
1102.15	41.909
1105.52	85.032
1108.9	31.543
1112.27	26.348
1115.65	40.291
1119.02	7.052
1122.4	39.223
1125.77	70.441
1129.15	24.283
1132.52	78.876
1135.9	60.422
1139.27	37.065
1142.65	63.64
1146.02	64.951
1149.39	22.48
1152.77	42.229
1156.14	57.431
1159.52	15.093
1162.89	20.144
1166.27	66.178
1169.64	36.396
1173.02	25.619
1176.39	45.642
1179.77	45.24
1183.14	70.166
1186.52	34.325
1189.89	0.116
1193.27	1.01
1196.64	36.91
1200.02	50.729
1203.39	19.724
1206.77	76.896
1210.14	56.561
1213.52	73.707
1216.89	47.915
1220.27	30.55
1223.64	69.442
1227.02	63.291
1230.39	28.36
1233.77	59.668
1237.14	3.181
1240.52	95.825
1243.89	91.827
1247.27	57.551
1250.64	62.19
1254.01	69.185
1257.39	57.832
1260.76	80.675
1264.14	59.944
1267.51	68.646
1270.89	10.907
1274.26	44.909
1277.64	83.864
1281.01	74.769
1284.39	75.753
1287.76	74.584
1291.14	36.757
1294.51	59.2
1297.89	3.285
