Measurement: Raman, 785 nm, unoriented, Raman Data Processed
Mineral: Livingstonite
Rruff sample: R050453
Ideal chemistry: HgSb_4_S_8_
Locality: Huitzuco, Guerrero, Mexico
Source: University of Arizona Mineral Museum
Description: Aggregate of gray columnar crystals
Measured chemistry: Hg_1.00_Sb_4.00_S_8.00_
Raman shift (cm-1)	intensity
118.153	0
121.046	117.837
123.938	7088.23
126.831	43291.1
129.724	65566.6
132.616	65847.1
135.509	64354.4
138.402	66736.9
141.294	82060.9
144.187	105182
147.08	115988
149.973	80125.9
152.865	50368.8
155.758	27868.4
158.651	14832.1
161.543	8413.98
164.436	3485.85
167.329	291.891
170.221	1748.04
173.114	883.305
176.007	3359.02
178.9	7192.59
181.792	7663.5
184.685	7760.4
187.578	6605.34
190.47	5100.94
193.363	3720.81
196.256	153.777
199.148	4226.97
202.041	3617.52
204.934	1841.97
207.827	12349.7
210.719	30042.9
213.612	56593.8
216.505	91337.8
219.397	127377
222.29	150369
225.183	149512
228.076	132949
230.968	118399
233.861	114716
236.754	118548
239.646	115849
242.539	96199.2
245.432	66253.8
248.324	40604.4
251.217	24430.2
254.11	16136
257.003	14125.5
259.895	16070.6
262.788	21781.8
265.681	31225.8
268.573	46346.9
271.466	69353.9
274.359	96882.2
277.251	120290
280.144	148839
283.037	188881
285.93	205911
288.822	165709
291.715	103902
294.608	62506.4
297.5	44483.7
300.393	46110.5
303.286	71331.3
306.178	128868
309.071	229316
311.964	315683
314.857	221121
317.749	107192
320.642	58585.1
323.535	38826.1
326.427	34622.5
329.32	42295.5
332.213	61114.7
335.105	66165.1
337.998	28594.4
340.891	8068.03
343.784	1432.23
346.676	1314.5
349.569	2025.88
352.462	1725.14
355.354	926.285
358.247	770.605
361.14	826.878
364.032	645.333
366.925	191.088
369.818	378.845
372.711	923.02
375.603	1366.14
378.496	2004.95
381.389	2610.17
384.281	3236.36
387.174	3763.34
390.067	4424.5
392.959	5065.76
395.852	5601.3
398.745	6214.09
401.638	6595.85
404.53	6873.07
407.423	6734.79
410.316	6253.06
413.208	5922.44
416.101	5683.73
418.994	5141.04
421.886	4563.47
424.779	3906.26
427.672	3511.53
430.565	3269.57
433.457	3032.33
436.35	2876.11
439.243	2711.7
442.135	2614.23
445.028	2510.64
447.921	2379.54
450.813	2317.79
453.706	2096.19
456.599	2124.32
459.491	2031.94
462.384	2126.91
465.277	2351.91
468.17	2768.33
471.062	3504.88
473.955	4228.14
476.848	2824
479.74	1107.39
482.633	534.188
485.526	366.542
488.418	314.904
491.311	276.401
494.204	177.29
497.097	138.236
499.989	63.617
502.882	30.588
505.775	2.407
508.667	33.038
511.56	73.289
514.453	82.332
517.346	61.681
520.238	30.993
523.131	134.403
526.024	277.489
528.916	437.438
531.809	563.944
534.702	509.335
537.594	612.512
540.487	595.06
543.38	628.531
546.273	637.342
549.165	648.33
552.058	561.618
554.951	479.442
557.843	351.594
560.736	363.123
563.629	331.989
566.521	309.758
569.414	360.648
572.307	369.033
575.2	392.52
578.092	321.522
580.985	278.187
583.878	186.341
586.77	98.546
589.663	80.436
592.556	49.524
595.448	126.209
598.341	57.528
601.234	8.392
604.127	82.694
607.019	171.118
609.912	287.932
612.805	321.872
615.697	390.483
618.59	383.618
621.483	295.795
624.375	186.771
627.268	129.892
630.161	167.344
633.054	196.491
635.946	309.107
638.839	380.911
641.732	470.801
644.624	559.102
647.517	624.346
650.41	654.917
653.302	682.337
656.195	697.921
659.088	762.172
661.981	810.208
664.873	752.142
667.766	655.942
670.659	545.468
673.551	432.703
676.444	273.494
679.337	214.77
682.229	168.405
685.122	75.432
688.015	3.224
690.907	1.525
693.8	14.323
696.693	24.363
699.586	43.124
702.478	96.361
705.371	102.437
708.264	179.271
711.156	247.628
714.049	252.332
716.942	269.298
719.834	301.92
722.727	299.753
725.62	365.567
728.513	432.244
731.405	501.156
734.298	570.901
737.191	682.252
740.083	774.578
742.976	816.939
745.869	820.496
748.761	798.713
751.654	854.074
754.547	839.949
757.44	819.569
760.332	765.349
763.225	657.69
766.118	496.847
769.01	344.246
771.903	268.8
774.796	220.504
777.688	215.197
780.581	236.144
783.474	284.255
786.367	307.075
789.259	246.725
792.152	222.598
795.045	210.931
797.937	120.783
800.83	99.73
803.723	60.22
806.615	63.003
809.508	7.167
812.401	23.155
815.294	44.769
818.186	9.614
821.079	16.873
823.972	105.936
826.864	11.602
829.757	45.276
832.65	30.072
835.542	12.157
838.435	24.646
841.328	7.415
844.221	5.431
847.113	19.252
850.006	35.393
852.899	22.524
855.791	16.746
858.684	14.465
861.577	7.63
864.469	20.346
867.362	20.912
870.255	63.172
873.148	47.892
876.04	30.796
878.933	52.682
881.826	49.142
884.718	84.307
887.611	92.874
890.504	111.84
893.396	102.046
896.289	95.136
899.182	177.847
902.075	281.437
904.967	305.403
907.86	378.442
910.753	541.331
913.645	736.128
916.538	1016.11
919.431	1390.61
922.323	1874.9
925.216	2614.09
928.109	3550.58
931.002	4714.81
933.894	5705.16
936.787	6596.74
939.68	8111.19
942.572	10316.9
945.465	10507
948.358	7303.55
951.25	3721.36
954.143	1824.67
957.036	936.614
959.929	555.774
962.821	345.395
965.714	215.661
968.607	153.758
971.499	75.908
974.392	71.6
977.285	34.348
980.177	54.793
983.07	32.677
985.963	13.89
988.856	1.75
991.748	2.944
994.641	28.989
997.534	22.382
1000.43	39.727
1003.32	13.084
1006.21	31.012
1009.1	14.827
1012	23.29
1014.89	31.984
1017.78	41.915
1020.67	26.615
1023.57	14.379
1026.46	36.847
1029.35	7.955
1032.25	16.335
1035.14	35.427
1038.03	36.587
1040.92	9.949
1043.82	26.329
1046.71	4.489
1049.6	41.928
1052.49	6.097
1055.39	40.947
1058.28	78.155
1061.17	42.599
1064.07	43.904
1066.96	22.794
1069.85	6.412
1072.74	33.22
1075.64	70.654
1078.53	29.114
1081.42	20.054
1084.32	93.434
1087.21	110.312
1090.1	36.208
1092.99	53.784
1095.88	20.189
1098.78	38.53
1101.67	47.586
1104.56	0.705
1107.46	11.756
1110.35	4.667
1113.24	31.774
1116.13	22.158
1119.03	20.464
1121.92	54.287
1124.81	58.913
1127.7	31.761
1130.6	52.408
1133.49	214.195
1136.38	32.219
1139.28	3.28
1142.17	0.637
1145.06	3.039
1147.95	10.221
1150.85	39.445
1153.74	46.327
1156.63	35.817
1159.53	43.533
1162.42	53.749
1165.31	47.532
1168.2	81.875
1171.1	78.207
1173.99	38.648
1176.88	13.234
1179.77	36.876
1182.67	58.785
1185.56	36.284
1188.45	64.727
1191.34	42.274
1194.24	54.393
1197.13	56.398
1200.02	84.796
1202.91	52.643
1205.81	50.593
1208.7	47.038
1211.59	5.572
1214.49	46.584
1217.38	75.052
1220.27	6.167
1223.16	57.035
1226.06	23.729
1228.95	73.471
1231.84	11.37
1234.73	53.574
1237.63	59.557
1240.52	71.661
1243.41	38.108
1246.31	26.969
1249.2	28.503
1252.09	2.416
1254.98	49.432
1257.88	46.517
1260.77	46.374
1263.66	24.162
1266.56	37.461
1269.45	17.761
1272.34	3.712
