Measurement: Raman, 780 nm, unoriented, Raman Data Processed
Mineral: Livingstonite
Rruff sample: R050427
Ideal chemistry: HgSb_4_S_8_
Locality: Huitzuco, Guerrero, Mexico
Source: University of Arizona Mineral Museum
Description: Aggregate of blackish-gray elongated crystals
Measured chemistry: Hg_1.00_Sb_4.00_S_8.00_
Raman shift (cm-1)	intensity
165.619	0
168.511	2.02303
171.404	0.240067
174.297	1.01927
177.189	3.49873
180.082	7.37543
182.975	7.483
185.868	5.40051
188.76	0.23056
191.653	2.95189
194.546	0.185745
197.438	8.68526
200.331	25.3885
203.224	48.2796
206.117	78.8157
209.009	114.058
211.902	149.097
214.795	185.474
217.687	219.282
220.58	242.661
223.473	254.356
226.365	251.436
229.258	235.593
232.151	214.253
235.043	191.225
237.936	161.444
240.829	132.993
243.722	102.205
246.614	81.4004
249.507	64.0526
252.4	55.2859
255.292	55.9775
258.185	57.2283
261.078	67.6185
263.971	85.0817
266.863	102.932
269.756	119.823
272.649	137.196
275.541	150.486
278.434	163.032
281.327	172.73
284.219	172.422
287.112	163.608
290.005	145.897
292.897	138.253
295.79	141.271
298.683	153.543
301.576	178.446
304.468	209.955
307.361	241.119
310.254	254.929
313.146	223.286
316.039	140.15
318.932	86.0212
321.825	58.4762
324.717	46.0532
327.61	39.9654
330.503	36.2418
333.395	29.0943
336.288	17.0014
339.181	2.58758
342.074	2.99437
344.966	4.98862
347.859	3.72192
350.752	3.20484
353.644	2.19431
356.537	1.03454
359.43	0.51757
362.322	1.49876
365.215	2.93365
368.108	3.3517
371	4.86306
373.893	4.57192
376.786	5.94209
379.679	6.79423
382.571	7.8221
385.464	9.15154
388.357	11.3111
391.249	12.4587
394.142	13.7929
397.035	14.9071
399.928	14.5916
402.82	13.7856
405.713	12.6773
408.606	11.0483
411.498	10.0968
414.391	8.99651
417.284	8.15253
420.176	6.70935
423.069	7.25913
425.962	5.73288
428.854	5.68077
431.747	5.07032
434.64	5.30405
437.533	5.04597
440.425	5.36498
443.318	4.03821
446.211	5.4804
449.103	4.2369
451.996	4.82956
454.889	5.66851
457.781	6.9275
460.674	7.89018
463.567	7.77789
466.46	7.97324
469.352	7.3421
472.245	7.30574
475.138	5.34475
478.03	2.54281
480.923	0.984463
483.816	0.596733
486.709	0.459404
489.601	0.077579
492.494	0.434837
495.387	0.446529
498.279	0.1362
501.172	0.130123
504.065	0.238922
506.957	0.313599
509.85	0.577518
512.743	0.26955
515.636	0.933392
518.528	0.359745
521.421	0.66449
524.314	0.892094
527.206	0.748909
530.099	1.40121
532.992	1.38361
535.885	1.76932
538.777	0.073257
541.67	0.828529
544.563	0.751625
547.455	0.524479
550.348	0.732155
553.241	1.10373
556.133	0.185997
559.026	0.433567
561.919	0.442265
564.812	1.01474
567.704	0.317993
570.597	0.32304
573.49	0.551579
576.382	0.748016
579.275	0.176006
582.168	0.836411
585.06	0.043228
587.953	0.031616
590.846	0.168381
593.739	0.412621
596.631	0.299614
599.524	0.106464
602.417	0.228649
605.309	0.419403
608.202	1.4444
611.095	0.759998
613.987	0.587341
616.88	0.350998
619.773	0.840096
622.665	0.280819
625.558	0.893627
628.451	0.318562
631.344	1.18329
634.236	0.746933
637.129	0.625278
640.022	1.62689
642.914	2.09809
645.807	1.28889
648.7	0.906601
651.592	0.979809
654.485	1.60867
657.378	1.14956
660.271	1.66774
663.163	1.38201
666.056	0.836369
668.949	0.726795
671.841	0.863327
674.734	0.635002
677.627	0.047558
680.519	1.02595
683.412	0.662991
686.305	0.075096
689.198	0.027981
692.09	0.440235
694.983	0.051571
697.876	0.677418
700.769	0.342949
703.661	0.302692
706.554	1.06071
709.447	0.432255
712.339	1.72548
715.232	1.211
718.125	0.575348
721.017	1.20229
723.91	1.59856
726.803	2.06253
729.696	1.61206
732.588	1.19257
735.481	1.28563
738.374	1.58115
741.266	1.28997
744.159	0.47068
747.052	1.39269
749.944	1.06961
752.837	1.45713
755.73	1.14483
758.622	0.867764
761.515	0.933395
764.408	0.529942
767.301	0.670383
770.193	0.250244
773.086	0.247849
775.979	0.620571
778.871	0.080074
781.764	0.48872
784.657	1.05276
787.549	1.07181
790.442	1.21276
793.335	1.70748
796.228	0.695896
799.12	1.0135
802.013	0.859558
804.906	0.912094
807.798	0.225967
810.691	1.14078
813.584	0.582928
816.477	0.342468
819.369	0.620213
822.262	0.235466
825.155	1.08421
828.047	0.325565
830.94	0.640354
833.833	0.159939
836.726	0.392658
839.618	0.675613
842.511	0.478909
845.404	1.13759
848.296	0.783188
851.189	0.055252
854.082	0.637871
856.974	0.2313
859.867	0.758381
862.76	0.133415
865.653	0.362816
868.545	0.260944
871.438	0.205719
874.331	4.04705
877.223	0.113071
880.116	0.005135
883.009	0.485714
885.901	0.667439
888.794	0.135433
891.687	0.439228
894.58	0.998703
897.472	0.444042
900.365	0.73196
903.258	1.37928
906.15	0.773312
909.043	1.79513
911.936	2.46738
914.828	2.57333
917.721	3.59742
920.614	4.10686
923.506	4.81809
926.399	6.39768
929.292	6.791
932.185	7.94944
935.077	7.91787
937.97	7.88709
940.863	6.77577
943.755	5.44035
946.648	4.05064
949.541	1.81496
952.433	1.41594
955.326	0.557709
958.219	0.48188
961.112	0.437374
964.004	0.19743
966.897	0.010975
969.79	0.44051
972.682	0.385021
975.575	0.969303
978.468	0.576229
981.361	0.681015
984.253	0.564159
987.146	0.299641
990.039	0.1371
992.931	0.598503
995.824	0.546463
998.717	0.517365
1001.61	0.421989
1004.5	0.602943
1007.39	0.587204
1010.29	0.067944
1013.18	0.641853
1016.07	0.186089
1018.97	0.531403
1021.86	1.0048
1024.75	0.099842
1027.64	1.01249
1030.54	0.134167
1033.43	0.622654
1036.32	1.40084
1039.21	0.093296
1042.11	0.420773
1045	0.666412
1047.89	0.94574
1050.79	0.907635
1053.68	0.500484
1056.57	0.947296
1059.46	0.056854
1062.36	1.46492
1065.25	1.2364
1068.14	1.40173
1071.03	0.806187
1073.93	1.05032
1076.82	0.705582
1079.71	0.233303
1082.61	1.14211
1085.5	0.42067
1088.39	0.385963
1091.28	0.810402
1094.18	1.16355
1097.07	0.294006
1099.96	1.36604
1102.85	0.393864
1105.75	0.012455
1108.64	1.18266
1111.53	0.171581
1114.42	0.286087
1117.32	0.131123
1120.21	0.046173
1123.1	0.589771
1126	0.304356
1128.89	0.900829
1131.78	1.07073
1134.67	0.250019
1137.57	0.225636
1140.46	0.741455
1143.35	0.781124
1146.24	0.892677
1149.14	0.407253
1152.03	1.38398
1154.92	0.868366
1157.82	1.46714
1160.71	1.87741
1163.6	1.3376
1166.49	1.93734
1169.39	1.48015
1172.28	1.114
1175.17	1.14619
1178.06	0.825085
1180.96	1.10352
1183.85	1.56496
1186.74	1.95549
1189.63	1.09219
1192.53	1.36503
1195.42	1.32864
1198.31	1.51397
1201.21	1.32748
1204.1	1.43068
1206.99	0.537628
1209.88	1.26375
1212.78	0.662964
1215.67	1.08356
1218.56	0.1511
1221.45	1.00066
1224.35	0.090229
1227.24	0.913795
1230.13	1.76313
1233.03	0.702209
1235.92	1.00486
1238.81	0.714985
1241.7	1.07901
1244.6	0.946091
1247.49	2.50349
1250.38	1.50805
1253.28	0.675434
1256.17	0.759022
1259.06	0.988708
1261.95	0.954185
1264.85	0.238762
1267.74	1.12942
1270.63	1.27399
1273.52	0.487831
1276.42	0
