Measurement: Raman, 532 nm, unoriented, Raman Data Processed
Mineral: Livingstonite
Rruff sample: R050453
Ideal chemistry: HgSb_4_S_8_
Locality: Huitzuco, Guerrero, Mexico
Source: University of Arizona Mineral Museum
Description: Aggregate of gray columnar crystals
Measured chemistry: Hg_1.00_Sb_4.00_S_8.00_
Raman shift (cm-1)	intensity
108.024	0
111.399	202.148
114.773	973
118.148	2139.86
121.523	1940.54
124.898	1058.15
128.273	850.608
131.648	1430.21
135.022	2701.37
138.397	4860.48
141.772	7221.78
145.147	7796.5
148.522	5934.34
151.896	4003.02
155.271	2664.01
158.646	1742.26
162.021	1202
165.396	969.865
168.77	706.977
172.145	635.65
175.52	706.552
178.895	1368.98
182.27	3316.12
185.645	8932.23
189.019	6321.37
192.394	1345.42
195.769	266.316
199.144	101.329
202.519	130.176
205.893	91.126
209.268	17.502
212.643	11.677
216.018	41.984
219.393	48.962
222.768	211.875
226.142	419.483
229.517	664.227
232.892	1069.64
236.267	1783.8
239.642	2843.17
243.016	6042.87
246.391	12475.2
249.766	21661.8
253.141	12289.6
256.516	5428.35
259.89	3689.98
263.265	3214.65
266.64	3060.9
270.015	3210.11
273.39	3337.63
276.764	3517.75
280.139	3587.33
283.514	3456.6
286.889	3496.95
290.264	3707.03
293.639	3904.89
297.013	3819.32
300.388	3619.67
303.763	3084.99
307.138	2367.2
310.513	1461.89
313.888	921.22
317.262	516.247
320.637	261.518
324.012	144.895
327.387	29.937
330.762	9.732
334.136	42.654
337.511	36.569
340.886	7.595
344.261	57.626
347.636	97.732
351.01	97.301
354.385	89.837
357.76	44.162
361.135	150.559
364.51	410.966
367.884	946.557
371.259	1092.57
374.634	553.003
378.009	290.868
381.384	115.037
384.759	104.432
388.133	73.412
391.508	88
394.883	26.187
398.258	20.307
401.633	7.197
405.008	10.252
408.382	20.334
411.757	20.775
415.132	60.974
418.507	44.14
421.882	129.097
425.256	128.176
428.631	210.016
432.006	294.967
435.381	497.966
438.756	907.569
442.13	1595.74
445.505	2746.2
448.88	2995.98
452.255	1953.09
455.63	1047.77
459.004	647.648
462.379	414.213
465.754	294.119
469.129	234.545
472.504	192.812
475.879	191.502
479.253	133.404
482.628	135.147
486.003	96.566
489.378	77.896
492.753	39.11
496.128	3.263
499.502	32.584
502.877	3.401
506.252	17.394
509.627	37.091
513.002	45.41
516.376	33.977
519.751	75.142
523.126	28.453
526.501	48.47
529.876	59.959
533.25	27.217
536.625	5.935
540	4.226
543.375	9.463
546.75	5.038
550.125	3.458
553.499	26.319
556.874	8.706
560.249	44.983
563.624	17.218
566.999	41.504
570.373	1.57
573.748	56.168
577.123	33.046
580.498	42.477
583.873	28.402
587.247	7.692
590.622	6.795
593.997	6.432
597.372	31.665
600.747	5.523
604.122	44.866
607.496	20.448
610.871	28.261
614.246	35.874
617.621	21.043
620.996	38.039
624.37	58.377
627.745	36.333
631.12	15.428
634.495	11.487
637.87	56.162
641.245	30.229
644.619	11.074
647.994	21.348
651.369	43.603
654.744	28.677
658.119	35.149
661.493	35.945
664.868	53.082
668.243	21.25
671.618	75.551
674.993	55.242
678.367	74.184
681.742	57.472
685.117	133.501
688.492	70.045
691.867	203.869
695.242	224.823
698.616	261.718
701.991	355.845
705.366	392.396
708.741	328.083
712.116	261.605
715.49	169.476
718.865	145.257
722.24	83.806
725.615	91.251
728.99	55.63
732.365	52.855
735.739	69.637
739.114	45.168
742.489	52.239
745.864	44.407
749.239	58.745
752.613	56.817
755.988	12.904
759.363	41.396
762.738	22.501
766.113	39.346
769.487	46.671
772.862	45.511
776.237	75.202
779.612	68.154
782.987	26.839
786.362	47.687
789.736	42.557
793.111	14.656
796.486	13.198
799.861	26.774
803.236	67.461
806.61	40.995
809.985	17.227
813.36	45.196
816.735	47.574
820.11	44.901
823.484	43.978
826.859	20.834
830.234	29.504
833.609	4.026
836.984	33.655
840.359	10.269
843.733	12.314
847.108	49.09
850.483	22.793
853.858	30.676
857.233	35.675
860.607	55.486
863.982	55.869
867.357	44.863
870.732	42.949
874.107	8.281
877.482	12.62
880.856	24.59
884.231	25.796
887.606	30.278
890.981	56.216
894.356	53.528
897.73	70.709
901.105	57.43
904.48	66.868
907.855	47.581
911.23	38.418
914.604	35.77
917.979	16.276
921.354	71.839
924.729	17.703
928.104	56.394
931.479	73.627
934.853	37.754
938.228	64.708
941.603	69.374
944.978	21.621
948.353	26.836
951.727	33.83
955.102	21.346
958.477	3.403
961.852	54.505
965.227	45.461
968.602	59.036
971.976	50.845
975.351	47.518
978.726	45.132
982.101	38.583
985.476	30.089
988.85	39.262
992.225	29.148
995.6	12.605
998.975	3.11
1002.35	10.167
1005.72	15.066
1009.1	24.038
1012.47	23.236
1015.85	40.285
1019.22	51.382
1022.6	32.017
1025.97	63.099
1029.35	45.894
1032.72	68.247
1036.1	12.941
1039.47	41.687
1042.85	11.922
1046.22	48.622
1049.6	82.836
1052.97	88.132
1056.35	67.742
1059.72	25.276
1063.1	46.816
1066.47	13.82
1069.85	10.749
1073.22	31.054
1076.6	27.779
1079.97	20.97
1083.35	28.698
1086.72	20.835
1090.1	41.276
1093.47	52.355
1096.84	74.189
1100.22	63.62
1103.59	37.007
1106.97	36.854
1110.34	19.297
1113.72	4.456
1117.09	16.406
1120.47	23.757
1123.84	46.052
1127.22	63.117
1130.59	84.782
1133.97	62.047
1137.34	85.658
1140.72	55.212
1144.09	39.951
1147.47	11.615
1150.84	16.927
1154.22	42.346
1157.59	26.183
1160.97	58.013
1164.34	53.251
1167.72	16.764
1171.09	9.273
1174.46	38.866
1177.84	79.409
1181.21	58.147
1184.59	61.425
1187.96	6.33
1191.34	36.188
1194.71	16.604
1198.09	29.46
1201.46	29.791
1204.84	19.177
1208.21	42.621
1211.59	43.932
1214.96	81.784
1218.34	61.689
1221.71	85.841
1225.09	19.035
1228.46	37.035
1231.84	18.921
1235.21	59.913
1238.59	50.653
1241.96	69.272
1245.34	33.984
1248.71	110.402
1252.09	49.705
1255.46	84.619
1258.84	38.429
1262.21	43.357
1265.59	25.138
1268.96	31.451
1272.34	36.693
1275.71	50.67
1279.08	40.012
1282.46	46.202
1285.83	63.291
1289.21	48.958
1292.58	72.761
1295.96	58.592
1299.33	33.826
