Measurement: Raman, 532 nm, unoriented, Raman Data Processed
Mineral: Livingstonite
Rruff sample: R050427
Ideal chemistry: HgSb_4_S_8_
Locality: Huitzuco, Guerrero, Mexico
Source: University of Arizona Mineral Museum
Description: Aggregate of blackish-gray elongated crystals
Measured chemistry: Hg_1.00_Sb_4.00_S_8.00_
Raman shift (cm-1)	intensity
105.131	0
108.506	2.156
111.881	37.666
115.256	131.279
118.63	152.607
122.005	194.627
125.38	211.691
128.755	145.153
132.13	108.957
135.504	103.32
138.879	106.889
142.254	52.447
145.629	43.739
149.004	38.385
152.378	3.329
155.753	55.141
159.128	45.749
162.503	105.886
165.878	140.336
169.253	97.549
172.627	152.743
176.002	158.965
179.377	202.11
182.752	205.03
186.127	191.683
189.501	173.941
192.876	107.851
196.251	109.822
199.626	139.28
203.001	93.291
206.376	23.857
209.75	94.862
213.125	109.499
216.5	169.996
219.875	228.007
223.25	265.043
226.624	280.443
229.999	300.653
233.374	317.719
236.749	159.953
240.124	146.979
243.499	76.94
246.873	31.908
250.248	6.154
253.623	42.722
256.998	58.043
260.373	159.884
263.747	357.516
267.122	587.239
270.497	789.117
273.872	1002.72
277.247	1156.88
280.621	1204.37
283.996	1178.08
287.371	1125.56
290.746	1083.35
294.121	1230.54
297.496	1375.87
300.87	1410.64
304.245	1357.64
307.62	1205.61
310.995	871.822
314.37	503.603
317.744	216.711
321.119	142.479
324.494	107.022
327.869	154.488
331.244	153.452
334.618	88.127
337.993	15.883
341.368	15.639
344.743	27.415
348.118	24.348
351.493	2.658
354.867	0.623
358.242	21.111
361.617	52.613
364.992	68.542
368.367	98.561
371.741	104.418
375.116	88.918
378.491	131.659
381.866	136.706
385.241	171.353
388.616	203.571
391.99	213.205
395.365	236.842
398.74	173.56
402.115	170.257
405.49	197.83
408.864	179.718
412.239	155.611
415.614	125.288
418.989	138.402
422.364	111.035
425.738	87.491
429.113	126.826
432.488	123.26
435.863	109.911
439.238	98.344
442.612	116.976
445.987	88.861
449.362	65.949
452.737	63.551
456.112	81.858
459.487	80.44
462.862	127.617
466.236	134.933
469.611	115.808
472.986	86.111
476.361	68.889
479.736	60.847
483.11	61.502
486.485	65.968
489.86	18.95
493.235	17.034
496.61	59.578
499.984	3.473
503.359	17.669
506.734	44.851
510.109	26.374
513.484	12.224
516.859	24.926
520.233	69
523.608	45.654
526.983	26.466
530.358	12.558
533.732	2.411
537.107	6.223
540.482	14.041
543.857	8.128
547.232	7.557
550.607	34.93
553.981	28.858
557.356	19.538
560.731	4.59
564.106	5.576
567.481	45.816
570.856	20.427
574.23	10.995
577.605	0.108
580.98	30.791
584.355	6.358
587.73	0.14
591.104	9.641
594.479	29.74
597.854	23.015
601.229	3.756
604.604	20.287
607.979	67.252
611.353	53.6
614.728	60.734
618.103	46.553
621.478	74.123
624.852	15.196
628.227	49.638
631.602	22.608
634.977	39.137
638.352	83.262
641.727	47.602
645.101	81.997
648.476	71.372
651.851	47.537
655.226	46.189
658.601	23.936
661.976	34.4
665.35	8.695
668.725	10.087
672.1	0.777
675.475	13.071
678.849	30.279
682.224	65.715
685.599	50.672
688.974	50.193
692.349	67.517
695.724	45.605
699.098	78.933
702.473	14.466
705.848	16.397
709.223	54.197
712.598	5.648
715.972	43.491
719.347	52.867
722.722	38.093
726.097	69.624
729.472	25.59
732.847	57.363
736.221	27.446
739.596	15.645
742.971	0.088
746.346	36.189
749.721	18.28
753.096	19.637
756.47	29.099
759.845	40.198
763.22	53.604
766.595	13.487
769.969	43.518
773.344	41.739
776.719	42.451
780.094	16.902
783.469	35.253
786.844	0.57
790.218	42.427
793.593	34.582
796.968	25.166
800.343	15.834
803.718	24.373
807.093	44.103
810.467	6.771
813.842	9.752
817.217	20.049
820.592	7.115
823.967	11.56
827.341	23.881
830.716	10.467
834.091	37.125
837.466	15.167
840.841	19.038
844.216	45.646
847.59	15.995
850.965	17.466
854.34	34.201
857.715	33.307
861.089	19.821
864.464	22.147
867.839	16.477
871.214	8.011
874.589	23.796
877.964	38.808
881.338	45.595
884.713	64.913
888.088	65.919
891.463	66.18
894.838	55.534
898.213	4.115
901.587	27.97
904.962	24.523
908.337	32.24
911.712	1.323
915.087	8.098
918.461	26.268
921.836	81.594
925.211	57.062
928.586	58.839
931.961	77.407
935.336	82.544
938.71	99.916
942.085	94.73
945.46	8.962
948.835	6.489
952.209	24.16
955.584	33.692
958.959	40.656
962.334	49.54
965.709	60.635
969.084	51.22
972.458	50.57
975.833	41.071
979.208	54.526
982.583	24.621
985.958	0.458
989.333	12.488
992.707	29.592
996.082	41.287
999.457	29.474
1002.83	40.532
1006.21	29.967
1009.58	46.54
1012.96	43.391
1016.33	40.36
1019.71	54.054
1023.08	9.791
1026.45	39.948
1029.83	40.892
1033.2	58.672
1036.58	76.264
1039.95	1.305
1043.33	56.503
1046.7	64.969
1050.08	0.774
1053.45	43.147
1056.83	23.022
1060.2	28.123
1063.58	56.031
1066.95	3.037
1070.33	16.562
1073.7	45.332
1077.08	55.825
1080.45	13.472
1083.83	70.989
1087.2	38.2
1090.58	60.391
1093.95	18.894
1097.33	9.753
1100.7	23.37
1104.08	17.353
1107.45	47.043
1110.83	2.045
1114.2	59.064
1117.58	4.571
1120.95	53.043
1124.33	37.906
1127.7	48.112
1131.08	38.606
1134.45	34.041
1137.82	39.084
1141.2	2.016
1144.57	25.963
1147.95	10.737
1151.32	18.326
1154.7	38.953
1158.07	47.475
1161.45	20.19
1164.82	29.46
1168.2	18.639
1171.57	25.634
1174.95	50.249
1178.32	34.589
1181.7	41.227
1185.07	50.499
1188.45	34.002
1191.82	2.121
1195.2	13.694
1198.57	71.565
1201.95	35.189
1205.32	53.917
1208.69	51.354
1212.07	58.928
1215.44	68.173
1218.82	8.145
1222.19	5.972
1225.57	60.547
1228.94	35.651
1232.32	36.676
1235.69	82.414
1239.07	67.986
1242.44	79.15
1245.82	85.126
1249.19	88.513
1252.57	80.456
1255.94	64.629
1259.32	56.569
1262.69	46.869
1266.07	18.011
1269.44	41.38
1272.82	64.148
1276.19	57.457
1279.57	43.33
1282.94	70.274
1286.32	51.912
1289.69	48.964
1293.07	4.462
1296.44	50.139
1299.82	4.78
