Measurement: Raman, 780 nm, unoriented, Raman Data Processed
Mineral: Lizardite
Rruff sample: R060006
Ideal chemistry: Mg_3_Si_2_O_5_(OH)_4_
Locality: Snarum, Norway
Source: University of Arizona Mineral Museum
Description: Green blebs of fine-grained serpentine habit, polytype 1T, associated with pearly hydrotalcite
Measured chemistry: (Mg_0.94_Fe^2+^_0.04_Al_0.02_)_3_(Si_0.97_Al_0.03_)_2_O_5_(OH)_4_
Raman shift (cm-1)	intensity
134.526	0
137.418	4.04833
140.311	1.29121
143.204	0.796963
146.096	0.21015
148.989	7.24812
151.882	6.01721
154.775	7.5627
157.667	5.48092
160.56	2.90213
163.453	6.06498
166.345	4.57939
169.238	4.26565
172.131	4.6574
175.024	11.1438
177.916	5.39489
180.809	11.3482
183.702	14.6994
186.594	15.1134
189.487	24.1298
192.38	30.8119
195.272	35.9944
198.165	46.4106
201.058	58.8369
203.951	64.8846
206.843	80.1874
209.736	102.749
212.629	135.741
215.521	168.11
218.414	206.946
221.307	267.296
224.199	352.43
227.092	462.711
229.985	537.149
232.877	438.892
235.77	265.067
238.663	144.2
241.556	76.1506
244.448	44.4249
247.341	31.3164
250.234	26.7393
253.126	19.7995
256.019	15.7559
258.912	15.5564
261.805	16.06
264.697	16.6696
267.59	14.6333
270.483	10.9745
273.375	9.69512
276.268	0.985933
279.161	0.433368
282.053	0.678163
284.946	2.70869
287.839	1.5004
290.731	3.16208
293.624	0.752916
296.517	0.690336
299.41	2.59569
302.302	5.28275
305.195	3.07076
308.088	4.13398
310.98	0.279693
313.873	4.73044
316.766	7.51443
319.659	10.8266
322.551	5.12393
325.444	4.48518
328.337	0.15667
331.229	7.27145
334.122	11.3842
337.015	15.7105
339.907	25.8585
342.8	42.0985
345.693	56.3171
348.586	70.2855
351.478	55.2732
354.371	17.218
357.264	17.001
360.156	30.0513
363.049	61.6744
365.942	114.945
368.834	155.783
371.727	203.425
374.62	262.89
377.512	341.239
380.405	448.859
383.298	515.599
386.191	457.876
389.083	300.125
391.976	171.015
394.869	82.5575
397.761	42.8234
400.654	20.72
403.547	11.3286
406.44	8.03066
409.332	4.10457
412.225	1.31372
415.118	0.982845
418.01	0.486635
420.903	0.661575
423.796	0.738709
426.688	1.25487
429.581	0.436315
432.474	0.300326
435.366	5.98578
438.259	2.38509
441.152	3.76015
444.045	1.9248
446.937	9.45149
449.83	11.2497
452.723	15.7057
455.615	20.4402
458.508	23.5096
461.401	28.6727
464.293	31.8075
467.186	37.6026
470.079	33.0034
472.972	29.7695
475.864	24.4705
478.757	13.5678
481.65	9.41211
484.542	5.12854
487.435	2.66156
490.328	0.51898
493.221	4.09303
496.113	2.57881
499.006	1.96287
501.899	3.6212
504.791	0.076355
507.684	4.23977
510.577	4.92904
513.469	8.12032
516.362	11.9919
519.255	11.9286
522.148	10.9901
525.04	15.1618
527.933	11.5395
530.826	14.846
533.718	12.2966
536.611	10.7601
539.504	6.71248
542.396	8.15787
545.289	7.26123
548.182	6.06255
551.074	3.27993
553.967	3.84919
556.86	2.85271
559.753	0.117936
562.645	2.4951
565.538	0.057945
568.431	0.079525
571.323	0.697392
574.216	1.69569
577.109	0.342968
580.001	0.863938
582.894	0.738864
585.787	0.819483
588.68	2.41946
591.572	0.185254
594.465	5.50787
597.358	6.25335
600.25	4.73735
603.143	9.03949
606.036	9.95891
608.928	15.1538
611.821	19.6028
614.714	29.7156
617.607	37.3401
620.499	37.797
623.392	34.3377
626.285	28.268
629.177	20.8241
632.07	16.5359
634.963	9.74221
637.856	8.35104
640.748	3.44679
643.641	3.46722
646.534	1.91664
649.426	0.928356
652.319	4.78076
655.212	6.45169
658.104	9.85837
660.997	15.4909
663.89	25.3395
666.783	34.8309
669.675	59.177
672.568	89.1301
675.461	128.771
678.353	169.857
681.246	215.646
684.139	269.989
687.031	307.513
689.924	296.427
692.817	240.018
695.71	165.839
698.602	112.303
701.495	85.1379
704.388	62.6353
707.28	49.5325
710.173	38.0517
713.066	27.1512
715.958	15.7412
718.851	12.7948
721.744	11.5608
724.636	3.0735
727.529	1.00778
730.422	0.488201
733.315	0.022189
736.207	0.798809
739.1	0.021536
741.993	0.188827
744.885	0.555298
747.778	0.301002
750.671	0.329701
753.563	1.36809
756.456	1.85748
759.349	1.92456
762.242	4.24096
765.134	5.39866
768.027	3.32352
770.92	3.14392
773.812	0.64283
776.705	2.94657
779.598	1.1008
782.49	2.97278
785.383	3.25947
788.276	0.631885
791.169	1.96492
794.061	1.79561
796.954	1.25287
799.847	6.38456
802.739	1.41504
805.632	0.333815
808.525	0.547881
811.418	3.67337
814.31	4.20469
817.203	2.60956
820.096	4.32597
822.988	3.81082
825.881	3.43956
828.774	3.22321
831.666	4.26797
834.559	5.89918
837.452	6.96774
840.345	8.94403
843.237	7.83426
846.13	9.70234
849.023	6.48051
851.915	4.91403
854.808	4.92767
857.701	1.7866
860.593	2.78358
863.486	2.04772
866.379	1.87206
869.271	3.69744
872.164	1.73293
875.057	1.47584
877.95	1.36675
880.842	0.650013
883.735	0.977084
886.628	0.789333
889.52	0.27986
892.413	0.958622
895.306	0.158229
898.198	1.74186
901.091	0.036028
903.984	0.191692
906.877	0.23922
909.769	1.63373
912.662	2.78897
915.555	3.8263
918.447	4.56574
921.34	4.84501
924.233	6.28572
927.125	7.05094
930.018	5.65996
932.911	6.22049
935.803	7.59158
938.696	5.5103
941.589	5.21111
944.482	6.62353
947.374	7.32249
950.267	6.0251
953.16	7.90365
956.052	4.75699
958.945	5.86254
961.838	7.19982
964.731	6.87328
967.623	3.33301
970.516	6.08411
973.409	4.18211
976.301	3.72194
979.194	1.11989
982.087	0.38166
984.979	0.365148
987.872	1.06172
990.765	1.15472
993.658	1.03621
996.55	0.193286
999.443	0.718571
1002.34	1.15331
1005.23	0.834572
1008.12	1.86267
1011.01	2.14693
1013.91	0.838477
1016.8	2.64634
1019.69	1.44954
1022.59	4.49384
1025.48	7.3043
1028.37	6.73959
1031.26	8.40084
1034.15	10.4688
1037.05	9.35998
1039.94	11.5797
1042.83	9.53226
1045.73	9.34098
1048.62	12.2264
1051.51	9.53913
1054.4	14.8666
1057.3	11.3333
1060.19	14.8585
1063.08	13.1477
1065.97	15.3838
1068.87	16.8151
1071.76	15.4288
1074.65	17.4521
1077.55	18.9781
1080.44	17.9276
1083.33	20.0285
1086.22	22.9828
1089.12	20.6209
1092.01	22.9225
1094.9	23.2578
1097.8	22.4951
1100.69	21.3645
1103.58	17.0152
1106.47	10.5415
1109.37	4.95126
1112.26	3.37126
1115.15	0.354335
1118.04	0.139527
1120.94	0.06691
1123.83	0.34014
1126.72	3.48765
1129.61	0.703076
1132.51	1.29012
1135.4	1.87891
1138.29	0.242379
1141.18	0.14818
1144.08	4.47622
1146.97	1.07021
1149.86	0.591635
1152.76	1.55052
1155.65	0.772855
1158.54	2.3785
1161.43	3.54258
1164.33	0.103344
1167.22	4.22503
1170.11	2.65399
1173.01	4.05664
1175.9	4.19805
1178.79	5.04757
1181.68	4.71385
1184.58	3.16066
1187.47	2.00968
1190.36	6.76397
1193.25	5.20484
1196.15	2.68053
1199.04	3.52224
1201.93	2.51839
1204.83	3.37173
1207.72	2.60562
1210.61	2.2264
1213.5	2.29372
1216.39	2.04134
1219.29	3.93613
1222.18	2.12551
1225.07	2.58739
1227.97	1.11304
1230.86	0.585565
1233.75	1.86299
1236.64	1.69046
1239.54	4.7232
1242.43	1.4785
1245.32	0.607122
1248.21	0.56443
1251.11	1.64541
1254	0.287058
1256.89	0.088513
1259.79	1.58186
1262.68	2.63094
1265.57	1.46128
1268.46	2.16488
1271.36	1.98205
1274.25	0.517798
1277.14	6.63547
1280.04	3.14303
1282.93	0.738035
1285.82	0.06794
1288.71	0
