Measurement: Raman, 532 nm, unoriented, Raman Data Processed
Mineral: Lokkaite-(Y)
Rruff sample: R061092
Ideal chemistry: CaY_4_(CO_3_)_7_9H_2_O
Locality: Mitsukoshi, Hizen-cho, Karatsu City, Saga Prefecture, Japan
Source: Marcus Origlieri
Description: Pale pink radial aggregate of blades
Raman shift (cm-1)	intensity
83.4352	0
86.8101	90.1972
90.1849	250.207
93.5597	387.639
96.9345	703.159
100.309	600.068
103.684	305.562
107.059	13.8486
110.434	144.473
113.809	96.8058
117.183	395.864
120.558	1018.03
123.933	1908.36
127.308	2816.11
130.683	3283.89
134.058	3514.82
137.432	3774.69
140.807	4325.32
144.182	4880.19
147.557	5449.7
150.931	5797.12
154.306	5935.62
157.681	5827.25
161.056	5766.02
164.431	5347.67
167.806	4859.88
171.18	4352.58
174.555	4085.34
177.93	4097.11
181.305	4196.55
184.68	4225.79
188.054	4047.13
191.429	3960.02
194.804	3740.83
198.179	3518.57
201.554	3283.6
204.929	3087.88
208.303	2829.29
211.678	2446.51
215.053	2078.88
218.428	1711.48
221.803	1293.43
225.178	1116.03
228.552	1042.77
231.927	1018.01
235.302	964.356
238.677	834.587
242.052	807.751
245.426	810.838
248.801	812.85
252.176	864.757
255.551	897.996
258.926	1026.79
262.3	1100.13
265.675	1091.07
269.05	833.32
272.425	550.941
275.8	279.929
279.175	18.6362
282.549	174.296
285.924	230.139
289.299	139.27
292.674	68.5378
296.049	95.7742
299.423	207.821
302.798	302.892
306.173	314.54
309.548	244.514
312.923	175.196
316.298	34.9424
319.672	20.1025
323.047	28.9993
326.422	32.551
329.797	103.803
333.172	116.298
336.546	216.856
339.921	248.191
343.296	271.19
346.671	217.983
350.046	186.815
353.421	151.336
356.795	165.693
360.17	155.836
363.545	176.296
366.92	156.111
370.295	153.328
373.669	176.979
377.044	174.333
380.419	94.76
383.794	117.875
387.169	62.4266
390.543	48.0695
393.918	95.54
397.293	55.6887
400.668	60.3796
404.043	114.064
407.418	106.545
410.792	151.332
414.167	136.001
417.542	169.939
420.917	167.314
424.292	157.561
427.666	173.282
431.041	183.196
434.416	191.078
437.791	198.136
441.166	258.168
444.541	270.84
447.915	271.981
451.29	279.812
454.665	291.36
458.04	167.55
461.415	187.857
464.789	118.877
468.164	48.7537
471.539	20.5531
474.914	26.549
478.289	17.4669
481.663	37.0994
485.038	22.3567
488.413	23.5934
491.788	19.9558
495.163	0.721313
498.538	84.1115
501.912	67.7758
505.287	61.5654
508.662	62.4407
512.037	69.1539
515.412	97.5752
518.786	85.5326
522.161	108.86
525.536	148.226
528.911	165.499
532.286	149.468
535.66	157.067
539.035	127.386
542.41	154.803
545.785	150.069
549.16	107.471
552.534	66.5688
555.909	58.4441
559.284	55.249
562.659	6.83044
566.034	28.0102
569.409	14.3085
572.783	5.9397
576.158	29.6715
579.533	10.9211
582.908	36.4168
586.283	9.32568
589.658	9.81616
593.032	42.8425
596.407	54.8206
599.782	86.9595
603.157	123.826
606.532	141.056
609.906	239.08
613.281	228.404
616.656	251.12
620.031	283.068
623.406	330.984
626.78	312.146
630.155	337.915
633.53	336.82
636.905	345.579
640.28	348.632
643.654	370.953
647.029	397.822
650.404	464.535
653.779	449.08
657.154	499.6
660.529	512.533
663.903	493.571
667.278	456.634
670.653	499.357
674.028	436.315
677.403	493.147
680.778	564.267
684.152	605.553
687.527	729.603
690.902	727.009
694.277	574.051
697.652	263.111
701.026	100.493
704.401	49.4866
707.776	22.2544
711.151	93.196
714.526	34.1433
717.9	30.1165
721.275	2.14551
724.65	43.8049
728.025	121.439
731.4	181.468
734.775	251.734
738.149	488.342
741.524	684.598
744.899	970.134
748.274	1271.26
751.649	1355.62
755.024	1546.18
758.398	1499.98
761.773	1803.83
765.148	2378.36
768.523	2592.01
771.898	2430.38
775.272	2228.21
778.647	1765.02
782.022	984.454
785.397	722.336
788.772	435.296
792.146	352.269
795.521	318.562
798.896	359.947
802.271	344.154
805.646	293.467
809.02	273.519
812.395	253.868
815.77	260.31
819.145	212.152
822.52	228.373
825.895	188.281
829.269	227.376
832.644	197.161
836.019	253.731
839.394	265.888
842.769	168.028
846.144	87.7644
849.518	62.054
852.893	39.3159
856.268	27.3157
859.643	9.5354
863.018	7.68115
866.392	16.3003
869.767	16.8613
873.142	31.0483
876.517	30.8442
879.892	0.124512
883.266	16.3271
886.641	4.75635
890.016	40.7036
893.391	123.7
896.766	62.2466
900.14	71
903.515	117.117
906.89	134.405
910.265	136.649
913.64	278.684
917.015	230.009
920.389	228.341
923.764	280.635
927.139	229.45
930.514	279.882
933.889	186.857
937.264	188.85
940.638	84.3227
944.013	15.6309
947.388	10.7041
950.763	9.33252
954.138	35.73
957.512	29.0327
960.887	115.012
964.262	171.469
967.637	209.526
971.012	316.88
974.386	436.443
977.761	526.105
981.136	654.525
984.511	743.496
987.886	715.318
991.261	784.243
994.635	822.469
998.01	768.995
1001.38	699.442
1004.76	682.276
1008.13	523.806
1011.51	503.631
1014.88	338.665
1018.26	239.806
1021.63	126.306
1025.01	92.2896
1028.38	129.018
1031.76	44.5083
1035.13	17.4077
1038.51	12.7451
1041.88	127.014
1045.26	265.968
1048.63	702.178
1052.01	1333.58
1055.38	2683.5
1058.76	4813.26
1062.13	7380.2
1065.51	8008.52
1068.88	5271.81
1072.26	2461.02
1075.63	1818.11
1079.01	2086.17
1082.38	3208.22
1085.76	4914.82
1089.13	7140.57
1092.51	10737.8
1095.88	16304.7
1099.26	19638.2
1102.63	12154.7
1106	4065.72
1109.38	1225.17
1112.75	464.372
1116.13	152.856
1119.5	40.8565
1122.88	45.1558
1126.25	32.5
1129.63	29.3403
1133	28.71
1136.38	11.8687
1139.75	28.5322
1143.13	22.053
1146.5	19.064
1149.88	39.2214
1153.25	39.6208
1156.63	112.487
1160	82.2341
1163.38	91.022
1166.75	68.2102
1170.13	93.1528
1173.5	80.6289
1176.88	158.733
1180.25	154.929
1183.62	191.338
1187	140.458
1190.38	170.821
1193.75	131.772
1197.12	166.829
1200.5	175.156
1203.87	179.967
1207.25	235.546
1210.62	202.987
1214	212.502
1217.37	221.705
1220.75	225.74
1224.12	202.275
1227.5	187.4
1230.87	202.117
1234.25	226.534
1237.62	208.196
1241	206.66
1244.37	185.791
1247.75	161.566
1251.12	190.467
1254.5	162.031
1257.87	97.1448
1261.25	102.94
1264.62	106.481
1267.99	77.7588
1271.37	121.47
1274.74	86.01
1278.12	13.3999
1281.49	30.8356
1284.87	71.5636
1288.24	19.0576
1291.62	21.5356
1294.99	9.94385
1298.37	23.8109
