Measurement: Raman, 532 nm, unoriented, Raman Data Processed
Mineral: Lomonosovite
Rruff sample: R070465
Ideal chemistry: Na_5_Ti_2_(Si_2_O_7_)(PO_4_)O_2_
Locality: Apatitovyi Tsirk (Apatite Circus), Rasvumchorr Mountain, Khibiny Massif, Kola Peninsula, Murmanskaja Oblast', Northern Region, Russia
Source: Michael Scott
Description: Light tan platy crystals associated with orthoclase and lamprophyllite
Measured chemistry: (Na_4.77_Ca_0.20_Mn_0.03_)_Σ=5_(Ti_1.79_Fe^3+^_0.19_Mg_0.02_)_Σ=2_(Si_2.00_O_7_)(P_1.00_O_4_)O_2_
Raman shift (cm-1)	intensity
161.726	0
164.619	62.6992
167.512	118.234
170.404	151.914
173.297	182.393
176.19	391.3
179.082	227.745
181.975	204.878
184.868	121.243
187.761	26.3711
190.653	108.894
193.546	130.742
196.439	281.622
199.331	399.203
202.224	724.058
205.117	710.443
208.009	769.251
210.902	662.356
213.795	671.441
216.688	540.178
219.58	291.379
222.473	301.015
225.366	284.109
228.258	243.668
231.151	167.966
234.044	27.666
236.936	82.3223
239.829	18.6592
242.722	21.917
245.614	29.8389
248.507	103.314
251.4	118.096
254.293	236.147
257.185	259.664
260.078	407.72
262.971	419.488
265.863	483.033
268.756	394.789
271.649	410.319
274.541	242.046
277.434	72.0772
280.327	55.8369
283.22	38.3076
286.112	29.2129
289.005	181.925
291.898	238.731
294.79	483.201
297.683	441.392
300.576	502.375
303.469	637.437
306.361	624.558
309.254	492.344
312.147	347.446
315.039	223.696
317.932	208.678
320.825	53.4092
323.717	195.658
326.61	144.502
329.503	110.26
332.396	301.856
335.288	287.748
338.181	509.193
341.074	696.363
343.966	750.654
346.859	955.595
349.752	906.947
352.644	785.788
355.537	730.706
358.43	439.206
361.322	273.109
364.215	187.885
367.108	37.2471
370.001	138.845
372.893	35.1465
375.786	139.426
378.679	370.32
381.572	440.424
384.464	660.104
387.357	873.898
390.25	1106.3
393.142	1121.56
396.035	1218.96
398.928	1257.58
401.82	1156.02
404.713	986.504
407.606	1143.85
410.498	1327.3
413.391	1466.43
416.284	1450.57
419.177	1324.3
422.069	1278.33
424.962	1199.25
427.855	1215.43
430.747	1055.45
433.64	1035.06
436.533	1088.84
439.425	1191.95
442.318	1198.72
445.211	1270.74
448.104	1235.86
450.996	1243.87
453.889	1166.17
456.782	1138.65
459.674	940.821
462.567	637.231
465.46	289.082
468.353	148.382
471.245	127.762
474.138	9.8125
477.031	146.989
479.923	26.4902
482.816	50.1816
485.709	283.69
488.601	376.753
491.494	441.424
494.387	326.946
497.279	229.006
500.172	130.89
503.065	35.3935
505.958	59.5635
508.85	47.4082
511.743	218.802
514.636	241.386
517.528	327.099
520.421	392.616
523.314	545.425
526.207	730.256
529.099	1063.13
531.992	1525.49
534.885	1842.41
537.777	2033.67
540.67	2252.84
543.563	2363.59
546.455	2404.37
549.348	2326.66
552.241	2048.27
555.134	1985.74
558.026	1889.46
560.919	1773.01
563.812	1900.19
566.704	2068.41
569.597	2306.13
572.49	2675.19
575.382	2817.58
578.275	2633.14
581.168	2480.79
584.061	2150.36
586.953	1870.55
589.846	1545.29
592.739	1175.89
595.631	859.146
598.524	634.719
601.417	359.988
604.309	339.19
607.202	154.779
610.095	35.1777
612.987	33.7832
615.88	81.2441
618.773	115.047
621.666	110.684
624.558	93.0742
627.451	57.6719
630.344	142.934
633.236	294.324
636.129	443.088
639.022	619.68
641.915	810.481
644.807	1220.51
647.7	1391.06
650.593	1771.47
653.485	2017.62
656.378	2572.81
659.271	2916.74
662.163	3412.46
665.056	3807.56
667.949	4027.56
670.842	4216.13
673.734	4279.13
676.627	4291.29
679.52	4004.61
682.412	3611.24
685.305	3288.01
688.198	2905.34
691.091	2550.97
693.983	2269.08
696.876	1970.91
699.769	1852.09
702.661	1738.71
705.554	1559.45
708.447	1220.64
711.339	1090.92
714.232	902.516
717.125	869.604
720.018	695.289
722.91	674.359
725.803	572.137
728.696	515.021
731.588	560.377
734.481	487.727
737.374	425.975
740.266	438.219
743.159	630.047
746.052	627
748.944	631.754
751.837	658.416
754.73	603.59
757.623	652.135
760.515	705.344
763.408	601.412
766.301	658.535
769.193	643.338
772.086	593.439
774.979	627.191
777.871	489.551
780.764	373.012
783.657	291.109
786.55	347.316
789.442	217.742
792.335	93.7031
795.228	4.0293
798.12	84.0293
801.013	71.8945
803.906	20.1406
806.798	4.70703
809.691	71.7422
812.584	14.998
815.477	25.1172
818.369	52.3789
821.262	99.6426
824.155	4.56445
827.047	52.9297
829.94	54.5723
832.833	8.01758
835.726	1.07031
838.618	148.621
841.511	298.277
844.404	556.643
847.296	828.146
850.189	960.627
853.082	1014.71
855.975	969.289
858.867	919.475
861.76	773.951
864.653	652.74
867.545	390.691
870.438	203.397
873.331	325.861
876.223	396.369
879.116	619.535
882.009	724.623
884.902	962.867
887.794	1100.77
890.687	1638.3
893.58	1962.86
896.472	2442.79
899.365	2992.33
902.258	3407.86
905.15	4224.03
908.043	4975.87
910.936	5521.22
913.828	5944.9
916.721	6362.1
919.614	6730.1
922.507	6892.91
925.399	6904.25
928.292	6796.9
931.185	6641.85
934.077	6209.55
936.97	5805.86
939.863	5219.73
942.755	4624.79
945.648	4119.84
948.541	3250.55
951.434	2666.59
954.326	2177.02
957.219	1755.27
960.112	1460.35
963.004	1242.65
965.897	1031.09
968.79	1030.21
971.683	843.014
974.575	678.662
977.468	491.195
980.361	286.494
983.253	137.644
986.146	7.6543
989.039	45.4355
991.931	9.52539
994.824	62.0566
997.717	70.6289
1000.61	67.8711
1003.5	62.9746
1006.39	36.0996
1009.29	15.7969
1012.18	43.2988
1015.07	59.666
1017.97	4.37695
1020.86	15.1133
1023.75	57.5312
1026.64	230.852
1029.54	345.471
1032.43	310.268
1035.32	116.481
1038.21	88.3086
1041.11	133.957
1044	45.3594
1046.89	212.445
1049.79	153.648
1052.68	103.832
1055.57	47.1738
1058.46	13.7578
1061.36	30.5605
1064.25	178.242
1067.14	139.662
1070.03	155.383
1072.93	278.705
1075.82	163.988
1078.71	401.232
1081.61	231.379
1084.5	385.197
1087.39	341.322
1090.28	405.459
1093.18	323.033
1096.07	410.309
1098.96	375.441
1101.85	420.408
1104.75	300.824
1107.64	209.617
1110.53	337.769
1113.42	355.717
1116.32	440.025
1119.21	248.398
1122.1	188.07
1125	164.709
1127.89	167.328
1130.78	80.3262
1133.67	74.1602
1136.57	158.816
1139.46	84.3086
1142.35	136.422
1145.24	83.8086
1148.14	108.588
1151.03	91.7129
1153.92	78.8398
1156.82	42.9824
1159.71	8.26758
1162.6	6.73242
1165.49	35.0605
1168.39	4.75781
1171.28	52.1289
1174.17	136.236
1177.06	65.7598
1179.96	140.191
1182.85	144.193
1185.74	259.562
1188.63	206.82
1191.53	176.953
1194.42	160.832
1197.31	95.5176
1200.21	125.873
1203.1	74.8672
1205.99	83.2949
1208.88	86.8027
1211.78	30.3418
1214.67	77.4238
1217.56	98.0293
1220.45	240.594
1223.35	226.228
1226.24	164.459
1229.13	27.1074
1232.03	26.9961
1234.92	24.8691
1237.81	107.012
1240.7	83.4492
1243.6	0.746094
1246.49	13.1875
1249.38	98.2969
1252.28	162.543
1255.17	4.48828
1258.06	26.1543
1260.95	0
