Measurement: Raman, 785 nm, unoriented, Raman Data Processed
Mineral: Lomonosovite
Rruff sample: R070465
Ideal chemistry: Na_5_Ti_2_(Si_2_O_7_)(PO_4_)O_2_
Locality: Apatitovyi Tsirk (Apatite Circus), Rasvumchorr Mountain, Khibiny Massif, Kola Peninsula, Murmanskaja Oblast', Northern Region, Russia
Source: Michael Scott
Description: Light tan platy crystals associated with orthoclase and lamprophyllite
Measured chemistry: (Na_4.77_Ca_0.20_Mn_0.03_)_Σ=5_(Ti_1.79_Fe^3+^_0.19_Mg_0.02_)_Σ=2_(Si_2.00_O_7_)(P_1.00_O_4_)O_2_
Raman shift (cm-1)	intensity
166.237	0
169.129	188.981
172.022	61.9326
174.915	53.8643
177.807	18.2754
180.7	81.4248
183.593	84.3467
186.485	66.8262
189.378	46.8955
192.271	103.093
195.163	74.0205
198.056	210.318
200.949	444.227
203.842	511.055
206.734	594.049
209.627	505.673
212.52	431.496
215.412	380.276
218.305	277.896
221.198	220.327
224.09	88.2861
226.983	7.8418
229.876	20.9912
232.769	68.2871
235.661	9.36328
238.554	48.7949
241.447	4.05664
244.339	43.1338
247.232	93.5742
250.125	204.494
253.018	257.531
255.91	368.633
258.803	555.248
261.696	641.075
264.588	757.064
267.481	736.691
270.374	663.939
273.266	607.42
276.159	427.04
279.052	351.681
281.945	301.56
284.837	174.119
287.73	149.612
290.623	149.801
293.515	286.331
296.408	333.974
299.301	343.485
302.193	489.907
305.086	579.1
307.979	550.444
310.872	510.345
313.764	357.293
316.657	256.963
319.55	196.892
322.442	115.611
325.335	118.56
328.228	213.133
331.12	255.428
334.013	293.387
336.906	417.746
339.798	597.391
342.691	769.465
345.584	946.231
348.477	903.519
351.369	963.82
354.262	801.373
357.155	709.113
360.047	522.277
362.94	340.16
365.833	145.852
368.726	93.9326
371.618	47.4502
374.511	61.6973
377.404	29.418
380.296	102.743
383.189	79.6299
386.082	242.101
388.974	208.67
391.867	292.09
394.76	198.245
397.652	317.969
400.545	292.647
403.438	233.391
406.331	192.082
409.223	161.745
412.116	223.488
415.009	361.941
417.901	323.15
420.794	399.173
423.687	282.032
426.579	272.191
429.472	281.358
432.365	236.478
435.258	197.083
438.15	273.272
441.043	326.264
443.936	336.043
446.828	340.416
449.721	273.763
452.614	292.951
455.507	178.742
458.399	134.833
461.292	207.545
464.185	68.8735
467.077	9.20459
469.97	62.3682
472.863	18.7456
475.755	37.772
478.648	56.0078
481.541	18.4434
484.433	23.7734
487.326	34.5898
490.219	84.062
493.112	136.438
496.004	21.6138
498.897	58.5981
501.79	94.2583
504.682	105.176
507.575	146.114
510.468	189.332
513.361	187.81
516.253	135.318
519.146	228.907
522.039	358.538
524.931	401.178
527.824	668.539
530.717	916.104
533.609	1102.64
536.502	1299.7
539.395	1459.64
542.288	1651.93
545.18	1654.64
548.073	1635.44
550.966	1588.45
553.858	1512.1
556.751	1426.68
559.644	1280.22
562.536	1336.83
565.429	1440.22
568.322	1536.35
571.215	1698.05
574.107	1860.13
577	1930.1
579.893	1838.58
582.785	1733.21
585.678	1582.72
588.571	1424.39
591.463	1132.64
594.356	936.104
597.249	685.167
600.141	493.503
603.034	339.762
605.927	224.356
608.82	106.14
611.712	37.7695
614.605	5.89551
617.498	60.7012
620.39	34.1968
623.283	31.0933
626.176	41.0698
629.068	3.21338
631.961	74.9414
634.854	107.631
637.747	117.619
640.639	260.716
643.532	322.121
646.425	460.54
649.317	574.477
652.21	739.919
655.103	901.044
657.995	964.623
660.888	1154.49
663.781	1379.8
666.674	1614.76
669.566	1672.53
672.459	1793.4
675.352	1687.59
678.244	1587.08
681.137	1477.5
684.03	1376.43
686.923	1239.91
689.815	1057.32
692.708	870.396
695.601	767.394
698.493	603.367
701.386	614.381
704.279	497.308
707.171	520.898
710.064	442.575
712.957	503.553
715.85	405.944
718.742	331.222
721.635	292.623
724.528	228.533
727.42	107.034
730.313	131.029
733.206	117.209
736.098	137.918
738.991	171.809
741.884	206.751
744.777	131.276
747.669	164.655
750.562	191.558
753.455	253.282
756.347	274.637
759.24	271.284
762.133	314.377
765.025	357.488
767.918	286.145
770.811	354.928
773.703	307.119
776.596	233.307
779.489	216.068
782.382	246.865
785.274	146.432
788.167	110.939
791.06	114.388
793.952	105.025
796.845	61.6924
799.738	32.3716
802.63	44.3232
805.523	10.9946
808.416	51.4629
811.309	14.6304
814.201	15.7617
817.094	19.2231
819.987	49.1997
822.879	27.2871
825.772	41.9209
828.665	26.2158
831.558	54.187
834.45	16.6821
837.343	104.54
840.236	117.582
843.128	202.22
846.021	324.751
848.914	459.415
851.806	563.064
854.699	608.319
857.592	568.76
860.485	463.906
863.377	367.46
866.27	267.434
869.163	116.032
872.055	67.2803
874.948	39.4126
877.841	103.611
880.733	190.935
883.626	320.025
886.519	458.854
889.412	656.208
892.304	839.319
895.197	1125.37
898.09	1393.29
900.982	1771.79
903.875	2153.56
906.768	2442.49
909.66	2845.43
912.553	3276.18
915.446	3437.86
918.338	3655.33
921.231	3855.49
924.124	3913.44
927.017	3805.77
929.909	3778.83
932.802	3710.72
935.695	3413.42
938.587	3181.09
941.48	2909.9
944.373	2467.84
947.265	2186.6
950.158	1714.67
953.051	1438.04
955.944	1139.58
958.836	871.866
961.729	671.103
964.622	631.388
967.514	440.402
970.407	412.619
973.3	322.298
976.192	219.613
979.085	176.856
981.978	112.843
984.871	90.832
987.763	39.2773
990.656	74.0044
993.549	31.1201
996.441	0.117676
999.334	74.3691
1002.23	62.7803
1005.12	1.96289
1008.01	40.5737
1010.9	40.2602
1013.8	2.04981
1016.69	3.17188
1019.58	3.82861
1022.48	58.0078
1025.37	94.1753
1028.26	80.9356
1031.15	124.584
1034.05	79.8049
1036.94	92.9631
1039.83	99.1977
1042.72	161.374
1045.62	126.57
1048.51	123.76
1051.4	177.87
1054.3	135.63
1057.19	66.1633
1060.08	48.8501
1062.97	29.012
1065.87	33.2439
1068.76	51.6304
1071.65	32.7165
1074.54	31.5127
1077.44	35.2368
1080.33	55.6477
1083.22	84.2751
1086.12	96.154
1089.01	70.971
1091.9	118.79
1094.79	114.901
1097.69	80.5647
1100.58	60.0664
1103.47	94.5554
1106.36	71.3579
1109.26	48.981
1112.15	99.0635
1115.04	109.648
1117.93	73.9387
1120.83	101.38
1123.72	39.4104
1126.61	51.2688
1129.51	61.0178
1132.4	4.95825
1135.29	50.946
1138.18	6.0144
1141.08	4.53906
1143.97	46.6296
1146.86	38.7507
1149.76	22.4644
1152.65	43.0652
1155.54	9.98828
1158.43	7.62378
1161.33	3.02734
1164.22	51.9038
1167.11	54.2036
1170	27.7417
1172.9	70.4526
1175.79	51.2393
1178.68	21.9839
1181.57	62.8254
1184.47	77.1343
1187.36	79.7112
1190.25	77.134
1193.14	58.0093
1196.04	83.4045
1198.93	69.8809
1201.82	86.2112
1204.72	79.5647
1207.61	74.4387
1210.5	75.6218
1213.39	79.6064
1216.29	20.3389
1219.18	21.9873
1222.07	28.0359
1224.96	22.5269
1227.86	81.3335
1230.75	45.9756
1233.64	38.3892
1236.54	64.6643
1239.43	36.1892
1242.32	55.3799
1245.21	32.0317
1248.11	33.1519
1251	24.7908
1253.89	1.86914
1256.78	13.8442
1259.68	0
