Measurement: Raman, 532 nm, unoriented, Raman Data Processed
Mineral: Lopezite
Rruff sample: R070043
Ideal chemistry: K_2_Cr^6+^_2_O_7_
Locality: Synthetic, made in the Czech Republic
Source: Michael Scott
Description: Red single crystal
Measured chemistry: K_1.93_Cr_2.01_O_7_
Raman shift (cm-1)	intensity
146.593	0
149.486	145.572
152.379	76.2451
155.271	42.4785
158.164	136.955
161.057	317.441
163.949	504.063
166.842	532.635
169.735	451.28
172.627	386.856
175.52	430.547
178.413	457.237
181.305	448.986
184.198	537.348
187.091	546.95
189.983	521.375
192.876	445.387
195.769	379.318
198.662	449.654
201.554	422.24
204.447	514.012
207.34	534.174
210.232	576.553
213.125	548.982
216.018	683.796
218.911	818.11
221.803	850.383
224.696	947.616
227.589	1015.55
230.481	951.573
233.374	937.528
236.267	755.62
239.159	635.896
242.052	394.723
244.945	461.97
247.838	377.842
250.73	330.131
253.623	251.185
256.516	187.207
259.408	216.685
262.301	251.034
265.194	291.454
268.086	120.148
270.979	183.519
273.872	19.373
276.764	101.875
279.657	130.584
282.55	124.832
285.442	20.9043
288.335	101.197
291.228	124.234
294.121	88.9102
297.013	78.8359
299.906	25.3887
302.799	30.502
305.691	137.107
308.584	244.924
311.477	125.973
314.37	105.818
317.262	29.8574
320.155	8.56836
323.048	15.252
325.94	15.6191
328.833	61.457
331.726	73.2402
334.618	87.2246
337.511	90.9492
340.404	135.117
343.296	25.8496
346.189	49.3359
349.082	141.512
351.975	408.582
354.867	565.285
357.76	694.746
360.653	927.113
363.545	1004.84
366.438	834.209
369.331	582.58
372.224	748.231
375.116	981.955
378.009	1019.3
380.902	1233.01
383.794	1218.69
386.687	1459.45
389.58	1090.78
392.472	591.836
395.365	374.053
398.258	34.0176
401.151	53.0996
404.043	45.1582
406.936	79.7852
409.829	71.4648
412.721	33.1074
415.614	104.217
418.507	110.998
421.399	103.941
424.292	157.166
427.185	14.4336
430.077	62.0684
432.97	17.2246
435.863	87.1816
438.755	75.8438
441.648	153.356
444.541	150.746
447.434	162.607
450.326	8.78516
453.219	214.822
456.112	126.869
459.004	156.623
461.897	145.303
464.79	22.123
467.683	142.49
470.575	272.99
473.468	163.205
476.361	23.7871
479.253	31.5508
482.146	66.4043
485.039	182.486
487.931	245.988
490.824	97.4356
493.717	34.6484
496.61	64.3281
499.502	74.8125
502.395	32.6875
505.288	104.289
508.18	168.16
511.073	13.6133
513.966	3.78125
516.858	155.088
519.751	93.0977
522.644	144.586
525.536	198.158
528.429	183.414
531.322	92.5371
534.215	18.2168
537.107	39.3145
540	23.3672
542.893	124.111
545.785	244.83
548.678	242.975
551.571	217.836
554.463	264.877
557.356	224.766
560.249	209.428
563.141	237.029
566.034	250.832
568.927	341.228
571.82	277.033
574.712	85.2676
577.605	59.9316
580.498	16.5293
583.39	28.5586
586.283	126.93
589.176	118.721
592.068	56.4609
594.961	108.811
597.854	74.7441
600.747	226.227
603.639	316.457
606.532	347.469
609.425	379.375
612.317	456.465
615.21	519.793
618.103	575.894
620.995	605.797
623.888	751.16
626.781	757.504
629.673	651.602
632.566	533.769
635.459	514.836
638.352	526.764
641.244	375.838
644.137	320.609
647.03	372.723
649.922	470.324
652.815	515.914
655.708	433.078
658.601	409.315
661.493	304.088
664.386	295.518
667.279	268.742
670.171	246.424
673.064	226.519
675.957	84.9043
678.849	91.6934
681.742	127.166
684.635	260.705
687.528	273.309
690.42	182.125
693.313	222.584
696.206	166.562
699.098	95.2324
701.991	92.9258
704.884	27.584
707.776	6.96484
710.669	65.8398
713.562	44.8691
716.455	47.9395
719.347	42.123
722.24	73.7832
725.133	6.40625
728.025	64.0625
730.918	121.062
733.811	67.416
736.703	93.0879
739.596	78.6133
742.489	136.84
745.381	304.027
748.274	303.684
751.167	233.248
754.059	99.4258
756.952	296.688
759.845	132.926
762.738	130.178
765.63	84.8594
768.523	319.67
771.416	393.318
774.308	237.518
777.201	316.894
780.094	275.484
782.986	291.629
785.879	443.67
788.772	486.828
791.665	446.643
794.557	673.223
797.45	886.764
800.343	643.604
803.235	758.301
806.128	569.514
809.021	719.346
811.913	696.029
814.806	775.908
817.699	805.297
820.592	807.664
823.484	853.807
826.377	937.256
829.27	1068.94
832.162	921.727
835.055	871.344
837.948	775.834
840.841	582.189
843.733	634.688
846.626	350.131
849.519	213.432
852.411	60.9492
855.304	2.39062
858.197	61.3613
861.089	78.4707
863.982	13.7168
866.875	65.9414
869.767	86.4414
872.66	36.9922
875.553	35.2344
878.446	110.824
881.338	200.269
884.231	126.441
887.124	335.648
890.016	358.953
892.909	798.914
895.802	1613.17
898.694	3040.53
901.587	5532.37
904.48	9110.01
907.372	15221.9
910.265	13240.8
913.158	10028.5
916.051	3370.69
918.943	1416.19
921.836	1477.17
924.729	1814.96
927.621	2208.98
930.514	1890.87
933.407	1140.82
936.299	1395.24
939.192	1691.93
942.085	2122.8
944.977	2088.45
947.87	927.027
950.763	671.234
953.656	665.602
956.548	401.684
959.441	717.211
962.334	733.023
965.226	920.289
968.119	201.793
971.012	25.7852
973.904	55.8086
976.797	23.5
979.69	95.7656
982.583	133.801
985.475	78.3008
988.368	14.6445
991.261	7.55469
994.153	44.5312
997.046	51.5039
999.939	21.7422
1002.83	200.863
1005.72	117.559
1008.62	101.082
1011.51	161.551
1014.4	174.918
1017.29	144.066
1020.19	68.1602
1023.08	209.699
1025.97	341.481
1028.87	316.043
1031.76	355.965
1034.65	178.086
1037.54	357.734
1040.44	259.113
1043.33	367.656
1046.22	165.023
1049.12	29.3477
1052.01	201.574
1054.9	380.906
1057.79	477.758
1060.68	215.539
1063.58	72.8164
1066.47	176.867
1069.36	206.879
1072.26	195.926
1075.15	127.894
1078.04	71.1992
1080.93	17.4922
1083.83	131.535
1086.72	133.883
1089.61	208.606
1092.51	239.027
1095.4	221.078
1098.29	438.879
1101.18	274.762
1104.08	489.059
1106.97	337.902
1109.86	315.18
1112.75	67.043
1115.65	313.973
1118.54	9.85938
1121.43	30.9219
1124.33	80.7773
1127.22	129.133
1130.11	512.082
1133	432.836
1135.9	364.348
1138.79	190.18
1141.68	403.269
1144.57	158.199
1147.47	3.3125
1150.36	67.6523
1153.25	183.41
1156.14	323.555
1159.04	273.832
1161.93	198.152
1164.82	144.117
1167.71	23.4531
1170.61	7.17969
1173.5	434.129
1176.39	189.805
1179.29	344.816
1182.18	224.402
1185.07	369.781
1187.96	229.715
1190.86	126.812
1193.75	100.551
1196.64	37.0742
1199.54	132.555
1202.43	75.3867
1205.32	110.902
1208.21	149.973
1211.11	274.703
1214	232.219
1216.89	256.426
1219.78	103.637
1222.68	161.418
1225.57	138.148
1228.46	68.3438
1231.36	267.719
1234.25	195.023
1237.14	439.926
1240.03	410.586
1242.92	402.25
1245.82	338.394
1248.71	597.684
1251.6	476.406
1254.5	265.867
1257.39	321.519
1260.28	260.949
1263.17	149.723
1266.07	85.5742
1268.96	202.938
1271.85	398.301
1274.74	504.332
1277.64	298.875
1280.53	186.488
1283.42	163.453
1286.32	71.2266
1289.21	0.992188
