Measurement: Raman, 785 nm, unoriented, Raman Data Processed
Mineral: Lopezite
Rruff sample: R070043
Ideal chemistry: K_2_Cr^6+^_2_O_7_
Locality: Synthetic, made in the Czech Republic
Source: Michael Scott
Description: Red single crystal
Measured chemistry: K_1.93_Cr_2.01_O_7_
Raman shift (cm-1)	intensity
125.385	0
128.278	76.5812
131.17	252.524
134.063	269.052
136.956	76.052
139.849	130.006
142.741	438.885
145.634	848.379
148.527	1187.97
151.419	1139.25
154.312	840.448
157.205	532.275
160.097	354.048
162.99	314.146
165.883	350.6
168.775	355.071
171.668	329.513
174.561	215.772
177.454	142.073
180.346	64.245
183.239	8.94861
186.132	6.57922
189.024	17.1464
191.917	18.1034
194.81	83.8821
197.702	153.997
200.595	297.891
203.488	543.284
206.381	878.892
209.273	1422.36
212.166	2325.35
215.059	3704.21
217.951	5244.15
220.844	6260.14
223.737	7486.81
226.629	8977.65
229.522	10450
232.415	10482.9
235.308	9060.19
238.2	6968.44
241.093	5184.49
243.986	4160.32
246.878	3450.04
249.771	2621.6
252.664	1745.92
255.556	1132.77
258.449	775.11
261.342	488.458
264.235	344.914
267.127	244.455
270.02	155.152
272.913	72.4858
275.805	23.78
278.698	15.5739
281.591	15.8866
284.483	16.4482
287.376	44.9357
290.269	41.3383
293.161	11.2954
296.054	11.5819
298.947	3.48328
301.84	15.1476
304.732	30.9332
307.625	22.0675
310.518	19.1862
313.41	31.8413
316.303	9.08252
319.196	12.7521
322.089	18.6213
324.981	96.5242
327.874	107.981
330.767	139.031
333.659	200.109
336.552	187.041
339.445	264.597
342.337	302.635
345.23	424.113
348.123	692.017
351.015	1358.82
353.908	3008.69
356.801	6204
359.693	11604.8
362.586	14229
365.479	13898.8
368.372	6715.27
371.264	6239.13
374.157	7607.23
377.05	7782.6
379.942	10484.1
382.835	11694.2
385.728	15075
388.62	12071.7
391.513	8607.44
394.406	4663.54
397.299	1523.38
400.191	665.803
403.084	372.495
405.977	196.217
408.869	88.5635
411.762	80.8441
414.655	59.1113
417.548	66.3572
420.44	25.4205
423.333	37.0295
426.226	6.34595
429.118	24.8772
432.011	0.559204
434.904	30.8295
437.796	8.56543
440.689	27.2225
443.582	17.3583
446.474	22.215
449.367	13.8977
452.26	10.3831
455.153	7.66821
458.045	1.3811
460.938	24.5455
463.831	5.27356
466.723	39.6352
469.616	28.4533
472.509	5.02466
475.401	8.03308
478.294	10.9123
481.187	2.57239
484.08	4.48254
486.972	7.88769
489.865	3.16101
492.758	9.70618
495.65	48.3494
498.543	12.5673
501.436	3.33276
504.329	6.14722
507.221	47.4126
510.114	1.52783
513.006	8.20764
515.899	37.2035
518.792	33.7784
521.685	49.9695
524.577	15.1195
527.47	9.48682
530.363	38.8685
533.255	21.7179
536.148	34.7128
539.041	86.8856
541.933	139.881
544.826	224.15
547.719	398.415
550.612	771.671
553.504	1450.39
556.397	2484.54
559.29	3141.11
562.182	2190.26
565.075	1971.96
567.968	3131.95
570.861	3658.78
573.753	1322.56
576.646	393.247
579.539	189.455
582.431	118.357
585.324	86.3994
588.217	68.9686
591.109	85.0012
594.002	60.7668
596.895	45.7842
599.788	37.3196
602.68	31.5356
605.573	38.0161
608.466	40.8889
611.358	40.8236
614.251	21.0123
617.144	29.8072
620.036	45.7559
622.929	21.8729
625.822	48.2375
628.715	12.46
631.607	24.273
634.5	3.94617
637.393	2.26465
640.285	10.9216
643.178	3.17566
646.071	7.44556
648.963	10.6189
651.856	15.9825
654.749	36.7467
657.641	43.8851
660.534	46.86
663.427	79.178
666.32	44.1927
669.212	20.0176
672.105	29.6855
674.998	0.07959
677.89	16.2782
680.783	14.8008
683.676	25.5847
686.568	4.08704
689.461	29.7993
692.354	18.6237
695.246	22.2914
698.139	26.7996
701.032	20.207
703.925	17.494
706.817	35.765
709.71	34.7853
712.603	28.2305
715.495	67.0931
718.388	47.3876
721.281	51.9891
724.173	47.0005
727.066	72.5259
729.959	104.603
732.852	193.346
735.744	268.291
738.637	319.71
741.53	368.378
744.422	461.228
747.315	689.307
750.208	704.764
753.101	476.664
755.993	245.77
758.886	149.032
761.779	128.403
764.671	83.7338
767.564	46.0539
770.457	95.5351
773.349	83.4439
776.242	42.4627
779.135	67.0544
782.028	71.308
784.92	103.757
787.813	78.4429
790.706	65.2358
793.598	80.792
796.491	52.8549
799.384	31.241
802.276	17.4747
805.169	20.6032
808.062	30.8076
810.955	21.8204
813.847	36.2101
816.74	6.77771
819.633	25.5889
822.525	17.2072
825.418	0.585632
828.311	1.78992
831.203	17.3796
834.096	0.721863
836.989	31.797
839.881	2.48328
842.774	8.83179
845.667	6.88953
848.56	20.7515
851.452	10.2798
854.345	6.74207
857.238	17.1521
860.13	21.2875
863.023	23.2766
865.916	77.4574
868.808	81.5432
871.701	78.3865
874.594	114.026
877.486	210.858
880.379	347.427
883.272	504.032
886.165	504.799
889.057	611.337
891.95	670.278
894.843	1019.22
897.735	1952.67
900.628	4635.03
903.521	14346.5
906.413	35937
909.306	68390.6
912.199	49344.8
915.092	25463.1
917.984	5550.18
920.877	3319.11
923.77	3785.44
926.662	5112.78
929.555	7587.24
932.448	3667.53
935.341	3772.02
938.233	6942.16
941.126	11604
944.019	22040.2
946.911	10591.9
949.804	4219.71
952.697	4714.59
955.589	2004.11
958.482	2157.38
961.375	3512.05
964.268	4865.04
967.16	5213.96
970.053	911.584
972.946	243.281
975.838	89.0424
978.731	35.6736
981.624	6.0188
984.516	10.1061
987.409	26.4761
990.302	53.2752
993.194	40.5997
996.087	10.5816
998.98	25.7152
1001.87	28.5549
1004.76	24.4303
1007.66	8.03131
1010.55	42.377
1013.44	33.1445
1016.34	54.8852
1019.23	35.2299
1022.12	48.68
1025.01	50.5465
1027.91	30.0333
1030.8	70.847
1033.69	72.2288
1036.59	73.147
1039.48	78.2019
1042.37	26.4443
1045.26	49.217
1048.16	54.3078
1051.05	32.9047
1053.94	19.7541
1056.83	14.4176
1059.73	0.471985
1062.62	10.0137
1065.51	6.90503
1068.4	13.8971
1071.3	13.5966
1074.19	18.2898
1077.08	12.0272
1079.97	3.39307
1082.87	14.4964
1085.76	4.57227
1088.65	5.10889
1091.55	17.2084
1094.44	12.7733
1097.33	14.3511
1100.22	6.06982
1103.12	2.05493
1106.01	18.967
1108.9	25.8649
1111.8	20.0317
1114.69	37.061
1117.58	12.7961
1120.47	18.8216
1123.37	20.8242
1126.26	39.6993
1129.15	45.9501
1132.04	34.991
1134.94	14.8846
1137.83	30.1876
1140.72	19.4795
1143.62	25.1368
1146.51	20.8211
1149.4	3.19983
1152.29	25.6331
1155.19	28.8865
1158.08	7.73602
1160.97	6.96167
1163.86	26.0057
1166.76	31.8828
1169.65	27.7071
1172.54	18.8483
1175.43	7.31818
1178.33	18.1801
1181.22	14.8406
1184.11	29.0252
1187.01	26.7839
1189.9	34.6592
1192.79	12.9574
1195.68	6.88037
1198.58	15.0644
1201.47	39.9324
1204.36	2.75165
1207.25	18.3291
1210.15	43.4552
1213.04	29.4196
1215.93	28.8183
1218.83	35.745
1221.72	18.098
1224.61	25.1606
1227.5	20.7633
1230.4	8.19495
1233.29	18.2988
1236.18	2.54092
1239.07	4.30243
1241.97	6.6958
1244.86	37.8186
1247.75	23.6474
1250.64	18.0555
1253.54	0.467163
1256.43	11.7088
1259.32	20.6477
1262.21	22.6039
1265.11	6.32812
