Measurement: Raman, 532 nm, unoriented, Raman Data Processed
Mineral: Lorandite
Rruff sample: R060961
Ideal chemistry: TlAsS_2_
Locality: Allchar, Macedonia
Source: Michael Scott
Description: Deep red prisms or tabular crystals, associated with prismatic realgar.
Raman shift (cm-1)	intensity
152.111	0
155.486	22.921
158.86	55.5476
162.235	115.196
165.61	210.12
168.985	263.224
172.359	275.443
175.734	200.41
179.109	145.941
182.484	165.519
185.859	178.649
189.234	235.682
192.608	300.192
195.983	339.489
199.358	356.212
202.733	341.518
206.108	381.637
209.482	425.352
212.857	255.48
216.232	115.223
219.607	75.3153
222.982	34.0717
226.357	32.114
229.731	2.78394
233.106	17.0823
236.481	27.2787
239.856	5.30279
243.231	5.93189
246.605	24.1558
249.98	110.489
253.355	176.526
256.73	312.776
260.105	483.579
263.479	680.941
266.854	959.523
270.229	1182.77
273.604	1221.21
276.979	954.499
280.353	540.967
283.728	264.511
287.103	176.672
290.478	110.596
293.853	57.502
297.228	54.4128
300.602	138.771
303.977	250.224
307.352	365.901
310.727	382.802
314.102	465.284
317.476	564.407
320.851	713.06
324.226	645.704
327.601	248.719
330.976	73.4848
334.351	8.23236
337.725	26.1152
341.1	8.69354
344.475	44.3415
347.85	189.982
351.225	441.248
354.599	980.073
357.974	1504.92
361.349	2349.22
364.724	3330.81
368.099	3989.2
371.474	3322.99
374.848	2344.96
378.223	2215.13
381.598	1549.57
384.973	782.65
388.348	594.319
391.722	595.303
395.097	640.358
398.472	612.391
401.847	307.226
405.222	202.181
408.596	100.823
411.971	48.4137
415.346	41.6125
418.721	50.1611
422.096	47.0307
425.471	4.67731
428.845	38.6815
432.22	24.5862
435.595	23.4536
438.97	24.4348
442.345	4.13825
445.719	3.43695
449.094	6.71185
452.469	6.64484
455.844	13.8805
459.219	3.76123
462.593	9.03027
465.968	5.12402
469.343	19.9615
472.718	16.7717
476.093	22.9833
479.467	21.7958
482.842	25.3164
486.217	27.8085
489.592	16.2344
492.967	19.1986
496.342	21.6312
499.716	18.0494
503.091	31.5719
506.466	22.4722
509.841	21.7189
513.216	17.4055
516.591	14.5392
519.965	10.2094
523.34	7.7926
526.715	9.70404
530.09	0.841431
533.465	2.93323
536.839	0.52655
540.214	35.2656
543.589	28.5365
546.964	12.8233
550.339	17.8393
553.713	31.2598
557.088	46.7099
560.463	54.4587
563.838	27.9147
567.213	51.8624
570.587	35.988
573.962	24.7634
577.337	42.8119
580.712	42.072
584.087	56.1786
587.462	24.0198
590.836	28.898
594.211	53.2352
597.586	36.4977
600.961	49.0048
604.336	58.1726
607.71	58.5543
611.085	58.7016
614.46	29.7914
617.835	39.0825
621.21	38.0618
624.585	45.5607
627.959	63.4154
631.334	37.731
634.709	32.0638
638.084	18.8058
641.459	35.9908
644.833	17.7817
648.208	15.9147
651.583	24.2162
654.958	21.652
658.333	1.31134
661.707	7.77374
665.082	3.90955
668.457	1.07257
671.832	8.13415
675.207	3.91388
678.582	6.37561
681.956	14.9213
685.331	1.80279
688.706	11.7169
692.081	7.93457
695.456	40.1394
698.83	20.2013
702.205	38.6918
705.58	23.193
708.955	29.7675
712.33	39.8485
715.704	44.1606
719.079	60.3683
722.454	72.6215
725.829	91.2075
729.204	106.452
732.578	113.606
735.953	129.172
739.328	122.036
742.703	53.9214
746.078	32.6715
749.453	34.4178
752.827	20.4993
756.202	25.3152
759.577	24.1722
762.952	33.2482
766.327	22.119
769.701	42.0945
773.076	30.5888
776.451	33.9517
779.826	36.9333
783.201	39.1368
786.576	37.3187
789.95	29.5516
793.325	21.2766
796.7	15.6788
800.075	14.695
803.45	28.3393
806.824	24.9918
810.199	10.5729
813.574	2.48969
816.949	2.42413
820.324	2.26825
823.698	12.2545
827.073	7.57043
830.448	25.1323
833.823	9.30005
837.198	11.4328
840.572	8.77509
843.947	1.82947
847.322	1.11212
850.697	9.49854
854.072	5.68738
857.447	9.77441
860.821	6.37793
864.196	9.38074
867.571	18.02
870.946	14.88
874.321	31.8311
877.695	15.0084
881.07	16.2817
884.445	1.74933
887.82	23.1651
891.195	16.3762
894.569	16.4819
897.944	7.729
901.319	4.78686
904.694	11.8331
908.069	2.3916
911.443	13.0842
914.818	12.2681
918.193	5.35364
921.568	6.29974
924.943	10.0383
928.318	22.1679
931.692	7.45276
935.067	0.887939
938.442	10.7891
941.817	23.8256
945.192	27.3051
948.567	19.8463
951.941	9.68591
955.316	23.0217
958.691	19.3439
962.066	18.5105
965.441	10.4469
968.815	4.72266
972.19	23.2939
975.565	3.88458
978.94	23.9581
982.315	0.317688
985.689	24.3434
989.064	9.2348
992.439	7.54004
995.814	22.7626
999.189	21.3198
1002.56	22.0813
1005.94	16.7726
1009.31	5.66174
1012.69	15.8752
1016.06	6.69995
1019.44	5.96838
1022.81	5.24701
1026.19	29.7724
1029.56	16.8834
1032.94	7.72461
1036.31	5.90161
1039.69	9.25378
1043.06	12.8083
1046.44	14.059
1049.81	9.15051
1053.19	18.5406
1056.56	0.790161
1059.93	20.0622
1063.31	0.529785
1066.68	12.9376
1070.06	15.9621
1073.43	15.587
1076.81	18.784
1080.18	24.6729
1083.56	20.7421
1086.93	10.2203
1090.31	21.7944
1093.68	27.5312
1097.06	38.0915
1100.43	26.8997
1103.81	23.7632
1107.18	20.2173
1110.56	19.5438
1113.93	16.8856
1117.31	25.7457
1120.68	14.4841
1124.06	0.180176
1127.43	18.3489
1130.81	13.4695
1134.18	19.9306
1137.56	17.471
1140.93	10.9823
1144.31	30.9069
1147.68	14.4265
1151.06	23.31
1154.43	6.00525
1157.81	14.0205
1161.18	20.142
1164.56	8.3064
1167.93	16.7469
1171.3	11.1605
1174.68	21.0243
1178.05	12.7905
1181.43	22.3663
1184.8	36.5461
1188.18	20.9919
1191.55	27.1431
1194.93	34.6385
1198.3	20.2819
1201.68	7.81848
1205.05	3.422
1208.43	1.23352
1211.8	16.3444
1215.18	15.1966
1218.55	0.874023
1221.93	25.5051
1225.3	16.9149
1228.68	6.34875
1232.05	10.5881
1235.43	5.02197
1238.8	12.7598
1242.17	5.36401
1245.55	8.91956
1248.92	0.255432
1252.3	15.4387
1255.67	11.0274
1259.05	12.7589
1262.42	19.3703
1265.8	14.3442
1269.17	21.1277
1272.55	6.27301
1275.92	7.61511
1279.3	14.1845
1282.67	0.060669
1286.05	23.6886
1289.42	12.1197
1292.8	18.9836
1296.17	16.8743
1299.55	11.0524
1302.92	2.44598
1306.3	20.9899
1309.67	10.6854
