Measurement: Raman, 785 nm, unoriented, Raman Data Processed
Mineral: Lorandite
Rruff sample: R060961
Ideal chemistry: TlAsS_2_
Locality: Allchar, Macedonia
Source: Michael Scott
Description: Deep red prisms or tabular crystals, associated with prismatic realgar.
Raman shift (cm-1)	intensity
116.971	0
119.863	72.5999
122.756	12.6244
125.649	24.9829
128.542	206.478
131.434	482.882
134.327	801.888
137.22	917.57
140.112	1033.22
143.005	1102.99
145.898	1282.09
148.79	1617.2
151.683	2079.27
154.576	2764.13
157.469	3692.86
160.361	4816.57
163.254	6215.52
166.147	8117.31
169.039	10496.8
171.932	12023.5
174.825	10358.8
177.717	7591.53
180.61	5853.71
183.503	5588.84
186.395	6149.63
189.288	7252.24
192.181	8650.74
195.074	7410.83
197.966	5610.89
200.859	5327.51
203.752	5821.29
206.644	7101.1
209.537	9371.17
212.43	8297.18
215.322	3940.18
218.215	1746.81
221.108	953.727
224.001	548.409
226.893	292.986
229.786	75.9033
232.679	79.6758
235.571	174.57
238.464	192.494
241.357	88.3369
244.25	25.634
247.142	309.357
250.035	795.247
252.928	1513.22
255.82	2654.36
258.713	4379.19
261.606	6804.7
264.498	9537.6
267.391	12351.6
270.284	15480
273.176	19064.6
276.069	21027.8
278.962	16992.2
281.855	9639.78
284.747	4425.16
287.64	2244.29
290.533	1544.48
293.425	1339.45
296.318	1479.24
299.211	2178.92
302.103	3458.94
304.996	5661.5
307.889	9671.66
310.782	12670
313.674	12594
316.567	13285.7
319.46	15712.7
322.352	21691.5
325.245	23027.1
328.138	12651.8
331.031	4874.79
333.923	1914.62
336.816	750.089
339.709	255.682
342.601	51.8203
345.494	127.959
348.387	112.295
351.279	84.9739
354.172	66.0593
357.065	520.45
359.958	1759.98
362.85	5047.91
365.743	11303.2
368.636	17783.8
371.528	24789.5
374.421	37181.4
377.314	58997.7
380.207	71272.1
383.099	39042.6
385.992	14246.5
388.885	8721.43
391.777	8835.1
394.67	12686.6
397.563	18742.5
400.455	13714.6
403.348	4385.89
406.241	1670.36
409.134	658.843
412.026	343.404
414.919	274.662
417.812	380.212
420.704	436.973
423.597	519.182
426.49	515.915
429.382	418.423
432.275	270.954
435.168	101.806
438.06	8.82019
440.953	44.9075
443.846	38.9548
446.739	44.9032
449.631	34.1282
452.524	10.3658
455.417	16.0312
458.309	1.4043
461.202	20.9526
464.095	53.7456
466.988	78.7728
469.88	129.101
472.773	164.644
475.666	191.46
478.558	184.696
481.451	225.382
484.344	243.43
487.236	248.654
490.129	257.033
493.022	274.933
495.914	281.651
498.807	257.548
501.7	247.295
504.593	223.442
507.485	193.422
510.378	187.136
513.271	173.799
516.163	140.832
519.056	130.208
521.949	85.3826
524.841	63.2781
527.734	37.9888
530.627	29.7493
533.52	7.78021
536.412	13.2637
539.305	11.9429
542.198	10.4221
545.09	0.799438
547.983	5.09515
550.876	41.3747
553.769	31.2068
556.661	19.5126
559.554	15.3555
562.447	61.5695
565.339	35.8671
568.232	27.4951
571.125	28.0014
574.018	39.3328
576.91	62.4471
579.803	47.8748
582.696	59.4328
585.588	53.71
588.481	21.9125
591.374	36.2516
594.266	19.0583
597.159	27.2206
600.052	54.4991
602.944	63.279
605.837	83.2677
608.73	110.376
611.623	113.684
614.515	115.648
617.408	164.941
620.301	207.759
623.193	228.038
626.086	273.55
628.979	234.791
631.871	216.687
634.764	227.212
637.657	223.838
640.55	190.984
643.442	175.704
646.335	143.653
649.228	67.2069
652.12	36.2857
655.013	21.4484
657.906	15.0119
660.798	1.36969
663.691	3.15045
666.584	22.2902
669.477	1.85608
672.369	6.84442
675.262	1.17297
678.155	5.45447
681.047	0.469055
683.94	11.5009
686.833	28.574
689.726	42.6224
692.618	64.314
695.511	84.512
698.404	83.188
701.296	95.6979
704.189	91.1508
707.082	201.629
709.974	71.2837
712.867	62.4302
715.76	37.5477
718.653	48.2158
721.545	37.4405
724.438	15.1932
727.331	26.4401
730.223	6.03729
733.116	0.40094
736.009	7.3797
738.901	5.58929
741.794	2.59369
744.687	8.77875
747.58	26.0847
750.472	25.8903
753.365	29.271
756.258	40.8095
759.15	68.495
762.043	67.2835
764.936	84.4261
767.828	56.2136
770.721	33.7007
773.614	49.8359
776.506	34.4189
779.399	25.9009
782.292	38.788
785.185	38.3969
788.077	32.1443
790.97	23.9413
793.863	41.2938
796.755	17.8024
799.648	25.1862
802.541	35.8337
805.433	19.3805
808.326	32.6899
811.219	15.1464
814.112	38.0393
817.004	10.3121
819.897	21.9204
822.79	15.2091
825.682	25.3937
828.575	25.0553
831.468	45.6252
834.361	20.9613
837.253	20.5658
840.146	23.0575
843.039	24.5942
845.931	24.6239
848.824	6.18738
851.717	34.0686
854.609	8.46362
857.502	23.1836
860.395	13.1091
863.288	26.8496
866.18	26.9579
869.073	15.0668
871.966	15.525
874.858	21.6195
877.751	22.3679
880.644	3.58701
883.536	10.3613
886.429	0.854706
889.322	17.2225
892.215	14.4368
895.107	1.86407
898	4.3782
900.893	16.5011
903.785	17.4094
906.678	4.84445
909.571	24.7789
912.463	15.8749
915.356	14.9956
918.249	4.05954
921.141	8.37317
924.034	12.684
926.927	18.8083
929.82	7.33115
932.712	43.5145
935.605	6.69583
938.498	7.12747
941.39	4.93054
944.283	14.923
947.176	22.437
950.069	10.9989
952.961	12.018
955.854	20.8172
958.747	27.0734
961.639	20.561
964.532	26.2259
967.425	41.1534
970.317	60.7137
973.21	33.6573
976.103	28.5314
978.996	39.7068
981.888	29.2997
984.781	5.72601
987.674	27.885
990.566	8.7244
993.459	21.0179
996.352	30.0535
999.245	29.698
1002.14	7.24829
1005.03	11.0139
1007.92	8.13477
1010.82	12.3766
1013.71	3.91086
1016.6	33.7265
1019.49	10.1662
1022.39	15.1722
1025.28	14.2724
1028.17	16.3874
1031.06	16.7965
1033.96	27.0465
1036.85	7.10205
1039.74	8.73398
1042.63	24.1011
1045.53	21.6277
1048.42	8.17416
1051.31	12.0101
1054.21	12.373
1057.1	8.41659
1059.99	13.6239
1062.88	0.091614
1065.78	11.7411
1068.67	25.0761
1071.56	7.0625
1074.45	8.27115
1077.35	16.8896
1080.24	20.8964
1083.13	28.4699
1086.03	0.349304
1088.92	39.8481
1091.81	17.4242
1094.7	38.8227
1097.6	32.9093
1100.49	40.8472
1103.38	29.5137
1106.27	39.0778
1109.17	23.8661
1112.06	41.54
1114.95	22.2175
1117.85	34.0618
1120.74	29.4074
1123.63	31.7404
1126.52	55.7966
1129.42	33.5477
1132.31	32.2196
1135.2	36.0053
1138.09	31.4404
1140.99	37.0438
1143.88	8.34427
1146.77	17.1986
1149.66	2.81549
1152.56	6.40567
1155.45	9.88837
1158.34	3.77054
1161.24	17.532
1164.13	12.1148
1167.02	10.7094
1169.91	6.47833
1172.81	27.4115
1175.7	13.943
1178.59	16.103
1181.48	24.3574
1184.38	30.5562
1187.27	39.7679
1190.16	40.5507
1193.06	16.2605
1195.95	39.9144
1198.84	27.7133
1201.73	53.1847
1204.63	41.0444
1207.52	35.5903
1210.41	11.4788
1213.3	52.5913
1216.2	24.0837
1219.09	9.88254
1221.98	13.5318
1224.88	23.1919
1227.77	9.42456
1230.66	12.1382
1233.55	8.44202
1236.45	18.6831
1239.34	10.9764
1242.23	3.91455
