Measurement: Raman, 532 nm, unoriented, Raman Data Processed
Mineral: Lorenzenite
Rruff sample: R060960
Ideal chemistry: Na_2_Ti_2_O_3_(Si_2_O_6_)
Locality: Khibiny Massif, Kola Peninsula, Russia
Source: Michael Scott
Description: Dark brown prismatic single crystal
Measured chemistry: Na_2.00_(Ti_1.93_Nb^5+^_0.04_Fe^3+^_0.03_)_Σ=2_O_3_((Si_1.99_Al_0.01_)_Σ=2_O_6_) ; trace amounts of Ca
Raman shift (cm-1)	intensity
122.969	0
126.344	59.4717
129.719	6.37842
133.094	141.057
136.469	474.247
139.843	783.359
143.218	515.812
146.593	501.795
149.968	374.77
153.343	613.231
156.718	915.327
160.092	777.386
163.467	1054.46
166.842	1647.31
170.217	2317.75
173.592	3631.93
176.966	3375.39
180.341	545.387
183.716	62.1224
187.091	17.8168
190.466	70.7532
193.84	1091.68
197.215	1346.72
200.59	375.433
203.965	147.483
207.34	1922.79
210.714	4283.63
214.089	8977.26
217.464	6597.19
220.839	-117.175
224.214	-54.4787
227.589	77.1172
230.963	1425.29
234.338	3318.86
237.713	1037.1
241.088	267.811
244.463	775.853
247.838	5051.81
251.212	11778.3
254.587	20604.7
257.962	32781.2
261.337	19090
264.712	18049.1
268.086	22381.9
271.461	31447.7
274.836	37478.6
278.211	25139.8
281.586	16682.3
284.96	16500.2
288.335	21202.5
291.71	24267.4
295.085	26679.9
298.46	32117.4
301.834	36692.2
305.209	38378.7
308.584	30520.5
311.959	19725.5
315.334	12501.3
318.709	9283.72
322.083	9799.78
325.458	12925.3
328.833	17859.7
332.208	20421.5
335.583	14362.5
338.957	8804.75
342.332	7705.83
345.707	9325.87
349.082	10725.5
352.457	6070.03
355.832	2245.37
359.206	707.923
362.581	301.104
365.956	283.83
369.331	582.398
372.706	425.581
376.08	64.4648
379.455	8.08496
382.83	31.3398
386.205	181.487
389.58	443.929
392.954	563.279
396.329	447.401
399.704	315.825
403.079	23.0007
406.454	379.627
409.829	783.485
413.203	1388.98
416.578	2045.58
419.953	2864.68
423.328	3853.17
426.703	5306.47
430.077	7253
433.452	10167.6
436.827	14050.8
440.202	18778
443.577	22988.1
446.952	25578.5
450.326	24497.4
453.701	20421.2
457.076	15819.3
460.451	12425.8
463.826	10988.1
467.2	11354.6
470.575	13822.3
473.95	18325.5
477.325	24382
480.7	30844.8
484.074	33128.2
487.449	27070.1
490.824	19276.1
494.199	15928.1
497.574	16457.3
500.949	13888.5
504.323	7174.5
507.698	4271.04
511.073	2777.41
514.448	1226.7
517.823	444.558
521.197	363.399
524.572	1159.39
527.947	2844.64
531.322	5625.67
534.697	9485.87
538.072	12234.7
541.446	8878.24
544.821	4368.11
548.196	2053.6
551.571	955.002
554.946	348.958
558.32	98.1335
561.695	-71.3033
565.07	-73.233
568.445	-135.388
571.82	-206.797
575.194	-198.449
578.569	-166.039
581.944	-138.113
585.319	-41.6101
588.694	-25.5202
592.068	109.82
595.443	285.366
598.818	625.064
602.193	1185.07
605.568	2177.27
608.942	3496.3
612.317	5491.87
615.692	8357.73
619.067	12490.1
622.442	18209.4
625.817	25422.8
629.191	33801.5
632.566	40786.6
635.941	43028.3
639.316	38450.5
642.691	29656.6
646.066	21532.1
649.44	15566.4
652.815	11258.3
656.19	8105.89
659.565	5567.05
662.94	3714.27
666.314	2364.41
669.689	1332.24
673.064	487.074
676.439	278.092
679.814	-244.522
683.188	334.329
686.563	1206.39
689.938	3587.31
693.313	7581.81
696.688	13032.1
700.062	19199.2
703.437	21945.2
706.812	18642.2
710.187	13274.1
713.562	9042.32
716.937	6325.3
720.311	4554.75
723.686	3429.46
727.061	2702.12
730.436	2143.17
733.811	1965.86
737.185	1932.92
740.56	1918.2
743.935	1650.19
747.31	1079.21
750.685	904.357
754.059	825.7
757.434	903.887
760.809	826.992
764.184	719.364
767.559	511.293
770.934	318.358
774.308	180.715
777.683	112.671
781.058	78.5527
784.433	135.565
787.808	253.161
791.183	410.764
794.557	560.196
797.932	737.656
801.307	675.004
804.682	422.197
808.057	231.346
811.431	30.9712
814.806	107.694
818.181	154.929
821.556	144.322
824.931	21.5146
828.305	79.0029
831.68	224.975
835.055	400.827
838.43	624.517
841.805	834.459
845.179	980.502
848.554	829.665
851.929	790.364
855.304	639.845
858.679	618.199
862.053	606.751
865.428	649.237
868.803	624.004
872.178	609.621
875.553	620.273
878.928	586.851
882.302	620.091
885.677	774.407
889.052	990.439
892.427	1171.21
895.802	1227.2
899.177	908.731
902.551	587.091
905.926	355.031
909.301	165
912.676	47.6604
916.051	2.68286
919.425	42.8596
922.8	22.3667
926.175	31.3403
929.55	107.315
932.925	212.524
936.299	281.462
939.674	216.742
943.049	359.217
946.424	698.821
949.799	1488.19
953.173	2734.69
956.548	4670.19
959.923	6902.3
963.298	6362.08
966.673	3361.69
970.048	1740.41
973.422	1273.07
976.797	1261.67
980.172	1646.85
983.547	2299.06
986.922	2471.83
990.296	2994.19
993.671	4418.62
997.046	5486.4
1000.42	3975.42
1003.8	1889.87
1007.17	971.676
1010.54	519.111
1013.92	292.537
1017.29	176.961
1020.67	50.5342
1024.05	69.8804
1027.42	49.8857
1030.79	100.077
1034.17	214.004
1037.54	435.372
1040.92	753.254
1044.29	556.025
1047.67	196.056
1051.04	25.3809
1054.42	21.3498
1057.79	19.9912
1061.17	1.53613
1064.54	32.3821
1067.92	34.9141
1071.29	4.74878
1074.67	1.07214
1078.04	2.04919
1081.42	33.2792
1084.79	9.81494
1088.17	53.1313
1091.54	28.4221
1094.92	43.7522
1098.29	55.6302
1101.66	21.5116
1105.04	18.9802
1108.41	22.5349
1111.79	20.3511
1115.16	38.6959
1118.54	14.6913
1121.91	8.09436
1125.29	17.9404
1128.66	3.87842
1132.04	36.5756
1135.41	33.8497
1138.79	33.3557
1142.16	27.2046
1145.54	17.0702
1148.91	5.67725
1152.29	44.7815
1155.66	57.1547
1159.04	37.1322
1162.41	27.3227
1165.79	65.7217
1169.16	43.131
1172.54	57.6597
1175.91	75.3358
1179.29	61.8932
1182.66	85.7031
1186.04	71.6565
1189.41	71.2557
1192.79	28.2234
1196.16	28.1873
1199.54	49.8131
1202.91	52.2289
1206.29	44.352
1209.66	44.374
1213.03	26.399
1216.41	34.5617
1219.78	17.3044
1223.16	9.15418
1226.53	1.94495
1229.91	14.8289
1233.28	29.4661
1236.66	33.3262
1240.03	11.2106
1243.41	10.8893
1246.78	7.50122
1250.16	4.89111
1253.53	7.37769
1256.91	14.0238
1260.28	3.11414
1263.66	11.7756
1267.03	23.7391
1270.41	11.2753
1273.78	10.9375
1277.16	37.7706
1280.53	12.5165
1283.9	8.43896
1287.28	40.748
1290.65	7.71997
