Measurement: Raman, 780 nm, unoriented, Raman Data Processed
Mineral: Lorenzenite
Rruff sample: R130051
Ideal chemistry: Na_2_Ti_2_O_3_(Si_2_O_6_)
Locality: Mont Saint-Hilaire, Rouville RCM, Monteregie, Quebec, Canada
Source: Don Doell
Description: A jumbled mass of colorless hair-like crystals associated with ??? and ???
Raman shift (cm-1)	intensity
139.893	0
142.786	0.158981
145.679	1.85558
148.571	2.69305
151.464	0.9254
154.357	1.73724
157.25	1.3916
160.142	4.24008
163.035	6.55673
165.928	9.06909
168.82	11.3789
171.713	11.4883
174.606	6.76576
177.498	1.78583
180.391	0.473816
183.284	0.324554
186.177	1.09784
189.069	0.893173
191.962	1.10146
194.855	1.78934
197.747	0.806549
200.64	1.92323
203.533	7.45062
206.425	14.1443
209.318	17.6642
212.211	23.495
215.103	12.0966
217.996	0.243805
220.889	1.75478
223.782	0.419647
226.674	3.08112
229.567	7.24887
232.46	9.24078
235.352	10.0735
238.245	7.95065
241.138	8.92586
244.03	16.1549
246.923	30.4952
249.816	44.6416
252.709	56.4871
255.601	66.9665
258.494	52.4493
261.387	42.6609
264.279	39.3137
267.172	42.0407
270.065	49.1335
272.957	49.815
275.85	44.7405
278.743	41.9709
281.635	43.694
284.528	52.575
287.421	59.3996
290.314	63.5265
293.206	66.7652
296.099	76.7826
298.992	81.3681
301.884	82.5533
304.777	75.825
307.67	62.2725
310.562	50.6551
313.455	41.9346
316.348	38.9187
319.241	40.5159
322.133	45.8464
325.026	52.6766
327.919	57.4469
330.811	52.0015
333.704	37.7499
336.597	28.884
339.49	23.1846
342.382	21.3487
345.275	21.0327
348.168	17.8646
351.06	11.2757
353.953	4.43391
356.846	1.7957
359.738	0.219818
362.631	0.500687
365.524	1.0038
368.416	2.43242
371.309	0.869217
374.202	0.800781
377.095	0.643158
379.987	1.17401
382.88	1.06181
385.773	0.224823
388.665	0.008987
391.558	0.63324
394.451	1.05284
397.344	0.556183
400.236	0.020584
403.129	1.90239
406.022	3.03413
408.914	4.79568
411.807	6.95273
414.7	8.90849
417.592	12.5197
420.485	15.6271
423.378	18.1466
426.27	21.6512
429.163	26.943
432.056	34.2807
434.949	40.1281
437.841	43.7008
440.734	47.8625
443.627	50.5754
446.519	49.9899
449.412	46.0928
452.305	40.6763
455.197	35.4649
458.09	32.818
460.983	29.4861
463.875	32.7454
466.768	34.8303
469.661	40.8702
472.554	49.6125
475.446	57.521
478.339	63.3366
481.232	64.6489
484.124	56.2424
487.017	47.0244
489.91	40.5185
492.803	38.9496
495.695	38.6223
498.588	31.8056
501.481	19.0138
504.373	11.4006
507.266	7.80705
510.159	5.54831
513.051	2.48744
515.944	2.57433
518.837	0.538116
521.73	0.814072
524.622	2.58235
527.515	6.20904
530.408	10.8694
533.3	14.4635
536.193	17.6605
539.086	14.6082
541.978	9.0394
544.871	4.8687
547.764	3.43486
550.656	1.61389
553.549	1.80411
556.442	0.433594
559.335	0.105331
562.227	0.743164
565.12	0.161118
568.013	0.163071
570.905	0.564163
573.798	0.131958
576.691	0.958847
579.583	1.21101
582.476	0.49147
585.369	0.64473
588.261	0.78363
591.154	0.52861
594.047	1.06859
596.94	1.30341
599.832	1.35875
602.725	3.03017
605.618	3.67438
608.51	5.28813
611.403	8.91547
614.296	12.5609
617.188	17.5642
620.081	23.0705
622.974	30.3903
625.867	39.3829
628.759	45.9727
631.652	51.4112
634.545	52.4573
637.437	46.3964
640.33	39.8546
643.223	30.4772
646.115	24.9933
649.008	21.0089
651.901	14.6073
654.794	11.9292
657.686	8.8165
660.579	6.44527
663.472	4.52948
666.364	3.45523
669.257	0.043259
672.15	1.69742
675.043	0.710999
677.935	0.411087
680.828	0.187744
683.721	0.89006
686.613	3.01433
689.506	6.57221
692.399	11.7873
695.291	17.6423
698.184	23.5621
701.077	25.9649
703.97	24.4496
706.862	20.7774
709.755	15.6426
712.648	12.2153
715.54	10.4336
718.433	8.88454
721.326	7.94269
724.218	5.05908
727.111	4.71108
730.004	4.95166
732.896	4.47958
735.789	3.76717
738.682	4.71146
741.574	4.17523
744.467	2.79518
747.36	2.43269
750.253	2.43588
753.145	1.29056
756.038	1.2832
758.931	1.42847
761.823	1.80197
764.716	3.06563
767.609	2.02405
770.501	1.5443
773.394	0.995285
776.287	0.987869
779.18	0.518448
782.072	1.2607
784.965	0.371918
787.858	0.469528
790.75	1.86977
793.643	2.7254
796.536	2.0607
799.428	0.3564
802.321	0.458054
805.214	1.02801
808.107	0.937958
810.999	0.043945
813.892	1.30284
816.785	0.095718
819.677	0.262543
822.57	0.24765
825.463	1.0621
828.356	1.23677
831.248	1.00801
834.141	0.935333
837.034	3.15979
839.926	1.55409
842.819	1.40533
845.712	1.66177
848.604	2.5159
851.497	2.37114
854.39	1.28928
857.283	2.27563
860.175	1.86096
863.068	1.95039
865.961	1.67393
868.853	3.0154
871.746	1.50531
874.639	2.70363
877.531	0.14212
880.424	1.51709
883.317	2.1713
886.209	2.6685
889.102	1.37468
891.995	1.43578
894.888	3.30075
897.78	1.68951
900.673	2.77483
903.566	1.37158
906.458	0.907898
909.351	0.519073
912.244	0.56366
915.136	0.047394
918.029	1.2869
920.922	7.6e-05
923.814	0.619141
926.707	1.20209
929.6	1.67334
932.493	2.59984
935.385	2.29272
938.278	1.56697
941.171	1.95302
944.063	2.493
946.956	3.11905
949.849	4.69647
952.741	6.72318
955.634	9.4572
958.527	9.99045
961.42	8.36269
964.312	4.03548
967.205	5.22629
970.098	2.14145
972.99	2.35214
975.883	1.73753
978.776	2.82352
981.668	5.3616
984.561	5.85994
987.454	4.54985
990.347	5.05392
993.239	7.80107
996.132	7.21793
999.025	3.59097
1001.92	3.75378
1004.81	1.53882
1007.7	1.07893
1010.6	0.105637
1013.49	0.314178
1016.38	0.662094
1019.27	0.239883
1022.17	0.456421
1025.06	0.119141
1027.95	0.976303
1030.84	1.43913
1033.74	0.659698
1036.63	1.70198
1039.52	1.97585
1042.41	0.980576
1045.31	0.901901
1048.2	0.30191
1051.09	0.885757
1053.99	2.37355
1056.88	2.14871
1059.77	2.16949
1062.66	1.63173
1065.56	1.66734
1068.45	2.3992
1071.34	2.18877
1074.23	0.890594
1077.13	0.596878
1080.02	1.46995
1082.91	1.90593
1085.81	1.70335
1088.7	3.01276
1091.59	1.93648
1094.48	2.24171
1097.38	0.916092
1100.27	2.27536
1103.16	0.551941
1106.05	0.25032
1108.95	0.322327
1111.84	0.168823
1114.73	0.673782
1117.62	0.255829
1120.52	0.511032
1123.41	0.578186
1126.3	2.53322
1129.2	1.42133
1132.09	0.423843
1134.98	0.890457
1137.87	1.05339
1140.77	1.4104
1143.66	0.988632
1146.55	1.61005
1149.44	1.01611
1152.34	0.354553
1155.23	0.047668
1158.12	0.696091
1161.02	2.30994
1163.91	0.965469
1166.8	2.35899
1169.69	1.58775
1172.59	1.93277
1175.48	2.47266
1178.37	2.99174
1181.27	4.08901
1184.16	2.72704
1187.05	4.88963
1189.94	4.62183
1192.84	5.69855
1195.73	6.04063
1198.62	7.17482
1201.51	7.63939
1204.41	8.75569
1207.3	6.32742
1210.19	6.8409
1213.08	7.4427
1215.98	8.20402
1218.87	7.6445
1221.76	7.2997
1224.65	8.17113
1227.55	7.33542
1230.44	4.95017
1233.33	5.24118
1236.23	6.53957
1239.12	5.09869
1242.01	4.01756
1244.9	4.15291
1247.8	2.40538
1250.69	3.73254
1253.58	2.66258
1256.47	1.42052
1259.37	2.13769
1262.26	1.03384
1265.15	2.01483
1268.05	2.24074
1270.94	0.071579
1273.83	2.68095
1276.72	0.127625
1279.62	0.931564
1282.51	1.16466
