Measurement: Raman, 532 nm, unoriented, Raman Data Processed
Mineral: Lorenzenite
Rruff sample: R130051
Ideal chemistry: Na_2_Ti_2_O_3_(Si_2_O_6_)
Locality: Mont Saint-Hilaire, Rouville RCM, Monteregie, Quebec, Canada
Source: Don Doell
Description: A jumbled mass of colorless hair-like crystals associated with ??? and ???
Raman shift (cm-1)	intensity
188.678	0
191.57	0.007034
194.463	5.37126
197.356	11.3599
200.249	13.3149
203.141	12.9385
206.034	18.3332
208.927	30.6235
211.819	44.8803
214.712	52.0588
217.605	18.1128
220.497	0.272552
223.39	4.72772
226.283	3.27223
229.175	1.72144
232.068	11.4313
234.961	17.2466
237.854	17.3224
240.746	29.3113
243.639	51.8849
246.532	76.2005
249.424	103.735
252.317	140.88
255.21	193.029
258.103	198.001
260.995	143.833
263.888	116.977
266.781	111.987
269.673	123.805
272.566	143.644
275.459	140.307
278.351	124.821
281.244	125.82
284.137	143.147
287.029	173.631
289.922	195.852
292.815	202.411
295.708	210.212
298.6	218.297
301.493	221.095
304.386	218.713
307.278	187.988
310.171	153.906
313.064	126.598
315.957	112.554
318.849	110.436
321.742	115.551
324.635	125.46
327.527	147.163
330.42	158.726
333.313	140.744
336.205	107.889
339.098	82.7988
341.991	70.7267
344.884	69.1139
347.776	69.2244
350.669	51.8547
353.562	29.1408
356.454	15.6777
359.347	7.9724
362.24	4.47257
365.132	3.04293
368.025	2.44062
370.918	2.04191
373.81	0.186089
376.703	0.873756
379.596	2.39214
382.489	2.85215
385.381	3.88671
388.274	3.48769
391.167	3.2225
394.059	1.60394
396.952	1.09139
399.845	1.23202
402.738	4.72405
405.63	9.07445
408.523	15.0925
411.416	20.1911
414.308	27.2066
417.201	35.8351
420.094	44.5679
422.986	54.9554
425.879	68.3847
428.772	84.4181
431.664	101.16
434.557	118.993
437.45	134.315
440.343	146.804
443.235	153.474
446.128	152.946
449.021	145.139
451.913	129.629
454.806	114.568
457.699	103.345
460.591	99.1232
463.484	101.684
466.377	110.306
469.27	129.531
472.162	150.47
475.055	174.269
477.948	194.173
480.84	205.661
483.733	199.768
486.626	171.736
489.519	142.987
492.411	124.611
495.304	118.103
498.197	110.981
501.089	80.6706
503.982	47.8409
506.875	27.8125
509.767	18.7171
512.66	10.9131
515.553	4.52488
518.446	3.41063
521.338	5.16804
524.231	11.2823
527.124	19.4509
530.016	29.366
532.909	39.6719
535.802	50.3475
538.694	52.4011
541.587	38.7776
544.48	25.096
547.372	13.8387
550.265	8.18832
553.158	4.27233
556.051	0.970383
558.943	0.552635
561.836	1.27718
564.729	1.72038
567.621	2.25911
570.514	1.39064
573.407	0.536713
576.299	1.25055
579.192	0.270538
582.085	0.322395
584.978	0.142792
587.87	0.954971
590.763	0.961456
593.656	2.72831
596.548	4.73465
599.441	7.70033
602.334	11.1226
605.226	16.3551
608.119	24.6661
611.012	37.045
613.905	51.6907
616.797	69.6503
619.69	93.2025
622.583	120.971
625.475	151.709
628.368	179.309
631.261	199.768
634.154	208.86
637.046	199.905
639.939	174.49
642.832	140.945
645.724	110.519
648.617	86.038
651.51	67.2676
654.402	51.2067
657.295	38.4175
660.188	27.9664
663.081	20.3927
665.973	13.0732
668.866	8.00454
671.759	2.65858
674.651	0.135651
677.544	2.11685
680.437	1.3933
683.329	3.2032
686.222	9.1356
689.115	23.6273
692.008	40.5818
694.9	62.5191
697.793	83.1539
700.686	97.6408
703.578	99.7519
706.471	87.9777
709.364	71.9227
712.256	56.3661
715.149	44.0036
718.042	34.8677
720.934	29.7486
723.827	23.7659
726.72	20.2334
729.613	17.8372
732.505	17.0177
735.398	14.9952
738.291	14.3913
741.183	13.5809
744.076	11.3465
746.969	10.3958
749.861	7.10882
752.754	7.61743
755.647	6.64133
758.54	5.93642
761.432	5.3596
764.325	5.26499
767.218	4.31671
770.11	4.27154
773.003	2.20567
775.896	2.91311
778.788	2.88339
781.681	1.20074
784.574	1.90624
787.467	2.83268
790.359	3.60475
793.252	4.06454
796.145	4.69503
799.037	2.76139
801.93	3.15386
804.823	1.81581
807.716	0.391502
810.608	0.143211
813.501	0.617958
816.394	1.14466
819.286	0.893333
822.179	0.631706
825.072	0.177322
827.964	0.48806
830.857	0.111519
833.75	0.184029
836.643	2.23655
839.535	2.52171
842.428	3.91095
845.321	4.3875
848.213	4.03054
851.106	4.39876
853.999	4.62739
856.891	4.1264
859.784	4.3204
862.677	4.69855
865.569	4.62077
868.462	5.67589
871.355	5.51061
874.248	5.73423
877.14	5.8185
880.033	5.90521
882.926	5.34581
885.818	5.55115
888.711	5.83239
891.604	6.06602
894.496	4.76622
897.389	4.22473
900.282	3.13282
903.175	3.52649
906.067	1.78792
908.96	1.3192
911.853	0.547325
914.745	0.173485
917.638	0.614082
920.531	0.052307
923.423	1.08797
926.316	1.33118
929.209	2.4918
932.102	3.08207
934.994	4.03487
937.887	3.3405
940.78	4.51962
943.672	5.86141
946.565	9.96399
949.458	14.2105
952.351	20.0117
955.243	25.4069
958.136	30.5446
961.029	30.0164
963.921	21.9264
966.814	12.6043
969.707	8.11493
972.599	7.76652
975.492	7.96109
978.385	9.48386
981.278	11.4719
984.17	14.0199
987.063	16.7499
989.956	20.2966
992.848	25.3516
995.741	29.023
998.634	27.1934
1001.53	18.0938
1004.42	10.9363
1007.31	7.58417
1010.21	3.839
1013.1	0.971649
1015.99	0.640701
1018.88	0.036896
1021.77	1.35271
1024.67	0.004295
1027.56	0.862396
1030.45	1.0518
1033.35	2.31164
1036.24	3.17346
1039.13	4.10243
1042.02	4.39301
1044.92	3.46223
1047.81	1.43132
1050.7	1.22856
1053.6	0.866806
1056.49	1.00874
1059.38	0.856102
1062.27	0.565964
1065.17	0.64949
1068.06	0.260048
1070.95	0.400116
1073.84	0.661461
1076.74	0.612503
1079.63	0.766609
1082.52	0.618206
1085.41	0.892685
1088.31	0.101734
1091.2	0.256084
1094.09	0.066643
1096.99	0.944794
1099.88	0.952309
1102.77	0.567474
1105.66	0.531586
1108.56	0.361965
1111.45	0.339031
1114.34	0.909473
1117.23	0.345966
1120.13	1.49944
1123.02	0.436394
1125.91	1.02248
1128.81	1.69436
1131.7	0.802296
1134.59	0.781143
1137.48	0.668133
1140.38	0.165146
1143.27	0.49292
1146.16	0.332344
1149.05	1.04869
1151.95	1.33254
1154.84	0.283363
1157.73	0.78178
1160.62	0.760933
1163.52	1.00966
1166.41	0.373001
1169.3	0.661812
1172.2	0.312981
1175.09	0.870056
1177.98	0.092903
1180.87	0.622375
1183.77	0.738041
1186.66	1.70097
1189.55	0.092117
1192.44	0.561569
1195.34	1.34213
1198.23	1.34043
1201.12	0.753181
1204.02	1.01275
1206.91	0.008904
1209.8	0.773815
1212.69	1.25015
1215.59	1.312
1218.48	1.25391
1221.37	0.650826
1224.26	1.15572
1227.16	0.125072
1230.05	0.593273
1232.94	0.928192
1235.84	0.521099
1238.73	0.017014
1241.62	0.213451
1244.51	2.03218
1247.41	1.2097
1250.3	1.35384
1253.19	1.65749
1256.08	0.839394
1258.98	0.184334
1261.87	0.45694
1264.76	0.872181
1267.65	1.6421
1270.55	0.474045
1273.44	1.09796
1276.33	1.2239
1279.23	0.989681
1282.12	0.487362
1285.01	0.581528
1287.9	1.41152
1290.8	1.55846
1293.69	1.01479
1296.58	0.605621
1299.47	0.290157
