Measurement: Raman, 785 nm, unoriented, Raman Data Processed
Mineral: Lorenzenite
Rruff sample: R060960
Ideal chemistry: Na_2_Ti_2_O_3_(Si_2_O_6_)
Locality: Khibiny Massif, Kola Peninsula, Russia
Source: Michael Scott
Description: Dark brown prismatic single crystal
Measured chemistry: Na_2.00_(Ti_1.93_Nb^5+^_0.04_Fe^3+^_0.03_)_Σ=2_O_3_((Si_1.99_Al_0.01_)_Σ=2_O_6_) ; trace amounts of Ca
Raman shift (cm-1)	intensity
144.67	0
147.562	728.816
150.455	1267.05
153.348	1194.88
156.24	469.312
159.133	122.575
162.026	982.005
164.918	2183.16
167.811	3667.28
170.704	5189.02
173.597	7644.26
176.489	7763.95
179.382	3081.47
182.275	1257.47
185.167	873.498
188.06	628.602
190.953	363.682
193.845	168.308
196.738	73.0107
199.631	138.384
202.524	429.263
205.416	492.661
208.309	124.888
211.202	581.296
214.094	2007.73
216.987	1691.15
219.88	390.846
222.773	112.175
225.665	274.296
228.558	2104.13
231.451	4771.78
234.343	7776.53
237.236	4044.4
240.129	1015.55
243.021	996.47
245.914	2202.04
248.807	4620.73
251.7	7325.96
254.592	11700.2
257.485	17941.8
260.378	20708.3
263.27	29118.7
266.163	41718.4
269.056	61568.7
271.948	88516.6
274.841	99157.8
277.734	67299.4
280.627	37334.9
283.519	24653.6
286.412	21379.7
289.305	24452.7
292.197	32499.8
295.09	45581
297.983	57687.9
300.875	65327.9
303.768	71695.6
306.661	66663.2
309.553	49808.9
312.446	32460.2
315.339	20189.2
318.231	12047.1
321.124	6878.35
324.017	3799.1
326.91	2607
329.802	2521.1
332.695	2340.37
335.588	2171.03
338.48	3478.08
341.373	6823.96
344.266	10756.6
347.159	14878.3
350.051	14392.5
352.944	7608.77
355.837	3021.38
358.729	884.117
361.622	18.9473
364.515	152.843
367.407	98.6543
370.3	486.297
373.193	604.423
376.086	653.161
378.978	895.352
381.871	913.922
384.764	383.249
387.656	109.092
390.549	-19.4606
393.442	152.317
396.334	186.286
399.227	217.457
402.12	456.932
405.012	633.02
407.905	1086.55
410.798	1664.91
413.691	2446.58
416.583	3300.51
419.476	4261.92
422.369	5472.15
425.261	7380.6
428.154	8778.65
431.047	11530.4
433.94	15438.5
436.832	20552.2
439.725	27194.8
442.618	33762.6
445.51	38367.5
448.403	39693
451.296	36075.3
454.188	29031.9
457.081	22206.9
459.974	16784.1
462.866	13251.6
465.759	11102.4
468.652	10261.3
471.545	10611.9
474.437	12807.4
477.33	16618.6
480.223	20889.9
483.115	23650.8
486.008	21751.8
488.901	16222.2
491.793	11523.5
494.686	8702.44
497.579	7335.11
500.471	5767.78
503.364	3526.05
506.257	2767.58
509.15	2892.66
512.042	2068.26
514.935	694.844
517.828	25.8381
520.72	-27.5555
523.613	39.4104
526.506	1176.75
529.399	3540.32
532.291	7739.81
535.184	12966
538.077	16059.4
540.969	12270
543.862	6782.38
546.755	3471.62
549.647	1788.79
552.54	936.824
555.433	286.635
558.326	87.791
561.218	58.6113
564.111	217.959
567.004	312.201
569.896	151.367
572.789	63.5625
575.682	241.928
578.574	234.369
581.467	267.152
584.36	278.815
587.252	248.158
590.145	357.328
593.038	423.922
595.931	574.764
598.823	574.273
601.716	837.596
604.609	1321.67
607.501	2178.9
610.394	3261.49
613.287	4749.44
616.179	6776.74
619.072	9498.55
621.965	13363.7
624.857	18499.3
627.75	24596.1
630.643	30967.9
633.536	35816.8
636.428	36322.7
639.321	32181
642.214	25652.9
645.106	19421.8
647.999	14285.6
650.892	10761.4
653.784	8027.16
656.677	6078.44
659.57	4417.57
662.463	3191.07
665.355	2078.51
668.248	1370.1
671.141	744.648
674.033	300.086
676.926	46.9427
679.819	22.3864
682.712	118.19
685.604	101.501
688.497	1229.91
691.39	3202.62
694.282	6437.72
697.175	11231.8
700.068	16141.5
702.96	19071.1
705.853	17305
708.746	13390.5
711.639	9867.94
714.531	7245.57
717.424	5456.67
720.317	4407.67
723.209	3463.57
726.102	2651.74
728.995	2304.95
731.887	2075.67
734.78	2047.11
737.673	2164.7
740.566	2379.4
743.458	2100.75
746.351	1545.29
749.244	1147.04
752.136	983.014
755.029	905.197
757.922	889.857
760.814	776.727
763.707	798.805
766.6	555.916
769.492	512.961
772.385	364.688
775.278	185.166
778.17	208.273
781.063	168.184
783.956	171.158
786.849	206.701
789.741	282.617
792.634	299.135
795.527	486.883
798.419	476.035
801.312	374.502
804.205	292.566
807.097	242.582
809.99	80.0488
812.883	12.0332
815.776	85.584
818.668	60.9961
821.561	178.773
824.454	66.6992
827.346	115.928
830.239	58.7559
833.132	224.254
836.024	504.273
838.917	713.527
841.81	982.307
844.703	1187.48
847.595	1068.94
850.488	740.834
853.381	574.893
856.273	313.391
859.166	242.6
862.059	232.367
864.952	291.06
867.844	290.762
870.737	410.295
873.63	352.998
876.522	349.356
879.415	461.928
882.308	563.203
885.2	792.574
888.093	979.277
890.986	1438.14
893.879	1635.8
896.771	1382.36
899.664	1211.65
902.557	875.197
905.449	547.141
908.342	388.969
911.235	321.06
914.127	162.111
917.02	25.6719
919.913	18.332
922.806	38.7695
925.698	26.3047
928.591	49.9941
931.484	47.9414
934.376	174.603
937.269	51.0684
940.162	128.508
943.054	59.1348
945.947	175.734
948.84	492.943
951.732	959.146
954.625	2001.68
957.518	3475.05
960.41	4998.89
963.303	4585.63
966.196	2846.48
969.089	1571.59
971.981	1111.7
974.874	1013.41
977.767	1401.15
980.659	2142.61
983.552	2443.66
986.445	1969.42
989.337	1067.13
992.23	648.301
995.123	523.123
998.016	507.906
1000.91	347.303
1003.8	211.668
1006.69	214.68
1009.59	178.269
1012.48	75.1348
1015.37	68.0332
1018.26	75.1797
1021.16	26.6445
1024.05	30.2461
1026.94	97.3516
1029.84	101.68
1032.73	226.541
1035.62	370.242
1038.51	912.01
1041.41	1211.86
1044.3	1047.09
1047.19	450.215
1050.08	260.371
1052.98	256.506
1055.87	225.629
1058.76	93.041
1061.65	18.3867
1064.55	19.4121
1067.44	64.9961
1070.33	20.6738
1073.23	44.3574
1076.12	15.7363
1079.01	61.834
1081.9	100.59
1084.8	55.9805
1087.69	25.1934
1090.58	8.95898
1093.47	46.0156
1096.37	35.7188
1099.26	53.1016
1102.15	98.5078
1105.05	19.0469
1107.94	5.29102
1110.83	94.8027
1113.72	75.1348
1116.62	103.938
1119.51	101.07
1122.4	115.475
1125.29	72.1641
1128.19	107.879
1131.08	74.668
1133.97	10.4512
1136.87	47.7012
1139.76	22.3516
1142.65	51.2461
1145.54	31.8496
1148.44	61.9082
1151.33	100.887
1154.22	49.8848
1157.11	126.701
1160.01	72.3457
1162.9	183.625
1165.79	135.518
1168.68	66.1875
1171.58	108.758
1174.47	101.754
1177.36	80.3047
1180.26	70.4902
1183.15	40.5801
1186.04	87.3281
1188.93	65.0019
1191.83	16.2344
1194.72	102.482
1197.61	61.2051
1200.51	107.977
1203.4	49.2441
1206.29	132.336
1209.18	125.387
1212.08	131.977
1214.97	152.404
1217.86	166.732
1220.75	118.654
1223.65	149.154
1226.54	161.094
1229.43	123.881
1232.32	87.9824
1235.22	179.551
1238.11	170.758
1241	206.951
1243.89	146.957
1246.79	121.16
1249.68	119.211
1252.57	69.9551
1255.47	99.2598
1258.36	0
