Measurement: Raman, 780 nm, unoriented, Raman Data Processed
Mineral: Lotharmeyerite
Rruff sample: R060862
Ideal chemistry: CaZn^2+^_2_(As^5+^O_4_)_2_2H_2_O
Locality: Mapimi, Durango, Mexico
Source: Michael Scott
Description: Dark reddish brown bladed crystals, crystal structure is reported by Yang et al (2012)
Measured chemistry: Ca_0.99_(Zn_1.01_Mn^+3^_0.85_)_Σ=1.86_(As_1.03_O_4_)_2_·[(OH)_0.85_ (H_2_O)_1.17_] ; (Total low,  mineral unstable under electron beam, blades are lotharmeyerite, botryoidal material is Mn oxide?)
Raman shift (cm-1)	intensity
95.4604	0
98.8353	15.1804
102.21	0.970764
105.585	16.8283
108.96	0.750183
112.335	1.51617
115.709	8.40228
119.084	21.8665
122.459	45.7595
125.834	65.92
129.209	95.4164
132.583	141.595
135.958	195.631
139.333	272.463
142.708	321.512
146.083	326.597
149.458	279.937
152.832	225.675
156.207	185.044
159.582	149.821
162.957	105.835
166.332	58.9513
169.706	27.5818
173.081	7.44479
176.456	0.201141
179.831	0.953064
183.206	0.959656
186.581	2.89938
189.955	3.57739
193.33	8.44989
196.705	10.911
200.08	12.3923
203.455	11.0314
206.829	15.2721
210.204	20.66
213.579	25.6271
216.954	30.5493
220.329	34.6269
223.703	35.8403
227.078	33.6155
230.453	24.1597
233.828	19.6849
237.203	15.3949
240.578	17.1884
243.952	16.4227
247.327	15.2253
250.702	10.3393
254.077	7.9718
257.452	7.94894
260.827	4.22458
264.201	2.85699
267.576	0.579376
270.951	1.11764
274.326	0.6763
277.701	4.1535
281.075	0.02417
284.45	5.96643
287.825	10.0372
291.2	16.4046
294.575	33.9166
297.95	53.646
301.324	75.9743
304.699	100.577
308.074	129.362
311.449	158.818
314.824	185.536
318.198	198.41
321.573	212.791
324.948	226.933
328.323	252.628
331.698	292.334
335.072	338.096
338.447	381.249
341.822	412.883
345.197	436.312
348.572	441.172
351.947	421.89
355.321	386.204
358.696	317.729
362.071	239.731
365.446	174.564
368.821	124.736
372.195	82.4406
375.57	54.1034
378.945	33.3768
382.32	16.4797
385.695	5.7377
389.07	0.812561
392.444	5.53503
395.819	4.38721
399.194	0.905273
402.569	7.8811
405.944	11.2089
409.318	20.1023
412.693	21.597
416.068	24.3927
419.443	25.9107
422.818	20.1456
426.192	15.5945
429.567	10.7049
432.942	8.25302
436.317	5.46545
439.692	8.4339
443.067	14.8151
446.441	14.7915
449.816	13.9833
453.191	11.3451
456.566	4.5964
459.941	0.527863
463.315	2.99832
466.69	4.04501
470.065	0.430878
473.44	1.14035
476.815	11.0225
480.19	17.6794
483.564	37.8151
486.939	59.263
490.314	92.4162
493.689	136.842
497.064	191.712
500.438	255.611
503.813	313.704
507.188	358.246
510.563	381.191
513.938	377.194
517.313	357.906
520.687	321.476
524.062	284.852
527.437	251.397
530.812	217.326
534.187	185.302
537.562	153.286
540.936	119.307
544.311	88.2914
547.686	60.4187
551.061	40.4461
554.436	27.2284
557.81	18.8029
561.185	15.9757
564.56	15.2473
567.935	26.1448
571.31	30.5106
574.684	36.7034
578.059	44.5716
581.434	45.6039
584.809	50.8269
588.184	48.5204
591.559	46.9622
594.933	38.2925
598.308	29.8303
601.683	17.8498
605.058	9.78598
608.433	4.75848
611.808	0.161774
615.182	3.04146
618.557	1.07922
621.932	4.13643
625.307	1.40367
628.682	1.37433
632.056	3.42248
635.431	5.10649
638.806	6.84069
642.181	9.56756
645.556	12.0675
648.931	14.8631
652.305	17.0695
655.68	19.6834
659.055	18.7453
662.43	21.5399
665.805	22.9111
669.179	23.4387
672.554	22.1713
675.929	20.0313
679.304	17.3134
682.679	14.4136
686.053	14.0216
689.428	10.3689
692.803	9.28594
696.178	8.60233
699.553	6.21845
702.928	3.27531
706.302	2.80431
709.677	1.89005
713.052	1.68365
716.427	1.38644
719.802	0.179993
723.177	1.57783
726.551	1.93939
729.926	5.10698
733.301	10.8817
736.676	15.3694
740.051	20.3178
743.425	26.0905
746.8	33.0743
750.175	37.2638
753.55	36.4128
756.925	38.4132
760.299	37.118
763.674	33.1534
767.049	29.1957
770.424	22.4829
773.799	18.4807
777.173	9.49744
780.548	3.52139
783.923	0.376465
787.298	2.56699
790.673	3.54294
794.048	2.81555
797.422	1.47015
800.797	2.07048
804.172	8.01743
807.547	17.4121
810.922	29.6078
814.297	46.7418
817.671	69.6109
821.046	101.143
824.421	129.026
827.796	159.881
831.171	187.214
834.545	208.099
837.92	223.664
841.295	225.468
844.67	221.159
848.045	209.617
851.419	195.945
854.794	181.116
858.169	172.609
861.544	172.417
864.919	181.377
868.294	197.543
871.668	210.343
875.043	213.554
878.418	200.769
881.793	172.64
885.168	144.286
888.543	117.388
891.917	96.156
895.292	79.7132
898.667	65.8084
902.042	56.6263
905.417	45.3466
908.791	38.8772
912.166	35.0501
915.541	31.476
918.916	24.7987
922.291	21.7637
925.665	13.0953
929.04	5.08417
932.415	1.32214
935.79	2.13641
939.165	2.26787
942.54	2.5937
945.914	1.01125
949.289	1.20705
952.664	0.160233
956.039	2.76614
959.414	5.45726
962.788	5.78245
966.163	9.81069
969.538	9.68437
972.913	12.1002
976.288	13.3516
979.663	14.4712
983.037	14.98
986.412	15.3798
989.787	16.6531
993.162	17.538
996.537	17.1715
999.911	14.5839
1003.29	12.1262
1006.66	11.1647
1010.04	10.5487
1013.41	11.0867
1016.79	8.91704
1020.16	8.87745
1023.53	9.90511
1026.91	7.81005
1030.29	6.90131
1033.66	5.77953
1037.03	7.22098
1040.41	6.71471
1043.78	5.53317
1047.16	6.52706
1050.53	3.94706
1053.91	4.50629
1057.28	3.96555
1060.66	2.09527
1064.03	1.79873
1067.41	0.843609
1070.78	3.45663
1074.16	2.47186
1077.53	2.47325
1080.91	1.83687
1084.28	3.19313
1087.66	0.838455
1091.03	0.188854
1094.41	0.09375
1097.78	0.570927
1101.16	0.628433
1104.53	0.881641
1107.91	1.35808
1111.28	0.836918
1114.65	1.2081
1118.03	0.262249
1121.4	1.02593
1124.78	2.30571
1128.15	2.56626
1131.53	2.11795
1134.9	0.435883
1138.28	1.39349
1141.65	2.02825
1145.03	1.24241
1148.4	2.60674
1151.78	2.53232
1155.15	0.573982
1158.53	3.00489
1161.9	2.11453
1165.28	2.61195
1168.65	2.07809
1172.03	3.5566
1175.4	2.62037
1178.78	4.26303
1182.15	2.80986
1185.53	3.41097
1188.9	4.09972
1192.28	4.10177
1195.65	0.865219
1199.03	1.19006
1202.4	2.76132
1205.78	0.422131
1209.15	3.07252
1212.53	2.40442
1215.9	1.4329
1219.28	1.50688
1222.65	1.9469
1226.02	1.01003
1229.4	2.51759
1232.77	1.54361
1236.15	2.04296
1239.52	3.78419
1242.9	1.14045
1246.27	1.29771
1249.65	2.55779
1253.02	2.42595
1256.4	1.82125
1259.77	2.96254
1263.15	3.4679
1266.52	0.83699
1269.9	3.3254
1273.27	2.99412
1276.65	1.47111
1280.02	1.65528
1283.4	0.051609
