Measurement: Raman, 532 nm, unoriented, Raman Data Processed
Mineral: Lovozerite
Rruff sample: R120159
Ideal chemistry: Na_3_CaZrSi_6_O_15_(OH)_3_
Locality: Poudrette quarry, Mont Saint-Hilaire, Rouville RCM, Montérégie, Québec, Canada
Source: Donald Doell
Description: Yellow massive on ussingite (R140806).
Raman shift (cm-1)	intensity
111.478	0
114.853	7.45837
118.228	15.5397
121.603	19.0361
124.978	26.5458
128.352	27.5926
131.727	35.4872
135.102	38.6202
138.477	52.2674
141.852	54.6107
145.227	61.0549
148.601	65.7466
151.976	69.6381
155.351	76.993
158.726	73.4228
162.101	75.0359
165.476	73.6143
168.85	72.8224
172.225	64.4352
175.6	58.5248
178.975	53.1818
182.35	45.0682
185.724	37.3303
189.099	32.7395
192.474	30.1212
195.849	21.9008
199.224	18.9425
202.599	12.2972
205.973	7.22815
209.348	2.69644
212.723	0.591095
216.098	0.438263
219.473	3.93378
222.847	2.26462
226.222	0.046753
229.597	0.912659
232.972	7.04382
236.347	8.95953
239.721	15.3888
243.096	16.7038
246.471	22.7574
249.846	25.5748
253.221	23.047
256.596	27.8536
259.97	27.5581
263.345	25.7432
266.72	21.6672
270.095	16.0876
273.47	14.8548
276.844	9.20517
280.219	5.16592
283.594	3.72855
286.969	0.953522
290.344	1.89441
293.719	0.510773
297.093	1.37772
300.468	1.92621
303.843	2.99838
307.218	4.42926
310.593	5.29333
313.967	5.78415
317.342	7.31256
320.717	4.70416
324.092	4.81735
327.467	4.4971
330.842	2.43137
334.216	0.449738
337.591	2.70062
340.966	1.25641
344.341	1.08478
347.716	0.540436
351.091	0.091248
354.465	0.732208
357.84	0.015961
361.215	1.38803
364.59	2.29071
367.964	3.22803
371.339	4.02298
374.714	1.73254
378.089	5.94736
381.464	5.96249
384.839	6.78983
388.213	7.55389
391.588	5.22409
394.963	5.38028
398.338	5.69656
401.713	10.2561
405.087	10.3873
408.462	9.40185
411.837	9.89798
415.212	11.1747
418.587	12.3938
421.962	13.2438
425.336	11.4093
428.711	11.7106
432.086	11.1535
435.461	6.4545
438.836	6.93143
442.211	7.04742
445.585	4.35815
448.96	0.135834
452.335	0.342957
455.71	1.01923
459.085	1.59396
462.459	3.38492
465.834	0.546997
469.209	2.56101
472.584	9.2576
475.959	13.6836
479.334	19.6561
482.708	33.5521
486.083	47.4962
489.458	71.9673
492.833	92.4241
496.208	118.704
499.582	146.232
502.957	170.339
506.332	181.236
509.707	184.495
513.082	176.181
516.457	159.45
519.831	146.994
523.206	134.637
526.581	125.061
529.956	112.764
533.331	102.248
536.705	91.0797
540.08	82.5245
543.455	72.579
546.83	65.9721
550.205	56.8406
553.58	47.274
556.954	38.3438
560.329	28.5429
563.704	19.8893
567.079	11.5313
570.454	4.4928
573.828	3.08447
577.203	2.12433
580.578	3.76508
583.953	5.01099
587.328	11.3019
590.702	15.1858
594.077	17.5577
597.452	15.1202
600.827	13.0601
604.202	10.075
607.577	11.8631
610.951	6.30942
614.326	6.64615
617.701	7.78458
621.076	7.90888
624.451	9.71005
627.825	8.12515
631.2	7.73798
634.575	5.92267
637.95	3.07489
641.325	2.36102
644.699	1.85306
648.074	2.16837
651.449	2.81607
654.824	1.45175
658.199	2.86536
661.574	0.197815
664.948	2.01395
668.323	2.05786
671.698	2.54065
675.073	3.78125
678.448	4.82263
681.822	7.63037
685.197	11.3087
688.572	19.9626
691.947	22.5011
695.322	27.6528
698.697	31.2566
702.071	33.1719
705.446	37.1212
708.821	36.4231
712.196	37.5402
715.571	34.2708
718.946	32.3652
722.32	30.3332
725.695	26.3633
729.07	23.1327
732.445	20.2646
735.82	19.3722
739.194	19.3218
742.569	20.1438
745.944	21.7933
749.319	23.7464
752.694	23.6612
756.068	21.8895
759.443	22.5025
762.818	21.9891
766.193	19.3737
769.568	17.4539
772.943	17.938
776.317	14.2539
779.692	13.261
783.067	8.63534
786.442	8.91687
789.817	6.53577
793.192	4.78851
796.566	1.73505
799.941	0.673645
803.316	0.634827
806.691	0.717773
810.066	0.273254
813.44	0.51178
816.815	0.442078
820.19	4.8988
823.565	1.6767
826.94	4.58209
830.314	6.78857
833.689	9.16101
837.064	10.5474
840.439	13.601
843.814	16.0324
847.188	15.2301
850.563	13.0911
853.938	9.55865
857.313	11.3419
860.688	8.47552
864.063	4.33331
867.437	0.454285
870.812	0.290283
874.187	0.24054
877.562	2.12933
880.937	0.632446
884.312	2.30505
887.686	1.93829
891.061	1.03003
894.436	5.22797
897.811	8.53796
901.186	6.6463
904.56	11.3826
907.935	11.5692
911.31	15.6442
914.685	17.6776
918.06	21.1808
921.434	24.1355
924.809	30.169
928.184	32.689
931.559	32.9742
934.934	37.8949
938.309	39.9992
941.683	44.1042
945.058	48.4093
948.433	54.1356
951.808	56.8627
955.183	66.1585
958.558	72.7089
961.932	86.9781
965.307	98.3985
968.682	118.515
972.057	129.206
975.432	141.511
978.806	158.587
982.181	169.694
985.556	175.141
988.931	181.146
992.306	180.46
995.681	175.076
999.055	168.232
1002.43	157.621
1005.8	144.086
1009.18	129.615
1012.55	112.926
1015.93	93.8057
1019.3	76.6908
1022.68	54.5277
1026.05	42.4818
1029.43	29.3887
1032.8	16.6745
1036.18	11.1934
1039.55	5.02649
1042.93	3.61108
1046.3	1.16675
1049.68	3.53607
1053.05	0.006287
1056.43	1.20465
1059.8	2.93567
1063.18	0.239929
1066.55	0.893494
1069.93	2.56744
1073.3	3.11896
1076.68	6.83826
1080.05	6.63471
1083.43	14.3943
1086.8	17.0483
1090.17	26.8007
1093.55	31.1358
1096.92	36.7268
1100.3	50.4006
1103.67	47.7659
1107.05	48.9948
1110.42	52.4385
1113.8	52.3706
1117.17	47.6186
1120.55	41.7707
1123.92	37.2984
1127.3	33.9067
1130.67	27.8734
1134.05	21.6217
1137.42	19.4554
1140.8	16.8423
1144.17	14.1979
1147.55	12.5402
1150.92	5.98627
1154.3	8.50354
1157.67	8.79987
1161.05	5.71753
1164.42	10.9029
1167.8	10.841
1171.17	8.51416
1174.55	9.60382
1177.92	8.63946
1181.3	7.49713
1184.67	5.02893
1188.05	8.03619
1191.42	5.71845
1194.8	3.50739
1198.17	2.23248
1201.54	0.185364
1204.92	0.832092
1208.29	0.181458
1211.67	0.830322
1215.04	1.26233
1218.42	0.323181
1221.79	0.339478
1225.17	0.081116
1228.54	0.204529
1231.92	0.672729
1235.29	1.78992
1238.67	4.53827
1242.04	3.4491
1245.42	4.76666
1248.79	5.10364
1252.17	5.099
1255.54	5.28424
1258.92	4.16718
1262.29	5.72131
1265.67	3.95459
1269.04	3.65167
1272.42	0.779053
1275.79	1.75287
1279.16	2.42731
1282.54	2.66486
1285.91	3.62787
1289.29	2.4151
1292.66	1.38617
1296.04	2.07135
1299.41	0.997131
