Measurement: Raman, 532 nm, unoriented, Raman Data Processed
Mineral: Lovozerite
Rruff sample: R080107
Ideal chemistry: Na_3_CaZrSi_6_O_15_(OH)_3_
Locality: Mont Saint-Hilaire, Quebec, Canada
Source: William W. Pinch
Description: Small tan blocky crystals associated with sodalite and microcline
Raman shift (cm-1)	intensity
140.565	0
143.94	1.4884
147.315	5.89053
150.69	7.89838
154.065	10.2926
157.439	10.9029
160.814	11.501
164.189	11.9058
167.564	10.587
170.939	14.3545
174.313	14.4675
177.688	11.304
181.063	10.1407
184.438	9.49194
187.813	7.09097
191.187	4.26248
194.562	3.91922
197.937	4.16959
201.312	0.301697
204.687	0.921204
208.061	0.44635
211.436	0.100494
214.811	0.647156
218.186	1.70874
221.561	4.68936
224.936	6.04196
228.31	10.5435
231.685	16.5471
235.06	21.6556
238.435	25.5582
241.81	28.7712
245.185	28.365
248.559	28.372
251.934	27.9114
255.309	26.2469
258.684	24.4875
262.059	20.3513
265.433	18.2324
268.808	17.123
272.183	12.304
275.558	9.84262
278.933	7.80411
282.308	6.043
285.682	5.59503
289.057	5.32346
292.432	5.46893
295.807	5.56302
299.182	5.34546
302.556	5.61084
305.931	4.68195
309.306	4.31671
312.681	3.31537
316.056	3.72311
319.43	3.46515
322.805	2.7135
326.18	2.22611
329.555	1.61676
332.93	1.6091
336.305	1.09228
339.679	0.829865
343.054	0.701538
346.429	0.497131
349.804	0.873962
353.179	0.355133
356.553	0.175323
359.928	0.186554
363.303	0.904663
366.678	1.69891
370.053	2.3515
373.428	1.61905
376.802	2.19922
380.177	1.13953
383.552	1.46533
386.927	2.33719
390.302	4.20026
393.676	2.02551
397.051	3.37595
400.426	1.77167
403.801	2.30987
407.176	1.96018
410.55	0.787292
413.925	1.97955
417.3	1.6059
420.675	0.72641
424.05	2.35019
427.425	1.95966
430.799	3.68982
434.174	0.995514
437.549	1.69977
440.924	0.304535
444.299	0.831329
447.673	1.42987
451.048	0.480377
454.423	0.217957
457.798	3.07837
461.173	1.89963
464.548	0.442535
467.922	0.545563
471.297	2.09366
474.672	3.72272
478.047	10.3762
481.422	14.7034
484.796	24.2245
488.171	32.9275
491.546	44.0343
494.921	55.8296
498.296	69.1615
501.671	78.7496
505.045	84.7197
508.42	85.0449
511.795	79.9058
515.17	74.4064
518.545	70.3203
521.919	61.2499
525.294	55.5326
528.669	52.3126
532.044	47.6711
535.419	45.6079
538.794	39.7146
542.168	35.0536
545.543	29.1449
548.918	25.372
552.293	20.9289
555.668	17.3346
559.043	12.9184
562.417	6.24704
565.792	2.63196
569.167	2.64661
572.542	0.913239
575.917	0.803192
579.291	1.20373
582.666	2.19019
586.041	3.86304
589.416	4.38464
592.791	4.92841
596.165	5.67563
599.54	6.43518
602.915	3.81354
606.29	1.83954
609.665	0.212555
613.039	1.08691
616.414	0.622894
619.789	1.30087
623.164	2.07242
626.539	0.343414
629.914	0.871277
633.288	0.55957
636.663	0.000214
640.038	0.367584
643.413	2.21301
646.788	0.084503
650.163	0.709961
653.537	0.8974
656.912	3.83771
660.287	4.17273
663.662	4.42218
667.037	6.51227
670.411	3.70969
673.786	3.65265
677.161	4.47555
680.536	6.54214
683.911	5.70172
687.285	4.17313
690.66	7.65942
694.035	8.89688
697.41	9.70859
700.785	10.0185
704.159	9.93155
707.534	10.434
710.909	9.68918
714.284	7.25104
717.659	8.28922
721.034	6.19647
724.408	6.14468
727.783	5.98498
731.158	6.68518
734.533	5.42624
737.908	4.75873
741.283	6.09283
744.657	4.53864
748.032	6.00443
751.407	4.97217
754.782	6.7738
758.157	8.07706
761.531	7.46014
764.906	8.20355
768.281	9.47617
771.656	10.8269
775.031	5.84512
778.405	3.71872
781.78	4.24826
785.155	4.99564
788.53	3.48325
791.905	2.23016
795.28	3.07837
798.654	0.88681
802.029	0.892181
805.404	0.113922
808.779	0.904419
812.154	0.259125
815.529	0.722229
818.903	0.919373
822.278	0.912689
825.653	1.93628
829.028	1.54434
832.403	2.42444
835.777	6.06305
839.152	5.02212
842.527	4.83029
845.902	4.69531
849.277	6.25159
852.652	4.32877
856.026	5.96307
859.401	1.75229
862.776	2.82886
866.151	1.33154
869.526	1.86026
872.9	1.59418
876.275	0.781342
879.65	1.43796
883.025	0.154388
886.4	0.921143
889.774	2.58057
893.149	0.413361
896.524	0.567871
899.899	0.675171
903.274	2.48047
906.649	0.87793
910.023	3.84045
913.398	0.943573
916.773	2.3613
920.148	5.81186
923.523	10.191
926.898	12.5676
930.272	12.8276
933.647	12.5258
937.022	10.3575
940.397	9.10348
943.771	8.07578
947.146	9.74652
950.521	8.6842
953.896	9.81219
957.271	12.1986
960.646	14.0046
964.02	17.2441
967.395	21.4942
970.77	28.1278
974.145	32.8977
977.52	37.717
980.894	45.0043
984.269	49.0275
987.644	53.5505
991.019	56.725
994.394	57.8985
997.769	55.7584
1001.14	53.5609
1004.52	51.5865
1007.89	46.715
1011.27	42.8975
1014.64	35.4386
1018.02	29.3723
1021.39	23.2929
1024.77	17.4385
1028.14	11.6303
1031.52	8.14825
1034.89	4.95078
1038.27	5.13559
1041.64	3.90649
1045.02	0.686646
1048.39	1.2059
1051.77	1.34512
1055.14	1.7124
1058.52	1.07553
1061.89	0.559906
1065.27	0.780334
1068.64	1.57629
1072.02	0.982147
1075.39	1.80344
1078.76	2.7442
1082.14	3.56937
1085.51	4.20859
1088.89	4.36072
1092.26	7.31091
1095.64	8.237
1099.01	11.1853
1102.39	16.192
1105.76	15.1183
1109.14	16.1238
1112.51	16.0599
1115.89	15.5875
1119.26	16.4036
1122.64	13.6369
1126.01	12.0118
1129.39	11.1939
1132.76	12.1313
1136.14	9.71912
1139.51	7.43365
1142.89	7.31476
1146.26	6.95987
1149.63	4.51856
1153.01	2.2486
1156.38	0.803284
1159.76	2.99451
1163.13	3.49643
1166.51	4.60333
1169.88	5.49905
1173.26	4.79938
1176.63	5.52921
1180.01	3.25006
1183.38	2.13437
1186.76	1.73483
1190.13	1.20794
1193.51	0.924755
1196.88	0.158135
1200.26	0.352081
1203.63	0.159821
1207.01	1.05127
1210.38	1.01929
1213.76	0.622559
1217.13	0.542633
1220.51	0.407684
1223.88	0.391022
1227.26	1.12616
1230.63	0.397034
1234.01	0.743317
1237.38	1.23526
1240.76	0.065002
1244.13	1.09589
1247.51	1.48599
1250.88	2.09946
1254.26	1.74869
1257.63	2.22549
1261	0.675232
1264.38	2.74463
1267.75	1.14728
1271.13	2.55725
1274.5	2.94592
1277.88	0.477509
1281.25	0.555542
1284.63	2.0871
1288	3.37237
1291.38	4.95554
1294.75	0.214111
1298.13	0.381897
1301.5	1.52911
1304.88	0
