Measurement: Raman, 532 nm, unoriented, Raman Data Processed
Mineral: Ludlockite
Rruff sample: R100176
Ideal chemistry: Pb^2+^Fe^3+^_4_As^3+^_10_O_22_
Locality: Tsumeb, Namibia
Source: William W. Pinch
Description: Red fibrous crystals that display significant flexibility
Raman shift (cm-1)	intensity
176.852	0
179.745	2.9611
182.637	0.311203
185.53	1.82259
188.423	3.90935
191.315	7.34124
194.208	7.02505
197.101	10.9718
199.994	12.2253
202.886	15.7331
205.779	14.7373
208.672	21.8332
211.565	9.46928
214.457	13.6261
217.35	16.9222
220.243	19.208
223.135	38.5249
226.028	39.0569
228.921	33.4718
231.813	37.82
234.706	51.3512
237.599	65.033
240.492	85.9955
243.384	107.444
246.277	114.084
249.17	93.6136
252.062	61.4031
254.955	40.6817
257.848	29.4955
260.74	23.5434
263.633	21.9772
266.526	21.9236
269.418	20.7625
272.311	20.8742
275.204	18.1396
278.097	16.5585
280.989	18.1249
283.882	18.8774
286.775	20.0976
289.667	18.254
292.56	11.0025
295.453	4.66225
298.346	2.87026
301.238	0.94854
304.131	0.38636
307.024	1.10546
309.916	0.526497
312.809	1.26489
315.702	1.08015
318.594	3.39236
321.487	3.14136
324.38	6.6417
327.273	10.4971
330.165	13.2721
333.058	13.5259
335.951	14.7132
338.843	13.438
341.736	12.2161
344.629	14.2378
347.522	17.816
350.414	21.0497
353.307	21.9284
356.2	24.0779
359.092	23.8816
361.985	25.1654
364.878	27.3821
367.77	29.8794
370.663	30.4387
373.556	26.2405
376.449	20.2772
379.341	16.7101
382.234	10.7946
385.127	4.51795
388.019	1.19871
390.912	0.889252
393.805	2.7448
396.697	0.947731
399.59	1.45851
402.483	0.864639
405.376	0.146957
408.268	0.696442
411.161	3.10625
414.054	3.98788
416.946	4.81669
419.839	7.68948
422.732	11.1854
425.625	10.0322
428.517	7.49703
431.41	7.11917
434.303	3.06474
437.195	4.8959
440.088	1.77162
442.981	1.71807
445.873	1.65887
448.766	3.6866
451.659	5.0044
454.551	7.54763
457.444	11.6405
460.337	17.6118
463.23	25.7572
466.122	35.8447
469.015	43.859
471.908	52.1534
474.8	57.3309
477.693	59.9587
480.586	61.4438
483.479	60.5061
486.371	55.4885
489.264	49.6094
492.157	43.3003
495.049	36.9256
497.942	30.9902
500.835	24.8282
503.728	19.4331
506.62	15.968
509.513	12.7575
512.406	11.7534
515.298	11.3916
518.191	10.0549
521.084	14.3029
523.976	14.9052
526.869	19.7854
529.762	20.5707
532.654	23.5359
535.547	27.1049
538.44	28.6183
541.333	30.7549
544.225	31.3776
547.118	33.7579
550.011	30.925
552.903	23.4433
555.796	17.9476
558.689	9.68664
561.582	4.98872
564.474	2.2003
567.367	0.992409
570.26	0.680267
573.152	0.763054
576.045	0.907631
578.938	0.180382
581.83	2.07235
584.723	0.697388
587.616	0.168976
590.509	0.609062
593.401	2.01707
596.294	0.599968
599.187	2.1162
602.079	1.35954
604.972	1.84796
607.865	2.22956
610.758	2.94126
613.65	4.34126
616.543	3.75696
619.436	6.28107
622.328	5.36422
625.221	11.9964
628.114	14.4206
631.006	15.2209
633.899	17.04
636.792	18.6289
639.684	18.1611
642.577	17.2208
645.47	15.339
648.363	14.1124
651.255	16.0877
654.148	18.762
657.041	22.9724
659.933	28.651
662.826	33.8419
665.719	35.8736
668.612	36.9728
671.504	36.0662
674.397	31.8262
677.29	25.5807
680.182	17.7684
683.075	13.7274
685.968	10.1153
688.861	5.2231
691.753	2.98013
694.646	0.158493
697.539	0.379868
700.431	0.228378
703.324	0.436234
706.217	0.784233
709.109	1.18899
712.002	1.19413
714.895	0.032021
717.788	2.52674
720.68	1.29653
723.573	3.87333
726.466	4.59986
729.358	8.72844
732.251	12.1211
735.144	16.6432
738.036	18.2177
740.929	23.8103
743.822	26.1178
746.715	30.3907
749.607	31.0615
752.5	32.5207
755.393	32.2895
758.285	26.5436
761.178	23.8799
764.071	22.2452
766.963	20.159
769.856	17.9654
772.749	17.9355
775.642	19.2649
778.534	19.3117
781.427	23.8068
784.32	27.9728
787.212	30.336
790.105	31.8505
792.998	35.3596
795.89	36.7802
798.783	35.7544
801.676	33.0435
804.569	29.9864
807.461	24.3819
810.354	20.5976
813.247	17.8806
816.139	13.9738
819.032	11.4288
821.925	9.72562
824.818	9.23611
827.71	6.70204
830.603	3.40383
833.496	4.88249
836.388	6.2028
839.281	1.09433
842.174	0.460739
845.067	0.158043
847.959	0.595924
850.852	0.342316
853.745	0.497787
856.637	0.460167
859.53	1.67845
862.423	0.122528
865.315	0.725739
868.208	0.300392
871.101	1.92356
873.994	0.19368
876.886	0.946289
879.779	0.781532
882.672	0.099594
885.564	0.593788
888.457	0.363434
891.35	1.26795
894.242	0.206726
897.135	0.744774
900.028	1.70042
902.92	1.3466
905.813	2.83217
908.706	1.72659
911.599	1.42616
914.491	0.884682
917.384	1.10384
920.277	0.398331
923.169	2.63895
926.062	0.990158
928.955	1.89061
931.847	1.98594
934.74	2.30308
937.633	0.976875
940.526	0.975975
943.418	0.620842
946.311	1.69199
949.204	0.94017
952.096	0.278282
954.989	2.55866
957.882	1.82597
960.775	2.53323
963.667	1.74172
966.56	2.20981
969.453	1.89816
972.345	1.87015
975.238	0.4198
978.131	2.23648
981.024	0.288666
983.916	1.91213
986.809	0.761429
989.702	0.66629
992.594	0.783829
995.487	0.577515
998.38	1.63223
1001.27	3.63731
1004.16	1.5368
1007.06	0.74704
1009.95	0.750809
1012.84	0.375443
1015.74	1.04547
1018.63	0.509583
1021.52	2.37622
1024.41	2.52382
1027.31	0.871735
1030.2	1.58548
1033.09	1.46584
1035.98	0.938171
1038.88	2.32283
1041.77	3.07971
1044.66	2.19199
1047.56	1.77417
1050.45	0.670578
1053.34	1.8093
1056.23	1.25523
1059.13	2.02922
1062.02	0.888092
1064.91	1.55969
1067.81	2.8234
1070.7	2.23671
1073.59	2.68248
1076.48	2.97012
1079.38	0.213882
1082.27	1.76579
1085.16	0.749466
1088.05	1.97023
1090.95	0.269516
1093.84	2.05418
1096.73	0.251724
1099.62	0.086166
1102.52	2.39371
1105.41	2.2209
1108.3	1.08431
1111.19	2.05415
1114.09	1.22658
1116.98	5.72983
1119.87	0.318665
1122.77	0.211624
1125.66	1.58017
1128.55	1.05643
1131.44	0.740616
1134.34	1.52037
1137.23	1.0434
1140.12	1.13078
1143.02	2.11883
1145.91	3.06456
1148.8	1.39139
1151.69	0.12738
1154.59	2.30885
1157.48	1.24199
1160.37	1.88229
1163.26	1.24377
1166.16	2.06746
1169.05	1.3553
1171.94	3.09659
1174.84	2.59831
1177.73	2.17806
1180.62	1.40417
1183.51	1.93199
1186.4	2.49289
1189.3	0.557999
1192.19	2.14278
1195.08	3.71764
1197.98	3.1041
1200.87	1.4563
1203.76	1.92165
1206.65	0.997467
1209.55	1.47749
1212.44	2.55698
1215.33	3.98216
1218.22	2.84111
1221.12	2.63309
1224.01	1.65913
1226.9	0.598297
1229.8	0.811249
1232.69	1.19395
1235.58	0.907944
1238.47	1.00404
1241.37	0.05397
1244.26	2.65334
1247.15	1.89102
1250.05	2.89535
1252.94	0.660599
1255.83	3.39699
1258.72	4.10857
1261.62	4.58246
1264.51	2.55493
1267.4	1.30144
1270.29	2.24481
1273.19	2.37344
1276.08	2.92985
1278.97	2.65227
1281.87	1.31734
1284.76	1.05902
1287.65	1.73792
1290.54	2.66927
1293.43	2.1819
1296.33	1.58434
1299.22	0.661377
1302.11	0.969742
