Measurement: Raman, 780 nm, unoriented, Raman Data Processed
Mineral: Ludlamite
Rruff sample: R060485
Ideal chemistry: Fe^2+^_3_(PO_4_)_2_4H_2_O
Locality: Blackbird District, Lehmi County, Idaho, USA
Source: Michael Scott
Description: Green tabular crystals associated with siderite, pyrite and quartz
Measured chemistry: Fe^2+^_3.00_(P_1.00_O_4_)_2_Â·4H_2_O
Raman shift (cm-1)	intensity
111.852	0
115.227	20.0546
118.602	4.00207
121.977	1.52197
125.352	3.22339
128.726	1.45001
132.101	11.1581
135.476	54.2075
138.851	163.851
142.226	276.862
145.601	115.172
148.975	97.0142
152.35	12.6008
155.725	5.96234
159.1	1.03003
162.475	35.2136
165.85	111.104
169.224	88.3842
172.599	70.3805
175.974	35.8276
179.349	8.34967
182.724	10.3442
186.098	1.013
189.473	1.72662
192.848	4.20178
196.223	13.3902
199.598	39.7217
202.972	44.2789
206.347	48.3829
209.722	46.9009
213.097	25.2938
216.472	6.06531
219.847	0.146179
223.221	1.04297
226.596	1.62506
229.971	2.1153
233.346	0.817627
236.721	1.11902
240.095	0.183167
243.47	0.197327
246.845	4.85053
250.22	0.395691
253.595	6.54187
256.969	15.6036
260.344	26.4283
263.719	24.188
267.094	22.6708
270.469	22.0137
273.844	13.9998
277.218	12.0935
280.593	25.9261
283.968	50.7086
287.343	58.8368
290.718	49.041
294.092	34.0673
297.467	36.5203
300.842	46.812
304.217	47.7864
307.592	37.324
310.967	29.0178
314.341	23.1419
317.716	19.4638
321.091	21.1516
324.466	26.7877
327.841	25.1542
331.216	28.7634
334.59	30.1202
337.965	35.9116
341.34	42.441
344.715	41.5717
348.09	34.1701
351.464	27.6862
354.839	31.2214
358.214	30.0888
361.589	27.6478
364.964	27.9458
368.339	26.4639
371.713	24.7117
375.088	19.4658
378.463	21.9213
381.838	17.4784
385.213	19.8444
388.587	17.1399
391.962	13.4154
395.337	10.6827
398.712	10.3091
402.087	3.51556
405.462	3.2279
408.836	3.73761
412.211	2.13489
415.586	3.66766
418.961	0.578064
422.336	0.942566
425.71	0.647034
429.085	4.32074
432.46	6.43048
435.835	9.49194
439.21	8.41486
442.584	16.9268
445.959	22.1932
449.334	35.3461
452.709	55.3073
456.084	87.0162
459.459	114.084
462.833	124.546
466.208	100.046
469.583	66.4399
472.958	39.5748
476.333	30.8082
479.707	27.6742
483.082	24.5401
486.457	29.6046
489.832	37.0048
493.207	61.3168
496.582	56.6719
499.956	50.5048
503.331	43.2071
506.706	25.0962
510.081	11.5373
513.456	5.88501
516.83	1.73505
520.205	2.41296
523.58	1.70349
526.955	5.21838
530.33	13.4987
533.705	20.1332
537.079	19.3334
540.454	25.605
543.829	44.735
547.204	71.5927
550.579	88.9263
553.953	89.7071
557.328	91.2565
560.703	99.6453
564.078	95.2673
567.453	64.997
570.827	42.1538
574.202	23.1933
577.577	7.97223
580.952	10.5206
584.327	10.5968
587.702	25.1019
591.076	34.8361
594.451	49.4307
597.826	59.155
601.201	56.6605
604.576	46.0573
607.951	24.4699
611.325	9.97144
614.7	1.87042
618.075	0.804138
621.45	1.38995
624.825	0.31189
628.199	1.1228
631.574	3.17273
634.949	6.38068
638.324	5.42407
641.699	8.45111
645.073	8.15857
648.448	8.664
651.823	11.4762
655.198	13.0237
658.573	16.3098
661.948	8.4574
665.322	9.32477
668.697	8.79517
672.072	6.13959
675.447	7.33783
678.822	5.7099
682.197	5.87366
685.571	0.830078
688.946	2.94769
692.321	2.13928
695.696	0.04718
699.071	0.515991
702.445	0.089294
705.82	1.93347
709.195	0.121094
712.57	0.493347
715.945	3.98853
719.319	1.42871
722.694	4.44495
726.069	5.38983
729.444	8.82855
732.819	8.72668
736.193	9.77448
739.568	10.8703
742.943	11.2912
746.318	11.4106
749.693	8.38715
753.068	7.49835
756.442	4.89673
759.817	8.61591
763.192	7.57153
766.567	11.5943
769.942	10.3032
773.317	20.3491
776.691	25.5869
780.066	17.3309
783.441	13.9012
786.816	5.06201
790.191	3.02087
793.565	0.910522
796.94	2.14215
800.315	1.29364
803.69	1.47388
807.065	19.596
810.439	31.72
813.814	33.9922
817.189	28.9234
820.564	33.0747
823.939	35.7542
827.314	50.54
830.688	67.7839
834.063	86.0161
837.438	98.4394
840.813	89.3419
844.188	69.5237
847.562	64.8687
850.937	60.5431
854.312	74.8677
857.687	102.531
861.062	116.611
864.437	125.735
867.811	108.734
871.186	79.0782
874.561	52.5345
877.936	42.7963
881.311	30.4339
884.686	23.9659
888.06	12.8277
891.435	10.0972
894.81	0.410278
898.185	3.10278
901.56	0.330261
904.934	3.28821
908.309	7.83478
911.684	18.59
915.059	22.763
918.434	25.7692
921.808	28.1105
925.183	28.6501
928.558	40.1267
931.933	56.4946
935.308	81.2393
938.683	123.382
942.057	209.932
945.432	366.037
948.807	636.32
952.182	731.518
955.557	457.848
958.932	257.175
962.306	163.349
965.681	130.798
969.056	103.818
972.431	81.923
975.806	69.9233
979.18	40.3187
982.555	30.0073
985.93	12.7752
989.305	8.36731
992.68	0.973206
996.054	3.68536
999.429	0.614807
1002.8	8.2796
1006.18	1.45337
1009.55	6.26929
1012.93	5.60785
1016.3	18.7075
1019.68	31.4176
1023.05	45.8825
1026.43	54.6863
1029.8	50.1018
1033.18	43.2213
1036.55	28.4838
1039.93	12.8931
1043.3	13.0977
1046.68	12.1416
1050.05	8.6521
1053.43	5.95441
1056.8	10.1326
1060.18	14.2833
1063.55	26.6694
1066.93	25.5583
1070.3	22.4844
1073.67	20.6814
1077.05	14.9093
1080.42	4.26807
1083.8	3.19147
1087.17	3.28821
1090.55	15.483
1093.92	35.9223
1097.3	43.9946
1100.67	53.4685
1104.05	54.6993
1107.42	56.994
1110.8	69.5879
1114.17	75.8604
1117.55	57.744
1120.92	36.5036
1124.3	24.1643
1127.67	12.0988
1131.05	0.699463
1134.42	0.956665
1137.8	3.32532
1141.17	1.24145
1144.55	0.457764
1147.92	1.18524
1151.3	4.8736
1154.67	6.64996
1158.05	11.1284
1161.42	16.6352
1164.8	18.1125
1168.17	19.8921
1171.55	18.3325
1174.92	17.4663
1178.3	14.3453
1181.67	15.4011
1185.04	13.2364
1188.42	15.9249
1191.79	12.3529
1195.17	12.6516
1198.54	12.5167
1201.92	15.4078
1205.29	7.35364
1208.67	4.1167
1212.04	3.92065
1215.42	2.40784
1218.79	2.50446
1222.17	0.685547
1225.54	2.22064
1228.92	7.60175
1232.29	10.5578
1235.67	7.92999
1239.04	7.13165
1242.42	6.47772
1245.79	2.87848
1249.17	4.01276
1252.54	0.701416
1255.91	4.23071
1259.29	5.04431
1262.66	9.87482
1266.04	27.42
1269.41	29.3798
1272.79	22.3392
1276.16	12.5062
1279.54	5.88446
1282.91	4.90723
