Measurement: Raman, 532 nm, unoriented, Raman Data Processed
Mineral: Ludlamite
Rruff sample: R040152
Ideal chemistry: Fe^2+^_3_(PO_4_)_2_4H_2_O
Locality: Cobalt, Lemhi County, Idaho, USA
Source: University of Arizona Mineral Museum
Description: Green tabular single crystals
Measured chemistry: Fe_3.01_(P_1.00_O_4_)_2_Â·4H_2_O
Raman shift (cm-1)	intensity
132.306	0
135.68	270.776
139.055	1300.18
142.43	2664.71
145.805	2079.44
149.18	1625.37
152.554	287.527
155.929	31.3776
159.304	40.8858
162.679	454.794
166.054	1340.52
169.429	1264.94
172.803	2023.36
176.178	1264.04
179.553	711.831
182.928	805.482
186.303	382.396
189.678	201.839
193.052	344.231
196.427	805.146
199.802	1600.8
203.177	1650.69
206.552	1219.81
209.926	1011.74
213.301	472.052
216.676	93.2843
220.051	21.6963
223.426	66.6685
226.8	35.0652
230.175	22.5879
233.55	99.5037
236.925	175.622
240.3	297.653
243.675	445.098
247.049	562.664
250.424	688.229
253.799	495.705
257.174	624.169
260.549	765.712
263.923	816.058
267.298	982.585
270.673	1086.34
274.048	751.725
277.423	547.254
280.798	642.433
284.173	891.062
287.547	1031.3
290.922	808.887
294.297	619.971
297.672	612.348
301.046	766.472
304.421	793.473
307.796	552.25
311.171	336.036
314.546	199.365
317.921	137.558
321.295	79.2837
324.67	46.0949
328.045	6.5538
331.42	1.36856
334.795	38.7648
338.17	92.2319
341.544	145.402
344.919	154.077
348.294	125.304
351.669	114.449
355.044	154.191
358.418	254.853
361.793	363.979
365.168	415.203
368.543	366.054
371.918	302.597
375.293	216.392
378.667	141.753
382.042	95.7864
385.417	60.4497
388.792	38.1241
392.167	15.1601
395.541	27.5219
398.916	1.05554
402.291	4.27664
405.666	1.16696
409.041	7.51868
412.416	16.0817
415.79	12.6861
419.165	16.3041
422.54	13.7967
425.915	4.92642
429.29	5.26102
432.664	5.24002
436.039	27.8258
439.414	49.3372
442.789	75.3958
446.164	175.073
449.538	278.478
452.913	505.902
456.288	780.795
459.663	1048.94
463.038	1200.03
466.413	1107.91
469.787	659.89
473.162	377.562
476.537	274.567
479.912	338.665
483.287	555.33
486.661	928.275
490.036	1529.11
493.411	2171.56
496.786	2447.43
500.161	1921.48
503.536	1215.87
506.911	699.42
510.285	370.119
513.66	148.256
517.035	97.1242
520.41	119.343
523.784	191.085
527.159	345.699
530.534	620.193
533.909	870.484
537.284	1180.08
540.659	1732.94
544.033	2500.26
547.408	3295.69
550.783	3278.32
554.158	2593.24
557.533	2282.64
560.908	2165.26
564.282	1849.43
567.657	1275.32
571.032	715.922
574.407	341.17
577.782	154.242
581.156	22.4836
584.531	28.7753
587.906	20.99
591.281	30.4336
594.656	115.947
598.031	212.242
601.405	146.699
604.78	60.5739
608.155	7.63806
611.53	23.7592
614.905	28.879
618.279	48.0078
621.654	123.201
625.029	222.421
628.404	328.603
631.779	453.284
635.154	491.753
638.528	432.469
641.903	360.45
645.278	295.978
648.653	241.939
652.028	202.939
655.403	201.202
658.777	197.369
662.152	168.85
665.527	165.951
668.902	114.379
672.277	104.593
675.651	49.4603
679.026	29.385
682.401	29.3148
685.776	3.69611
689.151	4.65949
692.525	7.57318
695.9	0.242767
699.275	9.67395
702.65	2.79806
706.025	7.03415
709.399	20.3833
712.774	19.1492
716.149	8.54346
719.524	18.9889
722.899	14.7626
726.274	31.9734
729.648	20.5637
733.023	10.6313
736.398	24.7128
739.773	24.1726
743.148	19.7199
746.523	31.1594
749.897	34.1854
753.272	39.8555
756.647	44.7835
760.022	47.2032
763.397	48.4607
766.771	52.6541
770.146	56.5317
773.521	68.7725
776.896	72.6564
780.271	54.3941
783.646	60.2636
787.02	60.6768
790.395	70.6157
793.77	75.4962
797.145	77.4056
800.52	52.7752
803.894	57.4943
807.269	33.5412
810.644	25.4871
814.019	30.3189
817.394	46.2191
820.769	25.3227
824.143	39.9915
827.518	48.8861
830.893	52.2647
834.268	34.0806
837.643	45.5853
841.018	46.8582
844.392	32.5224
847.767	18.5077
851.142	21.4868
854.517	17.6585
857.891	21.7263
861.266	9.6727
864.641	5.05539
868.016	2.32632
871.391	0.301971
874.766	32.87
878.14	19.4919
881.515	10.3506
884.89	0.05426
888.265	2.13507
891.64	25.6248
895.015	36.5638
898.389	86.885
901.764	170.085
905.139	286.307
908.514	494.526
911.889	759.656
915.264	928.68
918.638	875.168
922.013	706.866
925.388	670.312
928.763	816.714
932.138	1135.84
935.512	1766.6
938.887	3124
942.262	5779.6
945.637	10648
949.012	17226.3
952.386	16761
955.761	9309.58
959.136	4970.22
962.511	3085.43
965.886	2227.95
969.261	1820.2
972.635	1591.9
976.01	1392.59
979.385	1161.96
982.76	1011.17
986.135	926.634
989.51	828.211
992.884	685.109
996.259	454.064
999.634	175.124
1003.01	58.0649
1006.38	21.0385
1009.76	48.728
1013.13	4.64941
1016.51	1.71973
1019.88	75.7422
1023.26	209.345
1026.63	329.406
1030.01	376.847
1033.38	474.221
1036.76	710.86
1040.13	1188.09
1043.51	1426.12
1046.88	916.178
1050.26	478.178
1053.63	313.665
1057.01	344.861
1060.38	448.586
1063.76	592.577
1067.13	764.152
1070.51	900.661
1073.88	897.796
1077.26	859.016
1080.63	646.49
1084	374.545
1087.38	222.013
1090.75	126.386
1094.13	68.076
1097.5	38.109
1100.88	11.4358
1104.25	3.76056
1107.63	10.8785
1111	17.5558
1114.38	0.674194
1117.75	20.6187
1121.13	3.98465
1124.5	8.78653
1127.88	14.9777
1131.25	13.2853
1134.63	29.5999
1138	34.5102
1141.38	32.9102
1144.75	40.1909
1148.13	45.5524
1151.5	55.0801
1154.88	49.0575
1158.25	63.4381
1161.62	56.22
1165	47.576
1168.38	61.2133
1171.75	23.5753
1175.12	34.5223
1178.5	26.8768
1181.87	31.3871
1185.25	32.4605
1188.62	36.5836
1192	28.8012
1195.37	42.9434
1198.75	30.2162
1202.12	29.328
1205.5	20.8601
1208.87	33.7903
1212.25	41.0773
1215.62	24.5124
1219	22.0685
1222.37	13.0922
1225.75	15.9334
1229.12	12.5605
1232.5	8.17358
1235.87	4.5874
1239.25	19.7496
1242.62	2.99454
1246	9.39676
1249.37	14.4659
1252.74	6.7178
1256.12	9.46332
1259.49	14.1557
1262.87	4.94064
1266.24	7.34604
1269.62	3.14044
1272.99	4.63455
1276.37	25.8852
1279.74	1.29804
1283.12	15.7988
1286.49	12.9949
1289.87	17.0504
1293.24	7.94672
1296.62	20.6803
1299.99	12.5053
1303.37	11.8399
1306.74	23.3941
1310.12	19.3422
1313.49	0.021332
