Measurement: Raman, 785 nm, unoriented, Raman Data Processed
Mineral: Ludlamite
Rruff sample: R040152
Ideal chemistry: Fe^2+^_3_(PO_4_)_2_4H_2_O
Locality: Cobalt, Lemhi County, Idaho, USA
Source: University of Arizona Mineral Museum
Description: Green tabular single crystals
Measured chemistry: Fe_3.01_(P_1.00_O_4_)_2_Â·4H_2_O
Raman shift (cm-1)	intensity
137.411	0
140.304	183.524
143.197	443.56
146.089	953.231
148.982	1243.08
151.875	851.949
154.768	121.693
157.66	30.6847
160.553	273.046
163.446	671.441
166.338	977.881
169.231	974.189
172.124	1303.54
175.017	962.883
177.909	425.147
180.802	376.014
183.695	349.679
186.587	193.848
189.48	177.22
192.373	257.606
195.265	500.812
198.158	894.365
201.051	1060.64
203.944	830.91
206.836	638.742
209.729	441.445
212.622	236.571
215.514	46.1059
218.407	10.0836
221.3	44.5206
224.192	28.8531
227.085	28.1955
229.978	14.7753
232.87	60.7542
235.763	77.5074
238.656	178.203
241.549	223.219
244.441	285.977
247.334	338.937
250.227	382.083
253.119	408.512
256.012	511.811
258.905	646.702
261.798	704.129
264.69	708.308
267.583	660.627
270.476	620.082
273.368	485.239
276.261	476.496
279.154	562.666
282.046	747.536
284.939	934.44
287.832	923.649
290.724	785.475
293.617	714.197
296.51	725.248
299.403	844.293
302.295	913.38
305.188	821.853
308.081	623.441
310.973	408.842
313.866	248.382
316.759	192.625
319.651	113.156
322.544	101.404
325.437	89.2991
328.33	80.1659
331.222	84.4946
334.115	148.983
337.008	186.882
339.9	259.333
342.793	270.396
345.686	230.586
348.579	177.951
351.471	132.23
354.364	167.983
357.257	184.22
360.149	226.173
363.042	256.445
365.935	229.188
368.827	196.253
371.72	140.63
374.613	118.049
377.505	75.7713
380.398	42.0257
383.291	35.6686
386.184	22.5868
389.076	1.75787
391.969	0.397247
394.862	12.0872
397.754	8.43478
400.647	24.0201
403.54	0.237335
406.433	27.425
409.325	5.78571
412.218	11.5769
415.111	6.62656
418.003	7.06046
420.896	10.6348
423.789	8.74097
426.681	19.2823
429.574	8.43558
432.467	31.7779
435.36	49.8489
438.252	75.4538
441.145	84.7458
444.038	189.513
446.93	272.473
449.823	385.587
452.716	582.965
455.608	834.485
458.501	981.984
461.394	1042.88
464.286	941.838
467.179	673.482
470.072	423.563
472.965	243.544
475.857	193.218
478.75	194.703
481.643	237.851
484.535	372.696
487.428	553.588
490.321	746.4
493.214	946.157
496.106	1010.23
498.999	874.437
501.892	671.5
504.784	454.504
507.677	263.822
510.57	173.942
513.462	92.7672
516.355	80.1274
519.248	132.286
522.14	181.076
525.033	318.65
527.926	453.925
530.819	658.751
533.711	875.58
536.604	1158.22
539.497	1536.53
542.389	2022.55
545.282	2586.08
548.175	2827.95
551.067	2545.45
553.96	1975.92
556.853	1634.56
559.745	1330.99
562.638	1143.78
565.531	877.648
568.424	595.288
571.316	379.094
574.209	194.431
577.102	94.6101
579.994	44.5868
582.887	11.0355
585.78	5.03217
588.673	1.80395
591.565	3.42139
594.458	46.5948
597.351	28.3789
600.243	18.57
603.136	39.432
606.029	7.94116
608.921	40.0476
611.814	8.30304
614.707	34.5384
617.6	33.0353
620.492	48.0976
623.385	99.9076
626.278	145.038
629.17	170.145
632.063	205.639
634.956	214.182
637.848	229.938
640.741	191.404
643.634	196.926
646.527	173.327
649.419	172.202
652.312	134.935
655.205	149.136
658.097	135.867
660.99	161.104
663.883	122.146
666.775	119.922
669.668	76.7232
672.561	33.8102
675.454	55.7557
678.346	49.8609
681.239	32.9804
684.132	11.5161
687.024	9.59686
689.917	18.9042
692.81	7.25394
695.702	2.20554
698.595	3.06982
701.488	4.34137
704.381	2.65964
707.273	23.5112
710.166	28.5753
713.059	38.5236
715.951	19.1791
718.844	0.321686
721.737	3.11139
724.63	18.9819
727.522	3.414
730.415	20.9208
733.308	41.023
736.2	33.2699
739.093	31.1303
741.986	26.1151
744.878	31.502
747.771	14.7599
750.664	2.77683
753.557	21.3365
756.449	12.3242
759.342	29.5167
762.235	23.0812
765.127	26.9673
768.02	24.9515
770.913	35.4022
773.805	43.1031
776.698	24.8882
779.591	34.9033
782.484	36.1364
785.376	43.448
788.269	27.9825
791.162	44.5069
794.054	38.1073
796.947	37.4256
799.84	33.4617
802.732	11.4799
805.625	24.6028
808.518	20.1037
811.41	11.4449
814.303	16.1822
817.196	26.8413
820.089	1.38345
822.981	17.2482
825.874	35.7156
828.767	16.8369
831.659	15.065
834.552	22.3696
837.445	10.4892
840.337	0.936081
843.23	0.438858
846.123	18.6579
849.016	24.197
851.908	14.4635
854.801	3.86206
857.694	2.57117
860.586	0.302643
863.479	4.15054
866.372	1.26889
869.264	8.54132
872.157	2.96768
875.05	7.84994
877.943	22.8081
880.835	15.5432
883.728	6.0253
886.621	21.1759
889.513	0.916626
892.406	19.6164
895.299	38.6569
898.192	45.1427
901.084	94.2724
903.977	175.876
906.87	239.184
909.762	324.1
912.655	391.543
915.548	360.672
918.44	324.365
921.333	276.674
924.226	316.019
927.119	393.538
930.011	494.408
932.904	705.526
935.797	1100.29
938.689	1783.27
941.582	2982.89
944.475	4803.55
947.367	7075.92
950.26	8197.2
953.153	6377.36
956.045	3778.75
958.938	2212.08
961.831	1413.09
964.724	976.698
967.616	757.769
970.509	584.519
973.402	458.924
976.294	383.37
979.187	301.974
982.08	237.735
984.972	210.142
987.865	191.164
990.758	146.382
993.651	114.004
996.543	28.9213
999.436	20.8171
1002.33	7.84607
1005.22	18.3793
1008.11	14.9364
1011.01	16.9054
1013.9	42.5106
1016.79	55.5487
1019.68	87.8832
1022.58	156.339
1025.47	182.924
1028.36	186.638
1031.26	165.428
1034.15	148.619
1037.04	232.927
1039.93	301.299
1042.83	301.923
1045.72	238.019
1048.61	146.275
1051.51	95.6385
1054.4	113.326
1057.29	115.966
1060.18	167.492
1063.08	190.246
1065.97	249.861
1068.86	270.451
1071.75	262.971
1074.65	238.378
1077.54	211.217
1080.43	145.373
1083.32	92.8135
1086.22	78.0266
1089.11	30.0794
1092	47.4614
1094.89	2.798
1097.79	9.23785
1100.68	31.3254
1103.57	8.8311
1106.47	10.3107
1109.36	11.9128
1112.25	5.85312
1115.14	6.21629
1118.04	8.35989
1120.93	0.30127
1123.82	19.7907
1126.71	33.5718
1129.61	21.8799
1132.5	28.4632
1135.39	47.9717
1138.29	20.1675
1141.18	36.8034
1144.07	23.5962
1146.96	43.1498
1149.86	40.8172
1152.75	35.9691
1155.64	37.0444
1158.53	35.8141
1161.43	38.3417
1164.32	39.5558
1167.21	51.2759
1170.11	27.4297
1173	10.7906
1175.89	36.1418
1178.78	30.6703
1181.68	10.2852
1184.57	1.06378
1187.46	2.40143
1190.35	12.8005
1193.25	11.8772
1196.14	20.2424
1199.03	3.89165
1201.92	12.6622
1204.82	39.9005
1207.71	24.3719
1210.6	33.047
1213.5	25.9661
1216.39	34.8383
1219.28	10.4729
1222.17	3.40442
1225.07	15.2663
1227.96	20.0689
1230.85	8.58008
1233.74	28.0553
1236.64	3.46979
1239.53	28.3701
1242.42	4.17496
