Measurement: Raman, 514 nm, unoriented, Raman Data Processed
Mineral: Ludlamite
Rruff sample: R040152
Ideal chemistry: Fe^2+^_3_(PO_4_)_2_4H_2_O
Locality: Cobalt, Lemhi County, Idaho, USA
Source: University of Arizona Mineral Museum
Description: Green tabular single crystals
Measured chemistry: Fe_3.01_(P_1.00_O_4_)_2_Â·4H_2_O
Raman shift (cm-1)	intensity
103.124	0
107.3	103.932
111.473	86.712
115.644	143.226
119.813	267.509
123.981	260.189
128.146	618.612
132.309	1527.28
136.47	3700.9
140.63	7986.75
144.787	9337.86
148.942	5695.33
153.096	1690.49
157.247	627.963
161.396	739.218
165.544	872.393
169.689	1115.2
173.833	1350.9
177.974	531.293
182.114	369.867
186.251	334.469
190.387	713.601
194.52	2005.4
198.652	4504.12
202.782	4456.87
206.909	4896.69
211.035	4229.64
215.159	1897.24
219.281	840.684
223.4	400.789
227.518	292.282
231.634	291.417
235.748	353.186
239.86	445.517
243.97	545.449
248.079	466.39
252.185	323.009
256.289	295.176
260.391	447.352
264.492	611.277
268.59	959.126
272.687	863.565
276.781	656.3
280.874	1013.93
284.964	1595.42
289.053	1015.57
293.14	699.233
297.225	668.303
301.308	969.703
305.389	928.368
309.468	576.247
313.545	248.299
317.62	109.496
321.693	64.815
325.765	112.195
329.834	14.422
333.902	69.973
337.967	55.33
342.031	125.659
346.093	69.993
350.153	126.681
354.21	29.559
358.267	46.436
362.321	58.824
366.373	29.831
370.423	120.882
374.471	63.977
378.518	30.988
382.563	48.008
386.605	13.161
390.646	10.408
394.685	5.875
398.722	265.396
402.757	119.696
406.79	29.95
410.821	104.254
414.851	4.57
418.878	7.458
422.904	278.656
426.927	234.77
430.949	247.916
434.969	468.125
438.987	460.381
443.003	680.682
447.018	1100.01
451.03	1476.39
455.041	2472.8
459.049	2824.27
463.056	2400.7
467.061	1410.27
471.064	770.727
475.065	503.156
479.064	403.606
483.062	345.996
487.057	627.547
491.051	1147.13
495.043	1496.17
499.032	1347.95
503.02	944.907
507.007	596.067
510.991	428.062
514.973	337.503
518.954	458.158
522.933	283.952
526.91	248.424
530.885	228.682
534.858	271.979
538.829	503.307
542.799	620.146
546.766	1035.43
550.732	1000.89
554.696	940.318
558.658	986.52
562.618	1006.23
566.576	972.308
570.533	951.744
574.488	832.084
578.44	957.388
582.391	1006.89
586.341	708.251
590.288	692.856
594.233	547.046
598.177	912.308
602.119	632.628
606.059	366.372
609.997	338.528
613.933	266.956
617.868	291.536
621.801	326.629
625.731	248.403
629.66	487.153
633.588	661.912
637.513	378.854
641.437	396.096
645.358	350.311
649.278	258.402
653.196	161.026
657.113	164.866
661.027	219.558
664.94	34.069
668.851	55.867
672.76	16.057
676.667	124.153
680.572	122.256
684.476	166.346
688.378	57.939
692.278	22.483
696.176	240.686
700.072	12.598
703.967	115.259
707.86	294.778
711.751	368.359
715.64	121.475
719.527	46.667
723.413	110.825
727.297	113.203
731.179	109.454
735.059	69.419
738.937	117.406
742.814	50.896
746.689	280.566
750.562	19.911
754.433	37.869
758.303	0.851
762.17	174.979
766.036	183.604
769.901	19.92
773.763	52.033
777.624	163.965
781.482	76.553
785.339	128.088
789.195	134.525
793.048	134.533
796.9	317.512
800.75	91.424
804.598	140.275
808.445	285.037
812.289	266.787
816.132	264.023
819.973	55.131
823.813	126.254
827.65	86.213
831.486	331.531
835.32	177.025
839.152	265.096
842.983	327.137
846.812	445.082
850.639	124.037
854.464	147.598
858.288	462.021
862.11	130.609
865.93	394.189
869.748	311.725
873.564	397.426
877.379	339.383
881.192	325.389
885.004	428.461
888.813	392.928
892.621	496.516
896.427	665.256
900.232	779.312
904.034	1151.83
907.835	1835.79
911.634	2741.82
915.432	3816.95
919.227	3342.34
923.021	2917.01
926.813	2798.99
930.604	3009.5
934.393	3641.68
938.18	5366.15
941.965	9306.73
945.749	18816.3
949.53	37649.6
953.311	35873.7
957.089	17925.8
960.866	8824.03
964.641	5058.52
968.414	3638.99
972.185	2591.8
975.955	1951.25
979.723	1571.48
983.49	1573.21
987.254	2106.36
991.017	2119.89
994.779	1967.12
998.538	1700.81
1002.3	1370.83
1006.05	796.309
1009.81	685.002
1013.56	603.119
1017.31	597.391
1021.06	732.1
1024.81	1033.28
1028.55	1588.32
1032.3	1600.37
1036.04	1680.99
1039.78	2621.62
1043.52	3569.27
1047.26	2778.36
1050.99	1772.93
1054.73	952.289
1058.46	938.211
1062.19	831.037
1065.92	729.406
1069.65	1075.89
1073.37	1115.12
1077.1	933.174
1080.82	768.225
1084.54	1290.18
1088.26	1292.39
1091.97	365.436
1095.69	241.803
1099.4	186.111
1103.12	24.709
1106.83	166.867
1110.54	210.578
1114.24	180.775
1117.95	56.977
1121.65	45.895
1125.35	94.607
1129.06	209.699
1132.75	160.559
1136.45	9.723
1140.15	316.932
1143.84	30.488
1147.53	97.371
1151.22	131.422
1154.91	244.4
1158.6	4.287
1162.28	287.959
1165.97	155.709
1169.65	340.211
1173.33	9.77
1177.01	386.408
1180.69	232.125
1184.36	235.436
1188.04	219.482
1191.71	224.162
1195.38	224.096
1199.05	458.719
1202.71	240.473
1206.38	349.074
1210.04	184.473
1213.71	295.879
1217.37	436.781
1221.03	295.688
1224.68	188.332
1228.34	328.381
1231.99	319.242
1235.65	608.043
1239.3	504.162
1242.95	388.367
1246.59	151.982
1250.24	125.535
1253.88	240.465
1257.53	129.141
1261.17	69.912
1264.81	129.568
1268.45	268.164
1272.08	5.895
1275.72	133.246
1279.35	129.451
1282.98	123.715
1286.61	271.77
1290.24	257.639
1293.87	65.531
1297.49	109.902
1301.11	116.375
1304.73	151.057
1308.36	200.533
1311.97	293.596
1315.59	23.061
1319.2	135.012
1322.82	146.508
1326.43	42.051
1330.04	116.746
1333.65	173.645
1337.26	266.043
1340.86	157.305
1344.47	109.33
1348.07	287.238
1351.67	290.803
1355.27	444.828
1358.87	422.627
1362.46	480.857
1366.06	390.635
1369.65	401.834
1373.24	362.215
1376.83	453.178
1380.42	59.541
1384	288.258
1387.59	321.684
1391.17	432.961
1394.75	336.109
1398.33	342.729
1401.91	291.594
1405.49	283.725
1409.06	140.586
1412.64	437.27
1416.21	384.607
1419.78	169.805
1423.35	411.363
1426.91	455.039
1430.48	327.242
1434.05	577.039
1437.61	641.506
1441.17	545.609
1444.73	467.105
1448.29	566.705
1451.84	369.416
1455.4	592.363
1458.95	698.852
1462.5	740.512
1466.05	635.629
1469.6	382.949
1473.15	682.385
1476.69	494.424
1480.24	239.777
1483.78	271.266
1487.32	481.949
1490.86	343.863
1494.39	455.117
1497.93	297.988
1501.46	15.742
1505	8.188
1508.53	0
