Measurement: Raman, 780 nm, unoriented, Raman Data Processed
Mineral: Ludlockite
Rruff sample: R100176
Ideal chemistry: Pb^2+^Fe^3+^_4_As^3+^_10_O_22_
Locality: Tsumeb, Namibia
Source: William W. Pinch
Description: Red fibrous crystals that display significant flexibility
Raman shift (cm-1)	intensity
116.64	0
120.015	7.40503
123.389	68.1036
126.764	88.6995
130.139	130.707
133.514	188.439
136.889	262.825
140.263	427.057
143.638	537.221
147.013	463.307
150.388	378.899
153.763	335.466
157.137	361.441
160.512	445.939
163.887	343.337
167.262	117.551
170.637	15.3225
174.012	14.896
177.386	19.3832
180.761	4.4353
184.136	11.5665
187.511	57.6182
190.886	90.1968
194.261	90.9108
197.635	97.1773
201.01	111.7
204.385	142.54
207.76	137.348
211.135	74.811
214.509	42.9332
217.884	49.453
221.259	71.9557
224.634	96.8844
228.009	117.334
231.383	147.394
234.758	189.346
238.133	232.429
241.508	302.536
244.883	359.437
248.257	381.498
251.632	311.187
255.007	215.701
258.382	149.829
261.757	123.319
265.132	123.91
268.506	122.689
271.881	103.611
275.256	88.423
278.631	73.5237
282.006	79.6713
285.38	76.9607
288.755	75.6826
292.13	58.4965
295.505	25.5074
298.88	11.8302
302.255	4.15527
305.629	2.76245
309.004	1.21594
312.379	1.05762
315.754	8.10168
319.129	17.6704
322.503	18.4662
325.878	28.5802
329.253	47.3031
332.628	70.1318
336.003	91.8949
339.377	103.864
342.752	112.32
346.127	126.951
349.502	143.398
352.877	133.939
356.252	114.577
359.626	97.7621
363.001	94.6742
366.376	101.659
369.751	99.0269
373.126	76.9946
376.5	41.1645
379.875	26.0525
383.25	0.599121
386.625	10.1622
390	7.54736
393.375	8.94324
396.749	4.38623
400.124	2.95093
403.499	10.9049
406.874	21.5194
410.249	32.171
413.623	42.4097
416.998	51.4804
420.373	68.7748
423.748	70.1093
427.123	61.0599
430.498	40.0376
433.872	34.684
437.247	33.8792
440.622	34.0834
443.997	34.4742
447.372	32.4133
450.746	35.277
454.121	52.7336
457.496	76.9227
460.871	109.968
464.246	150.026
467.62	197.103
470.995	246.428
474.37	267.303
477.745	261.628
481.12	266.087
484.495	258.639
487.869	244.519
491.244	194.751
494.619	147.558
497.994	103.594
501.369	77.3086
504.743	65.8066
508.118	57.1146
511.493	53.6409
514.868	60.4841
518.243	64.6235
521.617	68.2748
524.992	69.8938
528.367	77.8754
531.742	74.9827
535.117	77.9759
538.492	74.5354
541.866	78.9822
545.241	84.5706
548.616	91.9917
551.991	87.8944
555.366	62.9589
558.74	35.9592
562.115	22.7505
565.49	15.1926
568.865	2.52734
572.24	8.65057
575.615	10.853
578.989	8.54504
582.364	5.38184
585.739	0.203674
589.114	4.36786
592.489	7.15564
595.863	5.63873
599.238	6.02142
602.613	3.46222
605.988	0.731262
609.363	6.55469
612.737	7.83758
616.112	5.65832
619.487	7.96381
622.862	12.4738
626.237	19.9782
629.611	33.129
632.986	39.7402
636.361	46.3038
639.736	48.2634
643.111	40.7573
646.486	30.8182
649.86	21.5657
653.235	16.2806
656.61	20.783
659.985	20.1646
663.36	21.2643
666.735	26.436
670.109	28.3547
673.484	17.1122
676.859	11.7621
680.234	5.71747
683.609	0.101379
686.983	1.88586
690.358	6.11768
693.733	2.98248
697.108	3.00928
700.483	2.37244
703.857	13.6181
707.232	21.9089
710.607	28.7253
713.982	41.3828
717.357	35.3392
720.731	38.8987
724.106	36.6717
727.481	32.4725
730.856	35.926
734.231	37.3603
737.606	44.7457
740.98	47.1975
744.355	46.0744
747.73	44.4793
751.105	40.9627
754.48	40.9504
757.855	33.7811
761.229	34.5424
764.604	32.729
767.979	30.6545
771.354	34.3329
774.729	31.12
778.103	35.261
781.478	35.6842
784.853	38.0518
788.228	40.9741
791.603	45.9981
794.977	44.9301
798.352	40.1857
801.727	38.1749
805.102	35.5799
808.477	34.9848
811.851	29.5643
815.226	29.2654
818.601	26.5233
821.976	25.9347
825.351	26.5653
828.726	23.382
832.1	19.624
835.475	20.6107
838.85	18.9136
842.225	16.5201
845.6	17.5533
848.975	19.4316
852.349	15.3948
855.724	15.9377
859.099	15.5022
862.474	8.08337
865.849	6.25787
869.223	0.164978
872.598	6.72046
875.973	1.2774
879.348	2.36908
882.723	3.90167
886.097	0.682739
889.472	1.37353
892.847	0.37262
896.222	0.108643
899.597	0.201599
902.971	2.91126
906.346	3.13794
909.721	1.19397
913.096	1.32214
916.471	1.75195
919.846	1.81854
923.22	0.03772
926.595	4.09174
929.97	1.39667
933.345	2.68207
936.72	0.678345
940.095	1.72577
943.469	1.56427
946.844	3.33508
950.219	0.489685
953.594	2.76086
956.968	3.02716
960.343	1.00867
963.718	1.66711
967.093	1.99683
970.468	3.61566
973.843	1.17828
977.217	0.253845
980.592	0.467163
983.967	5.2865
987.342	3.45593
990.717	10.0548
994.091	7.99506
997.466	11.811
1000.84	11.3674
1004.22	11.8183
1007.59	7.97174
1010.97	6.84302
1014.34	12.2568
1017.72	11.5847
1021.09	11.3851
1024.46	14.8075
1027.84	14.5041
1031.21	16.8468
1034.59	20.8849
1037.96	19.2827
1041.34	17.701
1044.71	18.5406
1048.09	17.9806
1051.46	17.4616
1054.84	15.1994
1058.21	18.1275
1061.59	18.2627
1064.96	21.9133
1068.34	13.1503
1071.71	14.2265
1075.09	23.7753
1078.46	16.9893
1081.84	17.4941
1085.21	31.8117
1088.59	26.836
1091.96	17.6072
1095.34	18.7967
1098.71	8.66968
1102.09	8.33099
1105.46	7.80432
1108.84	8.82678
1112.21	5.60852
1115.59	7.32629
1118.96	6.36481
1122.33	4.39545
1125.71	6.25946
1129.08	3.88245
1132.46	4.67847
1135.83	0.009521
1139.21	1.60083
1142.58	6.32312
1145.96	1.80853
1149.33	0.975769
1152.71	5.48544
1156.08	4.89587
1159.46	3.47522
1162.83	3.16632
1166.21	0.641846
1169.58	2.00903
1172.96	0.5495
1176.33	2.74536
1179.71	1.77853
1183.08	0.71814
1186.46	1.67368
1189.83	0.023651
1193.21	6.35736
1196.58	1.3743
1199.95	6.16345
1203.33	7.01733
1206.7	4.91614
1210.08	9.6394
1213.45	6.8461
1216.83	7.17837
1220.2	7.6019
1223.58	10.216
1226.95	12.9355
1230.33	12.9767
1233.7	9.89392
1237.08	9.54782
1240.45	10.1201
1243.83	3.95642
1247.2	6.07519
1250.58	1.15903
1253.95	6.28717
1257.33	6.03876
1260.7	5.92404
1264.08	9.53671
1267.45	5.85889
1270.83	4.5773
1274.2	5.37616
1277.58	2.41684
1280.95	3.3233
1284.33	0.09021
