Measurement: Raman, 532 nm, unoriented, Raman Data Processed
Mineral: Ludlamite
Rruff sample: R090071
Ideal chemistry: Fe^2+^_3_(PO_4_)_2_4H_2_O
Locality: Cigana Mine (ex-Jocão Mine), Galiléia, Minas Gerais  Brazil
Source: Royal Ontario Museum
Description: Groups of colorless tabular crystals on reddish-brown reddingite R090069, associated with pink hureaulite R090070.
Raman shift (cm-1)	intensity
127.755	0
131.13	4.30147
134.504	13.5221
137.879	55.1058
141.254	134.119
144.629	184.082
148.004	177.179
151.379	135.828
154.753	131.417
158.128	183.039
161.503	208.658
164.878	284.18
168.252	404.782
171.627	565.295
175.002	508.088
178.377	232.959
181.752	144.524
185.127	130.378
188.501	142.781
191.876	174.517
195.251	292.463
198.626	367.317
202.001	305.182
205.375	168.912
208.75	100.667
212.125	64.1737
215.5	6.47008
218.875	2.80514
222.25	7.41991
225.624	11.9781
228.999	4.27078
232.374	27.2598
235.749	32.7748
239.124	48.4029
242.499	73.3216
245.873	77.171
249.248	56.0448
252.623	62.4238
255.998	78.7086
259.373	98.7276
262.747	95.656
266.122	80.2766
269.497	102.987
272.872	82.2146
276.247	48.7062
279.622	60.3855
282.996	94.5238
286.371	103.457
289.746	83.8239
293.121	69.9577
296.495	49.0746
299.87	42.8083
303.245	54.105
306.62	21.7817
309.995	7.35407
313.37	11.8204
316.744	11.5415
320.119	2.72702
323.494	9.06462
326.869	16.1799
330.244	1.2877
333.618	6.19237
336.993	20.0073
340.368	14.3887
343.743	9.21005
347.118	15.0786
350.493	35.2891
353.867	45.5415
357.242	40.0905
360.617	38.12
363.992	51.8578
367.367	61.4419
370.741	54.2931
374.116	47.0264
377.491	36.2313
380.866	13.9711
384.241	19.2006
387.616	22.9149
390.99	22.5352
394.365	8.60469
397.74	1.68791
401.115	13.5708
404.49	0.755753
407.865	8.24203
411.239	2.06316
414.614	0.3134
417.989	10.3307
421.364	5.91794
424.739	5.86133
428.113	13.8036
431.488	14.2847
434.863	15.0131
438.238	10.4746
441.613	14.6598
444.987	13.1853
448.362	19.9705
451.737	48.5164
455.112	54.1737
458.487	76.1255
461.861	69.2514
465.236	66.117
468.611	46.712
471.986	53.2656
475.361	51.8734
478.736	99.5968
482.11	143.835
485.485	196.772
488.86	263.983
492.235	286.803
495.61	288.773
498.985	187.308
502.359	101.01
505.734	61.4011
509.109	23.1564
512.484	16.7559
515.859	6.74573
519.233	8.02234
522.608	20.4594
525.983	27.9756
529.358	66.376
532.733	82.0459
536.107	96.4473
539.482	94.0107
542.857	92.4339
546.232	118.569
549.607	116.366
552.982	95.5874
556.356	69.6483
559.731	50.5492
563.106	45.8079
566.481	32.6158
569.856	13.5872
573.231	8.52771
576.605	9.70145
579.98	15.2021
583.355	14.0849
586.73	41.7826
590.105	62.8086
593.479	85.4161
596.854	101.798
600.229	97.6038
603.604	67.5485
606.979	41.1158
610.353	2.42091
613.728	7.7394
617.103	13.2784
620.478	9.46359
623.853	9.25374
627.227	9.16878
630.602	16.0826
633.977	16.5389
637.352	11.5539
640.727	27.6588
644.102	28.9711
647.476	23.8428
650.851	21.1587
654.226	15.532
657.601	16.3587
660.976	9.46568
664.351	4.81392
667.725	21.626
671.1	7.18445
674.475	13.9885
677.85	11.2357
681.225	2.2691
684.599	13.0945
687.974	18.78
691.349	-1.00891
694.724	19.5238
698.099	0.783035
701.473	28.5622
704.848	10.4171
708.223	7.6396
711.598	12.1661
714.973	9.24605
718.347	13.0856
721.722	5.54831
725.097	15.0066
728.472	3.43935
731.847	10.8794
735.222	8.4883
738.596	2.90491
741.971	11.6296
745.346	14.6858
748.721	3.57593
752.096	20.1382
755.471	10.8971
758.845	10.3784
762.22	11.8285
765.595	14.157
768.97	26.2661
772.345	29.1667
775.719	24.8888
779.094	19.3474
782.469	23.5579
785.844	23.4464
789.219	7.32336
792.593	22.4377
795.968	18.8468
799.343	13.6366
802.718	19.271
806.093	19.2089
809.467	18.5396
812.842	19.0542
816.217	14.0175
819.592	11.7219
822.967	19.2376
826.342	8.0961
829.716	12.6181
833.091	18.1838
836.466	10.5709
839.841	8.308
843.216	13.0207
846.591	11.0913
849.965	4.0286
853.34	1.74858
856.715	11.2385
860.09	13.0321
863.465	5.44557
866.839	4.32021
870.214	0.26387
873.589	6.26657
876.964	8.98196
880.339	4.79578
883.713	2.32665
887.088	9.78833
890.463	7.76173
893.838	7.43121
897.213	15.1731
900.588	29.887
903.962	53.3228
907.337	92.622
910.712	132.608
914.087	171.983
917.462	177.415
920.837	186.852
924.211	198.165
927.586	224.074
930.961	258.269
934.336	396.89
937.711	621.59
941.085	1015.48
944.46	1515.51
947.835	2061.95
951.21	2117.92
954.585	1419.26
957.96	813.647
961.334	512.758
964.709	343.906
968.084	242.475
971.459	178.956
974.834	137.751
978.208	102.983
981.583	79.9485
984.958	69.5603
988.333	56.3511
991.708	54.3416
995.082	37.0148
998.457	15.2069
1001.83	1.11182
1005.21	3.66046
1008.58	6.31515
1011.96	14.3462
1015.33	3.35812
1018.71	12.5453
1022.08	32.5685
1025.46	52.8035
1028.83	67.2667
1032.2	109.786
1035.58	182.367
1038.95	238.892
1042.33	309.007
1045.7	312.698
1049.08	241.667
1052.45	179.489
1055.83	106.299
1059.2	78.5264
1062.58	53.5041
1065.95	50.2918
1069.33	72.0647
1072.7	83.2113
1076.08	88.3552
1079.45	99.0064
1082.83	75.0622
1086.2	38.1257
1089.58	33.889
1092.95	32.1634
1096.33	20.1303
1099.7	3.72996
1103.08	7.34227
1106.45	5.71912
1109.83	3.48131
1113.2	10.7255
1116.58	0.459869
1119.95	3.67455
1123.33	11.0272
1126.7	6.52599
1130.08	17.5043
1133.45	24.7439
1136.83	14.6409
1140.2	4.12048
1143.57	24.8409
1146.95	16.5804
1150.32	19.1555
1153.7	21.8884
1157.07	30.6767
1160.45	10.4584
1163.82	22.1404
1167.2	14.6475
1170.57	4.47929
1173.95	15.8732
1177.32	11.4097
1180.7	16.8212
1184.07	11.6605
1187.45	8.95039
1190.82	11.8935
1194.2	17.8842
1197.57	16.6116
1200.95	9.46519
1204.32	10.4198
1207.7	11.5152
1211.07	16.3458
1214.44	10.5697
1217.82	8.91045
1221.19	4.91693
1224.57	14.1089
1227.94	1.26756
1231.32	1.30722
1234.69	10.9404
1238.07	10.4423
1241.44	8.74953
1244.82	1.67549
1248.19	6.93062
1251.57	14.174
1254.94	12.0686
1258.32	13.5597
1261.69	8.71838
1265.07	13.9313
1268.44	3.56033
1271.82	10.9018
1275.19	14.5434
1278.57	6.8122
1281.94	0.807877
1285.32	7.09685
1288.69	19.2787
1292.07	12.6403
1295.44	10.7108
1298.82	5.44327
1302.19	3.38876
