Measurement: Raman, 532 nm, unoriented, Raman Data Processed
Mineral: Lueshite
Rruff sample: R090025
Ideal chemistry: NaNbO_3_
Locality: Lueshe carbonatite, Kivu Province, Democratic Republic of the Congo
Source: Karl Russ
Description: Black cubes
Measured chemistry: (Na_0.87_Ca_0.03_Ce_0.01_La_0.01_Th_0.01_)(Nb_0.94_Ta_0.06_)O_3_; = bright. (Na_0.91_Ca_0.03_Ce_0.01_La_0.01_)(Nb_0.95_Ta_0.05_)O_3_ = dark
Raman shift (cm-1)	intensity
146.369	0
149.744	2.56128
153.119	8.81982
156.494	5.25806
159.869	15.2886
163.244	72.4197
166.618	117.422
169.993	157.388
173.368	197.812
176.743	250.065
180.118	316.863
183.493	378.96
186.867	400.065
190.242	424.261
193.617	455.596
196.992	490.996
200.367	507.226
203.741	546.93
207.116	583.986
210.491	629.538
213.866	667.81
217.241	717.035
220.615	760.872
223.99	786.738
227.365	786.449
230.74	778.519
234.115	771.037
237.489	732.026
240.864	702.095
244.239	655.78
247.614	620.421
250.989	585.271
254.364	564.717
257.738	522.377
261.113	477.83
264.488	425.949
267.863	378.325
271.238	325.481
274.613	273.024
277.987	244.099
281.362	217.617
284.737	151.44
288.112	119.064
291.487	80.5537
294.861	47.0259
298.236	21.2207
301.611	9.07886
304.986	5.93835
308.361	11.2611
311.736	15.8931
315.11	15.0914
318.485	8.29504
321.86	2.71716
325.235	8.3219
328.61	3.77051
331.984	8.15198
335.359	10.9657
338.734	15.0879
342.109	22.4044
345.484	24.3268
348.858	26.2261
352.233	25.7736
355.608	23.1854
358.983	34.4055
362.358	35.0747
365.733	36.4944
369.107	35.4876
372.482	41.3655
375.857	51.3005
379.232	54.8709
382.607	58.8113
385.981	61.9885
389.356	71.0092
392.731	81.2295
396.106	84.43
399.481	93.7769
402.856	106.41
406.23	120.81
409.605	137.663
412.98	153.316
416.355	175.006
419.73	196.881
423.104	219.726
426.479	242.369
429.854	257.847
433.229	260.791
436.604	259.465
439.978	232.461
443.353	203.087
446.728	162.603
450.103	129.527
453.478	105.462
456.853	75.8652
460.227	51.3505
463.602	31.9322
466.977	18.4105
470.352	5.97107
473.727	3.53815
477.101	10.3138
480.476	19.3659
483.851	20.8785
487.226	26.5093
490.601	19.4425
493.976	15.0963
497.35	5.65588
500.725	8.82715
504.1	25.4449
507.475	50.8491
510.85	83.3538
514.224	121.168
517.599	162.789
520.974	215.335
524.349	273.169
527.724	339.256
531.098	392.149
534.473	464.31
537.848	537.264
541.223	605.966
544.598	678.758
547.973	757.009
551.347	831.35
554.722	895.411
558.097	944.956
561.472	993.359
564.847	1039.67
568.221	1069.23
571.596	1085.95
574.971	1090.83
578.346	1085.81
581.721	1082.46
585.096	1051.06
588.47	1031.94
591.845	992.068
595.22	943.079
598.595	891.272
601.97	831.607
605.344	769.71
608.719	712.43
612.094	650.932
615.469	594.232
618.844	536.889
622.218	471.056
625.593	413.496
628.968	366.975
632.343	314.832
635.718	275.174
639.093	237.237
642.467	204.371
645.842	175.468
649.217	139.196
652.592	115.597
655.967	93.8065
659.341	70.0277
662.716	48.7128
666.091	26.0547
669.466	11.1957
672.841	1.69861
676.216	10.9349
679.59	8.44427
682.965	19.4494
686.34	20.3959
689.715	20.6691
693.09	19.5043
696.465	14.5431
699.839	7.84015
703.214	0.549255
706.589	6.6991
709.964	15.47
713.339	23.952
716.713	29.5853
720.088	38.0945
723.463	48.5488
726.838	54.5018
730.213	63.6799
733.587	74.1691
736.962	76.9429
740.337	80.7773
743.712	82.4611
747.087	79.8094
750.462	70.2127
753.836	66.273
757.211	56.6553
760.586	50.1579
763.961	43.7095
767.336	36.8167
770.71	30.3279
774.085	22.1495
777.46	15.1028
780.835	9.89447
784.21	0.508118
787.585	1.99219
790.959	2.62231
794.334	1.81561
797.709	0.992676
801.084	6.44873
804.459	15.3007
807.833	27.3046
811.208	41.867
814.583	63.0862
817.958	79.7936
821.333	106.113
824.707	131.907
828.082	166.083
831.457	197.28
834.832	229.055
838.207	272.892
841.582	313.017
844.956	354.514
848.331	385.175
851.706	425.74
855.081	460.761
858.456	495.624
861.83	519.341
865.205	539.556
868.58	541.487
871.955	532.601
875.33	504.444
878.705	462.534
882.079	416.175
885.454	356.416
888.829	311.912
892.204	271.27
895.579	236.086
898.953	203.049
902.328	181.051
905.703	162.518
909.078	147.549
912.453	132.853
915.827	123.047
919.202	111.266
922.577	92.3911
925.952	84.4576
929.327	67.153
932.702	48.7994
936.076	26.6352
939.451	10.655
942.826	1.3754
946.201	5.78458
949.576	8.13623
952.951	6.17352
956.325	6.63965
959.7	3.45737
963.075	0.328827
966.45	3.03421
969.825	3.37906
973.199	9.52737
976.574	10.9666
979.949	16.609
983.324	18.6107
986.699	22.1725
990.073	23.4777
993.448	27.6676
996.823	31.2407
1000.2	34.1608
1003.57	33.0678
1006.95	34.4515
1010.32	29.9206
1013.7	27.5245
1017.07	24.6233
1020.45	22.072
1023.82	22.0376
1027.2	20.6618
1030.57	19.674
1033.95	18.8829
1037.32	18.0552
1040.7	16.6427
1044.07	14.6037
1047.44	15.9174
1050.82	14.564
1054.19	13.0854
1057.57	11.3275
1060.94	9.46754
1064.32	10.0216
1067.69	8.22742
1071.07	10.0374
1074.44	8.4174
1077.82	6.80025
1081.19	6.17595
1084.57	8.84511
1087.94	3.51009
1091.32	4.87707
1094.69	2.49156
1098.07	3.89706
1101.44	2.60979
1104.82	2.94615
1108.19	3.49814
1111.57	3.43574
1114.94	1.46471
1118.32	0.807007
1121.69	1.34958
1125.07	1.65395
1128.44	1.31169
1131.82	2.29611
1135.19	3.28537
1138.57	0.676926
1141.94	0.087006
1145.32	0.467728
1148.69	0.121033
1152.07	0.3694
1155.44	0.421326
1158.81	6.13391
1162.19	1.63254
1165.56	0.913223
1168.94	1.06595
1172.31	1.07163
1175.69	0.625366
1179.06	4.45013
1182.44	1.30614
1185.81	2.04857
1189.19	0.520447
1192.56	0.391357
1195.94	2.34953
1199.31	1.2832
1202.69	1.59399
1206.06	2.86478
1209.44	0.852203
1212.81	2.08156
1216.19	5.72244
1219.56	3.48563
1222.94	2.00032
1226.31	2.62451
1229.68	3.61626
1233.06	1.10873
1236.43	0.786392
1239.81	0.582047
1243.18	1.73646
1246.56	0.341553
1249.93	3.1057
1253.31	1.91971
1256.68	0.70787
1260.06	2.00352
1263.43	3.21399
1266.81	2.85898
1270.18	2.91602
1273.56	0.468628
1276.93	4.1192
1280.31	2.9368
1283.68	4.58809
1287.06	2.07092
1290.43	3.31229
1293.81	2.69606
1297.18	0.149246
1300.56	0.932312
