Measurement: Raman, 780 nm, unoriented, Raman Data Processed
Mineral: Lueshite
Rruff sample: R090025
Ideal chemistry: NaNbO_3_
Locality: Lueshe carbonatite, Kivu Province, Democratic Republic of the Congo
Source: Karl Russ
Description: Black cubes
Measured chemistry: (Na_0.87_Ca_0.03_Ce_0.01_La_0.01_Th_0.01_)(Nb_0.94_Ta_0.06_)O_3_; = bright. (Na_0.91_Ca_0.03_Ce_0.01_La_0.01_)(Nb_0.95_Ta_0.05_)O_3_ = dark
Raman shift (cm-1)	intensity
117.929	0
120.822	8.22461
123.715	4.2395
126.607	0.502686
129.5	1.18481
132.393	2.32275
135.285	3.90271
138.178	2.83594
141.071	1.19446
143.963	0.42627
146.856	8.47058
149.749	13.0746
152.642	15.5259
155.534	20.4189
158.427	28.0231
161.32	35.2377
164.212	44.3601
167.105	52.8163
169.998	58.1376
172.89	64.0421
175.783	75.7679
178.676	82.5732
181.569	90.0165
184.461	102.402
187.354	116.72
190.247	126.502
193.139	142.295
196.032	155.866
198.925	168.036
201.817	188.365
204.71	206.183
207.603	223.075
210.495	234.266
213.388	248.256
216.281	255.861
219.174	259.709
222.066	261.529
224.959	261.752
227.852	252.825
230.744	244.248
233.637	237.811
236.53	227.416
239.423	218.738
242.315	203.179
245.208	189.523
248.101	183.571
250.993	167.169
253.886	154.084
256.779	134.287
259.671	121.867
262.564	111.75
265.457	97.2745
268.349	82.3501
271.242	68.9623
274.135	57.7787
277.028	46.2296
279.92	34.1827
282.813	26.1054
285.706	15.1337
288.598	11.5802
291.491	11.7891
294.384	1.68408
297.276	1.42212
300.169	1.07581
303.062	5.51453
305.955	4.02832
308.847	5.18896
311.74	4.28003
314.633	0.094543
317.525	1.49921
320.418	1.5437
323.311	4.04248
326.204	7.8808
329.096	9.88068
331.989	11.9282
334.882	14.9832
337.774	12.2006
340.667	19.7715
343.56	21.5464
346.452	21.2888
349.345	27.3071
352.238	25.7712
355.13	26.1804
358.023	31.0054
360.916	30.9495
363.809	32.4665
366.701	30.435
369.594	27.4141
372.487	30.4413
375.379	29.3336
378.272	25.3801
381.165	26.2868
384.058	24.1109
386.95	24.5308
389.843	24.8495
392.736	24.8883
395.628	21.0111
398.521	24.7329
401.414	23.5376
404.306	27.0097
407.199	33.3848
410.092	34.8461
412.985	42.2952
415.877	52.9205
418.77	50.9081
421.663	60.7878
424.555	64.4827
427.448	64.3263
430.341	62.4325
433.233	56.5373
436.126	49.4334
439.019	41.269
441.911	32.4036
444.804	25.1576
447.697	18.3074
450.59	13.6244
453.482	8.3786
456.375	8.10681
459.268	4.24023
462.16	2.02734
465.053	3.05298
467.946	5.11542
470.839	7.48663
473.731	5.50488
476.624	3.3833
479.517	3.36377
482.409	3.22058
485.302	4.24695
488.195	0.283752
491.087	0.634827
493.98	5.59399
496.873	2.01044
499.765	2.81628
502.658	10.8902
505.551	14.3261
508.444	24.8083
511.336	30.4108
514.229	38.9433
517.122	46.751
520.014	59.1057
522.907	70.5709
525.8	74.6938
528.692	89.1983
531.585	99.8119
534.478	111.274
537.371	126.46
540.263	140.651
543.156	149.85
546.049	161.953
548.941	170.772
551.834	183.178
554.727	192.064
557.62	196.424
560.512	208.605
563.405	207.26
566.298	216.408
569.19	214.603
572.083	214.381
574.976	216.579
577.868	216.622
580.761	211.392
583.654	203.088
586.546	205.272
589.439	196.191
592.332	187.745
595.225	181.414
598.117	170.27
601.01	159.586
603.903	153.294
606.795	144.178
609.688	132.473
612.581	122.252
615.473	111.737
618.366	99.2207
621.259	91.3986
624.152	78.7248
627.044	71.8246
629.937	60.8566
632.83	55.7198
635.722	44.4496
638.615	39.436
641.508	31.8614
644.4	28.8169
647.293	25.2105
650.186	21.6464
653.079	14.5719
655.971	9.40485
658.864	7.84375
661.757	3.97601
664.649	3.34473
667.542	1.4715
670.435	1.71722
673.327	1.63892
676.22	1.59381
679.113	2.92798
682.006	7.60806
684.898	2.91409
687.791	2.68558
690.684	2.60257
693.576	2.474
696.469	0.650848
699.362	4.26822
702.255	1.17065
705.147	1.30307
708.04	2.37351
710.933	5.16864
713.825	3.49393
716.718	6.89276
719.611	9.44748
722.503	8.20117
725.396	10.5869
728.289	8.8761
731.182	12.1487
734.074	12.6054
736.967	12.4108
739.86	11.7274
742.752	12.1588
745.645	13.1789
748.538	7.91693
751.43	7.65869
754.323	5.59314
757.216	5.74408
760.109	1.18988
763.001	0.941162
765.894	4.05035
768.787	0.762421
771.679	1.9443
774.572	0.821594
777.465	0.027435
780.357	1.49588
783.25	2.76987
786.143	4.91833
789.035	11.3771
791.928	19.5098
794.821	25.8682
797.714	32.2317
800.606	41.617
803.499	56.5335
806.392	67.6116
809.284	84.3326
812.177	94.8182
815.07	113.782
817.962	134.024
820.855	152.015
823.748	167.682
826.641	183.694
829.533	202.168
832.426	204.882
835.319	209.836
838.211	208.582
841.104	209.599
843.997	203.488
846.889	200.109
849.782	196.495
852.675	196.367
855.568	192.469
858.46	190.796
861.353	187.695
864.246	184.403
867.138	182.055
870.031	165.407
872.924	154.086
875.817	141.008
878.709	119.769
881.602	105.237
884.495	90.4321
887.387	78.8297
890.28	69.6672
893.173	58.1254
896.065	47.9348
898.958	41.3927
901.851	35.3709
904.744	29.2713
907.636	22.5236
910.529	20.5608
913.422	17.221
916.314	17.8052
919.207	16.3693
922.1	13.0688
924.992	10.4963
927.885	3.66229
930.778	2.62665
933.67	0.018036
936.563	2.99741
939.456	4.59197
942.348	3.94778
945.241	3.9819
948.134	1.61557
951.027	1.98558
953.919	0.512573
956.812	2.13626
959.705	4.67821
962.597	4.03743
965.49	2.77914
968.383	6.8941
971.275	9.27754
974.168	8.11778
977.061	8.83057
979.954	12.1878
982.846	13.004
985.739	12.5023
988.632	13.0994
991.524	17.3628
994.417	13.3252
997.31	15.6894
1000.2	11.8979
1003.1	8.50085
1005.99	8.10082
1008.88	8.22502
1011.77	7.41125
1014.67	9.41898
1017.56	7.3736
1020.45	8.90697
1023.34	9.54448
1026.24	6.5965
1029.13	4.6174
1032.02	8.56464
1034.91	5.42293
1037.81	7.48828
1040.7	8.69074
1043.59	6.82582
1046.49	4.81975
1049.38	5.74716
1052.27	7.79182
1055.16	8.85034
1058.06	6.80911
1060.95	8.67792
1063.84	6.91821
1066.73	6.77432
1069.63	6.97249
1072.52	5.97527
1075.41	6.0672
1078.31	6.07167
1081.2	6.3128
1084.09	6.78664
1086.98	7.7623
1089.88	9.12791
1092.77	8.27972
1095.66	9.44331
1098.55	10.5615
1101.45	10.8293
1104.34	8.84374
1107.23	9.04263
1110.12	10.0868
1113.02	7.83299
1115.91	8.08278
1118.8	7.7428
1121.7	9.2728
1124.59	6.6281
1127.48	7.20097
1130.37	5.6521
1133.27	5.37933
1136.16	4.7822
1139.05	6.02704
1141.94	2.59763
1144.84	2.1871
1147.73	0.352692
1150.62	2.66043
1153.52	0.276398
1156.41	0.917053
1159.3	3.07455
1162.19	1.76288
1165.09	5.12396
1167.98	5.81168
1170.87	8.98959
1173.77	9.86624
1176.66	11.4692
1179.55	7.21243
1182.44	6.74863
1185.34	5.85089
1188.23	6.44995
1191.12	3.72009
1194.01	5.45154
1196.91	4.20288
1199.8	5.80768
1202.69	4.92145
1205.58	1.43341
1208.48	0.26178
