Measurement: Raman, 532 nm, unoriented, Raman Data Processed
Mineral: Luetheite
Rruff sample: R060088
Ideal chemistry: Cu^2+^_2_Al_2_(As^5+^O_4_)_2_(OH)_4_H_2_O
Locality: Alum Gulch, Patagonia, Arizona, USA
Source: Andy Anderson
Description: Pale blue fine-grained
Measured chemistry: Cu_2.00_(Al_1.96_Fe^3+^_0.04_)_Σ=2_(As_1.00_O_4_)_2_(OH)_4_·H_2_O; trace amounts of P; OH estimated by charge balance; H_2_O by difference
Raman shift (cm-1)	intensity
137.137	0
140.511	1.27283
143.886	2.66772
147.261	6.75577
150.636	14.5397
154.011	12.9783
157.386	3.16339
160.76	0.243988
164.135	0.249748
167.51	0.337421
170.885	0.056526
174.26	0.334305
177.634	0.601768
181.009	3.22889
184.384	5.65437
187.759	8.99599
191.134	13.5179
194.508	17.3537
197.883	21.1086
201.258	26.6002
204.633	34.4909
208.008	45.3268
211.382	48.4458
214.757	43.0281
218.132	46.3444
221.507	53.3524
224.882	48.8344
228.257	40.3796
231.631	25.6512
235.006	13.1418
238.381	7.50699
241.756	6.47904
245.131	10.2212
248.506	16.2628
251.88	21.2294
255.255	29.1297
258.63	42.8968
262.005	65.549
265.38	67.1014
268.754	36.576
272.129	20.6997
275.504	14.3385
278.879	8.40998
282.254	4.54225
285.628	3.57507
289.003	5.48138
292.378	8.87283
295.753	6.3908
299.128	2.68838
302.503	1.92439
305.877	0.286385
309.252	1.65135
312.627	1.34383
316.002	0.665977
319.377	3.90178
322.752	7.55611
326.126	11.9854
329.501	19.4732
332.876	27.4717
336.251	31.145
339.625	28.119
343	26.1593
346.375	30.8322
349.75	41.0667
353.125	53.3822
356.5	63.3197
359.875	68.9473
363.249	78.7714
366.624	84.1455
369.999	54.7658
373.374	22.5971
376.748	8.67802
380.123	2.89297
383.498	0.789459
386.873	0.624878
390.248	0.765762
393.623	0.879166
396.997	0.040108
400.372	0.293839
403.747	0.167686
407.122	0.895309
410.497	0.05278
413.872	1.64755
417.246	4.93779
420.621	8.03593
423.996	11.2866
427.371	12.2504
430.746	14.6968
434.12	20.0222
437.495	28.4163
440.87	34.5587
444.245	36.2755
447.62	31.6054
450.995	29.7395
454.369	31.8759
457.744	40.197
461.119	54.5423
464.494	62.6036
467.869	48.9611
471.243	37.6185
474.618	37.2426
477.993	43.55
481.368	53.3042
484.743	63.2621
488.118	68.5774
491.492	56.2053
494.867	34.772
498.242	18.9284
501.617	9.5371
504.991	4.43889
508.366	2.4886
511.741	2.38536
515.116	3.16714
518.491	3.36323
521.866	3.6579
525.24	3.05843
528.615	1.98704
531.99	3.0438
535.365	2.58921
538.74	3.39041
542.115	4.57989
545.489	5.3116
548.864	5.77394
552.239	5.50824
555.614	4.168
558.989	2.14613
562.363	0.666054
565.738	0.817459
569.113	0.737534
572.488	0.985756
575.863	0.629128
579.237	0.200363
582.612	0.650337
585.987	1.12819
589.362	1.73079
592.737	2.88936
596.112	3.63671
599.486	4.4558
602.861	4.9714
606.236	3.95268
609.611	3.51314
612.986	2.64406
616.361	1.9092
619.735	2.09898
623.11	1.15398
626.485	0.693024
629.86	0.176559
633.235	0.817543
636.609	0.246658
639.984	0.185585
643.359	0.263382
646.734	0.774906
650.109	0.757011
653.484	1.0832
656.858	1.45779
660.233	1.26901
663.608	0.763458
666.983	0.587246
670.357	0.929344
673.732	0.892693
677.107	1.46686
680.482	1.08426
683.857	0.925941
687.232	1.66791
690.606	1.34798
693.981	1.86434
697.356	1.96119
700.731	1.9078
704.106	2.10816
707.481	1.84694
710.855	2.2098
714.23	2.2618
717.605	1.8297
720.98	1.70162
724.355	2.06475
727.729	1.17744
731.104	0.956207
734.479	0.996548
737.854	0.850067
741.229	0.850624
744.604	0.242493
747.978	0.608883
751.353	0.378021
754.728	0.272522
758.103	0.237755
761.477	0.52623
764.852	1.08696
768.227	1.3286
771.602	0.604004
774.977	0.325523
778.352	0.106316
781.726	0.74559
785.101	1.64979
788.476	2.56293
791.851	3.89891
795.226	6.24743
798.601	8.76664
801.975	12.4434
805.35	17.2908
808.725	24.2349
812.1	33.7745
815.475	43.8216
818.849	54.1141
822.224	60.5911
825.599	60.3541
828.974	55.2733
832.349	50.2731
835.723	46.4537
839.098	44.478
842.473	48.5767
845.848	56.7041
849.223	67.5545
852.598	80.2375
855.972	90.2379
859.347	96.5955
862.722	115.651
866.097	141.271
869.472	176.811
872.846	217.908
876.221	230.885
879.596	179.403
882.971	115.03
886.346	72.18
889.721	44.8467
893.095	28.772
896.47	17.8263
899.845	11.471
903.22	6.9014
906.595	4.00392
909.97	1.25285
913.344	0.058517
916.719	0.803825
920.094	1.22871
923.469	1.08105
926.844	0.508553
930.218	1.47332
933.593	2.63296
936.968	3.96361
940.343	5.05103
943.718	4.58916
947.092	3.56841
950.467	2.21965
953.842	2.2432
957.217	2.59099
960.592	2.27272
963.966	1.61907
967.341	1.25739
970.716	0.687328
974.091	0.352924
977.466	0.050388
980.841	0.152405
984.215	0.30365
987.59	0.109852
990.965	0.15794
994.34	0.287426
997.715	1.61139
1001.09	0.378059
1004.46	0.189728
1007.84	0.559128
1011.21	0.459362
1014.59	0.743179
1017.96	0.813854
1021.34	1.00441
1024.71	1.93018
1028.09	1.96425
1031.46	1.46397
1034.84	1.06577
1038.21	0.822495
1041.59	0.44278
1044.96	0.098248
1048.34	0.269604
1051.71	0.371792
1055.09	0.031898
1058.46	0.687992
1061.84	0.425167
1065.21	0.661987
1068.59	0.203094
1071.96	0.663223
1075.34	0.05798
1078.71	0.560364
1082.09	0.680832
1085.46	0.275845
1088.84	0.002815
1092.21	0.158173
1095.58	0.177181
1098.96	0.522465
1102.33	1.86491
1105.71	0.173988
1109.08	0.398685
1112.46	0.257328
1115.83	0.954876
1119.21	1.85079
1122.58	1.73108
1125.96	2.76553
1129.33	3.56403
1132.71	4.33583
1136.08	5.32927
1139.46	5.98086
1142.83	5.58271
1146.21	4.96233
1149.58	4.06927
1152.96	3.49736
1156.33	2.12353
1159.71	2.6426
1163.08	2.40319
1166.45	1.36027
1169.83	0.496674
1173.2	0.078465
1176.58	0.051563
1179.95	0.534771
1183.33	0.053822
1186.7	0.074524
1190.08	0.077244
1193.45	0.092545
1196.83	0.491287
1200.2	0.022644
1203.58	0.054939
1206.95	0.743038
1210.33	0.2089
1213.7	0.2048
1217.08	0.238739
1220.45	0.566376
1223.83	0.264481
1227.2	0.513817
1230.58	0.554268
1233.95	0.554413
1237.33	0.87009
1240.7	0.561226
1244.08	0.513443
1247.45	0.387146
1250.83	0.59465
1254.2	0.937313
1257.58	0.19735
1260.95	0.282017
1264.33	0.837765
1267.7	0.680305
1271.08	0.420235
1274.45	0.681641
1277.82	0.993607
1281.2	1.51707
1284.57	1.08418
1287.95	0.201118
1291.32	0.356316
1294.7	0.29533
1298.07	0.111237
1301.45	0.257862
