Measurement: Raman, 780 nm, unoriented, Raman Data Processed
Mineral: Luetheite
Rruff sample: R060088
Ideal chemistry: Cu^2+^_2_Al_2_(As^5+^O_4_)_2_(OH)_4_H_2_O
Locality: Alum Gulch, Patagonia, Arizona, USA
Source: Andy Anderson
Description: Pale blue fine-grained
Measured chemistry: Cu_2.00_(Al_1.96_Fe^3+^_0.04_)_Σ=2_(As_1.00_O_4_)_2_(OH)_4_·H_2_O; trace amounts of P; OH estimated by charge balance; H_2_O by difference
Raman shift (cm-1)	intensity
144.089	0
146.982	0.956512
149.874	1.64474
152.767	1.06403
155.66	0.424751
158.553	0.258751
161.445	0.034454
164.338	0.034058
167.231	0.134872
170.123	0.592728
173.016	0.754738
175.909	0.843391
178.801	0.976204
181.694	1.2076
184.587	2.45759
187.48	3.1107
190.372	3.57322
193.265	3.99157
196.158	4.85349
199.05	5.96812
201.943	7.50044
204.836	8.42471
207.728	8.75917
210.621	8.96622
213.514	8.72772
216.406	8.64952
219.299	8.15547
222.192	7.29422
225.085	6.0749
227.977	4.39716
230.87	2.18304
233.763	1.75861
236.655	1.36459
239.548	1.76973
242.441	3.66288
245.333	4.12044
248.226	5.52064
251.119	6.47214
254.012	8.33497
256.904	8.94444
259.797	10.4837
262.69	11.0877
265.582	7.28838
268.475	4.58822
271.368	3.63639
274.26	1.32001
277.153	0.63723
280.046	0.52359
282.939	0.277313
285.831	0.058388
288.724	0.700394
291.617	0.765396
294.509	0.233185
297.402	0.054459
300.295	0.255501
303.188	0.401672
306.08	0.065712
308.973	0.160637
311.866	0.464539
314.758	1.95808
317.651	1.8457
320.544	3.18359
323.436	4.14196
326.329	5.28478
329.222	5.73133
332.115	6.62213
335.007	6.69578
337.9	7.30013
340.793	7.42059
343.685	8.17625
346.578	9.22172
349.471	10.3593
352.363	10.7047
355.256	11.7479
358.149	10.6747
361.041	11.2645
363.934	10.1443
366.827	7.37386
369.72	3.68153
372.612	1.98168
375.505	0.761318
378.398	0.318336
381.29	0.077225
384.183	0.020226
387.076	0.114105
389.969	0.189575
392.861	0.01836
395.754	0.056713
398.647	0.09383
401.539	0.283772
404.432	0.000378
407.325	0.021999
410.217	0.512386
413.11	0.629887
416.003	1.25638
418.896	1.59296
421.788	2.24584
424.681	2.94092
427.574	2.95823
430.466	3.62693
433.359	4.08676
436.252	4.57831
439.144	5.50432
442.037	6.74341
444.93	7.43005
447.822	7.25359
450.715	6.62532
453.608	7.80352
456.501	9.05512
459.393	9.75209
462.286	9.12281
465.179	9.26245
468.071	7.70836
470.964	8.10797
473.857	7.85754
476.75	7.9495
479.642	8.38456
482.535	8.53087
485.428	7.90032
488.32	6.79859
491.213	5.41571
494.106	3.71676
496.998	2.18431
499.891	0.967735
502.784	0.285217
505.676	0.591873
508.569	0.170193
511.462	0.756775
514.355	0.553898
517.247	0.477371
520.14	0.3102
523.033	0.001522
525.925	0.717575
528.818	0.601505
531.711	0.481964
534.604	0.446033
537.496	0.48159
540.389	0.970509
543.282	0.269939
546.174	0.483421
549.067	0.202553
551.96	0.729149
554.852	0.077988
557.745	0.041107
560.638	0.084679
563.53	0.334415
566.423	0.220402
569.316	0.063087
572.209	0.305851
575.101	0.063717
577.994	0.648243
580.887	0.066505
583.779	0.254372
586.672	0.689388
589.565	1.18359
592.457	0.611362
595.35	0.851021
598.243	0.906357
601.136	0.908714
604.028	0.423885
606.921	1.07354
609.814	0.781635
612.706	0.937599
615.599	0.702236
618.492	0.192116
621.385	0.559689
624.277	0.473137
627.17	0.32626
630.063	0.635189
632.955	0.595665
635.848	0.461372
638.741	0.330898
641.633	0.597122
644.526	0.252129
647.419	0.822372
650.312	0.703415
653.204	0.010162
656.097	0.527916
658.99	0.667454
661.882	0.127254
664.775	0.434204
667.668	0.557961
670.56	0.450542
673.453	0.484245
676.346	0.588936
679.239	0.340378
682.131	0.560169
685.024	1.04192
687.917	0.46191
690.809	0.708988
693.702	1.13282
696.595	0.573509
699.487	0.660774
702.38	0.745552
705.273	0.96381
708.165	0.583565
711.058	0.839359
713.951	0.783035
716.844	0.708832
719.736	0.426792
722.629	0.441689
725.522	0.150002
728.414	0.28817
731.307	0.307114
734.2	0.159752
737.092	0.080238
739.985	0.042286
742.878	0.07589
745.771	0.047874
748.663	0.180649
751.556	0.128559
754.449	0.003201
757.341	0.023232
760.234	0.171021
763.127	0.015247
766.019	0.108589
768.912	0.566906
771.805	0.570274
774.698	0.726418
777.59	0.466171
780.483	0.679527
783.376	1.06996
786.268	2.19508
789.161	1.86789
792.054	2.08875
794.947	2.99244
797.839	4.93698
800.732	4.08147
803.625	4.84884
806.517	5.76474
809.41	6.89785
812.303	7.32082
815.195	7.82036
818.088	8.47979
820.981	8.22983
823.874	8.59197
826.766	8.29549
829.659	8.08368
832.552	8.26539
835.444	8.02454
838.337	8.91789
841.23	9.33763
844.122	11.1625
847.015	11.8491
849.908	13.5459
852.801	15.1995
855.693	17.3201
858.586	19.7494
861.479	22.0154
864.371	23.6402
867.264	25.964
870.157	26.0989
873.049	25.8449
875.942	21.3258
878.835	16.1393
881.727	11.7503
884.62	7.77178
887.513	5.15282
890.406	2.78725
893.298	2.45554
896.191	1.59834
899.084	0.80513
901.976	0.146446
904.869	0.053421
907.762	0.031078
910.654	0.072483
913.547	0.187984
916.44	0.340584
919.332	0.017586
922.225	0.337109
925.118	0.11412
928.011	0.092495
930.903	0.086357
933.796	0.54908
936.689	0.36911
939.581	0.409378
942.474	0.323841
945.367	1.01057
948.26	0.513161
951.152	0.095104
954.045	0.549221
956.938	0.361202
959.83	0.214764
962.723	0.321037
965.616	0.642673
968.508	0.121384
971.401	0.192635
974.294	0.247757
977.187	0.058765
980.079	0.102535
982.972	0.174191
985.865	0.409458
988.757	0.326736
991.65	0.126629
994.543	0.480915
997.435	0.197498
1000.33	0.769962
1003.22	0.519749
1006.11	0.695324
1009.01	0.47961
1011.9	0.739174
1014.79	0.589317
1017.68	0.655968
1020.58	0.949165
1023.47	0.339134
1026.36	0.514122
1029.26	0.689808
1032.15	0.315529
1035.04	0.965565
1037.93	0.871342
1040.83	0.244133
1043.72	0.240559
1046.61	0.068947
1049.5	0.810352
1052.4	0.182701
1055.29	0.707264
1058.18	0.959526
1061.08	0.655449
1063.97	0.638512
1066.86	0.768951
1069.75	0.526066
1072.65	0.619781
1075.54	0.509449
1078.43	0.804554
1081.32	0.317322
1084.22	0.298042
1087.11	0.343487
1090	0.647484
1092.89	0.426163
1095.79	0.368256
1098.68	0.023827
1101.57	0.051632
1104.46	0.092075
1107.36	0.623161
1110.25	0.144501
1113.14	0.374786
1116.04	0.023548
1118.93	0.211155
1121.82	0.665077
1124.71	0.483074
1127.61	0.074001
1130.5	0.471176
1133.39	0.840916
1136.29	0.737072
1139.18	0.916718
1142.07	1.02243
1144.96	0.607605
1147.86	0.432755
1150.75	0.721947
1153.64	0.445854
1156.53	0.970615
1159.43	0.380608
1162.32	0.626312
1165.21	0.67601
1168.11	0.68932
1171	0.274021
1173.89	0.490639
1176.78	0.441952
1179.68	0.289272
1182.57	0.496113
1185.46	0.06382
1188.35	0.254654
1191.25	0.521389
1194.14	0.428879
1197.03	0.627533
1199.92	0.629871
1202.82	0.753399
1205.71	0.160137
1208.6	0.372845
1211.49	0.003998
1214.39	0.537174
1217.28	0.318691
1220.17	0.319546
1223.07	0.504436
1225.96	0.496952
1228.85	0.164967
