Measurement: Raman, 780 nm, unoriented, Raman Data Processed
Mineral: Lulzacite
Rruff sample: R110147
Ideal chemistry: Sr_2_Fe^2+^_3_Al_4_(PO_4_)_4_(OH)_10_
Locality: Saint-Aubin-des-Ch√¢teaux, Loire-Atlantique, France
Source: Olivier Pourret
Description: Gray glassy and massive, associated with siderite and pyrite
Raman shift (cm-1)	intensity
113.299	0
116.674	2.40351
120.048	4.80886
123.423	11.0344
126.798	8.96854
130.173	8.13063
133.548	4.12386
136.923	1.94915
140.297	4.03089
143.672	4.03043
147.047	2.57409
150.422	0.535116
153.797	0.067699
157.171	0.242221
160.546	0.750237
163.921	0.065408
167.296	0.891573
170.671	0.075561
174.046	1.25961
177.42	1.61524
180.795	1.41849
184.17	1.74463
187.545	2.59055
190.92	2.14883
194.294	2.24835
197.669	1.88701
201.044	2.47539
204.419	2.10961
207.794	2.49328
211.168	2.61473
214.543	3.22008
217.918	4.07071
221.293	3.56727
224.668	4.53086
228.043	4.30007
231.417	4.14985
234.792	1.25295
238.167	1.01716
241.542	0.165916
244.917	0.12619
248.292	0.192132
251.666	0.399392
255.041	0.106302
258.416	0.259307
261.791	0.015495
265.166	0.004568
268.54	0.34265
271.915	1.39002
275.29	3.15713
278.665	3.60536
282.04	4.82499
285.414	5.6058
288.789	7.39942
292.164	5.70812
295.539	4.58216
298.914	3.71034
302.288	1.95879
305.663	2.74409
309.038	4.65081
312.413	3.59309
315.788	3.73657
319.163	5.59238
322.537	7.75597
325.912	10.1527
329.287	9.71975
332.662	7.53007
336.037	6.44725
339.411	5.27412
342.786	4.70892
346.161	5.45122
349.536	5.00507
352.911	5.16394
356.286	3.93926
359.66	3.2153
363.035	3.13584
366.41	3.1161
369.785	1.91738
373.16	1.04531
376.534	0.60916
379.909	0.617559
383.284	0.418614
386.659	0.2971
390.034	0.378639
393.409	1.52839
396.783	1.48703
400.158	2.20805
403.533	2.85167
406.908	4.72077
410.283	5.91875
413.658	7.15897
417.032	9.13263
420.407	12.1045
423.782	10.1139
427.157	6.84706
430.532	3.84207
433.906	2.35418
437.281	3.01634
440.656	3.88295
444.031	3.58601
447.406	3.06001
450.781	4.01556
454.155	5.31181
457.53	4.46181
460.905	2.1378
464.28	1.03402
467.655	0.3049
471.029	0.243564
474.404	0.239471
477.779	0.392869
481.154	1.01658
484.529	4.45479
487.904	6.89257
491.278	10.7792
494.653	14.5188
498.028	16.172
501.403	18.2143
504.778	22.6899
508.152	19.2802
511.527	12.1231
514.902	7.96988
518.277	4.38656
521.652	1.89545
525.026	1.29427
528.401	1.46875
531.776	1.53081
535.151	0.012284
538.526	0.021445
541.9	0.245928
545.275	0.337466
548.65	0.26885
552.025	1.106
555.4	3.91156
558.775	6.19932
562.149	8.96976
565.524	13.5858
568.899	17.103
572.274	16.7204
575.649	19.5227
579.024	22.1066
582.398	19.631
585.773	16.7518
589.148	18.9779
592.523	21.7064
595.898	24.3431
599.273	26.2904
602.647	21.9389
606.022	17.4128
609.397	17.8715
612.772	22.3525
616.146	23.3303
619.521	15.8573
622.896	10.3324
626.271	7.46422
629.646	5.22312
633.021	2.42272
636.395	0.647291
639.77	0.00346
643.145	0.362871
646.52	0.155503
649.895	0.320696
653.269	0.27744
656.644	0.178198
660.019	0.614759
663.394	0.864068
666.769	1.7516
670.144	2.20139
673.518	1.14152
676.893	0.887471
680.268	1.08719
683.643	0.543344
687.018	0.709701
690.393	0.402129
693.767	1.58561
697.142	2.86709
700.517	3.12514
703.892	5.33373
707.267	6.59891
710.641	7.8296
714.016	7.81203
717.391	7.11165
720.766	6.37518
724.141	6.19312
727.515	3.57996
730.89	3.08089
734.265	2.56659
737.64	1.29099
741.015	1.41917
744.39	0.288349
747.764	0.607849
751.139	0.57239
754.514	0.24595
757.889	0.452987
761.264	0.124005
764.639	0.218283
768.013	0.912104
771.388	0.71471
774.763	0.093608
778.138	0.047504
781.513	0.113648
784.887	0.373264
788.262	0.195708
791.637	0.367832
795.012	0.592607
798.387	1.24176
801.761	1.31474
805.136	1.26409
808.511	1.11479
811.886	1.52906
815.261	1.04419
818.636	1.80535
822.01	1.83564
825.385	1.56377
828.76	2.24511
832.135	2.06498
835.51	2.46426
838.885	3.41251
842.259	3.69931
845.634	3.36923
849.009	4.16938
852.384	3.24879
855.759	3.23543
859.133	2.033
862.508	1.29631
865.883	0.539087
869.258	0.305388
872.633	0.417991
876.007	0.093562
879.382	0.022521
882.757	0.18442
886.132	0.058744
889.507	1.60003
892.881	0.583386
896.256	0.807427
899.631	2.59688
903.006	3.29953
906.381	3.40715
909.756	5.39494
913.13	5.33353
916.505	5.39139
919.88	4.33491
923.255	2.51325
926.63	1.43765
930.005	0.635885
933.379	0.051944
936.754	0.027306
940.129	0.17283
943.504	0.079613
946.879	0.747329
950.253	1.54221
953.628	3.33889
957.003	6.85289
960.378	11.8505
963.753	18.9445
967.128	23.4983
970.502	28.969
973.877	33.5902
977.252	42.3576
980.627	57.8409
984.002	74.1605
987.376	89.7333
990.751	89.6486
994.126	66.4295
997.501	38.8064
1000.88	20.586
1004.25	10.4811
1007.62	5.88387
1011	3.36404
1014.38	2.01609
1017.75	0.544863
1021.12	2.05286
1024.5	2.12428
1027.87	3.04385
1031.25	2.48666
1034.62	2.35279
1038	2.00661
1041.37	0.346253
1044.75	0.807458
1048.12	0.011445
1051.5	0.010602
1054.87	0.114238
1058.25	0.011057
1061.62	0.377261
1065	0.603124
1068.37	1.2896
1071.75	1.32551
1075.12	1.89333
1078.5	1.54709
1081.87	2.88485
1085.25	3.64925
1088.62	5.52125
1092	7.92468
1095.37	12.3597
1098.74	16.0529
1102.12	19.9971
1105.49	20.1419
1108.87	20.9496
1112.24	16.3547
1115.62	11.0462
1118.99	8.10111
1122.37	4.33505
1125.74	3.182
1129.12	2.33169
1132.49	0.516724
1135.87	0.654651
1139.24	0.999008
1142.62	0.563235
1145.99	0.273314
1149.37	0.601557
1152.74	0.88849
1156.12	1.1431
1159.49	1.28802
1162.87	0.979243
1166.24	0.670907
1169.62	0.377319
1172.99	0.396685
1176.37	1.11472
1179.74	0.546716
1183.12	0.864426
1186.49	0.232953
1189.87	0.657009
1193.24	0.519999
1196.62	0.914562
1199.99	0.9719
1203.37	0.81015
1206.74	0.618994
1210.11	0.836089
1213.49	0.519276
1216.86	0.894361
1220.24	1.28764
1223.61	1.43075
1226.99	0.551146
1230.36	0.640826
1233.74	0.058935
1237.11	1.56178
1240.49	1.75634
1243.86	1.25484
1247.24	0.805525
1250.61	1.23294
1253.99	0.779027
1257.36	0.830631
1260.74	0.512358
1264.11	0.190403
1267.49	0.456652
1270.86	1.1884
1274.24	2.08046
1277.61	0.214048
1280.98	0.741011
1284.36	0.011265
