Measurement: Raman, 532 nm, unoriented, Raman Data Processed
Mineral: Lulzacite
Rruff sample: R110147
Ideal chemistry: Sr_2_Fe^2+^_3_Al_4_(PO_4_)_4_(OH)_10_
Locality: Saint-Aubin-des-Ch√¢teaux, Loire-Atlantique, France
Source: Olivier Pourret
Description: Gray glassy and massive, associated with siderite and pyrite
Raman shift (cm-1)	intensity
147.382	0
150.275	1.81736
153.167	0.097791
156.06	0.815415
158.953	1.52973
161.845	5.1714
164.738	10.2105
167.631	11.8176
170.524	17.6937
173.416	18.7997
176.309	23.1514
179.202	23.3574
182.094	24.7587
184.987	23.6538
187.88	21.9366
190.773	21.6904
193.665	19.5164
196.558	17.5511
199.451	17.8009
202.343	18.6039
205.236	15.8156
208.129	14.205
211.021	15.4321
213.914	14.6437
216.807	15.12
219.699	14.1947
222.592	16.6356
225.485	17.6398
228.377	16.2747
231.27	12.1078
234.163	8.1769
237.056	5.61831
239.948	1.74188
242.841	1.31954
245.734	0.188057
248.626	0.394505
251.519	0.338402
254.412	0.932831
257.305	1.39104
260.197	1.20238
263.09	1.01399
265.983	3.90012
268.875	4.76609
271.768	9.04686
274.661	11.4611
277.553	13.027
280.446	16.4086
283.339	15.8456
286.232	17.1147
289.124	16.2133
292.017	14.6473
294.91	10.426
297.802	5.35605
300.695	1.48397
303.588	0.023705
306.481	0.261097
309.373	0.051384
312.266	1.13699
315.159	1.77374
318.051	2.48599
320.944	5.40599
323.837	6.95411
326.729	8.72025
329.622	7.43666
332.515	4.96046
335.408	6.37139
338.3	5.99792
341.193	6.13685
344.086	7.15169
346.978	7.81409
349.871	8.65955
352.764	10.4591
355.656	10.1812
358.549	11.0268
361.442	11.2947
364.334	12.9465
367.227	11.8265
370.12	7.44283
373.012	4.69
375.905	1.85818
378.798	0.688103
381.691	1.45936
384.583	0.507988
387.476	0.902428
390.369	6.19982
393.261	8.20381
396.154	7.64163
399.047	10.028
401.94	14.2904
404.832	20.3923
407.725	26.9511
410.618	33.0802
413.51	38.9463
416.403	44.0435
419.296	50.1504
422.188	48.4584
425.081	37.8004
427.974	25.0477
430.866	19.5252
433.759	15.43
436.652	15.2984
439.545	14.313
442.437	14.093
445.33	11.0538
448.223	10.609
451.115	10.0312
454.008	10.5691
456.901	8.5743
459.793	4.75063
462.686	2.35602
465.579	0.800831
468.472	0.407791
471.364	0.081367
474.257	0.171543
477.15	0.384445
480.042	1.95139
482.935	3.09648
485.828	7.54325
488.721	10.476
491.613	15.8546
494.506	20.4917
497.399	25.8679
500.291	30.588
503.184	35.9313
506.077	38.1547
508.969	32.7407
511.862	26.0085
514.755	19.997
517.648	13.4692
520.54	8.38722
523.433	6.63002
526.326	6.37648
529.218	5.7755
532.111	5.08697
535.004	2.33307
537.896	0.675369
540.789	1.29212
543.682	1.29398
546.575	0.689575
549.467	3.1286
552.36	7.88697
555.253	14.5371
558.145	19.7037
561.038	25.4552
563.931	34.0367
566.823	41.9746
569.716	42.0008
572.609	35.5156
575.502	37.0285
578.394	37.0941
581.287	36.2332
584.18	35.9094
587.072	36.7644
589.965	38.6853
592.858	41.2989
595.75	41.5446
598.643	39.5137
601.536	35.5659
604.428	28.9973
607.321	27.8713
610.214	28.9124
613.107	32.048
615.999	31.0375
618.892	22.7364
621.785	17.4151
624.677	16.0127
627.57	12.415
630.463	8.6908
633.356	6.02527
636.248	2.43457
639.141	1.17527
642.034	0.004383
644.926	0.396393
647.819	0.795212
650.712	0.643978
653.604	0.518665
656.497	1.33642
659.39	2.4832
662.283	2.58238
665.175	3.59287
668.068	3.1279
670.961	4.40799
673.853	3.50047
676.746	2.68626
679.639	2.70425
682.531	2.89996
685.424	2.89552
688.317	2.96803
691.21	4.51832
694.102	5.41255
696.995	6.89165
699.888	9.33474
702.78	10.2661
705.673	11.7006
708.566	14.7272
711.458	15.6719
714.351	14.517
717.244	13.8541
720.136	11.5053
723.029	10.9009
725.922	8.19729
728.815	6.02087
731.707	5.15909
734.6	4.00629
737.493	2.63555
740.385	1.5474
743.278	1.5871
746.171	1.41509
749.063	0.962116
751.956	1.21667
754.849	0.214352
757.742	0.933399
760.634	0.293671
763.527	0.438725
766.42	0.188213
769.312	0.464359
772.205	0.090744
775.098	0.424084
777.99	0.085865
780.883	0.388172
783.776	0.149464
786.669	0.229248
789.561	0.896431
792.454	0.81601
795.347	0.833485
798.239	0.612206
801.132	1.22575
804.025	1.27233
806.918	2.10213
809.81	1.70371
812.703	1.50406
815.596	2.51129
818.488	3.23455
821.381	2.74423
824.274	3.49161
827.166	4.69313
830.059	5.15709
832.952	6.21176
835.845	6.81608
838.737	7.40673
841.63	8.58312
844.523	9.77656
847.415	10.3132
850.308	9.09459
853.201	8.38552
856.093	6.74006
858.986	5.51997
861.879	4.95417
864.771	3.04167
867.664	3.40241
870.557	1.93977
873.45	2.04193
876.342	2.09639
879.235	1.57457
882.128	1.46154
885.02	2.69417
887.913	2.40714
890.806	3.24955
893.698	4.16273
896.591	6.65318
899.484	7.05083
902.377	7.86533
905.269	10.4576
908.162	12.3691
911.055	12.8005
913.947	10.8383
916.84	10.2592
919.733	8.55963
922.625	6.66536
925.518	3.56389
928.411	2.19916
931.304	0.290482
934.196	0.62204
937.089	0.810055
939.982	0.784813
942.875	0.423286
945.767	0.655914
948.66	3.9516
951.553	6.31935
954.445	12.6896
957.338	18.7533
960.231	28.665
963.123	37.657
966.016	47.7366
968.909	55.8021
971.802	64.6546
974.694	77.2332
977.587	101.044
980.48	129.745
983.372	159.971
986.265	180.041
989.158	181.085
992.05	148.882
994.943	100.642
997.836	58.6998
1000.73	32.995
1003.62	19.4363
1006.51	11.2811
1009.41	5.74228
1012.3	4.02766
1015.19	3.19949
1018.09	4.03514
1020.98	4.96188
1023.87	5.933
1026.76	7.21282
1029.66	8.75034
1032.55	10.1992
1035.44	8.86579
1038.33	6.75638
1041.23	3.18304
1044.12	0.66909
1047.01	1.10318
1049.9	0.046127
1052.8	1.68903
1055.69	0.110947
1058.58	0.447037
1061.47	1.142
1064.37	3.55945
1067.26	3.58575
1070.15	4.26236
1073.05	3.52709
1075.94	3.86809
1078.83	4.35795
1081.72	5.21457
1084.62	7.16107
1087.51	9.34125
1090.4	12.1456
1093.3	15.8898
1096.19	18.4213
1099.08	23.6703
1101.97	24.807
1104.87	26.7165
1107.76	23.8238
1110.65	19.1967
1113.54	14.8543
1116.44	10.4233
1119.33	7.22744
1122.22	6.05964
1125.12	3.79903
1128.01	1.81525
1130.9	2.53034
1133.79	2.09693
1136.68	0.69302
1139.58	0.069368
1142.47	1.34413
1145.36	0.450247
1148.26	0.002819
1151.15	0.920135
1154.04	1.94022
1156.93	0.674913
1159.83	0.597658
1162.72	0.144909
1165.61	0.180849
1168.51	0.994471
1171.4	0.208733
1174.29	0.380573
1177.18	1.06401
1180.08	0.821865
1182.97	0.785559
1185.86	0.055874
1188.75	0.672503
1191.65	1.71384
1194.54	0.828005
1197.43	2.31817
1200.33	1.64836
1203.22	1.70827
1206.11	3.56837
1209	1.8919
1211.9	2.57598
1214.79	2.65754
1217.68	2.93132
1220.57	1.48628
1223.47	2.39813
1226.36	2.36548
1229.25	1.74696
1232.14	2.11566
1235.04	2.3065
1237.93	2.41205
1240.82	2.2839
1243.71	1.07698
1246.61	1.56883
1249.5	0.25075
1252.39	1.61344
1255.29	0.813625
1258.18	1.69882
1261.07	1.21736
1263.96	1.57583
1266.86	1.4299
1269.75	0.674564
1272.64	0.768299
1275.54	0.760813
1278.43	0.507431
1281.32	0.02142
1284.21	0.436453
1287.11	1.3748
1290	1.20251
1292.89	0.372917
1295.78	0.026237
1298.68	0.34075
1301.57	0.205708
