Measurement: Raman, 785 nm, unoriented, Raman Data Processed
Mineral: Luzonite
Rruff sample: R070247
Ideal chemistry: Cu_3_AsS_4_
Locality: Huaron Mining District, San Jose de Huayllay district, Cerro de Pasco, Alcides Carrión Province, Pasco department, Peru
Source: Michael Scott
Description: Black metallic crystals with pinkish hue. The electron microscope image shows three distinct fine-scale phases related to As and Sb content
Measured chemistry: Cu_3.01_(As_0.67_Sb_0.31_)_Σ=0.98_S_4_; (Light), Cu_3.00_(As_0.74_Sb_0.22_)_Σ=0.96_S_4_ (Inter. gray), Cu_3.01_(As_0.84_Sb_0.16_)_Σ=1.00_S_4_ (Dark)
Raman shift (cm-1)	intensity
152.357	0
155.25	6.86957
158.142	5.69757
161.035	7.42953
163.928	0.227936
166.821	24.7854
169.713	57.0792
172.606	49.9873
175.499	52.6975
178.391	48.1846
181.284	49.0535
184.177	37.9473
187.069	65.5788
189.962	61.2005
192.855	68.8637
195.748	67.4892
198.64	74.4069
201.533	50.8891
204.426	38.4794
207.318	26.8417
210.211	28.4582
213.104	13.2666
215.996	7.03308
218.889	18.5395
221.782	4.40582
224.674	8.3562
227.567	9.60046
230.46	22.0258
233.353	4.45123
236.245	7.07092
239.138	60.3379
242.031	97.2106
244.923	131.233
247.816	184.588
250.709	251.078
253.601	296.853
256.494	321.624
259.387	290.466
262.28	281.841
265.172	240.798
268.065	213.5
270.958	193.393
273.85	213.536
276.743	202.07
279.636	200.581
282.529	124.954
285.421	94.6831
288.314	39.8962
291.207	61.1562
294.099	95.4323
296.992	133.393
299.885	222.919
302.777	344.151
305.67	579.063
308.563	898.537
311.455	1324.21
314.348	1793.41
317.241	2370.29
320.134	3017.23
323.026	3599.72
325.919	3676.69
328.812	2853.11
331.704	1658.14
334.597	808.295
337.49	456.433
340.382	295.797
343.275	285.385
346.168	332.023
349.061	460.062
351.953	552.821
354.846	514.782
357.739	438.282
360.631	356.703
363.524	334.414
366.417	266.166
369.31	183.744
372.202	115.562
375.095	85.9792
377.988	55.6206
380.88	19.8219
383.773	2.87561
386.666	11.8738
389.558	2.71051
392.451	3.93103
395.344	22.8932
398.236	1.8634
401.129	8.49982
404.022	9.39496
406.915	13.1386
409.807	8.42651
412.7	4.21643
415.593	8.97907
418.485	2.42041
421.378	15.7211
424.271	29.4618
427.163	14.0077
430.056	40.6161
432.949	22.6049
435.842	34.4435
438.734	41.8194
441.627	61.5757
444.52	69.496
447.412	47.4325
450.305	69.5648
453.198	48.6282
456.091	46.3187
458.983	44.2585
461.876	58.8088
464.769	44.2899
467.661	42.7719
470.554	36.9814
473.447	45.7656
476.339	21.3972
479.232	24.0422
482.125	15.1962
485.017	19.939
487.91	17.1286
490.803	33.723
493.696	22.5111
496.588	22.4372
499.481	26.0756
502.374	29.9169
505.266	14.4011
508.159	23.4041
511.052	15.7202
513.944	19.5572
516.837	15.9534
519.73	15.3329
522.623	2.48743
525.515	15.5965
528.408	13.0062
531.301	3.73144
534.193	14.1313
537.086	5.24976
539.979	1.9115
542.871	13.6559
545.764	1.7262
548.657	15.3618
551.55	3.38531
554.442	2.01416
557.335	10.3619
560.228	2.08411
563.12	4.32501
566.013	12.9126
568.906	24.8783
571.798	10.2359
574.691	2.72614
577.584	40.4991
580.477	22.1229
583.369	20.7312
586.262	43.7062
589.155	35.2349
592.047	27.6939
594.94	23.8342
597.833	23.8527
600.726	32.3864
603.618	21.465
606.511	37.4938
609.404	7.01752
612.296	20.7658
615.189	24.8601
618.082	27.7906
620.974	41.3868
623.867	45.335
626.76	67.6426
629.653	83.5622
632.545	101.672
635.438	128.543
638.331	161.401
641.223	207.029
644.116	183.496
647.009	192.505
649.901	196.689
652.794	163.529
655.687	124.801
658.58	98.1026
661.472	81.6633
664.365	49.9911
667.258	32.5533
670.15	24.5697
673.043	23.723
675.936	34.7685
678.828	30.8587
681.721	35.9433
684.614	41.3593
687.506	18.2714
690.399	26.8032
693.292	47.2563
696.185	39.7259
699.077	47.565
701.97	13.2374
704.863	42.9044
707.755	19.6473
710.648	4.71527
713.541	0.619995
716.433	2.98706
719.326	12.627
722.219	8.15723
725.112	6.48212
728.004	12.6349
730.897	9.84674
733.79	3.7265
736.682	7.21124
739.575	4.8338
742.468	10.7593
745.361	10.3229
748.253	8.92731
751.146	13.7257
754.039	10.9966
756.931	8.31677
759.824	19.6189
762.717	8.86383
765.609	22.3885
768.502	14.4558
771.395	7.93286
774.288	6.42804
777.18	11.2526
780.073	7.80865
782.966	6.25128
785.858	21.3507
788.751	0.891418
791.644	24.0739
794.536	19.1938
797.429	21.3005
800.322	27.7375
803.215	14.0507
806.107	2.08197
809	10.1023
811.893	23.6863
814.785	25.6423
817.678	17.1222
820.571	14.821
823.463	11.6495
826.356	16.4984
829.249	16.1102
832.141	18.4527
835.034	3.86243
837.927	15.5914
840.82	10.2871
843.712	20.2915
846.605	7.58118
849.498	9.14911
852.39	17.0815
855.283	15.4789
858.176	2.18646
861.068	31.0096
863.961	10.5803
866.854	1.08514
869.747	12.1787
872.639	8.91339
875.532	19.9217
878.425	0.696228
881.317	6.35022
884.21	10.1073
887.103	8.12024
889.995	18.1196
892.888	7.47003
895.781	17.2891
898.674	16.3578
901.566	2.83832
904.459	15.6834
907.352	11.1496
910.244	15.1367
913.137	0.432007
916.03	21.899
918.923	9.27557
921.815	0.834961
924.708	4.10132
927.601	4.72607
930.493	6.14056
933.386	21.5108
936.279	3.2713
939.171	20.5082
942.064	13.8276
944.957	21.0222
947.85	15.5566
950.742	21.4675
953.635	28.6352
956.528	18.1849
959.42	25.9847
962.313	30.773
965.206	26.9103
968.098	32.4442
970.991	47.3466
973.884	34.001
976.777	52.4314
979.669	41.2081
982.562	51.913
985.455	32.657
988.347	29.6976
991.24	16.8386
994.133	27.8723
997.025	28.9714
999.918	11.2492
1002.81	11.5009
1005.7	21.2754
1008.6	3.17944
1011.49	23.8334
1014.38	4.52777
1017.27	16.8738
1020.17	19.1851
1023.06	25.2971
1025.95	5.83276
1028.85	23.0159
1031.74	6.77588
1034.63	4.83392
1037.52	33.8499
1040.42	7.21387
1043.31	8.54724
1046.2	24.3997
1049.09	13.522
1051.99	5.08673
1054.88	16.3326
1057.77	22.3417
1060.66	22.2892
1063.56	5.53644
1066.45	30.9828
1069.34	11.0023
1072.24	10.2217
1075.13	0.190491
1078.02	13.8665
1080.91	25.8877
1083.81	32.3543
1086.7	25.4537
1089.59	29.9977
1092.48	21.5506
1095.38	16.3688
1098.27	27.374
1101.16	22.1197
1104.06	34.203
1106.95	10.2579
1109.84	31.4793
1112.73	14.2449
1115.63	24.6375
1118.52	25.0783
1121.41	21.4274
1124.3	12.9634
1127.2	24.9881
1130.09	23.765
1132.98	5.52527
1135.88	8.21612
1138.77	33.6358
1141.66	26.4736
1144.55	27.6912
1147.45	24.3042
1150.34	15.73
1153.23	10.5623
1156.12	7.66351
1159.02	5.24158
1161.91	15.4959
1164.8	12.8447
1167.69	16.1258
1170.59	25.6548
1173.48	0.119019
1176.37	19.434
1179.27	22.5945
1182.16	10.1322
1185.05	2.65051
1187.94	18.1041
1190.84	19.7015
1193.73	12.1245
1196.62	25.8151
1199.51	22.392
1202.41	21.3496
1205.3	15.1558
1208.19	21.1766
1211.09	17.0662
1213.98	10.723
1216.87	7.56934
1219.76	8.47876
1222.66	24.685
1225.55	11.704
1228.44	5.52325
1231.33	2.54767
1234.23	7.3269
