Measurement: Raman, 532 nm, unoriented, Raman Data Processed
Mineral: Luzonite
Rruff sample: R070247
Ideal chemistry: Cu_3_AsS_4_
Locality: Huaron Mining District, San Jose de Huayllay district, Cerro de Pasco, Alcides Carrión Province, Pasco department, Peru
Source: Michael Scott
Description: Black metallic crystals with pinkish hue. The electron microscope image shows three distinct fine-scale phases related to As and Sb content
Measured chemistry: Cu_3.01_(As_0.67_Sb_0.31_)_Σ=0.98_S_4_; (Light), Cu_3.00_(As_0.74_Sb_0.22_)_Σ=0.96_S_4_ (Inter. gray), Cu_3.01_(As_0.84_Sb_0.16_)_Σ=1.00_S_4_ (Dark)
Raman shift (cm-1)	intensity
141.948	0
145.323	11.1642
148.698	9.12085
152.072	72.0222
155.447	120.223
158.822	112.655
162.197	102.523
165.572	73.0938
168.946	77.7207
172.321	63.2806
175.696	71.2734
179.071	56.1292
182.446	76.5948
185.821	67.7045
189.195	68.874
192.57	66.3738
195.945	66.9149
199.32	35.8324
202.695	24.6592
206.07	57.0518
209.444	5.02539
212.819	11.8086
216.194	5.22693
219.569	18.3503
222.944	44.5848
226.318	14.7363
229.693	27.4961
233.068	33.6995
236.443	50.1161
239.818	127.112
243.192	171.198
246.567	307.532
249.942	366.933
253.317	434.871
256.692	477.624
260.067	497.633
263.441	551.748
266.816	542.387
270.191	592.915
273.566	625.352
276.941	596.803
280.315	434.925
283.69	234.698
287.065	124.524
290.44	35.2405
293.815	33.0808
297.19	96.0508
300.564	159.149
303.939	269.946
307.314	499.924
310.689	770.844
314.064	1188.97
317.438	1648.35
320.813	2216.16
324.188	2486.66
327.563	2045.52
330.938	1124.69
334.313	506.64
337.687	317.318
341.062	312.291
344.437	460.226
347.812	648.422
351.187	813.61
354.562	821.339
357.936	844.702
361.311	847.984
364.686	809.283
368.061	688.063
371.436	467.7
374.81	338.606
378.185	230.924
381.56	169.163
384.935	90.1998
388.31	70.4641
391.685	14.6753
395.059	11.7642
398.434	25.0507
401.809	1.17798
405.184	3.17615
408.559	29.0585
411.933	24.2899
415.308	9.14941
418.683	20.3015
422.058	28.8102
425.433	5.0221
428.808	34.5912
432.182	50.2289
435.557	42.4175
438.932	45.516
442.307	60.5583
445.682	48.9395
449.056	69.314
452.431	58.3888
455.806	91.2184
459.181	79.2423
462.556	62.6324
465.93	62.4182
469.305	72.296
472.68	96.1628
476.055	80.6158
479.43	81.322
482.805	62.4453
486.179	48.9503
489.554	57.3492
492.929	48.4631
496.304	30.1459
499.679	37.8557
503.053	45.8499
506.428	40.8326
509.803	25.6895
513.178	42.8209
516.553	54.7014
519.928	33.9048
523.302	2.23975
526.677	12.6046
530.052	21.5158
533.427	12.7793
536.802	13.6033
540.177	2.9729
543.551	21.1173
546.926	28.7841
550.301	23.1963
553.676	7.96277
557.051	6.21948
560.425	8.65283
563.8	10.5017
567.175	21.4075
570.55	36.908
573.925	0.415771
577.299	25.7388
580.674	9.99463
584.049	14.021
587.424	36.3501
590.799	4.75561
594.174	27.0957
597.548	54.5657
600.923	50.7085
604.298	0.330811
607.673	11.5032
611.048	24.4717
614.423	2.87769
617.797	19.4678
621.172	17.0686
624.547	64.0674
627.922	27.7478
631.297	85.3628
634.671	76.6201
638.046	107.435
641.421	130.04
644.796	164.448
648.171	117.24
651.545	129.201
654.92	108.019
658.295	46.8127
661.67	92.0811
665.045	50.7683
668.42	61.0254
671.794	51.8813
675.169	55.4224
678.544	49.4617
681.919	65.1489
685.294	57.9871
688.668	77.8352
692.043	45.5129
695.418	87.3533
698.793	43.1065
702.168	61.4978
705.543	42.7974
708.917	14.8855
712.292	27.7102
715.667	36.2415
719.042	30.666
722.417	35.1604
725.792	5.96069
729.166	34.0076
732.541	26.8677
735.916	16.6846
739.291	26.1721
742.666	40.123
746.04	1.24829
749.415	17.6025
752.79	42.779
756.165	6.98608
759.54	20.4023
762.915	10.3843
766.289	11.4168
769.664	15.7866
773.039	21.8789
776.414	13.0398
779.789	27.2676
783.163	23.6043
786.538	51.9099
789.913	34.9336
793.288	13.3206
796.663	39.8586
800.038	48.3687
803.412	42.6851
806.787	9.85059
810.162	8.92944
813.537	16.5554
816.912	45.3667
820.286	50.1648
823.661	5.59033
827.036	33.6931
830.411	28.7358
833.786	55.4236
837.16	8.11352
840.535	0.288818
843.91	40.5791
847.285	26.9341
850.66	10.4932
854.035	7.29614
857.409	24.0102
860.784	15.3154
864.159	14.5928
867.534	21.3103
870.909	41.312
874.284	34.7263
877.658	27.5044
881.033	17.8159
884.408	26.4661
887.783	26.9243
891.158	52.1665
894.533	25.2656
897.907	14.46
901.282	27.6504
904.657	38.1665
908.032	25.8464
911.407	33.5913
914.781	5.64429
918.156	26.4722
921.531	30.3611
924.906	39.8782
928.281	21.241
931.655	7.33545
935.03	16.3198
938.405	10.231
941.78	20.3372
945.155	18.6194
948.529	21.0671
951.904	50.7029
955.279	42.2505
958.654	21.0435
962.029	67.2449
965.404	68.9426
968.778	45.7642
972.153	47.4702
975.528	42.6404
978.903	54.8428
982.278	56.8655
985.653	13.1531
989.027	6.12256
992.402	10.2246
995.777	23.4509
999.152	19.5681
1002.53	36.7874
1005.9	1.37842
1009.28	40.0803
1012.65	72.5286
1016.03	69.5811
1019.4	41.3862
1022.78	54.2507
1026.15	34.8379
1029.53	39.4834
1032.9	48.188
1036.28	61.6414
1039.65	5.00659
1043.02	40.1501
1046.4	40.4514
1049.77	18.2864
1053.15	26.4185
1056.52	30.6567
1059.9	12.9158
1063.27	12.5383
1066.65	25.0039
1070.02	62.001
1073.4	33.842
1076.77	14.4045
1080.15	29.3281
1083.52	33.4739
1086.9	10.7798
1090.27	46.9172
1093.65	19.946
1097.02	14.9314
1100.4	18.7976
1103.77	24.209
1107.15	40.7419
1110.52	22.0071
1113.9	1.86157
1117.27	2.62158
1120.64	43.4978
1124.02	43.6873
1127.39	52.4866
1130.77	53.0325
1134.14	27.6274
1137.52	71.1152
1140.89	51.5679
1144.27	52.0603
1147.64	53.8599
1151.02	46.4993
1154.39	53.7856
1157.77	52.5637
1161.14	2.15015
1164.52	21.8096
1167.89	51.3023
1171.27	24.8289
1174.64	19.6763
1178.02	82.9421
1181.39	23.4043
1184.77	1.11719
1188.14	3.48096
1191.52	7.07715
1194.89	12.8765
1198.27	15.9485
1201.64	11.5769
1205.02	6.13501
1208.39	5.91748
1211.77	29.6592
1215.14	31.1414
1218.52	22.0564
1221.89	47.4827
1225.27	4.40991
1228.64	4.68335
1232.01	12.7437
1235.39	3.16528
1238.76	56.4915
1242.14	21.5303
1245.51	19.7234
1248.89	62.4724
1252.26	28.25
1255.64	25.6668
1259.01	29.1523
1262.39	79.7656
1265.76	54.6934
1269.14	50.9165
1272.51	59.3792
1275.89	51.4075
1279.26	64.7947
1282.64	4.38501
1286.01	14.2012
1289.39	69.3362
1292.76	20.2947
1296.14	56.4871
1299.51	0.306152
