Measurement: Raman, 532 nm, unoriented, Raman Data Processed
Mineral: Macdonaldite
Rruff sample: R060770
Ideal chemistry: BaCa_4_Si_16_O_36_(OH)_2_10H_2_O
Locality: Rush Creek, Fresno County, California, USA
Source: Michael Scott
Description: Radiating aggregates of white platy crystals
Raman shift (cm-1)	intensity
153.825	0
156.717	9.64795
159.61	109.69
162.503	405.237
165.395	469.296
168.288	521.696
171.181	602.317
174.073	612.835
176.966	652.468
179.859	789.715
182.751	903.037
185.644	1131.14
188.537	1237.09
191.43	1388.72
194.322	1303.41
197.215	1318.1
200.108	1421.13
203	1531.77
205.893	1788.85
208.786	1775.99
211.678	1871.25
214.571	1866.8
217.464	1860.95
220.357	1932.91
223.249	1769.06
226.142	1537.95
229.035	1250.67
231.927	1073.21
234.82	968.261
237.713	910.221
240.605	920.235
243.498	959.485
246.391	1055.34
249.284	1079.96
252.176	914.32
255.069	866.821
257.962	850.494
260.854	776.63
263.747	757.991
266.64	684.94
269.533	395.519
272.425	188.934
275.318	32.4556
278.211	10.541
281.103	34.0259
283.996	107.68
286.889	137.932
289.781	297.616
292.674	299.328
295.567	180.848
298.46	46.4849
301.352	93.2075
304.245	82.6084
307.138	66.2578
310.03	2.20312
312.923	134.708
315.816	301.55
318.708	101.795
321.601	108.306
324.494	320.612
327.387	599.234
330.279	929.419
333.172	1309.99
336.065	1160.51
338.957	1205.77
341.85	1251.6
344.743	1162.39
347.635	967.652
350.528	840.451
353.421	694.901
356.314	546.039
359.206	296.627
362.099	100.475
364.992	25.4155
367.884	77.9292
370.777	38.9565
373.67	42.6128
376.562	50.2559
379.455	100.936
382.348	240.879
385.241	389.188
388.133	699.366
391.026	901.12
393.919	1192.61
396.811	1552.15
399.704	2003.04
402.597	2228.45
405.489	2404.35
408.382	2345.3
411.275	2034.89
414.167	1775.28
417.06	1596.21
419.953	1773.81
422.846	2180.5
425.738	2936.03
428.631	3822.2
431.524	4546.92
434.416	4715.29
437.309	4214.09
440.202	3493.71
443.095	2856.63
445.987	2369.37
448.88	2288.79
451.773	2448.74
454.665	2838.16
457.558	3531.4
460.451	4390.81
463.343	5439.23
466.236	6190.2
469.129	5991.36
472.021	4574.28
474.914	3173.65
477.807	2205.43
480.699	1407.17
483.592	1044.44
486.485	847.723
489.378	598.062
492.27	439.885
495.163	189.401
498.056	123.025
500.948	11.5474
503.841	125.003
506.734	73.0386
509.626	74.2163
512.519	47.0591
515.412	18.73
518.305	188.379
521.197	429.935
524.09	733.228
526.983	1311.26
529.875	1806.2
532.768	2346.1
535.661	2421.06
538.554	1674.6
541.446	835.71
544.339	411.603
547.232	219.814
550.124	174.672
553.017	205.072
555.91	240.72
558.802	256.693
561.695	249.668
564.588	243.074
567.481	155.391
570.373	82.27
573.266	51.5757
576.159	0.173828
579.051	1.27393
581.944	17.4087
584.837	32.979
587.729	67.1494
590.622	112.877
593.515	129.718
596.407	180.902
599.3	174.659
602.193	61.4805
605.086	50.063
607.978	43.3135
610.871	5.44238
613.764	64.9219
616.656	17.8189
619.549	67.4604
622.442	55.876
625.334	84.8872
628.227	11.4771
631.12	29.0674
634.013	50.3262
636.905	40.6001
639.798	7.09326
642.691	19.0303
645.583	7.61523
648.476	42.8745
651.369	81.5874
654.261	179.925
657.154	144.873
660.047	139.733
662.94	81.1894
665.832	109.274
668.725	144.661
671.618	189.756
674.51	245.935
677.403	260.6
680.296	373.852
683.188	361.606
686.081	252.028
688.974	226.366
691.867	140.819
694.759	160.596
697.652	91.0679
700.545	54.9312
703.437	87.4595
706.33	45.3125
709.223	51.5566
712.115	49.7041
715.008	7.88428
717.901	30.728
720.794	39.7368
723.686	27.6206
726.579	13.7075
729.472	5.14746
732.364	34.727
735.257	58.9214
738.15	28.8335
741.042	63.9756
743.935	81.5615
746.828	178.875
749.721	160.462
752.613	29.8686
755.506	207.042
758.399	280.956
761.291	343.016
764.184	413.344
767.077	530.57
769.969	676.914
772.862	727.618
775.755	782.906
778.648	828.08
781.54	818.529
784.433	775.915
787.326	645.094
790.218	558.293
793.111	570.215
796.004	509.646
798.896	384.196
801.789	424.907
804.682	362.275
807.575	305.505
810.467	218.146
813.36	263.446
816.253	213.774
819.145	141.227
822.038	181.272
824.931	148.483
827.823	93.5459
830.716	55.7642
833.609	4.23633
836.502	27.5913
839.394	71.7061
842.287	10.9751
845.18	11.2612
848.072	52.4009
850.965	7.74365
853.858	34.602
856.75	8.93701
859.643	40.1704
862.536	40.9477
865.429	48.0029
868.321	35.8325
871.214	18.9561
874.107	32.9815
876.999	25.4355
879.892	43.4443
882.785	43.6094
885.677	0.745605
888.57	49.6221
891.463	40.4995
894.356	132.301
897.248	42.3648
900.141	43.521
903.034	10.5537
905.926	38.7153
908.819	32.9922
911.712	18.4663
914.604	2.87891
917.497	30.9311
920.39	138.36
923.282	134.799
926.175	235.972
929.068	351.422
931.961	627.076
934.853	579.567
937.746	525.842
940.639	422
943.531	336.354
946.424	241.086
949.317	134.891
952.209	63.7827
955.102	49.4268
957.995	90.7993
960.888	89.8916
963.78	1.70752
966.673	18.2881
969.566	40.3042
972.458	44.6177
975.351	8.05762
978.244	64.5503
981.136	115.583
984.029	272.466
986.922	320.207
989.815	277.688
992.707	111.842
995.6	126.885
998.493	86.3291
1001.38	139.865
1004.28	119.661
1007.17	173.376
1010.06	236.958
1012.96	345.314
1015.85	381.378
1018.74	507.562
1021.63	545.342
1024.53	662.942
1027.42	776.799
1030.31	909.703
1033.2	1128.39
1036.1	1472.01
1038.99	1890.78
1041.88	2542.51
1044.78	3431.95
1047.67	4460.87
1050.56	5314.68
1053.45	5442.95
1056.35	4430.35
1059.24	3085.69
1062.13	2158.19
1065.03	1767.79
1067.92	1873.02
1070.81	2243.43
1073.7	3017.18
1076.6	3819.12
1079.49	2643.29
1082.38	958.247
1085.27	495.288
1088.17	236.74
1091.06	158.855
1093.95	120.405
1096.84	52.5044
1099.74	50.8535
1102.63	94.2461
1105.52	27.6655
1108.41	40.4717
1111.31	41.0356
1114.2	13.4653
1117.09	0.022461
1119.99	28.334
1122.88	43.6118
1125.77	4.01416
1128.66	68.2456
1131.56	87.1167
1134.45	48.3315
1137.34	44.2817
1140.23	90.1724
1143.13	142.186
1146.02	91.8345
1148.91	160.197
1151.81	157.222
1154.7	216.421
1157.59	341.354
1160.48	401.247
1163.38	544.192
1166.27	655.923
1169.16	729.669
1172.06	716.58
1174.95	640.491
1177.84	536.415
1180.73	400.747
1183.62	336.948
1186.52	268.289
1189.41	238.845
1192.3	243.41
1195.2	226.9
1198.09	301.469
1200.98	342.766
1203.87	382.376
1206.77	359.087
1209.66	302.603
1212.55	286.986
1215.44	226.274
1218.34	139.307
1221.23	103.179
1224.12	48.5112
1227.02	71.415
1229.91	123.486
1232.8	54.3066
1235.69	76.313
1238.59	50.1294
1241.48	44.5908
1244.37	76.7764
1247.27	62.0947
1250.16	52.0596
1253.05	23.3311
1255.94	48.3325
1258.84	65.0825
1261.73	35.0645
1264.62	76.3799
1267.51	31.2876
1270.41	51.8169
1273.3	72.0669
1276.19	21.8506
1279.08	29.9971
