Measurement: Raman, 785 nm, unoriented, Raman Data Processed
Mineral: Macdonaldite
Rruff sample: R060770
Ideal chemistry: BaCa_4_Si_16_O_36_(OH)_2_10H_2_O
Locality: Rush Creek, Fresno County, California, USA
Source: Michael Scott
Description: Radiating aggregates of white platy crystals
Raman shift (cm-1)	intensity
159.615	0
162.508	3.79688
165.4	52.3579
168.293	193.234
171.186	203.624
174.078	170.517
176.971	127.168
179.864	135.495
182.757	127.763
185.649	171.565
188.542	197.856
191.435	275.161
194.327	243.364
197.22	239.394
200.113	264.354
203.005	317.202
205.898	327.523
208.791	337.32
211.684	366.105
214.576	336.834
217.469	384.119
220.362	412.171
223.254	474.596
226.147	412.249
229.04	393.58
231.932	306.431
234.825	265.308
237.718	289.169
240.611	311.656
243.503	349.869
246.396	343.287
249.289	387.573
252.181	337.959
255.074	309.356
257.967	290.564
260.859	268.266
263.752	251.269
266.645	213.812
269.538	131.295
272.43	44.0046
275.323	10.3918
278.216	1.09082
281.108	7.51978
284.001	41.2521
286.894	64.9491
289.786	53.067
292.679	112.907
295.572	62.8075
298.465	28.4497
301.357	8.84314
304.25	39.6686
307.143	17.3011
310.035	29.0807
312.928	89.8175
315.821	110.737
318.713	38.1848
321.606	34.6989
324.499	119.976
327.392	184.607
330.284	331.161
333.177	426.686
336.07	385.758
338.962	395.299
341.855	419.069
344.748	392.315
347.64	343.717
350.533	294.206
353.426	281.321
356.319	131.753
359.211	120.493
362.104	55.6385
364.997	13.4224
367.889	8.35248
370.782	41.2073
373.675	15.6101
376.567	20.4166
379.46	35.2555
382.353	83.8523
385.246	159.467
388.138	245.059
391.031	311.926
393.924	497.635
396.816	677.384
399.709	861.509
402.602	1019.27
405.494	1093.36
408.387	1049.77
411.28	894.104
414.172	688.109
417.065	544.844
419.958	499.559
422.851	587.519
425.743	828.077
428.636	1104.32
431.529	1324.26
434.421	1357.51
437.314	1231.8
440.207	1052.63
443.099	838.989
445.992	757.524
448.885	715.994
451.778	754.158
454.67	831.931
457.563	996.953
460.456	1378.21
463.348	1797.78
466.241	2055.9
469.134	1963.7
472.026	1410.62
474.919	978.694
477.812	638.051
480.705	390.067
483.597	262.196
486.49	217.213
489.383	198.608
492.275	125.166
495.168	85.5984
498.061	54.0798
500.953	8.44714
503.846	9.33606
506.739	28.4598
509.632	38.6219
512.524	7.72058
515.417	29.1198
518.31	30.9655
521.202	74.8962
524.095	138.333
526.988	336.258
529.88	559.828
532.773	728.491
535.666	748.389
538.559	499.366
541.451	253.475
544.344	135.761
547.237	66.887
550.129	94.6648
553.022	65.7618
555.915	57.3118
558.807	59.0275
561.7	85.3744
564.593	56.8708
567.486	32.974
570.378	9.36585
573.271	8.4101
576.164	1.3891
579.056	44.5287
581.949	10.8712
584.842	24.4351
587.734	34.6879
590.627	22.2183
593.52	63.1319
596.413	52.4847
599.305	43.9013
602.198	20.7761
605.091	37.5096
607.983	1.66449
610.876	17.8301
613.769	34.9395
616.661	19.5339
619.554	18.6073
622.447	3.30493
625.34	1.45001
628.232	2.47272
631.125	1.46863
634.018	2.78607
636.91	0.514282
639.803	10.1213
642.696	2.25543
645.589	6.37726
648.481	45.5288
651.374	19.7136
654.267	14.0612
657.159	41.1351
660.052	26.1334
662.945	29.8885
665.837	34.0947
668.73	37.6539
671.623	89.4051
674.516	109.199
677.408	105.495
680.301	133.2
683.194	107.91
686.086	93.2054
688.979	88.2874
691.872	53.3313
694.764	39.2148
697.657	40.2448
700.55	46.1016
703.443	29.5593
706.335	10.5982
709.228	14.4102
712.121	23.8697
715.013	14.1744
717.906	3.13507
720.799	23.0679
723.691	21.4408
726.584	11.8225
729.477	12.3282
732.37	13.4796
735.262	1.72211
738.155	32.8458
741.048	11.4157
743.94	20.9778
746.833	10.2734
749.726	20.939
752.618	52.6908
755.511	44.2442
758.404	58.4697
761.297	81.2155
764.189	87.0431
767.082	81.3994
769.975	97.9364
772.867	153.698
775.76	157.946
778.653	167.506
781.545	138.287
784.438	165.566
787.331	120.361
790.224	87.3927
793.116	88.5766
796.009	91.9349
798.902	87.1688
801.794	62.2623
804.687	63.0699
807.58	70.2197
810.472	71.1043
813.365	81.3991
816.258	78.8719
819.151	109.544
822.043	79.6872
824.936	61.378
827.829	59.6247
830.721	59.0137
833.614	35.4738
836.507	9.7977
839.399	2.66776
842.292	3.44989
845.185	8.16406
848.078	18.2991
850.97	15.1836
853.863	4.63965
856.756	6.37
859.648	15.057
862.541	11.5869
865.434	32.745
868.326	20.6853
871.219	16.6065
874.112	11.0239
877.005	17.5771
879.897	15.4303
882.79	28.926
885.683	26.5126
888.575	25.7826
891.468	27.5513
894.361	21.4521
897.253	7.97653
900.146	13.0714
903.039	0.390198
905.932	3.20206
908.824	16.0118
911.717	1.90677
914.61	19.6315
917.502	11.3935
920.395	11.8286
923.288	9.50967
926.18	67.917
929.073	82.5601
931.966	139.592
934.859	143.893
937.751	147.237
940.644	152.287
943.537	126.284
946.429	80.1653
949.322	17.2709
952.215	13.4813
955.107	28.6002
958	24.7585
960.893	52.8481
963.786	6.47723
966.678	15.9952
969.571	31.7723
972.464	9.00421
975.356	16.323
978.249	2.19153
981.142	51.313
984.034	97.4661
986.927	147.556
989.82	79.5816
992.713	13.8618
995.605	8.81836
998.498	24.2405
1001.39	17.1275
1004.28	24.7491
1007.18	47.9969
1010.07	84.4144
1012.96	90.712
1015.85	136.191
1018.75	147.292
1021.64	133.316
1024.53	163.064
1027.42	202.882
1030.32	231.339
1033.21	254.306
1036.1	335.143
1039	401.203
1041.89	559.472
1044.78	732.944
1047.67	1038.35
1050.57	1220.19
1053.46	1211.76
1056.35	935.695
1059.24	648.562
1062.14	435.466
1065.03	324.233
1067.92	266.212
1070.82	375.685
1073.71	579.37
1076.6	779.114
1079.49	457.476
1082.39	167.741
1085.28	77.6806
1088.17	57.4372
1091.06	41.1992
1093.96	47.1296
1096.85	14.3071
1099.74	23.9465
1102.63	10.2935
1105.53	24.4682
1108.42	17.2037
1111.31	1.30295
1114.21	17.7881
1117.1	2.45337
1119.99	6.32526
1122.88	8.54321
1125.78	8.26352
1128.67	31.1178
1131.56	28.7708
1134.45	26.0166
1137.35	18.4933
1140.24	30.7038
1143.13	35.5007
1146.03	2.17047
1148.92	33.3706
1151.81	46.1951
1154.7	53.879
1157.6	67.6497
1160.49	105.006
1163.38	114.696
1166.27	147.33
1169.17	157.295
1172.06	141.557
1174.95	122.583
1177.85	103.44
1180.74	90.9334
1183.63	77.2931
1186.52	49.7999
1189.42	75.5207
1192.31	71.6724
1195.2	72.5944
1198.09	38.7038
1200.99	112.695
1203.88	78.4285
1206.77	74.103
1209.66	84.5612
1212.56	59.6647
1215.45	57.7361
1218.34	58.0984
1221.24	41.9678
1224.13	49.9948
1227.02	32.7567
1229.91	48.7407
1232.81	54.5129
1235.7	17.9263
1238.59	7.65219
1241.48	5.61395
1244.38	25.0228
1247.27	35.9142
1250.16	26.2896
1253.06	29.3528
1255.95	10.031
1258.84	26.8554
1261.73	19.1818
1264.63	3.80579
