Measurement: Raman, 532 nm, unoriented, Raman Data Processed
Mineral: Macfallite
Rruff sample: R060391
Ideal chemistry: Ca_2_Mn^3+^_3_(SiO_4_)(Si_2_O_7_)(OH)_3_
Locality: near Manganese Lake, Copper Harbor, Keweenaw County, Michigan, USA
Source: Michael Scott
Description: Reddish-brown radial aggregate of bladed crystals associated with braunite, quartz, calcite
Raman shift (cm-1)	intensity
178.78	0
181.673	1.6524
184.566	28.3259
187.459	51.6934
190.351	61.3055
193.244	62.2514
196.137	61.3997
199.029	53.1463
201.922	47.1942
204.815	35.9494
207.708	28.6192
210.6	27.0295
213.493	26.7413
216.386	16.7213
219.278	14.9266
222.171	12.856
225.064	23.3136
227.956	39.5152
230.849	44.6853
233.742	39.6831
236.635	39.0687
239.527	39.6269
242.42	41.3008
245.313	38.5854
248.205	28.0609
251.098	16.021
253.991	15.9032
256.884	12.529
259.776	8.64819
262.669	10.2905
265.562	8.32475
268.454	0.852463
271.347	4.76889
274.24	8.02168
277.132	1.73079
280.025	8.12929
282.918	19.1344
285.81	30.0823
288.703	40.4087
291.596	38.9908
294.489	39.2531
297.381	34.3837
300.274	21.301
303.167	19.0723
306.059	14.2767
308.952	8.61696
311.845	9.13582
314.738	11.6131
317.63	15.3236
320.523	11.6651
323.416	22.0691
326.308	31.709
329.201	39.0998
332.094	48.5771
334.986	76.0736
337.879	94.1056
340.772	111.462
343.665	120.02
346.557	139.726
349.45	166.691
352.343	212.231
355.235	249.959
358.128	297.837
361.021	343.088
363.913	391.578
366.806	378.803
369.699	263.752
372.592	159.31
375.484	104.608
378.377	71.9019
381.27	54.8854
384.162	48.8884
387.055	40.5811
389.948	38.5988
392.841	29.2123
395.733	22.3844
398.626	16.4331
401.519	19.1371
404.411	12.0398
407.304	6.53864
410.197	5.55148
413.089	1.39548
415.982	2.22897
418.875	4.24635
421.767	4.4241
424.66	3.82556
427.553	4.79703
430.446	1.3226
433.338	7.61751
436.231	0.095505
439.124	10.3929
442.017	4.12547
444.909	10.1474
447.802	14.1801
450.695	20.8686
453.587	30.6691
456.48	38.6695
459.373	48.079
462.265	42.3576
465.158	36.6618
468.051	26.7958
470.943	29.3146
473.836	37.0934
476.729	47.2376
479.622	51.5815
482.514	46.7201
485.407	32.5904
488.3	15.5001
491.192	8.7428
494.085	0.209381
496.978	1.67554
499.87	0.583527
502.763	9.37054
505.656	31.5877
508.549	47.8987
511.441	51.0933
514.334	57.9604
517.227	65.7088
520.119	89.3497
523.012	117.314
525.905	133.123
528.798	130.381
531.69	107.226
534.583	82.5633
537.476	56.0489
540.368	34.7443
543.261	24.6783
546.154	15.5796
549.047	9.44342
551.939	15.6696
554.832	20.4127
557.725	35.3258
560.617	48.171
563.51	59.3004
566.403	70.1425
569.295	61.1857
572.188	64.3227
575.081	69.188
577.973	84.5291
580.866	104.615
583.759	135.685
586.652	172.587
589.544	207.921
592.437	231.795
595.33	227.477
598.222	198.542
601.115	150.446
604.008	113.882
606.901	86.5022
609.793	69.4617
612.686	58.9952
615.579	53.9377
618.471	46.7026
621.364	35.5859
624.257	26.1044
627.149	21.916
630.042	14.1812
632.935	4.49408
635.828	1.69626
638.72	0.311295
641.613	3.27683
644.506	3.70532
647.398	2.03093
650.291	0.959457
653.184	3.26225
656.077	4.44597
658.969	4.1156
661.862	4.12411
664.755	0.707153
667.647	5.26611
670.54	9.05441
673.433	12.2797
676.325	16.5671
679.218	26.1058
682.111	34.0546
685.004	32.0755
687.896	27.6988
690.789	23.0737
693.682	18.8166
696.574	21.9043
699.467	21.9177
702.36	24.7123
705.253	21.2032
708.145	19.7636
711.038	21.8458
713.931	17.4747
716.823	15.338
719.716	16.8759
722.609	15.9163
725.501	16.6309
728.394	14.2116
731.287	17.0388
734.179	19.3385
737.072	16.0911
739.965	21.1939
742.858	19.1446
745.75	14.6814
748.643	15.8152
751.536	16.502
754.428	17.2944
757.321	13.9645
760.214	15.4131
763.107	8.74722
765.999	7.26425
768.892	8.77643
771.785	4.85849
774.677	3.07054
777.57	4.16725
780.463	0.751724
783.356	1.96877
786.248	2.76038
789.141	2.29778
792.034	1.35977
794.926	0.19165
797.819	2.28113
800.712	2.02251
803.604	0.14389
806.497	1.45515
809.39	2.16089
812.283	0.513443
815.175	1.37028
818.068	2.12367
820.961	5.73102
823.853	13.1455
826.746	17.6655
829.639	21.9939
832.531	32.1735
835.424	31.8921
838.317	31.2273
841.21	27.6503
844.102	17.319
846.995	8.17277
849.888	7.81335
852.78	7.0937
855.673	9.92152
858.566	11.8668
861.458	17.374
864.351	28.0272
867.244	34.7029
870.136	42.3699
873.029	39.0096
875.922	31.7935
878.815	25.8555
881.707	17.3465
884.6	20.1426
887.493	15.4255
890.385	21.6658
893.278	25.6379
896.171	32.4686
899.064	30.0624
901.956	34.8164
904.849	41.0681
907.742	50.8276
910.634	61.8191
913.527	65.2575
916.42	77.5537
919.312	88.1598
922.205	96.7168
925.098	98.4871
927.991	96.9276
930.883	92.4794
933.776	88.5158
936.669	84.2787
939.562	86.0935
942.454	86.2454
945.347	87.0314
948.24	86.0481
951.132	71.1894
954.025	53.688
956.918	41.8899
959.81	30.2343
962.703	23.0345
965.596	19.4386
968.489	6.66757
971.381	6.48503
974.274	1.2758
977.167	2.53474
980.059	3.79501
982.952	3.62138
985.845	4.01239
988.737	2.00256
991.63	1.77998
994.523	4.58572
997.415	2.80995
1000.31	8.77487
1003.2	7.16109
1006.09	10.7025
1008.99	7.01555
1011.88	14.2823
1014.77	12.7024
1017.66	14.3226
1020.56	11.618
1023.45	9.29726
1026.34	11.648
1029.23	8.75278
1032.13	2.4213
1035.02	2.37003
1037.91	6.35222
1040.81	0.932968
1043.7	1.26173
1046.59	1.6507
1049.48	1.65561
1052.38	2.20667
1055.27	5.04225
1058.16	9.75429
1061.06	9.04745
1063.95	8.20734
1066.84	3.29199
1069.73	9.56753
1072.63	6.931
1075.52	7.50935
1078.41	4.81438
1081.3	7.01572
1084.2	0.245865
1087.09	2.51051
1089.98	0.039047
1092.88	3.34221
1095.77	0.28363
1098.66	0.556854
1101.55	0.029694
1104.45	0.904678
1107.34	0.557693
1110.23	6.57015
1113.12	1.34154
1116.02	0.354462
1118.91	2.37267
1121.8	8.69383
1124.69	1.5928
1127.59	10.3979
1130.48	9.17421
1133.37	12.001
1136.27	14.1652
1139.16	13.4319
1142.05	19.6456
1144.94	21.1895
1147.84	20.9142
1150.73	20.779
1153.62	28.7589
1156.51	32.2538
1159.41	31.7663
1162.3	31.2637
1165.19	37.6278
1168.09	39.1335
1170.98	37.6634
1173.87	38.8544
1176.76	38.9893
1179.66	42.7037
1182.55	44.8653
1185.44	42.907
1188.33	45.8957
1191.23	48.3175
1194.12	41.1614
1197.01	46.8832
1199.9	44.8134
1202.8	43.9629
1205.69	43.3857
1208.58	41.8923
1211.48	35.7895
1214.37	31.8303
1217.26	26.5994
1220.15	28.8369
1223.05	25.6088
1225.94	24.1198
1228.83	18.0455
1231.72	16.7411
1234.62	14.9677
1237.51	17.7151
1240.4	10.0207
1243.3	6.61343
1246.19	6.49353
1249.08	4.40233
1251.97	3.78864
1254.87	4.14375
1257.76	0.946472
1260.65	3.341
1263.54	3.36507
1266.44	1.55536
1269.33	0.422211
1272.22	4.91173
1275.12	3.11115
1278.01	3.53268
1280.9	1.77035
1283.79	3.49869
1286.69	6.89336
1289.58	2.59169
1292.47	2.2626
1295.36	1.92999
1298.26	1.77365
1301.15	0.013763
