Measurement: Raman, 532 nm, unoriented, Raman Data Processed
Mineral: Mackinawite
Rruff sample: R060388
Ideal chemistry: (Fe,Ni)_1-1.07_S
Locality: Hitura, Finland
Source: Michael Scott
Description: Bronze thin tabular crystals in parallel packing
Raman shift (cm-1)	intensity
130.2	0
133.575	68.811
136.949	427.765
140.324	413.184
143.699	173.352
147.074	110.929
150.449	65.25
153.824	49.484
157.198	8.664
160.573	6.254
163.948	24.777
167.323	26.938
170.698	44.955
174.072	11.859
177.447	15.821
180.822	6.557
184.197	44.551
187.572	31.979
190.947	59.928
194.321	74.125
197.696	96.632
201.071	115.634
204.446	231.118
207.821	512.773
211.195	890.36
214.57	1405.56
217.945	1926.62
221.32	1542.21
224.695	808.614
228.07	618.442
231.445	697.185
234.819	735.677
238.194	731.575
241.569	574.867
244.944	334.485
248.319	308.387
251.693	212.995
255.068	286.709
258.443	452.316
261.818	607.595
265.193	919.933
268.568	1387.96
271.942	2095.5
275.317	2629.99
278.692	3485.69
282.067	4174.44
285.442	4364.79
288.816	4190.51
292.191	3496.95
295.566	2664.41
298.941	1889.02
302.316	1335.52
305.69	953.623
309.065	611.725
312.44	409.43
315.815	202.751
319.19	103.556
322.565	12.715
325.939	6.729
329.314	64.065
332.689	59.815
336.064	41.738
339.439	4.865
342.814	29.34
346.188	54.632
349.563	147.712
352.938	198.636
356.313	286.764
359.688	388.803
363.062	525.263
366.437	668.085
369.812	909.316
373.187	1152.67
376.562	1551.73
379.936	1924.33
383.311	2557.35
386.686	3305.98
390.061	4107.7
393.436	4979.31
396.811	5298.43
400.185	5310.08
403.56	4718.07
406.935	3794.95
410.31	2905.82
413.685	2214.63
417.06	1660.1
420.434	1176.28
423.809	816.252
427.184	578.271
430.559	368.897
433.934	241.864
437.308	138.196
440.683	90.625
444.058	38.346
447.433	2.409
450.808	16.95
454.183	23.437
457.557	21.475
460.932	59.738
464.307	68.479
467.682	120.824
471.057	201.582
474.431	255.337
477.806	387.664
481.181	353.511
484.556	525.277
487.931	557.781
491.306	593.62
494.68	541.162
498.055	574.27
501.43	491.123
504.805	476.46
508.18	405.108
511.555	379.526
514.929	334.084
518.304	281.818
521.679	244.871
525.054	271.777
528.429	235.34
531.803	233.537
535.178	83.014
538.553	55.271
541.928	32.67
545.303	56.432
548.677	5.055
552.052	50.404
555.427	63.017
558.802	53.818
562.177	53.605
565.552	35.148
568.926	28.531
572.301	185.892
575.676	385.671
579.051	506.718
582.426	755.975
585.8	928.079
589.175	1220.89
592.55	1543.9
595.925	1726.58
599.3	1846.83
602.675	1823.47
606.049	1648.98
609.424	1577.97
612.799	1341.26
616.174	1113.34
619.549	1048.12
622.924	1012.12
626.298	1048.85
629.673	1096.8
633.048	1128.76
636.423	1312.94
639.798	1363.34
643.172	1438.33
646.547	1518.44
649.922	1574.41
653.297	1585.27
656.672	1532.51
660.047	1448.96
663.421	1330.36
666.796	1181.35
670.171	1119.19
673.546	946.771
676.921	822.452
680.295	652.445
683.67	578.743
687.045	463.745
690.42	450.706
693.795	383.004
697.17	268.797
700.544	211.735
703.919	115.471
707.294	153.698
710.669	60.597
714.044	4.805
717.419	46.123
720.793	14.006
724.168	30.953
727.543	26.264
730.918	8.099
734.293	31.702
737.667	4.044
741.042	69.253
744.417	47.882
747.792	15.477
751.167	9.45
754.542	18.218
757.916	36.14
761.291	101.689
764.666	89.197
768.041	100.669
771.416	122.195
774.79	151.302
778.165	173.562
781.54	176.921
784.915	167.903
788.29	201.81
791.664	213.727
795.039	291.505
798.414	235.443
801.789	224.476
805.164	205.226
808.539	215.737
811.914	136.982
815.288	124.153
818.663	140.052
822.038	164.017
825.413	153.06
828.787	192.385
832.162	252.199
835.537	305.528
838.912	376.723
842.287	345.363
845.662	284.165
849.036	180.56
852.411	72.288
855.786	83.661
859.161	64.775
862.536	50.999
865.911	41.658
869.285	55.404
872.66	21.478
876.035	52.392
879.41	49.046
882.785	36.943
886.159	29.447
889.534	22.584
892.909	83.973
896.284	56.507
899.659	108.699
903.034	81.832
906.408	31.093
909.783	79.797
913.158	40.108
916.533	56.347
919.908	121.094
923.282	101.99
926.657	93.563
930.032	111.823
933.407	73.377
936.782	79.817
940.157	93.819
943.531	74.165
946.906	27.979
950.281	55.342
953.656	61.15
957.031	66.226
960.406	55.875
963.78	29.544
967.155	20.698
970.53	54.644
973.905	24.437
977.28	20.695
980.654	49.07
984.029	28.527
987.404	24.973
990.779	14.91
994.154	39.822
997.529	18.84
1000.9	92.741
1004.28	72.067
1007.65	100.4
1011.03	134.142
1014.4	88.5
1017.78	122.552
1021.15	140.78
1024.53	142.334
1027.9	188.119
1031.28	190.678
1034.65	144.254
1038.03	174.401
1041.4	168.441
1044.78	154.898
1048.15	155.24
1051.53	153.41
1054.9	177.815
1058.28	178.973
1061.65	131.652
1065.03	97.461
1068.4	120.937
1071.78	146.733
1075.15	173.65
1078.52	125.343
1081.9	76.184
1085.27	111.995
1088.65	74.925
1092.02	50.676
1095.4	61.059
1098.77	139.167
1102.15	63.48
1105.52	97.448
1108.9	63.642
1112.27	47.188
1115.65	34.218
1119.02	4.038
1122.4	30.13
1125.77	77.775
1129.15	34.469
1132.52	45.913
1135.9	19.884
1139.27	48.416
1142.65	41.382
1146.02	50.603
1149.39	49.311
1152.77	67.575
1156.14	78.715
1159.52	69.65
1162.89	104.594
1166.27	80.893
1169.64	84.337
1173.02	79.988
1176.39	116.736
1179.77	102.282
1183.14	84.72
1186.52	100.093
1189.89	67.469
1193.27	53.836
1196.64	14.169
1200.02	29.249
1203.39	34.613
1206.77	2.041
1210.14	9.931
1213.52	25.185
1216.89	71.202
1220.27	9.414
1223.64	26.837
1227.02	47.68
1230.39	28.152
1233.77	9.557
1237.14	114.225
1240.52	13.223
1243.89	146.982
1247.27	90.434
1250.64	184.849
1254.02	164.622
1257.39	180.031
1260.76	203.116
1264.14	210.949
1267.51	214.168
1270.89	256.785
1274.26	288.87
1277.64	330.954
1281.01	314.703
1284.39	196.897
1287.76	273.557
1291.14	266.384
1294.51	138.295
1297.89	110.884
1301.26	5.309
