Measurement: Raman, 780 nm, unoriented, Raman Data Processed
Mineral: Mackayite
Rruff sample: R060592
Ideal chemistry: Fe^3+^Te^4+^_2_O_5_(OH)
Locality: Lone Pine mine, Lone Pine Hill area, Wilcox District, Catron County, New Mexico, USA
Source: Michael Scott
Description: Greenish-brown octahedral crystals associated with quartz
Measured chemistry: (Fe^3+^_0.98_Al_0.02_)_Î£=1_Te^4+^_2.00_O_5_(OH) ; OH by difference and stoichiometry
Raman shift (cm-1)	intensity
91.5599	0
94.9347	835.718
98.3096	144.301
101.684	20.6426
105.059	432.703
108.434	1201.14
111.809	1243.15
115.184	1963.7
118.558	3637.03
121.933	6522.98
125.308	10194
128.683	6886.55
132.058	4559.55
135.433	961.009
138.807	310.311
142.182	470.506
145.557	891.767
148.932	1708.64
152.307	2176.04
155.681	1333.46
159.056	1510.98
162.431	1774.65
165.806	1226.02
169.181	1416.77
172.555	2368.8
175.93	4472.12
179.305	7033.98
182.68	5655.97
186.055	1559.7
189.43	362.132
192.804	28.9038
196.179	57.0225
199.554	59.9453
202.929	44.9727
206.304	137.161
209.678	190.668
213.053	345.768
216.428	669.797
219.803	1186.34
223.178	1936.41
226.553	2463.97
229.927	1845.19
233.302	1410.23
236.677	1656.73
240.052	2340.96
243.427	2563.04
246.801	1614.96
250.176	1024.89
253.551	902.767
256.926	570.453
260.301	217.142
263.675	63.4365
267.05	10.9392
270.425	11.6194
273.8	29.7793
277.175	35.5752
280.55	11.3325
283.924	28.012
287.299	117.203
290.674	275.31
294.049	438.674
297.424	537.391
300.798	693.935
304.173	1018.77
307.548	1184.51
310.923	931.581
314.298	522.495
317.673	183.071
321.047	2.80151
324.422	56.5828
327.797	31.7317
331.172	47.2295
334.547	214.216
337.921	457.815
341.296	820.477
344.671	1361.65
348.046	1936.77
351.421	2101.02
354.796	1868.98
358.17	1679.06
361.545	1775.13
364.92	2150.42
368.295	2819.66
371.67	3701.47
375.044	4396.4
378.419	4254.38
381.794	3425.78
385.169	2396.53
388.544	1481.72
391.918	843.169
395.293	496.626
398.668	358.731
402.043	372.383
405.418	483.95
408.793	727.667
412.167	1115.14
415.542	1660.79
418.917	2334.06
422.292	3035.38
425.667	3353.65
429.041	3062.07
432.416	2413.66
435.791	1738.58
439.166	1187.66
442.541	765.365
445.915	468.714
449.29	281.245
452.665	155.741
456.04	64.2456
459.415	6.75415
462.789	29.0625
466.164	43.5867
469.539	38.6758
472.914	20.7161
476.289	17.0537
479.664	12.3411
483.038	86.0986
486.413	183.996
489.788	339.261
493.163	586.126
496.538	939.492
499.913	1366.37
503.287	1859.58
506.662	2408.72
510.037	2942.72
513.412	3205.09
516.787	3048.73
520.161	2467.53
523.536	1767.55
526.911	1239.46
530.286	850.204
533.661	574.816
537.035	356.795
540.41	206.495
543.785	91.9292
547.16	10.3733
550.535	19.199
553.909	32.1167
557.284	9.44507
560.659	101.343
564.034	226.358
567.409	432.587
570.784	701.457
574.158	1027.46
577.533	1324.28
580.908	1393.27
584.283	1178.52
587.658	839.725
591.033	555.394
594.407	353.772
597.782	248.631
601.157	181.485
604.532	161.451
607.907	168.891
611.281	226.232
614.656	352.654
618.031	599.287
621.406	969.044
624.781	1522.66
628.155	2247.34
631.53	3293.11
634.905	4418.41
638.28	4452.99
641.655	3142.96
645.029	1955.76
648.404	1297.13
651.779	841.51
655.154	489.123
658.529	273.777
661.904	133.233
665.278	45.1409
668.653	13.9131
672.028	16.2344
675.403	25.5022
678.778	22.4258
682.153	15.9592
685.527	9.36084
688.902	63.3188
692.277	135.067
695.652	237.371
699.027	293.788
702.401	279.246
705.776	287.241
709.151	354.616
712.526	471.796
715.901	631.311
719.275	848.281
722.65	1136.54
726.025	1483.46
729.4	1873.67
732.775	2157.04
736.149	2166.84
739.524	1787.62
742.899	1284.27
746.274	865.571
749.649	579.351
753.024	413.255
756.398	321.755
759.773	285.455
763.148	297.857
766.523	302.709
769.898	285.797
773.273	314.63
776.647	337.05
780.022	327.171
783.397	295.658
786.772	267.121
790.146	222.339
793.521	167.414
796.896	109.079
800.271	60.593
803.646	30.0078
807.021	20.9302
810.395	1.79785
813.77	6.75171
817.145	6.2334
820.52	12.3332
823.895	9.7876
827.269	1.30469
830.644	2.85767
834.019	0.591309
837.394	2.94849
840.769	10.8935
844.144	22.4177
847.518	33.3628
850.893	33.7683
854.268	39.5574
857.643	43.3565
861.018	50.6065
864.393	58.9736
867.767	58.0774
871.142	75.7356
874.517	79.7632
877.892	77.7556
881.266	67.1704
884.641	59.7217
888.016	42.8843
891.391	51.7544
894.766	58.1797
898.141	78.0772
901.515	94.7954
904.89	95.0022
908.265	103.92
911.64	105.428
915.015	78.0498
918.389	57.1387
921.764	38.4043
925.139	24.4482
928.514	20.79
931.889	12.8428
935.264	3.15185
938.638	7.1571
942.013	5.24121
945.388	2.0105
948.763	7.78076
952.138	6.84753
955.512	4.60242
958.887	8.87561
962.262	6.56409
965.637	2.50623
969.012	3.10437
972.386	3.01807
975.761	7.15418
979.136	0.002686
982.511	3.51819
985.886	7.48572
989.261	10.4312
992.635	3.6228
996.01	6.24609
999.385	3.34106
1002.76	6.31555
1006.13	6.35437
1009.51	10.7918
1012.88	6.82837
1016.26	7.94617
1019.63	4.33655
1023.01	8.17236
1026.38	10.3949
1029.76	10.2058
1033.13	10.794
1036.51	14.9158
1039.88	12.1676
1043.26	15.246
1046.63	7.0863
1050.01	8.15369
1053.38	7.03674
1056.76	10.4614
1060.13	13.0735
1063.51	16.9614
1066.88	14.1262
1070.26	4.41589
1073.63	12.428
1077.01	10.0758
1080.38	5.73682
1083.76	12.9185
1087.13	5.52332
1090.51	3.07532
1093.88	2.05212
1097.26	5.40955
1100.63	2.0221
1104	5.28918
1107.38	5.09277
1110.75	9.36328
1114.13	5.66174
1117.5	1.48315
1120.88	4.41418
1124.25	2.13147
1127.63	0.609863
1131	2.37708
1134.38	6.16504
1137.75	8.12451
1141.13	9.49329
1144.5	10.1785
1147.88	7.2085
1151.25	4.5365
1154.63	12.5188
1158	12.343
1161.38	8.77649
1164.75	8.95129
1168.13	12.165
1171.5	13.9507
1174.88	13.2705
1178.25	13.9148
1181.62	14.4033
1185	14.8204
1188.38	12.0011
1191.75	11.5584
1195.12	17.6178
1198.5	11.0314
1201.87	13.683
1205.25	7.46594
1208.62	15.4614
1212	13.016
1215.37	7.69934
1218.75	4.48596
1222.12	1.32031
1225.5	4.5542
1228.87	2.57324
1232.25	10.4827
1235.62	7.40625
1239	0.20813
1242.37	5.6731
1245.75	0.515503
1249.12	6.71497
1252.5	4.16992
1255.87	2.90247
1259.25	7.12024
1262.62	9.72998
1265.99	11.3195
1269.37	5.08264
1272.74	5.35498
1276.12	6.87427
1279.49	5.82593
1282.87	2.71814
