Measurement: Raman, 532 nm, unoriented, Raman Data Processed
Mineral: Mackayite
Rruff sample: R060592
Ideal chemistry: Fe^3+^Te^4+^_2_O_5_(OH)
Locality: Lone Pine mine, Lone Pine Hill area, Wilcox District, Catron County, New Mexico, USA
Source: Michael Scott
Description: Greenish-brown octahedral crystals associated with quartz
Measured chemistry: (Fe^3+^_0.98_Al_0.02_)_Î£=1_Te^4+^_2.00_O_5_(OH) ; OH by difference and stoichiometry
Raman shift (cm-1)	intensity
89.7832	0
93.158	1919.42
96.5328	1873.04
99.9077	198.5
103.282	883.707
106.657	6189.64
110.032	9664.13
113.407	12735.2
116.782	18016.3
120.157	28988.1
123.531	50694.6
126.906	43896
130.281	33995.1
133.656	12094.5
137.031	4534.68
140.405	4048.7
143.78	5360.95
147.155	8220.94
150.53	13049.9
153.905	11393.6
157.28	6442.29
160.654	8122.1
164.029	8140.92
167.404	8565.87
170.779	11367.8
174.154	18614.4
177.528	32921.6
180.903	38041.8
184.278	14225.1
187.653	3284.9
191.028	699.697
194.403	132.457
197.777	230.582
201.152	48.2637
204.527	810.758
207.902	1502.08
211.277	2768.49
214.651	4733.83
218.026	7896.51
221.401	12798.9
224.776	17565.1
228.151	15953.5
231.525	12624.3
234.9	14475.9
238.275	20950
241.65	25999.8
245.025	17876.6
248.4	8762.16
251.774	5852.06
255.149	4322.25
258.524	1992.01
261.899	686.904
265.274	150.889
268.649	62.0547
272.023	240.537
275.398	307.318
278.773	259.523
282.148	143.44
285.523	245.211
288.897	988.152
292.272	1890.2
295.647	2554.09
299.022	3136.27
302.397	4501.05
305.772	5961.12
309.146	5801.33
312.521	4294.58
315.896	1911.61
319.271	175.742
322.646	378.695
326.02	212.66
329.395	461.762
332.77	1888.76
336.145	4189.91
339.52	7224.81
342.894	11537.2
346.269	16791.9
349.644	19912.5
353.019	18672.3
356.394	16556
359.769	17058.4
363.143	20541.8
366.518	26376.7
369.893	34119.9
373.268	41057
376.643	40348.4
380.017	31105.7
383.392	20834.6
386.767	12783.6
390.142	7304.9
393.517	4249.88
396.892	3295.81
400.266	3732.38
403.641	5299.59
407.016	7967.98
410.391	12179.8
413.766	18081
417.14	25428
420.515	33078.7
423.89	37087.4
427.265	34289.6
430.64	26581.7
434.014	18763
437.389	12765.8
440.764	8494.07
444.139	5350.47
447.514	3210.94
450.889	1699.82
454.263	818.777
457.638	309.981
461.013	97.8281
464.388	286.25
467.763	412.496
471.137	382.981
474.512	235.391
477.887	26.4688
481.262	560.539
484.637	1689.39
488.012	3376.62
491.386	5671.98
494.761	9116.8
498.136	13704.4
501.511	19289.8
504.886	25458.7
508.26	31202
511.635	35052.1
515.01	34302.5
518.385	28509.2
521.76	21116.5
525.135	14942.5
528.509	10442.9
531.884	7294.32
535.259	4759.32
538.634	2715.27
542.009	1294.77
545.384	348.453
548.758	93.2734
552.133	212.496
555.508	48.207
558.883	1049.59
562.258	2913.88
565.632	5554.95
569.007	9099.85
572.382	13487
575.757	17515.2
579.132	19148.9
582.506	16877.8
585.881	12151.3
589.256	7464.35
592.631	4163.99
596.006	2097.77
599.381	948.516
602.755	386.883
606.13	407.113
609.505	955.254
612.88	2095.76
616.255	4162.76
619.63	7500.33
623.004	12882.8
626.379	20118.1
629.754	29318.4
633.129	38306.7
636.504	40492.6
639.878	30120.1
643.253	17962.5
646.628	10984.6
650.003	6853.9
653.378	3951.3
656.752	1867.24
660.127	737.731
663.502	135.293
666.877	139.113
670.252	191.891
673.626	182.641
677.001	200.625
680.376	110.629
683.751	176.644
687.126	637.086
690.501	1425.2
693.875	2181.23
697.25	2746.89
700.625	2729.28
704	2799.53
707.375	3247.38
710.75	4212.25
714.124	5742.34
717.499	7725.42
720.874	10492
724.249	13929.2
727.624	17524.7
730.998	20277.9
734.373	20736.3
737.748	17906.3
741.123	13290
744.498	9323.06
747.872	6683.41
751.247	5237.18
754.622	4307.42
757.997	4103.22
761.372	4423.64
764.747	4528.68
768.121	3962.75
771.496	3651.36
774.871	3589.06
778.246	3477.01
781.621	3281.94
784.995	3097.09
788.37	2645.53
791.745	2044.64
795.12	1357.36
798.495	828.234
801.87	453.062
805.244	352.684
808.619	231.668
811.994	21.1875
815.369	34.875
818.744	77.5273
822.119	82.5039
825.493	44.0664
828.868	164.5
832.243	125.16
835.618	77.3164
838.993	77.9609
842.367	261.977
845.742	366.301
849.117	379.422
852.492	416.625
855.867	484.387
859.241	629.051
862.616	661.656
865.991	552.254
869.366	556.141
872.741	593.219
876.115	496.398
879.49	458.519
882.865	438.875
886.24	428.504
889.615	640.988
892.99	882.223
896.364	1159.82
899.739	1436.18
903.114	1426.9
906.489	1321.42
909.864	1258.3
913.239	1022.01
916.613	720.629
919.988	502.984
923.363	432.648
926.738	337.32
930.113	208.293
933.487	137.519
936.862	11.9805
940.237	17.7617
943.612	105.078
946.987	129.414
950.361	129.793
953.736	145.988
957.111	33.0469
960.486	43.0273
963.861	59.6641
967.236	168.027
970.61	177.984
973.985	194.176
977.36	206.578
980.735	186.461
984.11	232.133
987.485	262.449
990.859	237.359
994.234	208.816
997.609	196.488
1000.98	216.367
1004.36	174.695
1007.73	191.883
1011.11	234.152
1014.48	273.086
1017.86	197.773
1021.23	137.461
1024.61	56.3086
1027.98	238.402
1031.36	119.973
1034.73	147.246
1038.11	173.875
1041.48	221.035
1044.86	236.562
1048.23	131.098
1051.61	164.445
1054.98	131.82
1058.36	33.3828
1061.73	38.9336
1065.11	21.5273
1068.48	42.5938
1071.86	4.29297
1075.23	13.0859
1078.6	44.7422
1081.98	49.1328
1085.35	70.1719
1088.73	78.4414
1092.1	61.3242
1095.48	19.7305
1098.85	105.426
1102.23	2.97266
1105.6	62.6797
1108.98	70.6406
1112.35	135.059
1115.73	90.0039
1119.1	127.879
1122.48	164.172
1125.85	43.043
1129.23	6.95703
1132.6	41.3984
1135.98	77.5039
1139.35	125.91
1142.73	217.156
1146.1	159.273
1149.48	152.238
1152.85	316.672
1156.22	350.137
1159.6	279.359
1162.97	176.84
1166.35	183.367
1169.72	135.574
1173.1	231.144
1176.47	311.402
1179.85	236.769
1183.22	203.582
1186.6	295.258
1189.97	206.562
1193.35	233.125
1196.72	260.578
1200.1	126.168
1203.47	145.164
1206.85	179.211
1210.22	190.453
1213.6	205.883
1216.97	169.367
1220.35	230.695
1223.72	164.406
1227.1	43.2734
1230.47	56.8594
1233.85	101.207
1237.22	75.2188
1240.6	99.0156
1243.97	144.387
1247.35	191.016
1250.72	213.074
1254.1	235.387
1257.47	262.191
1260.85	142.57
1264.22	54.3125
1267.59	26.4297
1270.97	54.3398
1274.34	101.019
1277.72	130.922
1281.09	110.523
1284.47	60.3398
1287.84	144.086
1291.22	93.9609
1294.59	131.566
1297.97	65.9922
1301.34	20.1719
