Measurement: Raman, 780 nm, unoriented, Raman Data Processed
Mineral: Magnesiotaaffeite-2N2S
Rruff sample: X090001
Ideal chemistry: Mg_3_BeAl_8_O_16_
Locality: Ratnapura, Sri Lanka
Source: William W. Pinch
Description: Dark grey with a hint of purple, flattened tabular hexagonal crystal
Raman shift (cm-1)	intensity
113.59	0
116.965	4.77419
120.34	3.70804
123.715	4.77005
127.089	5.21005
130.464	5.8042
133.839	4.49113
137.214	6.24753
140.589	4.21617
143.963	4.35782
147.338	3.10318
150.713	4.13464
154.088	8.09604
157.463	5.23354
160.838	6.09464
164.212	7.98338
167.587	6.61763
170.962	10.4393
174.337	10.2604
177.712	8.85472
181.086	8.78812
184.461	10.2672
187.836	9.92703
191.211	6.48782
194.586	9.22794
197.96	7.2385
201.335	4.85049
204.71	2.95918
208.085	3.36569
211.46	1.11173
214.835	1.09892
218.209	1.38301
221.584	0.383636
224.959	0.478821
228.334	0.087906
231.709	1.21664
235.083	4.01411
238.458	4.88541
241.833	5.23585
245.208	3.32237
248.583	3.65027
251.958	5.94006
255.332	5.4299
258.707	10.26
262.082	9.95389
265.457	12.6781
268.832	13.4616
272.207	13.4713
275.581	13.6676
278.956	17.5487
282.331	18.3301
285.706	22.8649
289.08	22.5171
292.455	22.9718
295.83	17.5457
299.205	17.6946
302.58	16.7687
305.955	17.629
309.329	16.9067
312.704	7.60651
316.079	4.95883
319.454	1.04387
322.829	4.48598
326.204	3.19301
329.578	2.27522
332.953	1.89737
336.328	0.699905
339.703	1.22884
343.078	1.15401
346.452	2.88142
349.827	0.661377
353.202	0.420822
356.577	3.567
359.952	6.50177
363.327	7.43521
366.701	9.54503
370.076	16.795
373.451	19.0213
376.826	15.8569
380.201	13.3058
383.575	14.6035
386.95	19.1174
390.325	21.1158
393.7	38.2965
397.075	59.7477
400.45	85.5704
403.824	107.876
407.199	115.367
410.574	136.346
413.949	174.514
417.324	170.86
420.698	115.009
424.073	78.7378
427.448	80.2511
430.823	90.4806
434.198	101.03
437.572	99.3092
440.947	84.1052
444.322	78.6643
447.697	67.1424
451.072	45.1404
454.447	20.3818
457.821	3.55904
461.196	1.66876
464.571	3.38769
467.946	0.230438
471.321	3.19276
474.695	3.49907
478.07	8.79771
481.445	14.8034
484.82	19.4187
488.195	22.1484
491.57	16.1592
494.944	9.40276
498.319	4.76343
501.694	6.43256
505.069	10.2526
508.444	11.4395
511.818	9.37526
515.193	11.3127
518.568	15.7183
521.943	16.5541
525.318	5.18793
528.692	2.51912
532.067	0.814087
535.442	0.387848
538.817	1.78125
542.192	2.17378
545.567	0.178345
548.941	4.20195
552.316	4.24269
555.691	0.899979
559.066	5.37373
562.441	5.93368
565.816	9.42163
569.19	12.6645
572.565	21.6259
575.94	27.4966
579.315	29.1852
582.69	32.3191
586.064	26.8989
589.439	19.997
592.814	17.502
596.189	17.8222
599.564	15.0666
602.938	11.9416
606.313	9.62868
609.688	4.37427
613.063	3.62189
616.438	3.29594
619.812	1.74983
623.187	0.475784
626.562	1.82213
629.937	1.03125
633.312	0.774841
636.687	0.614532
640.061	1.17389
643.436	1.87045
646.811	2.92662
650.186	6.28151
653.561	6.60391
656.936	11.9441
660.31	12.184
663.685	15.5624
667.06	15.1407
670.435	7.50269
673.81	6.69107
677.184	2.47905
680.559	1.50499
683.934	2.43491
687.309	5.48935
690.684	14.2258
694.058	21.1842
697.433	32.7198
700.808	46.0485
704.183	50.8312
707.558	39.6224
710.933	23.6736
714.307	13.81
717.682	8.67093
721.057	4.55803
724.432	3.36438
727.807	5.18678
731.182	8.68405
734.556	14.8812
737.931	17.6649
741.306	25.5125
744.681	34.9543
748.056	44.7097
751.43	50.7522
754.805	50.9461
758.18	52.8713
761.555	52.3387
764.93	44.5424
768.304	25.3128
771.679	14.5608
775.054	5.52255
778.429	3.39008
781.804	1.40386
785.178	0.960449
788.553	1.12386
791.928	0.613609
795.303	4.94432
798.678	9.27817
802.053	13.618
805.427	18.2532
808.802	24.3863
812.177	22.8784
815.552	17.6006
818.927	14.1115
822.302	5.26908
825.676	5.02126
829.051	3.85347
832.426	6.65289
835.801	4.64642
839.176	3.73684
842.55	4.78572
845.925	4.65189
849.3	6.05064
852.675	6.18029
856.05	4.54411
859.424	6.52048
862.799	1.88173
866.174	2.828
869.549	3.80186
872.924	1.15657
876.299	3.37186
879.673	3.16887
883.048	0.278915
886.423	1.14857
889.798	0.426697
893.173	1.51072
896.548	0.505768
899.922	0.756111
903.297	1.17236
906.672	0.325523
910.047	0.093605
913.422	3.1003
916.796	1.66412
920.171	0.641945
923.546	1.70427
926.921	0.069801
930.296	1.5194
933.67	2.76068
937.045	2.159
940.42	2.27859
943.795	3.55173
947.17	2.71887
950.544	2.21972
953.919	2.07851
957.294	4.53558
960.669	6.81105
964.044	6.13787
967.419	8.95378
970.793	7.10168
974.168	8.96398
977.543	6.5909
980.918	7.07703
984.293	5.9258
987.668	3.73447
991.042	3.13053
994.417	2.0564
997.792	1.27974
1001.17	1.79314
1004.54	1.6978
1007.92	2.7477
1011.29	0.73024
1014.67	1.67986
1018.04	1.01169
1021.42	3.08407
1024.79	1.69125
1028.16	0.539757
1031.54	2.16566
1034.91	1.87548
1038.29	2.69758
1041.66	4.12973
1045.04	1.56919
1048.41	2.08817
1051.79	4.73031
1055.16	4.94086
1058.54	2.55325
1061.91	2.41801
1065.29	2.1323
1068.66	2.02628
1072.04	0.5802
1075.41	2.0739
1078.79	2.80829
1082.16	3.21413
1085.54	3.47198
1088.91	2.25581
1092.29	1.37796
1095.66	0.025322
1099.04	0.374466
1102.41	4.38977
1105.79	1.30694
1109.16	0.000832
1112.54	2.55597
1115.91	4.13268
1119.29	1.38711
1122.66	1.0998
1126.04	2.1945
1129.41	2.73587
1132.79	2.85971
1136.16	5.4435
1139.53	2.17702
1142.91	0.707825
1146.28	1.15353
1149.66	1.77428
1153.03	1.68372
1156.41	1.9015
1159.78	3.11549
1163.16	2.62242
1166.53	1.25205
1169.91	1.51189
1173.28	2.35055
1176.66	2.65959
1180.03	3.90392
1183.41	0.335945
1186.78	1.69396
1190.16	0.994888
1193.53	0.254189
1196.91	3.47916
1200.28	1.54246
1203.66	0.968018
1207.03	2.47126
1210.4	2.37592
1213.78	3.20097
1217.15	2.30939
1220.53	1.60342
1223.9	3.46944
1227.28	1.32685
1230.65	3.32539
1234.03	0.703934
1237.4	1.28089
1240.78	1.76982
1244.15	1.3908
1247.53	0.722015
1250.9	0.922249
1254.28	0.648621
1257.65	1.62469
1261.03	2.58846
1264.4	1.24686
1267.78	0.704948
1271.15	2.66868
1274.53	2.47298
1277.9	2.33639
1281.28	0.437279
1284.65	1.47056
