Measurement: Raman, 785 nm, unoriented, Raman Data Processed
Mineral: Magnesioferrite
Rruff sample: R070127
Ideal chemistry: MgFe^3+^_2_O_4_
Locality: Langban, Filipstad, Varmland, Sweden
Source: Michael Scott
Description: Black poorly formed octahedral crystals with deep red highlites, associated with hematite and calcite
Raman shift (cm-1)	intensity
122.756	0
125.649	2.84479
128.542	30.3547
131.435	146.22
134.327	176.343
137.22	161.336
140.113	135.514
143.005	138.154
145.898	247.647
148.791	377.684
151.683	455.382
154.576	461.651
157.469	388.623
160.362	347.365
163.254	377.732
166.147	378.973
169.04	425.976
171.932	409.566
174.825	386.369
177.718	402.635
180.61	352.105
183.503	339.058
186.396	291.171
189.288	319.465
192.181	240.005
195.074	224.701
197.967	234.894
200.859	213.314
203.752	161.581
206.645	152.321
209.537	154.254
212.43	82.4294
215.323	90.4135
218.215	82.9056
221.108	54.9315
224.001	36.7118
226.894	43.5007
229.786	0.690186
232.679	4.53882
235.572	9.01746
238.464	14.555
241.357	11.1502
244.25	5.40708
247.143	8.73718
250.035	8.55823
252.928	3.67468
255.821	0.905396
258.713	15.7084
261.606	27.5453
264.499	16.8615
267.391	-1.15007
270.284	8.50558
273.177	20.9154
276.07	30.5546
278.962	26.174
281.855	39.225
284.748	59.6825
287.64	124.913
290.533	120.567
293.426	155.423
296.318	185.094
299.211	229.68
302.104	263.255
304.996	246.777
307.889	294.852
310.782	306.829
313.675	293.452
316.567	317.517
319.46	316.604
322.353	307.53
325.245	332.324
328.138	341.297
331.031	312.924
333.923	332.715
336.816	303.175
339.709	274.958
342.601	257.909
345.494	204.947
348.387	172.562
351.28	162.722
354.172	110.029
357.065	96.2067
359.958	111.637
362.85	84.6847
365.743	60.8918
368.636	22.9442
371.529	9.22339
374.421	3.2406
377.314	12.7983
380.207	3.27307
383.099	11.9114
385.992	1.17188
388.885	6.39758
391.777	7.87854
394.67	36.7622
397.563	49.71
400.455	45.7257
403.348	84.931
406.241	105.856
409.134	125.59
412.026	172.738
414.919	201.648
417.812	220.115
420.704	268.883
423.597	261.941
426.49	310.44
429.382	354.104
432.275	386.213
435.168	403.111
438.061	379.69
440.953	356.625
443.846	324.891
446.739	301.167
449.631	288.194
452.524	320.772
455.417	267.389
458.31	279.966
461.202	319.446
464.095	326.295
466.988	300.47
469.88	313.493
472.773	302.015
475.666	314.166
478.558	235.283
481.451	230.387
484.344	191.225
487.236	129.137
490.129	149.323
493.022	89.3313
495.915	68.9353
498.807	84.9266
501.7	50.199
504.593	41.936
507.485	59.1235
510.378	52.6044
513.271	24.0015
516.163	29.483
519.056	13.885
521.949	6.80945
524.842	13.868
527.734	2.94519
530.627	33.8309
533.52	50.7258
536.412	38.1321
539.305	21.7513
542.198	8.31946
545.091	18.5571
547.983	25.3291
550.876	15.4182
553.769	38.5482
556.661	68.5513
559.554	89.0837
562.447	125.344
565.339	162.042
568.232	259.32
571.125	290.52
574.018	389.289
576.91	463.597
579.803	519.628
582.696	680.261
585.588	857.297
588.481	1011.71
591.374	1223.95
594.266	1448.35
597.159	1647.09
600.052	1906.86
602.944	2102.01
605.837	2275.24
608.73	2350.4
611.623	2377.08
614.515	2384.3
617.408	2239.52
620.301	2068.63
623.193	1884.96
626.086	1669.69
628.979	1429.93
631.871	1224.68
634.764	1045.31
637.657	897.419
640.55	822.326
643.442	686.321
646.335	677.964
649.228	602.54
652.12	617.511
655.013	569.487
657.906	615.604
660.798	631.638
663.691	626.821
666.584	627.337
669.477	579.333
672.369	586.195
675.262	555.735
678.155	544.61
681.047	497.23
683.94	407.554
686.833	348.401
689.726	319.727
692.618	220.761
695.511	187.406
698.404	160.489
701.296	95.8809
704.189	62.2869
707.082	25.7029
709.974	3.16998
712.867	1.90778
715.76	32.2604
718.653	10.355
721.545	15.5083
724.438	23.9798
727.331	0.898621
730.223	42.8804
733.116	4.47986
736.009	0.375549
738.901	58.7082
741.794	9.14575
744.687	31.4222
747.579	36.0716
750.472	48.5895
753.365	28.233
756.258	61.7466
759.15	58.0818
762.043	97.2083
764.936	104.579
767.828	105.732
770.721	120.074
773.614	102.841
776.506	134.297
779.399	113.445
782.292	97.6145
785.184	101.856
788.077	87.0121
790.97	83.2169
793.863	80.3177
796.755	67.9686
799.648	129.043
802.541	64.3774
805.433	67.7317
808.326	78.7758
811.219	54.4181
814.111	43.9418
817.004	48.4252
819.897	47.5594
822.79	48.7998
825.682	37.6603
828.575	36.6931
831.468	37.7683
834.36	47.3379
837.253	63.4219
840.146	32.4622
843.038	58.4095
845.931	42.0377
848.824	31.0637
851.717	68.0208
854.609	40.3426
857.502	29.2946
860.395	56.0854
863.287	25.8682
866.18	11.8219
869.073	15.671
871.966	56.6794
874.858	27.0805
877.751	18.3957
880.644	37.0561
883.536	36.189
886.429	18.9668
889.322	22.6139
892.214	10.7759
895.107	36.5223
898	59.004
900.893	24.6857
903.785	5.27612
906.678	32.2561
909.571	7.47266
912.463	58.3045
915.356	10.8939
918.249	40.3038
921.141	23.483
924.034	8.71396
926.927	36.4409
929.819	34.5277
932.712	37.1355
935.605	24.1162
938.498	34.064
941.39	16.8612
944.283	16.8296
947.176	50.0202
950.068	16.5046
952.961	5.7706
955.854	55.4075
958.746	12.4567
961.639	23.0133
964.532	16.2247
967.425	29.4536
970.317	32.1407
973.21	41.9612
976.103	38.0827
978.995	48.5164
981.888	15.5257
984.781	55.736
987.673	26.4979
990.566	38.911
993.459	32.699
996.352	21.8689
999.244	32.74
1002.14	41.3659
1005.03	21.9291
1007.92	45.7605
1010.82	57.1148
1013.71	16.9973
1016.6	43.3865
1019.49	20.1942
1022.39	36.5067
1025.28	62.6098
1028.17	28.2177
1031.06	25.8358
1033.96	45.1367
1036.85	5.15689
1039.74	8.2475
1042.63	29.0015
1045.53	32.3245
1048.42	22.0294
1051.31	23.6124
1054.21	15.5654
1057.1	12.9949
1059.99	51.6731
1062.88	27.3884
1065.78	23.7111
1068.67	36.0193
1071.56	24.1729
1074.45	24.2396
1077.35	24.3572
1080.24	44.1721
1083.13	1.97809
1086.03	35.1621
1088.92	55.5176
1091.81	50.1818
1094.7	39.8976
1097.6	25.0265
1100.49	16.4922
1103.38	35.9681
1106.27	21.1532
1109.17	28.2537
1112.06	29.71
1114.95	14.2412
1117.85	22.0762
1120.74	33.6784
1123.63	18.1976
1126.52	33.0014
1129.42	54.0169
1132.31	32.8018
1135.2	38.1576
1138.09	44.2916
1140.99	35.1792
1143.88	25.1333
1146.77	13.0566
1149.66	31.017
1152.56	6.0144
1155.45	28.4851
1158.34	23.999
1161.23	13.1711
1164.13	62.1777
1167.02	17.8875
1169.91	10.9547
1172.81	38.8374
1175.7	9.89099
1178.59	42.6114
1181.48	12.4335
1184.38	31.5554
1187.27	11.7212
1190.16	50.8122
1193.06	2.23474
1195.95	36.1391
1198.84	39.8664
1201.73	42.2994
1204.63	32.4798
1207.52	21.7588
1210.41	35.6152
1213.3	20.4348
1216.2	25.9671
1219.09	54.3928
1221.98	65.538
1224.88	36.8222
1227.77	42.3655
1230.66	26.9629
1233.55	1.1925
1236.45	10.3986
1239.34	7.04352
