Measurement: Raman, 532 nm, unoriented, Raman Data Processed
Mineral: Magnesiotaaffeite-6N3S
Rruff sample: X070005
Ideal chemistry: Mg_2_BeAl_6_O_12_
Locality: Tunduru, Tanzania
Source: www.multicolour.com
Description: Pale lavendar cut gemstone, 0.65 cts, formerly known as musgravite-18R
Raman shift (cm-1)	intensity
163.6	0
166.493	24.9883
169.386	281.594
172.279	307.215
175.171	305.897
178.064	132.207
180.957	354.639
183.849	175.592
186.742	373.096
189.635	356.266
192.527	113.82
195.42	53.3535
198.313	42.9863
201.206	278.299
204.098	356.295
206.991	295.184
209.884	264.26
212.776	141.4
215.669	17.9746
218.562	53.752
221.454	131.801
224.347	227.348
227.24	320.631
230.132	492.303
233.025	679.463
235.918	1487.99
238.811	3038.22
241.703	4629.09
244.596	1990.63
247.489	954.084
250.381	682.814
253.274	275.74
256.167	333.168
259.06	535.809
261.952	769.795
264.845	1568.88
267.738	2088.8
270.63	1463.56
273.523	727.352
276.416	383.289
279.308	528.088
282.201	373.01
285.094	421.699
287.986	225.01
290.879	54.4375
293.772	288.508
296.665	142.065
299.557	585.896
302.45	1041.66
305.343	1371.42
308.235	1453.37
311.128	2054.26
314.021	3405.65
316.913	3458.25
319.806	1410.38
322.699	555.555
325.592	593.918
328.484	748.053
331.377	332.078
334.27	140.481
337.162	664.602
340.055	555.055
342.948	22.7422
345.841	13.8359
348.733	70.9609
351.626	93.6484
354.519	171.164
357.411	112.527
360.304	2.67578
363.197	265.863
366.089	291.367
368.982	660.66
371.875	545.723
374.768	521.668
377.66	1300.26
380.553	885.356
383.446	634.019
386.338	523.695
389.231	401.797
392.124	356.043
395.017	948.152
397.909	2258.08
400.802	4654.45
403.695	8972.42
406.587	11723.8
409.48	12432.1
412.373	22094.2
415.265	28789.4
418.158	11931.8
421.051	3246.38
423.943	1124.07
426.836	421.672
429.729	196.957
432.622	21.3867
435.514	794.797
438.407	1464.34
441.3	2811.26
444.192	5665.64
447.085	10061.7
449.978	8984.51
452.87	3382.3
455.763	2839.88
458.656	2856.18
461.549	1316.62
464.441	128.387
467.334	101.906
470.227	52.7266
473.119	0.195313
476.012	659.019
478.905	1547.96
481.798	3529.8
484.69	6335.93
487.583	7173.69
490.476	9278.76
493.368	16914.2
496.261	20781.3
499.154	8560.57
502.046	2473.16
504.939	970.152
507.832	651.125
510.724	313.582
513.617	166.359
516.51	279.266
519.403	446.898
522.295	467.504
525.188	1188.88
528.081	1910.77
530.973	1693.89
533.866	797.746
536.759	188.051
539.652	524.004
542.544	377.91
545.437	5.46484
548.33	291.238
551.222	24.6602
554.115	163.898
557.008	29.3555
559.9	103.875
562.793	35.0938
565.686	556.695
568.579	1170.24
571.471	2290.43
574.364	3828.87
577.257	5865.14
580.149	6382.78
583.042	4597.33
585.935	2323.84
588.827	935.953
591.72	627.434
594.613	315.981
597.506	376.777
600.398	534.336
603.291	889
606.184	1021.47
609.076	863.594
611.969	437.527
614.862	967.309
617.755	1804.09
620.647	3219.2
623.54	4057.59
626.433	2922.98
629.325	1458.86
632.218	718.465
635.111	507.621
638.003	264.258
640.896	436.062
643.789	440.047
646.682	129.805
649.574	342.016
652.467	905.762
655.36	2081.58
658.252	3115.99
661.145	4650.35
664.038	5467.77
666.93	5594.58
669.823	4423.21
672.716	2640.89
675.609	1435.23
678.501	850.809
681.394	117.051
684.287	187.012
687.179	136.566
690.072	37.9648
692.965	261.852
695.857	353.383
698.75	751.863
701.643	1609.17
704.535	3160.99
707.428	5229.61
710.321	7872.78
713.214	11849.8
716.106	14198.6
718.999	11466.6
721.892	6350.22
724.784	3168.13
727.677	1674.76
730.57	755.363
733.462	443.289
736.355	159.922
739.248	223.648
742.141	87.082
745.033	128.086
747.926	252.766
750.819	388.461
753.711	449.394
756.604	806.828
759.497	532.902
762.389	240.938
765.282	124.527
768.175	174.656
771.068	51.457
773.96	42.2969
776.853	151.715
779.746	231.715
782.638	529.371
785.531	743.227
788.424	1046.8
791.317	1549.93
794.209	2389.37
797.102	3353.45
799.995	4380.41
802.887	5448.78
805.78	6323.9
808.673	6817.47
811.565	6385.27
814.458	5488.78
817.351	4871.27
820.244	4683.5
823.136	4890.13
826.029	5204.99
828.922	5043.64
831.814	4393.88
834.707	3403.93
837.6	2399.59
840.492	1700.03
843.385	1100.32
846.278	833.141
849.171	850.641
852.063	737.734
854.956	690.477
857.849	628.031
860.741	364.863
863.634	169.816
866.527	147.445
869.419	292.484
872.312	245.004
875.205	205.269
878.098	81.1328
880.99	42.7266
883.883	18.4805
886.776	85.8359
889.668	48.0195
892.561	195.227
895.454	76.2617
898.346	19.9922
901.239	14.668
904.132	119.809
907.025	28.4531
909.917	47.0703
912.81	112.648
915.703	241.027
918.595	242.738
921.488	375.934
924.381	152.277
927.274	358.406
930.166	261.766
933.059	201.18
935.952	18.1055
938.844	48.332
941.737	95.5703
944.63	220.023
947.522	106.961
950.415	414.488
953.308	256.426
956.201	413.113
959.093	552.406
961.986	447.461
964.879	430.984
967.771	695.981
970.664	1009.91
973.557	1275.62
976.449	1618.97
979.342	1660.14
982.235	1497.68
985.128	1266.45
988.02	851.32
990.913	825.098
993.806	473.754
996.698	540.59
999.591	30.0352
1002.48	181.578
1005.38	417.449
1008.27	388.289
1011.16	363.801
1014.05	408.844
1016.95	226.945
1019.84	269.977
1022.73	20.9102
1025.62	17.4961
1028.52	141.832
1031.41	410.394
1034.3	4.44141
1037.2	200.344
1040.09	219.047
1042.98	107.039
1045.87	141.488
1048.77	22.0625
1051.66	30.8086
1054.55	50.0117
1057.44	119.559
1060.34	229.965
1063.23	267.504
1066.12	320.957
1069.02	318.695
1071.91	268.398
1074.8	390.883
1077.69	233.902
1080.59	360.531
1083.48	295.312
1086.37	369.324
1089.27	443.996
1092.16	702.059
1095.05	576.594
1097.94	782.988
1100.84	827.863
1103.73	436.91
1106.62	234.25
1109.51	20.4336
1112.41	50.207
1115.3	260.738
1118.19	222.75
1121.08	131.789
1123.98	166.102
1126.87	106.555
1129.76	333.992
1132.65	193.531
1135.55	251.969
1138.44	407.941
1141.33	383.406
1144.23	214.066
1147.12	195.914
1150.01	330.09
1152.9	332.219
1155.8	130.824
1158.69	242.527
1161.58	47.6914
1164.47	179.469
1167.37	367.082
1170.26	5.35938
1173.15	296.242
1176.05	650.516
1178.94	461.863
1181.83	387.75
1184.72	328.125
1187.62	408.07
1190.51	406.734
1193.4	508.371
1196.3	451.824
1199.19	373.82
1202.08	238.894
1204.97	138.824
1207.87	266.727
1210.76	275.039
1213.65	218.766
1216.54	49.3594
1219.44	1.84766
1222.33	233.832
1225.22	82.957
1228.11	212.457
1231.01	336.219
1233.9	269.422
1236.79	243.102
1239.68	232.043
1242.58	13.6445
1245.47	82.1602
1248.36	6.05078
1251.26	354.09
1254.15	318.512
1257.04	144.156
1259.93	21.168
1262.83	215.691
1265.72	208.973
1268.61	280.262
1271.51	261.16
1274.4	26.5508
1277.29	27.1953
1280.18	12.6953
1283.08	199.031
1285.97	185.664
1288.86	66.207
1291.75	11.1055
1294.65	224.41
1297.54	177.941
1300.43	131.102
1303.33	284.242
