Measurement: Raman, 785 nm, unoriented, Raman Data Processed
Mineral: Magnesite
Rruff sample: R040114
Ideal chemistry: MgCO_3_
Locality: Snarum, Norway
Source: University of Arizona Mineral Museum
Description: Tan colored cleavage fragment
Measured chemistry: (Mg_0.98_Fe_0.01_)C_1.00_O_3_
Raman shift (cm-1)	intensity
115.234	0
118.127	32.0014
121.019	1.7841
123.912	12.1268
126.805	49.8264
129.697	141.29
132.59	394.595
135.483	421.989
138.376	389.71
141.268	247.735
144.161	251.436
147.054	365.329
149.946	525.776
152.839	556.792
155.732	389.032
158.625	296.451
161.517	321.178
164.41	260.322
167.303	251.48
170.195	246.834
173.088	233.476
175.981	233.291
178.873	185.989
181.766	154.974
184.659	159.04
187.552	166.691
190.444	145.447
193.337	164.156
196.23	206.837
199.122	281.86
202.015	356.441
204.908	478.648
207.8	715.481
210.693	1343.59
213.586	2152.73
216.478	815.402
219.371	201.158
222.264	115.505
225.157	76.5974
228.049	45.4569
230.942	25.2662
233.835	45.5722
236.727	16.6957
239.62	24.0266
242.513	28.882
245.405	12.7852
248.298	19.2294
251.191	2.63165
254.084	13.0762
256.976	10.2672
259.869	3.30548
262.762	5.93152
265.654	1.91815
268.547	0.71759
271.44	9.89252
274.332	10.9955
277.225	10.3739
280.118	6.31097
283.011	11.5054
285.903	13.3347
288.796	19.1369
291.689	6.61011
294.581	21.3444
297.474	21.549
300.367	45.4907
303.26	43.9496
306.152	90.2888
309.045	139.209
311.938	315.817
314.83	829.039
317.723	1566.49
320.616	1976.8
323.508	2627.65
326.401	4110.71
329.294	6977.81
332.187	5663.84
335.079	1674.89
337.972	594.399
340.865	306.224
343.757	172.627
346.65	135.445
349.543	82.0422
352.435	59.4935
355.328	46.5283
358.221	46.117
361.113	29.5918
364.006	22.8899
366.899	13.9732
369.792	24.1133
372.684	22.5191
375.577	15.1704
378.47	23.5559
381.362	4.70325
384.255	4.07483
387.148	1.00424
390.041	4.13467
392.933	30.9248
395.826	10.0915
398.719	8.52106
401.611	14.6465
404.504	3.37784
407.397	6.30279
410.289	11.9949
413.182	13.5989
416.075	4.25531
418.967	20.8083
421.86	3.40366
424.753	14.0911
427.646	9.35446
430.538	3.5022
433.431	17.4699
436.324	12.8105
439.216	3.17688
442.109	28.3195
445.002	27.4408
447.894	6.77408
450.787	12.1827
453.68	22.1726
456.573	14.199
459.465	9.28589
462.358	13.5261
465.251	2.86798
468.143	14.2001
471.036	15.1545
473.929	7.31851
476.822	3.11624
479.714	18.8325
482.607	22.5633
485.5	12.1381
488.392	8.05142
491.285	23.0034
494.178	22.6025
497.07	20.5831
499.963	5.85022
502.856	19.9517
505.748	11.4169
508.641	20.0091
511.534	14.11
514.427	10.9924
517.319	20.1473
520.212	10.3973
523.105	10.1014
525.997	6.82529
528.89	19.3457
531.783	3.53671
534.676	14.272
537.568	3.13016
540.461	2.13556
543.354	7.56894
546.246	12.1904
549.139	1.51147
552.032	9.6178
554.924	0.721771
557.817	2.52649
560.71	15.1615
563.602	9.76862
566.495	17.4117
569.388	6.17987
572.281	18.34
575.173	15.7954
578.066	4.09732
580.959	13.8984
583.851	14.9757
586.744	41.1933
589.637	22.3539
592.529	23.7846
595.422	10.4866
598.315	8.61768
601.208	4.89792
604.1	11.407
606.993	2.43771
609.886	13.3169
612.778	0.728088
615.671	12.1069
618.564	12.5969
621.457	5.96594
624.349	0.858795
627.242	0.96225
630.135	2.06287
633.027	14.2812
635.92	5.56732
638.813	0.771057
641.705	10.5811
644.598	7.69269
647.491	12.0735
650.384	7.47839
653.276	21.1393
656.169	12.5442
659.062	10.2905
661.954	8.09747
664.847	18.7094
667.74	20.7907
670.632	5.95792
673.525	33.9229
676.418	36.2921
679.311	18.1756
682.203	36.1824
685.096	39.165
687.989	40.5383
690.881	45.1802
693.774	53.2517
696.667	87.5591
699.559	86.9964
702.452	97.5149
705.345	93.2475
708.237	124.844
711.13	155.131
714.023	218.659
716.916	244.753
719.808	357.39
722.701	511.245
725.594	719.78
728.486	954.751
731.379	1228.39
734.272	1530.59
737.164	1696.94
740.057	1641.24
742.95	1293.23
745.843	915.973
748.735	582.533
751.628	399.673
754.521	240.541
757.413	153.967
760.306	113.442
763.199	58.3199
766.091	36.3337
768.984	20.6773
771.877	21.1321
774.77	25.4996
777.662	0.545013
780.555	6.21985
783.448	5.09482
786.34	0.42572
789.233	11.3546
792.126	8.31793
795.019	5.94907
797.911	1.36212
800.804	11.3102
803.697	0.147369
806.589	3.94943
809.482	9.61762
812.375	3.57883
815.267	0.876648
818.16	13.755
821.053	7.8923
823.946	14.2675
826.838	11.6578
829.731	13.0222
832.624	26.2608
835.516	0.319
838.409	12.1825
841.302	4.29922
844.194	3.33945
847.087	15.4554
849.98	9.74734
852.872	8.68353
855.765	14.0647
858.658	20.6067
861.551	33.3109
864.443	25.424
867.336	21.6116
870.229	20.8645
873.121	25.8834
876.014	32.9941
878.907	20.1753
881.799	27.6276
884.692	10.9261
887.585	17.6946
890.478	20.2764
893.37	21.0928
896.263	7.45993
899.156	15.7151
902.048	14.3537
904.941	2.93692
907.834	11.1551
910.726	3.30026
913.619	6.60452
916.512	6.08929
919.405	9.99078
922.297	22.3174
925.19	17.3116
928.083	26.1149
930.975	17.1716
933.868	16.51
936.761	29.2828
939.654	32.6545
942.546	6.82269
945.439	30.1113
948.332	25.6396
951.224	12.8377
954.117	40.5665
957.01	18.753
959.902	6.20459
962.795	8.83935
965.688	17.8489
968.581	22.1191
971.473	12.2547
974.366	37.095
977.259	6.93994
980.151	24.0423
983.044	18.6471
985.937	22.1947
988.829	17.2043
991.722	13.3583
994.615	5.90781
997.508	6.91415
1000.4	4.5957
1003.29	10.6093
1006.19	8.30151
1009.08	7.94632
1011.97	0.493958
1014.86	7.62372
1017.76	4.43274
1020.65	9.33704
1023.54	9.479
1026.43	9.2279
1029.33	5.45789
1032.22	0.794586
1035.11	22.7808
1038.01	32.3812
1040.9	58.9918
1043.79	79.9462
1046.68	104.687
1049.58	143.717
1052.47	189.665
1055.36	239.163
1058.25	287.936
1061.15	366.679
1064.04	481.353
1066.93	641.687
1069.83	926.307
1072.72	1296.99
1075.61	1841.77
1078.5	2654.34
1081.4	4193.12
1084.29	6763.11
1087.18	10614.7
1090.07	15815.9
1092.97	20182.9
1095.86	19438
1098.75	14427.6
1101.64	9718.59
1104.54	6603.21
1107.43	4476.3
1110.32	2885.9
1113.21	1826.28
1116.11	1145.73
1119	728.304
1121.89	445.955
1124.79	306.102
1127.68	215.736
1130.57	144.437
1133.46	116.34
1136.36	73.0707
1139.25	41.1813
1142.14	32.8029
1145.04	29.553
1147.93	12.8236
1150.82	5.51114
1153.71	1.62027
1156.61	2.60187
1159.5	0.266541
1162.39	2.41281
1165.28	2.49014
1168.18	13.2378
1171.07	5.69565
1173.96	7.13306
1176.86	0.587341
1179.75	10.5039
1182.64	9.14316
1185.53	12.604
1188.43	7.68814
1191.32	35.1143
1194.21	31.9927
1197.1	27.9457
1200	31.702
1202.89	6.31583
1205.78	17.4816
1208.67	25.1636
1211.57	18.4546
1214.46	14.2781
1217.35	22.393
1220.24	9.66885
1223.14	13.0206
1226.03	12.5101
