Measurement: Raman, 532 nm, unoriented, Raman Data Processed
Mineral: Magnetite
Rruff sample: R080025
Ideal chemistry: Fe^2+^Fe^3+^_2_O_4_
Locality: 2500' level, Zinc Corporation of America mine #4, Balmat, New York, USA
Source: William W. Pinch
Description: Black cubes
Raman shift (cm-1)	intensity
157.528	0
160.421	0.08997
163.313	0.890469
166.206	0.131702
169.099	0.868008
171.991	0.947441
174.884	1.11186
177.777	1.25529
180.669	1.12632
183.562	1.52231
186.455	1.57484
189.347	1.4634
192.24	1.13627
195.133	1.74196
198.025	0.552432
200.918	0.425903
203.811	0.353321
206.704	0.059862
209.596	0.00036
212.489	0.180702
215.382	0.04738
218.274	0.101948
221.167	0.099619
224.06	0.005035
226.952	0.278477
229.845	0.650356
232.738	0.496725
235.631	0.573046
238.523	1.12532
241.416	0.709536
244.309	0.67782
247.201	1.00656
250.094	1.28547
252.987	1.41632
255.88	2.04283
258.772	1.39322
261.665	2.10869
264.558	2.40399
267.45	2.79444
270.343	2.94266
273.236	3.16018
276.128	3.96021
279.021	4.48748
281.914	4.76629
284.807	5.00235
287.699	5.85347
290.592	6.51666
293.485	6.84947
296.377	7.23116
299.27	7.1442
302.163	7.08939
305.055	6.74873
307.948	6.81518
310.841	6.4405
313.733	5.72275
316.626	5.16789
319.519	4.84972
322.412	3.47051
325.304	3.49376
328.197	3.03885
331.09	2.90127
333.982	2.02677
336.875	1.66406
339.768	1.71592
342.661	1.36981
345.553	1.0676
348.446	0.938496
351.339	0.856901
354.231	0.448232
357.124	0.555263
360.017	0.455508
362.909	0.427228
365.802	0.298143
368.695	0.221315
371.587	0.054676
374.48	0.118906
377.373	0.365355
380.266	0.002424
383.158	0.165443
386.051	0.223457
388.944	0.208137
391.836	0.114198
394.729	0.110676
397.622	0.068456
400.514	0.341596
403.407	0.526479
406.3	0.68946
409.193	0.538496
412.085	0.292835
414.978	0.371685
417.871	0.499263
420.763	1.07679
423.656	0.425597
426.549	0.634315
429.442	0.510241
432.334	0.390507
435.227	0.764133
438.12	0.654707
441.012	0.089359
443.905	0.282496
446.798	0.144724
449.69	0.282619
452.583	0.16214
455.476	0.014023
458.368	0.362979
461.261	0.212797
464.154	0.27685
467.047	0.056471
469.939	0.334311
472.832	0.107975
475.725	0.489328
478.617	0.509684
481.51	1.11008
484.403	0.681835
487.296	0.682536
490.188	0.394302
493.081	0.867231
495.974	1.21727
498.866	1.25992
501.759	1.22931
504.652	1.76483
507.544	2.04448
510.437	2.598
513.33	3.00995
516.222	3.32762
519.115	3.98458
522.008	4.5162
524.901	4.7377
527.793	5.92821
530.686	6.81532
533.579	7.06721
536.471	6.99532
539.364	6.33058
542.257	6.12757
545.149	5.65964
548.042	4.90747
550.935	4.00816
553.828	3.36912
556.72	1.93934
559.613	1.67232
562.506	1.5576
565.398	1.3132
568.291	0.73505
571.184	0.057455
574.077	0.171452
576.969	0.168565
579.862	0.12657
582.755	0.370921
585.647	0.466732
588.54	0.063049
591.433	0.047022
594.325	0.089979
597.218	0.026175
600.111	0.152346
603.003	0.813456
605.896	0.607752
608.789	1.38047
611.682	2.12334
614.574	2.74828
617.467	3.21618
620.36	4.30079
623.252	5.12112
626.145	7.12279
629.038	8.66852
631.93	10.1494
634.823	12.2122
637.716	14.7652
640.609	18.6422
643.501	22.4126
646.394	26.1344
649.287	31.3202
652.179	35.178
655.072	40.4816
657.965	44.4926
660.857	47.3214
663.75	47.9606
666.643	46.5782
669.535	44.511
672.428	40.9482
675.321	35.989
678.214	32.197
681.106	27.5714
683.999	23.4827
686.892	20.3452
689.784	17.1161
692.677	14.7366
695.57	11.8519
698.462	9.66201
701.355	7.97909
704.248	6.8641
707.141	5.08032
710.033	3.96781
712.926	3.36089
715.819	1.97688
718.711	1.89224
721.604	1.45379
724.497	1.00686
727.389	0.691264
730.282	0.491183
733.175	0.18415
736.068	0.295064
738.96	0.03386
741.853	0.184852
744.746	0.100083
747.638	0.000312
750.531	0.027236
753.424	0.137942
756.317	0.012412
759.209	0.122279
762.102	0.109569
764.995	0.047163
767.887	0.353668
770.78	0.451687
773.673	0.23265
776.565	0.244368
779.458	0.60161
782.351	0.485005
785.244	0.804673
788.136	0.776854
791.029	0.711751
793.922	0.876467
796.814	0.933149
799.707	0.92485
802.6	0.824785
805.492	0.986399
808.385	1.01184
811.278	0.669597
814.17	0.640547
817.063	0.714028
819.956	0.744943
822.849	0.541429
825.741	0.851982
828.634	0.74175
831.527	0.929774
834.419	0.526427
837.312	0.695253
840.205	1.08948
843.097	1.12251
845.99	0.826162
848.883	1.41469
851.776	1.08583
854.668	0.907782
857.561	1.01077
860.454	1.06363
863.346	1.00362
866.239	0.852162
869.132	0.728198
872.024	0.752749
874.917	1.1357
877.81	0.50049
880.703	1.01382
883.595	1.00114
886.488	0.994186
889.381	0.609006
892.273	0.883934
895.166	0.574794
898.059	0.499344
900.952	0.343899
903.844	0.220964
906.737	0.522271
909.63	0.079506
912.522	0.060982
915.415	0.150616
918.308	0.118172
921.2	0.01766
924.093	0.286338
926.986	0.078338
929.879	0.16181
932.771	0.129243
935.664	0.083809
938.557	0.290901
941.449	0.00859
944.342	0.198349
947.235	0.266143
950.127	0.026103
953.02	0.127078
955.913	0.310163
958.806	0.284897
961.698	0.080046
964.591	0.303798
967.484	0.157192
970.376	0.273492
973.269	0.024643
976.162	0.288455
979.054	0.051568
981.947	0.21753
984.84	0.072908
987.732	0.042555
990.625	0.112359
993.518	0.116074
996.41	0.498534
999.303	0.615139
1002.2	0.173614
1005.09	0.138102
1007.98	0.395087
1010.87	0.326539
1013.77	0.121397
1016.66	0.338401
1019.55	0.401765
1022.45	0.470671
1025.34	0.462387
1028.23	0.296124
1031.12	0.224807
1034.02	0.434767
1036.91	0.597166
1039.8	0.64654
1042.69	0.830888
1045.59	0.589749
1048.48	0.515327
1051.37	0.637376
1054.27	0.456119
1057.16	0.54284
1060.05	0.282835
1062.94	0.055697
1065.84	0.235848
1068.73	0.577911
1071.62	0.141809
1074.51	0.350139
1077.41	0.441659
1080.3	0.380694
1083.19	0.204658
1086.08	0.179899
1088.98	0.425411
1091.87	0.239357
1094.76	0.225513
1097.65	0.207723
1100.55	0.254569
1103.44	0.245875
1106.33	0.431947
1109.23	0.340409
1112.12	0.016621
1115.01	0.09249
1117.9	0.437448
1120.8	0.250458
1123.69	0.162817
1126.58	0.43338
1129.47	0.248289
1132.37	0.404992
1135.26	0.369319
1138.15	0.303637
1141.05	0.330519
1143.94	0.053267
1146.83	0.055208
1149.72	0.027594
1152.62	0.373425
1155.51	0.348331
1158.4	0.551168
1161.29	0.296346
1164.19	0.527899
1167.08	0.732838
1169.97	0.052097
1172.87	0.529891
1175.76	0.018741
1178.65	0.239945
1181.54	0.362762
1184.44	0.309401
1187.33	0.224428
1190.22	0.471673
1193.11	0.186743
1196.01	0.539369
1198.9	0.473127
1201.79	0.152322
1204.68	0.507958
1207.58	0.360727
1210.47	0.477889
1213.36	0.124711
1216.26	0.088917
1219.15	0.046915
1222.04	0.350749
1224.93	0.265882
1227.83	0.119331
1230.72	0.200364
1233.61	0.138207
1236.51	0.213788
1239.4	0.318374
1242.29	0.376409
1245.18	0.388449
1248.08	0.157079
1250.97	0.3053
1253.86	0.624563
1256.75	0.277124
1259.65	0.23944
1262.54	0.042008
1265.43	0.078766
1268.32	0.255195
1271.22	0.358828
1274.11	0.104781
1277	0.190361
1279.89	0.192947
1282.79	0.593285
1285.68	0.09622
1288.57	0.034804
1291.47	0.450147
1294.36	0.387475
1297.25	0.145406
1300.14	0.365832
1303.04	0.121559
