Measurement: Raman, 532 nm, unoriented, Raman Data Processed
Mineral: Magnesiotaaffeite-6N3S
Rruff sample: R090019
Ideal chemistry: Mg_2_BeAl_6_O_12_
Locality: Ratnapura District, Sri Lanka
Source: William W. Pinch
Description: Greyish purple flattened tabular hexagonal crystal
Raman shift (cm-1)	intensity
152.155	0
155.048	1.48846
157.94	0.831909
160.833	4.23163
163.726	4.77524
166.618	2.63153
169.511	1.39444
172.404	1.76877
175.297	1.92227
178.189	3.08414
181.082	3.77356
183.975	5.59747
186.867	5.97446
189.76	2.77211
192.653	1.87123
195.545	2.11986
198.438	2.45933
201.331	3.06184
204.224	0.730362
207.116	0.588608
210.009	2.01794
212.902	1.67274
215.794	2.22646
218.687	3.04024
221.58	5.63861
224.472	11.3022
227.365	15.2595
230.258	21.2102
233.15	32.7294
236.043	50.9966
238.936	92.0159
241.829	123.436
244.721	36.1759
247.614	17.7749
250.507	16.4842
253.399	11.8234
256.292	12.2675
259.185	17.0532
262.077	24.6216
264.97	38.2535
267.863	44.3816
270.756	14.1669
273.648	4.99066
276.541	1.70311
279.434	2.8748
282.326	0.666748
285.219	0.044006
288.112	4.01932
291.005	6.29184
293.897	11.0737
296.79	17.1148
299.683	29.4761
302.575	43.8698
305.468	45.7427
308.361	50.2153
311.253	73.5072
314.146	97.9732
317.039	79.148
319.932	32.9222
322.824	22.5246
325.717	21.9845
328.61	19.9338
331.502	15.5637
334.395	17.8118
337.288	16.6033
340.18	6.062
343.073	0.486862
345.966	3.3421
348.858	2.39098
351.751	2.42014
354.644	0.339813
357.536	0.125839
360.429	7.55904
363.322	10.2892
366.215	16.14
369.107	20.0014
372	21.2388
374.893	30.2549
377.785	40.938
380.678	19.362
383.571	7.25316
386.464	8.6785
389.356	21.2918
392.249	37.7503
395.142	65.6496
398.034	136.555
400.927	231.482
403.82	353.028
406.712	343.503
409.605	426.618
412.498	646.246
415.39	514.062
418.283	123.872
421.176	33.2062
424.069	12.3932
426.961	1.63066
429.854	9.66016
432.747	33.9481
435.639	53.0167
438.532	78.7628
441.425	138.052
444.317	234.648
447.21	325.16
450.103	144.416
452.996	73.1007
455.888	72.6343
458.781	43.2644
461.674	4.40088
464.566	3.85979
467.459	2.71167
470.352	10.1097
473.245	25.3595
476.137	50.0002
479.03	106.091
481.923	188.278
484.815	247.217
487.708	256.759
490.601	363.366
493.493	548.908
496.386	448.172
499.279	99.8433
502.171	31.22
505.064	11.1963
507.957	6.35805
510.85	5.46857
513.742	7.0553
516.635	11.0311
519.528	16.0051
522.42	28.9039
525.313	47.2362
528.206	61.3752
531.098	33.1549
533.991	11.9085
536.884	7.68391
539.777	11.3802
542.669	7.80452
545.562	1.26535
548.455	4.5186
551.347	2.45514
554.24	0.909348
557.133	3.22804
560.025	9.60007
562.918	23.2591
565.811	45.8014
568.704	74.2089
571.596	114.056
574.489	162.504
577.382	207.612
580.274	172.179
583.167	88.8856
586.06	39.2825
588.952	14.9491
591.845	5.35117
594.738	3.16386
597.631	4.18219
600.523	7.22023
603.416	18.6064
606.309	23.3726
609.201	19.1483
612.094	34.6425
614.987	61.4444
617.88	103.267
620.772	143.118
623.665	123.9
626.558	67.5445
629.45	31.2944
632.343	11.6053
635.236	4.48093
638.128	2.05753
641.021	2.49229
643.914	8.04353
646.807	15.0404
649.699	32.2463
652.592	60.9136
655.485	95.5974
658.377	137.913
661.27	187.367
664.163	207.359
667.055	169.345
669.948	103.135
672.841	54.0418
675.734	22.4977
678.626	9.30168
681.519	0.811234
684.412	1.57715
687.304	1.82674
690.197	1.54834
693.09	6.27408
695.982	19.8851
698.875	41.8294
701.768	85.8135
704.66	144.84
707.553	223.053
710.446	312.356
713.339	383.712
716.231	362.577
719.124	225.998
722.017	113.079
724.909	60.0513
727.802	30.4656
730.695	13.0116
733.587	6.17978
736.48	1.8093
739.373	0.129816
742.266	0.431564
745.158	2.22838
748.051	8.25386
750.944	13.3941
753.836	22.6304
756.729	25.7122
759.622	15.2177
762.514	3.9028
765.407	0.346344
768.3	0.872879
771.193	1.4621
774.085	2.0554
776.978	6.39336
779.871	12.3966
782.763	20.5607
785.656	30.5637
788.549	48.4225
791.441	67.6016
794.334	94.6227
797.227	121.172
800.12	151.49
803.012	185.651
805.905	203.04
808.798	200.348
811.69	175.731
814.583	156.394
817.476	145.032
820.368	146.012
823.261	156.476
826.154	158.299
829.047	143.782
831.939	115.203
834.832	82.574
837.725	57.6293
840.617	38.2385
843.51	28.1997
846.403	20.7911
849.295	15.6545
852.188	11.6899
855.081	6.38311
857.973	5.18252
860.866	3.77031
863.759	2.84219
866.652	2.59846
869.544	1.91137
872.437	1.49355
875.33	2.40118
878.222	2.41207
881.115	2.13837
884.008	2.25719
886.9	0.470032
889.793	0.166801
892.686	0.964218
895.579	0.721382
898.471	0.370277
901.364	0.3591
904.257	0.977562
907.149	2.60523
910.042	0.826935
912.935	0.583214
915.827	1.86654
918.72	0.875526
921.613	0.928162
924.506	0.268372
927.398	0.959496
930.291	0.186043
933.184	0.779709
936.076	1.70618
938.969	0.151726
941.862	3.43572
944.755	2.5593
947.647	6.95847
950.54	3.51895
953.433	7.30094
956.325	7.72803
959.218	10.9372
962.111	16.7239
965.003	24.3183
967.896	30.8953
970.789	42.4949
973.682	53.6133
976.574	57.1629
979.467	54.1682
982.36	42.5473
985.252	34.1554
988.145	23.7409
991.038	17.5082
993.93	13.6168
996.823	10.2511
999.716	7.12551
1002.61	5.31688
1005.5	3.84216
1008.39	4.31066
1011.29	3.22013
1014.18	1.49158
1017.07	0.806114
1019.97	1.5371
1022.86	0.751282
1025.75	0.337227
1028.64	2.19731
1031.54	1.52864
1034.43	1.50015
1037.32	1.76
1040.21	1.51561
1043.11	2.08992
1046	1.30479
1048.89	1.43057
1051.78	0.082481
1054.68	0.37941
1057.57	1.35755
1060.46	0.661179
1063.36	1.31426
1066.25	1.7102
1069.14	0.815773
1072.03	0.0292772
1074.93	0.85643
1077.82	1.84714
1080.71	1.57294
1083.6	2.17811
1086.5	4.3697
1089.39	2.22143
1092.28	2.12808
1095.17	3.31008
1098.07	2.50272
1100.96	2.71184
1103.85	2.35081
1106.75	2.35184
1109.64	1.40224
1112.53	1.20604
1115.42	2.13033
1118.32	2.18426
1121.21	1.85945
1124.1	0.855972
1126.99	2.4451
1129.89	2.04006
1132.78	1.75015
1135.67	2.64564
1138.57	2.89725
1141.46	0.231064
1144.35	0.659454
1147.24	2.047
1150.14	0.246429
1153.03	1.37875
1155.92	2.96212
1158.81	0.498863
1161.71	0.171371
1164.6	0.798157
1167.49	0.340355
1170.38	3.02879
1173.28	2.64651
1176.17	1.4016
1179.06	3.39165
1181.96	2.98458
1184.85	3.89801
1187.74	3.70937
1190.63	4.45991
1193.53	4.24266
1196.42	6.10361
1199.31	4.67971
1202.2	3.259
1205.1	1.91991
1207.99	2.91611
1210.88	2.45528
1213.78	4.91483
1216.67	0.0473888
1219.56	1.63826
1222.45	2.31722
1225.35	1.76784
1228.24	0.239792
1231.13	1.42504
1234.02	1.37763
1236.92	0.623978
1239.81	0.912582
1242.7	0.948685
1245.6	0.85202
1248.49	0.999741
1251.38	0.615356
1254.27	0.121674
1257.17	2.18935
1260.06	1.89119
1262.95	1.72057
1265.84	1.87479
1268.74	1.58446
1271.63	1.29689
1274.52	1.28638
1277.41	1.44511
1280.31	1.92563
1283.2	3.10864
1286.09	1.2388
1288.99	0.560791
1291.88	1.24028
1294.77	0.797501
1297.66	0.677689
1300.56	0.290222
1303.45	0
