Measurement: Raman, 532 nm, unoriented, Raman Data Processed
Mineral: Magnesio-riebeckite
Rruff sample: R060037
Ideal chemistry: [box]Na_2_(Mg_3_Fe^3+^_2_)Si_8_O_22_(OH)_2_
Locality: Pollone, Piedmont, Italy
Source: University of Arizona Mineral Museum
Description: Black bladed single crystals embedded in a white matrix of calcite
Measured chemistry: [box](Na_1.90_Ca_0.10_)_Σ=2_(Mg_1.65_Fe^2+^_1.40_)_Σ=3.05_(Fe^3+^_1.25_Al_0.55_Mg_0.20_)_Σ=2_Si_8.00_O_22_((OH)_0.95_F_0.05_)_2_
Raman shift (cm-1)	intensity
187.728	0
190.62	0.075821
193.513	3
196.406	6.08804
199.298	10.5967
202.191	19.4881
205.084	26.0976
207.976	26.9494
210.869	21.9539
213.762	16.2044
216.655	14.2473
219.547	13.0198
222.44	11.5123
225.333	10.604
228.225	7.99803
231.118	6.57262
234.011	4.13585
236.904	1.16326
239.796	0.531242
242.689	0.145626
245.582	0.794899
248.474	0.499924
251.367	0.333363
254.26	1.17395
257.152	2.06
260.045	1.69998
262.938	2.6879
265.83	3.9269
268.723	3.44716
271.616	3.91735
274.509	2.97182
277.401	5.01069
280.294	5.43497
283.187	4.59994
286.079	4.05725
288.972	4.86022
291.865	5.73271
294.757	5.10381
297.65	5.59294
300.543	4.25141
303.435	2.28346
306.328	0.187935
309.221	0.269638
312.114	0.192101
315.006	1.03021
317.899	1.70468
320.792	3.15342
323.684	5.29572
326.577	7.94632
329.47	11.265
332.363	14.1879
335.255	15.6049
338.148	15.0252
341.041	12.1591
343.933	13.0748
346.826	12.2526
349.719	7.96326
352.611	6.77362
355.504	6.93964
358.397	7.9269
361.289	12.4549
364.182	16.1377
367.075	21.3404
369.968	28.4572
372.86	34.4096
375.753	37.1168
378.646	33.43
381.538	28.3715
384.431	22.4635
387.324	18.0759
390.216	15.1746
393.109	12.6564
396.002	9.94987
398.895	9.64493
401.787	9.3421
404.68	8.35214
407.573	7.12688
410.465	5.6078
413.358	2.90245
416.251	1.87559
419.144	0.579861
422.036	0.477882
424.929	2.22112
427.822	0.911633
430.714	0.954506
433.607	1.381
436.5	0.521244
439.392	0.666378
442.285	0.128727
445.178	0.057056
448.07	0.341236
450.963	0.395264
453.856	0.517971
456.749	0.281445
459.641	1.33515
462.534	2.24556
465.427	3.70883
468.319	3.2792
471.212	5.61837
474.105	6.73989
476.998	7.13195
479.89	7.64593
482.783	6.64275
485.676	3.84423
488.568	2.96131
491.461	1.7692
494.354	2.51307
497.246	0.139957
500.139	2.06363
503.032	3.10329
505.925	4.75194
508.817	6.72113
511.71	8.41471
514.603	10.8484
517.495	12.1753
520.388	14.3929
523.281	15.4562
526.173	17.5521
529.066	21.5596
531.959	26.0395
534.851	30.0045
537.744	36.3474
540.637	40.8897
543.53	42.0893
546.422	40.0419
549.315	34.0123
552.208	28.9154
555.1	23.4471
557.993	21.1258
560.886	18.6057
563.779	19.923
566.671	18.9825
569.564	19.2638
572.457	21.1164
575.349	20.8497
578.242	21.1667
581.135	20.5491
584.027	21.4316
586.92	21.3789
589.813	18.9658
592.705	16.9883
595.598	14.2403
598.491	8.68464
601.384	4.93808
604.276	2.62281
607.169	0.181618
610.062	0.108501
612.954	0.746315
615.847	0.266918
618.74	0.761379
621.632	0.231579
624.525	0.272827
627.418	0.200108
630.311	0.415028
633.203	1.44493
636.096	2.60217
638.989	2.79672
641.881	5.04621
644.774	5.90462
647.667	9.15826
650.559	12.2495
653.452	18.1851
656.345	24.3964
659.237	33.1169
662.13	41.4634
665.023	49.1907
667.916	51.1608
670.808	48.4729
673.701	43.0533
676.594	34.8668
679.486	25.4095
682.379	16.341
685.272	11.4611
688.165	6.9954
691.057	5.07484
693.95	3.14526
696.843	1.51655
699.735	1.80497
702.628	0.910763
705.521	0.61311
708.413	0.045483
711.306	0.285095
714.199	0.361301
717.092	0.296612
719.984	0.833088
722.877	0.754868
725.77	1.62573
728.662	0.568455
731.555	1.26416
734.448	1.23137
737.341	2.6783
740.233	1.91786
743.126	1.989
746.019	2.06599
748.911	3.42317
751.804	2.18163
754.697	2.00694
757.589	3.28147
760.482	3.89938
763.375	4.84307
766.268	5.78182
769.16	6.8108
772.053	5.91339
774.946	5.30664
777.838	3.62037
780.731	3.63112
783.624	2.2266
786.516	1.75255
789.409	2.15819
792.302	0.701572
795.194	0.703899
798.087	0.965672
800.98	0.024792
803.872	0.317947
806.765	1.16127
809.658	0.406452
812.551	0.191135
815.443	0.041065
818.336	0.407639
821.229	0.116154
824.121	0.518547
827.014	1.12999
829.907	0.815182
832.799	1.86363
835.692	1.86761
838.585	1.37285
841.478	1.20766
844.37	1.95684
847.263	1.98096
850.156	2.34039
853.048	2.53292
855.941	3.30467
858.834	3.86305
861.726	4.03199
864.619	5.09464
867.512	5.48338
870.405	6.5828
873.297	6.93907
876.19	8.02572
879.083	8.73425
881.975	9.78365
884.868	10.1521
887.761	9.671
890.654	9.98889
893.546	8.82436
896.439	7.71339
899.332	6.21695
902.224	5.11083
905.117	4.63206
908.01	2.88853
910.902	1.89291
913.795	1.76574
916.688	0.685795
919.581	0.914024
922.473	0.173946
925.366	1.12261
928.259	0.09993
931.151	0.332298
934.044	0.504292
936.937	0.035442
939.829	0.746201
942.722	0.725281
945.615	0.077801
948.508	0.034283
951.4	1.76331
954.293	1.43809
957.186	2.51486
960.078	4.82351
962.971	5.94032
965.864	9.39084
968.756	10.9498
971.649	13.7914
974.542	13.8709
977.434	13.3403
980.327	10.6905
983.22	7.79378
986.112	5.79866
989.005	3.99979
991.898	2.15993
994.791	1.79321
997.683	0.118099
1000.58	0.54985
1003.47	0.284779
1006.36	0.365719
1009.25	0.108719
1012.15	0.238251
1015.04	0.559139
1017.93	0.940144
1020.83	0.63847
1023.72	1.05252
1026.61	1.60893
1029.5	2.3047
1032.4	3.67332
1035.29	4.36069
1038.18	4.8652
1041.07	5.36408
1043.97	4.61053
1046.86	4.09371
1049.75	4.57303
1052.64	4.19231
1055.54	4.07378
1058.43	2.42775
1061.32	1.18758
1064.21	1.2033
1067.11	1.60229
1070	2.2896
1072.89	2.55287
1075.79	2.91998
1078.68	3.93905
1081.57	4.24995
1084.46	3.91571
1087.36	5.10838
1090.25	6.56212
1093.14	8.27213
1096.04	8.91667
1098.93	8.13347
1101.82	5.47585
1104.71	4.34968
1107.61	2.90289
1110.5	2.42502
1113.39	2.4302
1116.28	1.69001
1119.18	2.03923
1122.07	2.52108
1124.96	1.55497
1127.86	1.58219
1130.75	1.51614
1133.64	1.58618
1136.53	2.11164
1139.43	1.88972
1142.32	1.32102
1145.21	2.33106
1148.1	1.12896
1151	2.08712
1153.89	0.471825
1156.78	0.698627
1159.67	0.755608
1162.57	0.636356
1165.46	0.854906
1168.35	0.165283
1171.24	0.283463
1174.14	0.346544
1177.03	0.385948
1179.92	0.011169
1182.82	0.305447
1185.71	0.423948
1188.6	0.178673
1191.49	0.109377
1194.39	0.062433
1197.28	0.391502
1200.17	0.210972
1203.07	0.198112
1205.96	0.133993
1208.85	0.64649
1211.74	0.713202
1214.64	0.957069
1217.53	1.41621
1220.42	0.725494
1223.31	0.983377
1226.21	0.948639
1229.1	1.20027
1231.99	0.757278
1234.88	2.37202
1237.78	1.31726
1240.67	0.781864
1243.56	0.492989
1246.46	1.24066
1249.35	1.09817
1252.24	0.555218
1255.13	0.991095
1258.03	0.837343
1260.92	0.321852
1263.81	0.474602
1266.7	0.358791
1269.6	0.46269
1272.49	0.635117
1275.38	0.514673
1278.28	0.347849
1281.17	0.048399
1284.06	0.092407
1286.95	0.421816
1289.85	0.089731
