Measurement: Raman, 780 nm, unoriented, Raman Data Processed
Mineral: Magnesiotaaffeite-2N2S
Rruff sample: R090035
Ideal chemistry: Mg_3_BeAl_8_O_16_
Locality: Ratnapura District, Sri-Lanka
Source: William W. Pinch
Description: Rounded hexagonal purple crystal with pyramidal terminations
Raman shift (cm-1)	intensity
101.708	0
105.083	12.1182
108.457	8.52441
111.832	2.83795
115.207	0.722473
118.582	5.86316
121.957	8.09271
125.332	0.063599
128.706	1.37244
132.081	0.837341
135.456	2.64978
138.831	1.11261
142.206	5.98834
145.58	14.7474
148.955	20.7559
152.33	5.81543
155.705	4.81024
159.08	1.22302
162.454	0.555542
165.829	2.17248
169.204	5.83838
172.579	9.39685
175.954	0.985596
179.328	4.37659
182.703	5.51843
186.078	1.82446
189.453	5.4856
192.828	5.5603
196.203	7.71405
199.577	0.229736
202.952	1.92157
206.327	5.82104
209.702	3.23694
213.077	4.51379
216.451	5.57159
219.826	1.409
223.201	4.7179
226.576	0.539734
229.951	11.5437
233.326	7.77777
236.7	6.30444
240.075	6.16266
243.45	5.41461
246.825	10.5999
250.2	4.03705
253.574	7.35107
256.949	1.39508
260.324	1.38219
263.699	5.58954
267.074	8.44373
270.449	15.3496
273.823	25.3178
277.198	24.3419
280.573	24.1575
283.948	21.7746
287.322	13.4866
290.697	14.3732
294.072	15.6157
297.447	18.3715
300.822	11.238
304.197	1.94055
307.571	8.31244
310.946	6.65729
314.321	2.4389
317.696	5.65125
321.071	2.00757
324.445	5.55475
327.82	4.91638
331.195	13.1433
334.57	17.7769
337.945	29.3219
341.32	57.3416
344.694	93.7824
348.069	164.953
351.444	127.853
354.819	37.6067
358.194	8.93909
361.568	4.07471
364.943	4.99078
368.318	9.60352
371.693	18.0873
375.068	20.3625
378.442	11.2855
381.817	3.81635
385.192	4.12054
388.567	0.280884
391.942	10.1048
395.317	34.722
398.691	71.0416
402.066	110.9
405.441	150.159
408.816	217.661
412.191	371.917
415.565	509.873
418.94	326.144
422.315	171.69
425.69	130.608
429.065	157.663
432.44	226.943
435.814	321.035
439.189	256.869
442.564	129
445.939	121.502
449.314	134.846
452.688	83.5543
456.063	29.8923
459.438	7.86426
462.813	0.045776
466.188	0.117737
469.562	0.480225
472.937	4.15198
476.312	18.6047
479.687	38.1777
483.062	53.8368
486.437	87.5843
489.811	117.52
493.186	103.91
496.561	63.9662
499.936	34.6451
503.311	31.4105
506.685	32.2538
510.06	23.696
513.435	10.0691
516.81	2.06543
520.185	1.4378
523.56	1.1637
526.934	4.73547
530.309	4.33337
533.684	2.35199
537.059	13.7332
540.434	10.8604
543.808	17.028
547.183	20.9381
550.558	17.4724
553.933	13.1159
557.308	8.60809
560.683	7.60028
564.057	1.2843
567.432	1.65088
570.807	3.58397
574.182	0.462463
577.557	7.19806
580.931	1.74255
584.306	5.33704
587.681	1.86902
591.056	8.99481
594.431	5.41711
597.806	16.4331
601.18	14.7079
604.555	19.0582
607.93	26.3032
611.305	41.3014
614.68	55.5547
618.054	79.7959
621.429	92.6087
624.804	76.1288
628.179	48.453
631.554	27.5256
634.928	14.2785
638.303	1.19452
641.678	6.40936
645.053	4.89551
648.428	4.25696
651.803	3.95453
655.177	12.2723
658.552	31.9369
661.927	52.2531
665.302	57.3581
668.677	68.7163
672.051	71.626
675.426	49.2363
678.801	16.7439
682.176	0.25415
685.551	2.96326
688.926	7.14789
692.3	18.3395
695.675	42.9893
699.05	74.5843
702.425	122.982
705.8	171.749
709.174	234.115
712.549	297.21
715.924	277.698
719.299	170.034
722.674	90.4379
726.048	48.0919
729.423	35.3166
732.798	36.8036
736.173	38.7925
739.548	36.244
742.923	49.3376
746.297	73.6451
749.672	103.142
753.047	133.286
756.422	177.704
759.797	225.66
763.171	238.842
766.546	165.441
769.921	82.7593
773.296	50.6352
776.671	27.9102
780.045	13.1398
783.42	3.91114
786.795	5.93964
790.17	0.290649
793.545	4.21265
796.919	5.52478
800.294	7.2608
803.669	13.1633
807.044	29.5564
810.419	42.8945
813.794	47.5625
817.168	34.3082
820.543	22.8845
823.918	17.5859
827.293	9.89914
830.668	7.81952
834.043	5.76956
837.417	5.29059
840.792	7.43536
844.167	1.22043
847.542	2.37993
850.917	6.4137
854.291	5.25693
857.666	3.09436
861.041	5.25449
864.416	7.87674
867.791	4.78088
871.165	2.89679
874.54	4.84335
877.915	5.03537
881.29	3.29529
884.665	5.05734
888.039	7.51713
891.414	1.42401
894.789	1.18921
898.164	1.88397
901.539	6.13409
904.914	2.26071
908.288	8.83929
911.663	4.78012
915.038	9.96512
918.413	8.17859
921.788	16.6516
925.163	17.7453
928.537	16.9539
931.912	20.7154
935.287	32.7964
938.662	38.8575
942.037	44.9466
945.411	49.5311
948.786	44.0214
952.161	45.3691
955.536	33.862
958.911	25.7397
962.285	20.1953
965.66	12.4938
969.035	7.56079
972.41	9.08673
975.785	3.88727
979.159	4.46979
982.534	3.69235
985.909	3.47586
989.284	2.31064
992.659	0.680359
996.034	7.03018
999.408	3.08655
1002.78	4.70197
1006.16	3.37051
1009.53	1.14679
1012.91	1.16583
1016.28	5.65869
1019.66	2.5665
1023.03	8.8331
1026.41	10.0388
1029.78	2.76352
1033.16	1.6015
1036.53	5.15894
1039.91	8.24579
1043.28	2.02307
1046.66	1.74561
1050.03	1.47568
1053.4	1.50696
1056.78	4.98297
1060.15	2.30698
1063.53	6.21243
1066.9	4.84634
1070.28	4.83536
1073.65	4.9379
1077.03	2.63562
1080.4	4.3309
1083.78	3.27429
1087.15	0.4758
1090.53	4.36047
1093.9	1.7445
1097.28	2.94482
1100.65	2.58432
1104.03	0.961517
1107.4	0.164917
1110.78	2.96658
1114.15	7.88641
1117.53	2.10837
1120.9	5.40735
1124.28	5.72101
1127.65	2.47275
1131.03	1.66571
1134.4	4.65332
1137.78	3.23672
1141.15	2.70224
1144.53	1.81943
1147.9	4.68561
1151.28	4.15775
1154.65	4.46909
1158.03	1.85055
1161.4	5.58154
1164.77	3.61423
1168.15	7.18167
1171.52	5.40475
1174.9	7.85403
1178.27	3.49081
1181.65	4.77368
1185.02	0.826996
1188.4	6.09296
1191.77	5.34793
1195.15	8.84851
1198.52	7.7948
1201.9	3.4346
1205.27	3.37894
1208.65	3.27167
1212.02	4.14917
1215.4	2.28854
1218.77	8.22983
1222.15	4.21814
1225.52	3.29571
1228.9	8.39444
1232.27	2.73132
1235.64	7.45017
1239.02	2.15756
1242.39	5.41605
1245.77	3.25391
1249.14	0.483634
1252.52	0.446899
1255.89	1.92117
1259.27	1.57129
1262.64	0.126587
1266.02	5.42429
1269.39	2.22644
1272.77	10.0385
1276.14	2.85437
1279.52	9.92935
1282.89	0.699005
1286.27	0
