Measurement: Raman, 785 nm, unoriented, Raman Data Processed
Mineral: Magnesio-riebeckite
Rruff sample: R070002
Ideal chemistry: [box]Na_2_(Mg_3_Fe^3+^_2_)Si_8_O_22_(OH)_2_
Locality: Alto Chapare, Cochabamba Department, Bolivia
Source: Michael Scott
Description: Light bluish gray fibrous cloth-like fabric
Measured chemistry: (Na_1.92_Ca_0.08_K_0.04_)_Σ=2_(Mg_2.62_Fe^2+^_0.50_)_Σ=3.12_(Fe^3+^_1.84_Al_0.04_)_Σ=1.88_Si_8.00_O_22_(OH)_2_; OH estimated by stoichiometry; Fe^3+^ and Fe^2+^ splitted by charge balance
Raman shift (cm-1)	intensity
152.165	0
155.058	0.318726
157.951	20.1199
160.844	106.51
163.736	229.359
166.629	426.041
169.522	527.279
172.414	284.693
175.307	109.541
178.2	59.8828
181.092	62.4618
183.985	59.0184
186.878	2.41492
189.77	0.549927
192.663	40.433
195.556	59.4166
198.449	154.342
201.341	201.958
204.234	324.588
207.127	398.233
210.019	335.565
212.912	271.35
215.805	252.153
218.697	218.556
221.59	215.123
224.483	192.806
227.376	198.313
230.268	211.512
233.161	171.772
236.054	77.4321
238.946	38.7372
241.839	23.1897
244.732	13.7339
247.625	24.0427
250.517	38.2781
253.41	71.6273
256.303	37.796
259.195	26.0675
262.088	46.2433
264.981	65.8687
267.873	48.9575
270.766	60.6133
273.659	10.3054
276.551	18.1514
279.444	1.33862
282.337	8.03339
285.23	17.0944
288.122	16.4705
291.015	46.353
293.908	55.4052
296.8	115.862
299.693	143.252
302.586	116.702
305.478	98.7609
308.371	78.1194
311.264	66.5321
314.157	49.2791
317.049	12.4402
319.942	18.0902
322.835	28.0391
325.727	19.8691
328.62	34.1943
331.513	32.4205
334.406	87.7155
337.298	96.7967
340.191	95.3387
343.084	52.5867
345.976	117.206
348.869	109.344
351.762	28.775
354.654	23.638
357.547	1.96481
360.44	41.0079
363.332	53.1857
366.225	100.312
369.118	151.082
372.011	192.347
374.903	177.233
377.796	103.566
380.689	71.2767
383.581	56.6348
386.474	62.2965
389.367	54.2831
392.26	51.5779
395.152	41.6717
398.045	55.3958
400.938	56.433
403.83	61.1415
406.723	79.3843
409.616	89.5786
412.508	84.22
415.401	52.5931
418.294	42.4791
421.187	18.8051
424.079	15.0784
426.972	32.6273
429.865	63.522
432.757	66.0825
435.65	52.0371
438.543	26.4634
441.435	30.0377
444.328	6.24069
447.221	4.50958
450.113	12.4641
453.006	1.70862
455.899	22.2468
458.792	18.2022
461.684	5.08963
464.577	19.9402
467.47	26.98
470.362	32.4107
473.255	76.2265
476.148	91.5621
479.041	72.5006
481.933	48.6956
484.826	9.86366
487.719	13.4607
490.611	28.4937
493.504	39.7449
496.397	29.5591
499.289	62.0875
502.182	67.1607
505.075	81.087
507.967	101.456
510.86	115.239
513.753	130.499
516.646	169.293
519.538	151.636
522.431	190.685
525.324	215.705
528.216	220.909
531.109	298.066
534.002	373.283
536.894	470.774
539.787	508.608
542.68	523.291
545.573	432.956
548.465	293.967
551.358	230.151
554.251	176.227
557.143	169.05
560.036	131.4
562.929	138.314
565.821	137.011
568.714	130.189
571.607	138.558
574.5	137.277
577.392	133.585
580.285	116.45
583.178	112.553
586.07	111.796
588.963	77.7963
591.856	56.1586
594.748	29.9748
597.641	4.65189
600.534	28.998
603.427	1.47598
606.319	20.4506
609.212	13.5181
612.105	5.51221
614.997	4.59631
617.89	4.30991
620.783	0.804489
623.675	24.5219
626.568	11.8162
629.461	4.96709
632.354	16.9222
635.246	4.12544
638.139	33.2309
641.032	40.4248
643.924	27.8519
646.817	33.8753
649.71	75.407
652.602	91.3267
655.495	130.12
658.388	171.767
661.28	224.446
664.173	265.817
667.066	342.303
669.959	339.613
672.851	333.538
675.744	334.78
678.637	252.534
681.529	178.278
684.422	113.046
687.315	81.7291
690.207	65.5866
693.1	49.4016
695.993	27.9207
698.886	9.50102
701.778	3.87585
704.671	37.1917
707.564	16.8535
710.456	2.93095
713.349	6.83699
716.242	15.7536
719.135	19.2594
722.027	7.10477
724.92	1.88261
727.813	14.3906
730.705	12.0674
733.598	4.40724
736.491	27.7543
739.383	30.2682
742.276	12.4022
745.169	40.7957
748.062	16.4374
750.954	30.7261
753.847	25.6206
756.74	17.337
759.632	19.0534
762.525	29.1087
765.418	31.1442
768.31	62.6891
771.203	35.3807
774.096	40.6705
776.989	12.9705
779.881	21.7771
782.774	10.9225
785.667	33.3882
788.559	13.1357
791.452	36.7792
794.345	23.744
797.237	17.5567
800.13	19.9793
803.023	16.132
805.915	1.14398
808.808	34.8436
811.701	1.49219
814.594	34.0278
817.486	27.0091
820.379	17.818
823.272	17.187
826.164	22.6706
829.057	1.4339
831.95	14.716
834.842	9.10594
837.735	12.1302
840.628	15.0734
843.521	32.0696
846.413	33.6408
849.306	15.2135
852.199	3.7466
855.091	18.0427
857.984	18.8224
860.877	4.00073
863.769	23.3282
866.662	25.2383
869.555	24.493
872.448	22.9804
875.34	25.7159
878.233	45.8808
881.126	67.0349
884.018	66.6223
886.911	95.2968
889.804	101.457
892.697	126.247
895.589	148.336
898.482	146.757
901.375	113.593
904.267	127.308
907.16	82.6005
910.053	58.4593
912.945	40.1227
915.838	50.1252
918.731	31.9778
921.624	4.17929
924.516	1.13501
927.409	6.90985
930.302	17.8067
933.194	24.6222
936.087	8.04047
938.98	19.1833
941.872	30.6552
944.765	18.299
947.658	48.0583
950.55	55.3746
953.443	98.8872
956.336	156.338
959.229	261.124
962.121	390.387
965.014	554.638
967.907	802.492
970.799	949.208
973.692	885.446
976.585	684.311
979.477	421.786
982.37	289.264
985.263	203.703
988.155	153.411
991.048	150.251
993.941	110.417
996.834	64.4521
999.726	77.3654
1002.62	23.0644
1005.51	29.6965
1008.4	6.47217
1011.3	26.6735
1014.19	17.9916
1017.08	4.24405
1019.98	22.887
1022.87	17.2749
1025.76	0.063583
1028.65	29.3633
1031.55	25.4808
1034.44	60.4402
1037.33	52.4813
1040.22	40.3727
1043.12	47.5539
1046.01	99.0621
1048.9	79.5781
1051.8	104.937
1054.69	75.5571
1057.58	73.18
1060.47	58.6983
1063.37	50.3773
1066.26	18.4383
1069.15	25.2745
1072.04	11.3279
1074.94	11.6288
1077.83	34.4353
1080.72	30.9846
1083.62	12.2758
1086.51	26.7248
1089.4	45.8413
1092.29	30.0002
1095.18	49.8117
1098.08	50.058
1100.97	36.3479
1103.86	33.5909
1106.76	33.1408
1109.65	18.9513
1112.54	12.8038
1115.43	15.4438
1118.33	16.6862
1121.22	9.56419
1124.11	17.4592
1127.01	20.6189
1129.9	5.00075
1132.79	18.3125
1135.68	17.2433
1138.58	4.74457
1141.47	2.06543
1144.36	16.9783
1147.25	26.6742
1150.15	24.1297
1153.04	23.723
1155.93	0.651581
1158.83	23.9804
1161.72	20.023
1164.61	17.2489
1167.5	28.9184
1170.4	25.2786
1173.29	25.5063
1176.18	28.0125
1179.07	22.4234
1181.97	1.17357
1184.86	32.8343
1187.75	9.48883
1190.64	25.3865
1193.54	22.8331
1196.43	19.7607
1199.32	35.5316
1202.21	2.86148
1205.11	24.1415
1208	16.4672
1210.89	35.0093
1213.79	33.5754
1216.68	27.4559
1219.57	19.9545
1222.46	66.3388
1225.36	23.095
1228.25	41.2987
1231.14	27.8434
1234.04	33.4828
1236.93	21.0885
1239.82	28.3386
1242.71	21.1872
