Measurement: Raman, 780 nm, unoriented, Raman Data Processed
Mineral: Magnesiotaaffeite-6N3S
Rruff sample: R090019
Ideal chemistry: Mg_2_BeAl_6_O_12_
Locality: Ratnapura District, Sri Lanka
Source: William W. Pinch
Description: Greyish purple flattened tabular hexagonal crystal
Raman shift (cm-1)	intensity
100.573	0
103.948	8.23444
107.323	20.3479
110.697	68.4622
114.072	353.253
117.447	108.109
120.822	5.54535
124.197	2.84894
127.572	5.42932
130.946	0.392822
134.321	2.65961
137.696	3.72357
141.071	5.2359
144.446	5.4971
147.82	1.99985
151.195	1.64636
154.57	3.74585
157.945	0.779724
161.32	5.14731
164.694	8.22247
168.069	14.4182
171.444	10.3183
174.819	12.7895
178.194	14.2009
181.569	13.5146
184.943	15.826
188.318	14.6151
191.693	10.812
195.068	15.589
198.443	9.45786
201.817	13.4781
205.192	13.7612
208.567	7.42087
211.942	10.076
215.317	4.62833
218.691	8.88934
222.066	14.8359
225.441	17.2681
228.816	19.2893
232.191	26.7886
235.566	50.8064
238.94	122.744
242.315	83.1445
245.69	28.9545
249.065	14.5926
252.44	9.35703
255.815	10.5958
259.189	15.5364
262.564	27.5718
265.939	44.7199
269.314	19.066
272.689	6.02072
276.063	1.28677
279.438	0.721588
282.813	0.510864
286.188	0.63089
289.563	3.06311
292.938	7.08667
296.312	14.7655
299.687	23.4711
303.062	39.6296
306.437	30.3545
309.812	59.8065
313.186	89.1031
316.561	65.2327
319.936	24.6372
323.311	17.0108
326.686	17.9738
330.06	13.1087
333.435	10.8436
336.81	15.5094
340.185	0.51239
343.56	1.21091
346.935	4.64343
350.309	0.193756
353.684	1.88294
357.059	3.55304
360.434	2.05267
363.809	6.57642
367.183	12.8478
370.558	12.5271
373.933	19.7037
377.308	30.0465
380.683	9.67905
384.058	7.26889
387.432	12.1443
390.807	20.5012
394.182	50.3361
397.557	99.6894
400.932	195.036
404.306	295.911
407.681	259.354
411.056	495.619
414.431	433.009
417.806	81.016
421.18	18.6016
424.555	1.48822
427.93	1.06714
431.305	12.0077
434.68	22.9485
438.055	49.6922
441.429	104.379
444.804	240.769
448.179	173.445
451.554	59.8702
454.929	63.0698
458.303	27.7093
461.678	0.12381
465.053	1.00876
468.428	3.36697
471.803	9.95383
475.178	32.1859
478.552	83.8358
481.927	154.307
485.302	172.239
488.677	216.181
492.052	457.543
495.426	424.169
498.801	76.417
502.176	17.9177
505.551	7.5538
508.926	2.51694
512.301	5.492
515.675	6.01556
519.05	12.4577
522.425	23.4833
525.8	53.3836
529.175	41.5223
532.549	11.6729
535.924	6.32486
539.299	8.00571
542.674	5.32147
546.049	0.790222
549.423	5.89883
552.798	2.00888
556.173	1.01511
559.548	10.3529
562.923	22.4548
566.298	36.8197
569.672	67.5502
573.047	115.523
576.422	182.497
579.797	150.341
583.172	69.7007
586.546	28.0561
589.921	7.77826
593.296	4.99527
596.671	3.1955
600.046	3.0224
603.42	18.2866
606.795	18.1261
610.17	16.894
613.545	33.4188
616.92	76.1099
620.295	122.121
623.669	95.5169
627.044	42.9869
630.419	16.5621
633.794	7.07175
637.169	3.46558
640.543	7.0762
643.918	7.65091
647.293	18.6003
650.668	34.6863
654.043	60.8875
657.418	102.129
660.792	150.845
664.167	173.401
667.542	121.221
670.917	59.9858
674.292	24.6659
677.667	10.4702
681.041	0.14798
684.416	2.14807
687.791	0.002625
691.166	5.01126
694.541	8.2858
697.915	26.3248
701.29	58.839
704.665	106.938
708.04	179.523
711.415	256.24
714.789	282.769
718.164	175.397
721.539	83.1929
724.914	38.918
728.289	12.9683
731.664	4.48761
735.038	1.03015
738.413	0.033203
741.788	1.34802
745.163	2.91116
748.538	0.173676
751.913	15.2697
755.287	19.1037
758.662	8.63217
762.037	2.16864
765.412	1.99896
768.787	5.09909
772.161	0.04776
775.536	5.81222
778.911	11.3928
782.286	16.8859
785.661	30.4666
789.035	42.2959
792.41	62.3486
795.785	84.0254
799.16	112.634
802.535	137.518
805.909	155.641
809.284	145.971
812.659	126.254
816.034	106.942
819.409	109.517
822.784	111.105
826.158	119.347
829.533	99.4852
832.908	74.9087
836.283	51.0941
839.658	33.0799
843.033	25.0502
846.407	18.3504
849.782	14.9893
853.157	9.56708
856.532	9.23883
859.907	5.79925
863.281	6.20676
866.656	6.55753
870.031	5.44302
873.406	6.31592
876.781	5.31345
880.155	2.50348
883.53	1.28195
886.905	1.11591
890.28	1.88852
893.655	1.62921
897.03	1.02435
900.404	3.50006
903.779	0.180206
907.154	0.33548
910.529	0.522385
913.904	1.07997
917.278	0.604065
920.653	1.64526
924.028	1.40739
927.403	0.638336
930.778	1.59419
934.153	3.09529
937.527	0.280991
940.902	1.52463
944.277	3.75883
947.652	0.888809
951.027	4.17224
954.401	2.88934
957.776	7.73351
961.151	11.9042
964.526	14.0917
967.901	22.1687
971.275	29.4092
974.65	36.1032
978.025	36.6798
981.4	28.0514
984.775	21.2307
988.15	14.7397
991.524	9.7258
994.899	6.09818
998.274	3.88931
1001.65	5.78983
1005.02	0.925446
1008.4	0.424347
1011.77	1.46481
1015.15	0.117508
1018.52	3.17789
1021.9	4.33783
1025.27	2.44598
1028.65	3.32172
1032.02	1.92064
1035.4	2.97269
1038.77	0.139053
1042.15	1.66089
1045.52	1.04225
1048.9	2.94803
1052.27	4.84529
1055.65	4.10596
1059.02	5.45721
1062.4	2.00894
1065.77	3.56505
1069.14	2.28506
1072.52	0.785507
1075.89	4.12465
1079.27	2.88812
1082.64	2.78761
1086.02	1.74037
1089.39	4.13563
1092.77	6.54968
1096.14	4.40588
1099.52	1.91603
1102.89	1.48425
1106.27	2.40678
1109.64	0.235062
1113.02	0.551102
1116.39	1.15404
1119.77	1.01883
1123.14	3.12199
1126.52	2.63621
1129.89	0.70546
1133.27	1.56149
1136.64	1.02422
1140.02	0.413986
1143.39	2.77286
1146.77	3.07397
1150.14	2.82614
1153.52	2.57478
1156.89	3.54355
1160.27	3.35991
1163.64	2.75032
1167.02	5.22377
1170.39	3.79726
1173.77	2.84657
1177.14	4.89799
1180.51	6.145
1183.89	6.76068
1187.26	7.49316
1190.64	6.21646
1194.01	5.95656
1197.39	8.23537
1200.76	6.38866
1204.14	7.02275
1207.51	2.8279
1210.89	4.49016
1214.26	1.09979
1217.64	5.81535
1221.01	0.972351
1224.39	1.21565
1227.76	1.86458
1231.14	4.12833
1234.51	4.58427
1237.89	1.26057
1241.26	5.97253
1244.64	6.43233
1248.01	2.09933
1251.38	0.033493
1254.76	0.409485
1258.13	0.715836
1261.51	0.726608
1264.88	3.13779
1268.26	0.415634
1271.63	3.80797
1275.01	4.7279
1278.38	2.89044
1281.76	1.47072
1285.13	0.415192
