Measurement: Raman, 785 nm, unoriented, Raman Data Processed
Mineral: Magnesiotaaffeite-6N3S
Rruff sample: X070005
Ideal chemistry: Mg_2_BeAl_6_O_12_
Locality: Tunduru, Tanzania
Source: www.multicolour.com
Description: Pale lavendar cut gemstone, 0.65 cts, formerly known as musgravite-18R
Raman shift (cm-1)	intensity
169.743	0
172.636	98.7891
175.529	131.986
178.421	182.96
181.314	52.6162
184.207	86.3506
187.099	198.149
189.992	189.738
192.885	99.0322
195.778	91.1875
198.67	34.3975
201.563	81.1357
204.456	152.48
207.348	139.576
210.241	99.1231
213.134	191.945
216.026	166.528
218.919	54.1641
221.812	126.33
224.705	49.8545
227.597	193.48
230.49	79.3359
233.383	200.503
236.275	355.876
239.168	842.235
242.061	798.491
244.953	322.985
247.846	184.497
250.739	35.0332
253.632	202.487
256.524	20.459
259.417	200.67
262.31	258.01
265.202	501.571
268.095	264.232
270.988	188.816
273.88	60.0391
276.773	151.712
279.666	105.506
282.559	41.6631
285.451	126.08
288.344	20.917
291.237	46.3174
294.129	17.7197
297.022	45.8584
299.915	272.075
302.808	286.396
305.7	329.546
308.593	446.631
311.486	555.432
314.378	987.062
317.271	616.985
320.164	244.007
323.056	130.19
325.949	126.371
328.842	196.359
331.735	170.747
334.627	153.798
337.52	256.935
340.413	108.475
343.305	25.3369
346.198	44.7559
349.091	7.31543
351.983	11.8271
354.876	14.4111
357.769	4.34766
360.661	79.2773
363.554	103.484
366.447	119.673
369.34	88.8603
372.232	177.097
375.125	408.953
378.018	228.605
380.91	64.2334
383.803	75.6973
386.696	6.04004
389.589	109.359
392.481	253.169
395.374	407.597
398.267	654.042
401.159	1283.89
404.052	2273.1
406.945	2292.56
409.837	3773.24
412.73	6731.94
415.623	3690.46
418.515	1066.9
421.408	335.456
424.301	161.804
427.194	3.39062
430.086	30.3457
432.979	125.66
435.872	330.464
438.764	591.199
441.657	975.371
444.55	2296.73
447.442	2606.81
450.335	1085.82
453.228	621.352
456.121	631.349
459.013	355.149
461.906	134.402
464.799	14.6982
467.691	10.6172
470.584	12.123
473.477	159.935
476.37	252.967
479.262	615.663
482.155	1287.69
485.048	1502.68
487.94	1426.27
490.833	2170.07
493.726	3825.37
496.618	2164.88
499.511	589.749
502.404	230.691
505.296	99.8291
508.189	81.6465
511.082	7.28516
513.975	50.8027
516.867	46.1787
519.76	84.9912
522.653	171.98
525.545	205.097
528.438	364.507
531.331	141.786
534.223	158.502
537.116	32.7373
540.009	154.115
542.902	99.8818
545.794	14.3232
548.687	52.6836
551.58	45.6543
554.472	70.6201
557.365	57.3799
560.258	64.1611
563.15	39.7822
566.043	243.019
568.936	403.644
571.829	734.359
574.721	1037.99
577.614	1232.38
580.507	986.398
583.399	524.733
586.292	264.91
589.185	122.599
592.077	177.131
594.97	99.6699
597.863	77.2812
600.756	150.046
603.648	185.484
606.541	116.739
609.434	80.3428
612.327	180.929
615.219	399.625
618.112	513.609
621.005	790.301
623.897	711.81
626.79	353.635
629.683	42.3203
632.575	105.994
635.468	74.0205
638.361	26.9766
641.254	40.8438
644.146	17.8916
647.039	144.913
649.932	114.842
652.824	241.668
655.717	392.508
658.61	759.849
661.502	963.056
664.395	1045.55
667.288	868.856
670.181	412.415
673.073	230.966
675.966	122.108
678.859	13.6221
681.751	13.8594
684.644	21.2422
687.537	42.9424
690.429	64.8906
693.322	55.3994
696.215	101.542
699.107	182.812
702	456.116
704.893	837.718
707.786	1355.61
710.678	2147.42
713.571	2796.72
716.464	2440.21
719.356	1417.64
722.249	802.486
725.142	377.558
728.034	213.042
730.927	224.024
733.82	148.694
736.713	9.66113
739.605	13.3433
742.498	13.0864
745.391	78.2505
748.283	59.2188
751.176	167.17
754.069	206.347
756.962	108.971
759.854	139.659
762.747	109.205
765.64	123.471
768.532	45.561
771.425	17.9902
774.318	82.4307
777.21	6.36914
780.103	18.2231
782.996	91.6963
785.889	202.125
788.781	299.378
791.674	381.602
794.567	565.845
797.459	669.567
800.352	793.238
803.245	1006.1
806.137	1111.9
809.03	1011.13
811.923	859.447
814.816	830.625
817.708	890.515
820.601	773.061
823.494	846.58
826.386	871.355
829.279	750.388
832.172	531.384
835.064	440.947
837.957	327.138
840.85	222.279
843.742	127.157
846.635	99.3906
849.528	195.396
852.421	64.9683
855.313	30.4209
858.206	77.6821
861.099	141.714
863.991	78.8667
866.884	56.5449
869.777	40.4839
872.669	73.8623
875.562	49.5986
878.455	12.4849
881.348	50.7441
884.24	85.2139
887.133	1.19238
890.026	32.7602
892.918	73.9981
895.811	109.534
898.704	50.8574
901.596	60.4102
904.489	104.621
907.382	41.936
910.275	63.7388
913.167	54.4639
916.06	26.1001
918.953	137.712
921.846	25.7939
924.738	78.25
927.631	81.7139
930.524	17.4477
933.416	38.1597
936.309	88.3096
939.202	33.437
942.094	6.94043
944.987	50.3804
947.88	75.6538
950.773	65.0181
953.665	53.6753
956.558	56.4233
959.451	165.123
962.343	128.286
965.236	149.827
968.129	132.947
971.021	271.125
973.914	272.275
976.807	276.059
979.699	267.19
982.592	172.303
985.485	214.121
988.378	57.8174
991.27	116.036
994.163	60.728
997.056	98.9956
999.948	37.0166
1002.84	77.0903
1005.73	52.6714
1008.63	82.687
1011.52	50.9141
1014.41	16.23
1017.3	109.157
1020.2	112.921
1023.09	68.4185
1025.98	125.51
1028.88	117.616
1031.77	93.4248
1034.66	4.41406
1037.55	1.85938
1040.45	137.977
1043.34	115.236
1046.23	32.2554
1049.12	41.8838
1052.02	65.064
1054.91	99.9424
1057.8	17.6665
1060.69	67.6479
1063.59	70.4971
1066.48	37.2637
1069.37	99.3384
1072.27	107.517
1075.16	78.4819
1078.05	61.8789
1080.94	77.8462
1083.84	76.0542
1086.73	236.807
1089.62	112.286
1092.52	116.655
1095.41	78.5059
1098.3	91.5352
1101.19	15.9321
1104.09	70.0889
1106.98	91.3672
1109.87	133.524
1112.76	92.9434
1115.66	92.3955
1118.55	63.4819
1121.44	65.2075
1124.33	47.0786
1127.23	0.19873
1130.12	70.9956
1133.01	125.198
1135.9	37.0884
1138.8	96.4629
1141.69	59.7749
1144.58	40.0054
1147.48	59.1948
1150.37	16.877
1153.26	69.96
1156.15	33.5625
1159.05	24.4341
1161.94	155.489
1164.83	58.002
1167.72	62.1987
1170.62	45.3306
1173.51	107.395
1176.4	53.5288
1179.3	134.325
1182.19	80.333
1185.08	130.181
1187.97	116.545
1190.87	123.256
1193.76	124.443
1196.65	77.8242
1199.55	84.4111
1202.44	151.698
1205.33	76.5156
1208.22	123.439
1211.12	98.5757
1214.01	98.7505
1216.9	148.085
1219.79	80.7563
1222.69	60.6494
1225.58	113.961
1228.47	26.6992
1231.36	48.9927
1234.26	24.8564
1237.15	115.3
1240.04	115.238
1242.93	13.3247
1245.83	30.5571
1248.72	62.5884
1251.61	49.1621
1254.51	51.4502
1257.4	65.9663
1260.29	106.328
1263.18	156.089
1266.08	20.606
1268.97	105.477
1271.86	73.1582
1274.76	35.7002
1277.65	27.7568
1280.54	38.5596
