Measurement: Raman, 532 nm, unoriented, Raman Data Processed
Mineral: Magnesite
Rruff sample: R040114
Ideal chemistry: MgCO_3_
Locality: Snarum, Norway
Source: University of Arizona Mineral Museum
Description: Tan colored cleavage fragment
Measured chemistry: (Mg_0.98_Fe_0.01_)C_1.00_O_3_
Raman shift (cm-1)	intensity
151.108	0
154.001	6.93095
156.894	1.04308
159.786	6.59076
162.679	6.14799
165.572	2.4962
168.464	2.62569
171.357	4.09291
174.25	15.2589
177.143	19.7856
180.035	11.8725
182.928	9.158
185.821	18.5324
188.713	11.5352
191.606	38.4556
194.499	49.4637
197.391	114.493
200.284	194.731
203.177	305.711
206.07	565.968
208.962	1076.85
211.855	2194.51
214.748	1749.93
217.64	316.781
220.533	97.7752
223.426	56.9139
226.318	35.3942
229.211	23.9507
232.104	22.502
234.996	4.08786
237.889	3.80353
240.782	3.08756
243.675	0.844299
246.567	6.5574
249.46	4.26794
252.353	2.71658
255.245	4.27603
258.138	8.0874
261.031	5.21616
263.923	1.83252
266.816	12.5102
269.709	12.4578
272.602	0.950409
275.494	1.95035
278.387	0.724884
281.28	20.0086
284.173	14.5163
287.065	26.752
289.958	17.0072
292.851	26.1568
295.743	42.5188
298.636	46.5055
301.529	76.8179
304.421	97.8948
307.314	163.463
310.207	298.767
313.099	706.392
315.992	1806.05
318.885	2777.21
321.778	4337.02
324.67	6795.93
327.563	10321.2
330.456	14428.1
333.348	4816.22
336.241	1480.86
339.134	691.456
342.026	419.765
344.919	278.824
347.812	213.06
350.705	158.013
353.597	123.082
356.49	90.6915
359.383	56.7991
362.275	51.0401
365.168	49.6186
368.061	26.7239
370.954	27.4846
373.846	21.1287
376.739	12.7962
379.632	14.4974
382.524	18.6239
385.417	16.887
388.31	15.1063
391.202	10.9919
394.095	9.47275
396.988	15.6852
399.88	15.5861
402.773	6.68433
405.666	3.02246
408.559	15.9041
411.451	3.70227
414.344	4.06131
417.237	0.223969
420.129	12.1072
423.022	2.88464
425.915	0.645966
428.808	12.0972
431.7	4.32904
434.593	5.18957
437.486	8.80612
440.378	1.19458
443.271	0.920135
446.164	4.57339
449.056	11.3616
451.949	10.0189
454.842	12.3028
457.735	6.08014
460.627	1.78784
463.52	3.59329
466.413	13.5118
469.305	0.086365
472.198	9.13522
475.091	7.64188
477.983	16.0754
480.876	22.9349
483.769	21.4261
486.661	20.4953
489.554	25.6021
492.447	11.1791
495.34	34.486
498.232	18.1809
501.125	25.7786
504.018	19.9747
506.911	20.4481
509.803	18.5706
512.696	12.4831
515.589	18.7327
518.481	28.0169
521.374	16.7571
524.267	20.5987
527.159	4.60449
530.052	11.7695
532.945	12.5073
535.837	8.90503
538.73	16.9279
541.623	5.66354
544.516	3.59625
547.408	9.82483
550.301	7.64587
553.194	11.4529
556.086	12.4232
558.979	5.50952
561.872	1.67297
564.764	9.60486
567.657	10.9283
570.55	9.19223
573.443	10.0827
576.335	0.882019
579.228	1.99289
582.121	6.99112
585.013	2.58032
587.906	11.0943
590.799	3.58487
593.692	7.48984
596.584	10.5129
599.477	17.22
602.37	5.05029
605.262	20.708
608.155	5.72595
611.048	11.8215
613.94	6.90622
616.833	11.0938
619.726	13.9005
622.619	12.5866
625.511	13.159
628.404	20.3099
631.297	11.438
634.189	2.20053
637.082	18.0264
639.975	4.54462
642.867	0.76413
645.76	1.74924
648.653	11.7467
651.545	9.48459
654.438	6.54031
657.331	6.10388
660.224	11.727
663.116	30.0482
666.009	8.57816
668.902	7.34357
671.794	25.8682
674.687	23.5164
677.58	36.9311
680.472	28.6815
683.365	32.8247
686.258	44.5331
689.151	34.8313
692.043	37.2929
694.936	47.9463
697.829	67.7236
700.721	63.0416
703.614	67.8291
706.507	104.189
709.399	121.821
712.292	150.361
715.185	201.044
718.078	285.663
720.97	422.444
723.863	555.299
726.756	774.553
729.648	1019.56
732.541	1262.09
735.434	1453.27
738.327	1495.85
741.219	1267.16
744.112	887.186
747.005	594.121
749.897	378.344
752.79	243.585
755.683	154.009
758.576	104.559
761.468	72.6361
764.361	55.6563
767.254	37.6945
770.146	29.275
773.039	5.58215
775.932	11.0241
778.824	11.379
781.717	11.1911
784.61	3.62265
787.503	10.1627
790.395	0.575409
793.288	1.48575
796.181	6.58875
799.073	19.2531
801.966	10.0184
804.859	1.7482
807.751	10.5983
810.644	6.8999
813.537	11.3646
816.429	21.3231
819.322	16.2598
822.215	14.4301
825.108	5.96707
828	2.49057
830.893	1.92911
833.786	12.6209
836.678	12.8157
839.571	25.328
842.464	3.79434
845.356	10.1048
848.249	5.26999
851.142	25.6172
854.035	27.5037
856.927	17.2752
859.82	21.6985
862.713	15.5068
865.605	8.44965
868.498	15.5066
871.391	30.5623
874.284	30.3726
877.176	12.2255
880.069	31.4777
882.962	23.9705
885.854	13.9565
888.747	4.97168
891.64	21.8582
894.533	3.10382
897.425	22.0084
900.318	26.7083
903.211	7.64676
906.103	10.9432
908.996	6.72464
911.889	7.66806
914.781	11.1894
917.674	18.2414
920.567	19.5624
923.46	11.7807
926.352	0.38443
929.245	18.6558
932.138	18.3437
935.03	8.91089
937.923	6.21616
940.816	10.1899
943.708	0.162048
946.601	14.6957
949.494	7.91391
952.386	19.57
955.279	6.81656
958.172	8.83368
961.065	14.8338
963.957	15.3808
966.85	16.3675
969.743	20.3744
972.635	17.0647
975.528	16.0247
978.421	19.4689
981.313	13.4532
984.206	10.7154
987.099	8.1525
989.992	8.55826
992.884	1.59366
995.777	0.141571
998.67	3.83197
1001.56	2.37814
1004.46	4.85879
1007.35	2.15469
1010.24	0.192078
1013.13	5.49188
1016.03	1.78778
1018.92	5.09491
1021.81	10.491
1024.7	3.43683
1027.6	8.72784
1030.49	27.3002
1033.38	29.1203
1036.28	41.0695
1039.17	64.6441
1042.06	57.7236
1044.95	120.481
1047.85	153.861
1050.74	173.485
1053.63	217.256
1056.52	279.298
1059.42	333.865
1062.31	419.041
1065.2	582.338
1068.09	782.304
1070.99	1115.67
1073.88	1525.9
1076.77	2189.13
1079.66	3326.57
1082.56	5311.24
1085.45	8617.38
1088.34	13417.4
1091.24	18715.6
1094.13	20872.1
1097.02	17000.3
1099.91	11608.7
1102.81	7862.13
1105.7	5353.71
1108.59	3532.29
1111.48	2239.92
1114.38	1423.06
1117.27	905.955
1120.16	551.057
1123.06	386.403
1125.95	265.509
1128.84	159.026
1131.73	125.611
1134.63	74.0834
1137.52	42.44
1140.41	39.6901
1143.31	39.0358
1146.2	8.27454
1149.09	4.14856
1151.98	2.55963
1154.88	9.28891
1157.77	7.86862
1160.66	8.89301
1163.55	6.75223
1166.45	3.22305
1169.34	4.2113
1172.23	4.53198
1175.12	0.716583
1178.02	6.23938
1180.91	4.00848
1183.8	19.6245
1186.69	12.8716
1189.59	0.738861
1192.48	22.4412
1195.37	6.2663
1198.27	13.5244
1201.16	27.4785
1204.05	7.393
1206.94	12.3141
1209.84	5.01211
1212.73	28.0713
1215.62	26.5224
1218.52	29.1765
1221.41	21.9146
1224.3	36.7897
1227.19	24.0302
1230.09	34.1506
1232.98	35.1066
1235.87	19.9394
1238.76	17.9348
1241.66	10.6316
1244.55	16.3
1247.44	20.2679
1250.34	14.7497
1253.23	24.3128
1256.12	11.0173
1259.01	11.814
1261.91	32.7878
1264.8	25.0923
1267.69	15.9231
1270.58	16.6309
1273.48	7.09189
1276.37	28.3291
1279.26	7.14706
1282.15	20.7595
1285.05	28.8177
1287.94	16.5213
1290.83	25.5803
1293.72	20.867
