Measurement: Raman, 532 nm, unoriented, Raman Data Processed
Mineral: Magnesiocopiapite
Rruff sample: R060155
Ideal chemistry: MgFe^3+^_4_(SO_4_)_6_(OH)_2_20H_2_O
Locality: Denver mine, Santa Cruz County, Arizona, USA
Source: University of Arizona Mineral Museum
Description: Yellow fine-grained efflorescence
Measured chemistry: (Mg_0.95_Mn_0.05_)_Σ=1_(Fe^3+^_3.56_Al_0.44_)_Σ=4_(S_1.00_O_4_)_6_(OH)_2_·17H_2_O ; H not measured but estimated by difference
Raman shift (cm-1)	intensity
145.225	0
148.118	6.18715
151.011	17.282
153.903	20.2544
156.796	22.3679
159.689	21.9421
162.581	21.603
165.474	15.1386
168.367	7.38777
171.259	2.26967
174.152	0.088242
177.045	0.781067
179.938	2.23505
182.83	0.946777
185.723	0.574387
188.616	5.50334
191.508	11.1147
194.401	16.748
197.294	12.5867
200.186	6.83014
203.079	1.08585
205.972	0.17305
208.864	3.08266
211.757	5.64409
214.65	10.3261
217.543	16.153
220.435	19.287
223.328	26.177
226.221	32.172
229.113	41.1745
232.006	45.9428
234.899	53.7168
237.792	57.8655
240.684	59.5339
243.577	56.2249
246.47	52.8018
249.362	53.0978
252.255	56.7567
255.148	67.1341
258.041	79.6399
260.933	95.9411
263.826	114.566
266.719	134.093
269.611	142.974
272.504	132.784
275.397	104.48
278.289	76.7962
281.182	55.043
284.075	42.5134
286.967	39.0101
289.86	39.8408
292.753	41.508
295.646	46.322
298.538	53.7805
301.431	58.0642
304.324	58.1743
307.216	50.3914
310.109	40.6083
313.002	28.9804
315.895	21.119
318.787	14.5319
321.68	10.1207
324.573	7.18959
327.465	4.25688
330.358	3.05404
333.251	2.23637
336.144	1.38325
339.036	0.657341
341.929	0.304321
344.822	0.088554
347.714	0.229836
350.607	0.031113
353.5	1.14408
356.392	2.05605
359.285	1.61351
362.178	1.97649
365.07	1.46595
367.963	0.518173
370.856	1.35894
373.749	0.110886
376.641	0.497597
379.534	1.45652
382.427	2.43732
385.32	4.7731
388.212	7.29755
391.105	9.1208
393.998	12.2397
396.89	13.9764
399.783	16.889
402.676	19.7021
405.568	22.5217
408.461	25.4733
411.354	27.5333
414.247	28.1677
417.139	30.4302
420.032	33.1517
422.925	37.0735
425.817	42.3415
428.71	48.4148
431.603	56.6226
434.495	67.045
437.388	77.1081
440.281	85.8876
443.173	97.8506
446.066	99.4906
448.959	106.607
451.852	112.617
454.744	117.732
457.637	126.391
460.53	137.758
463.423	151.828
466.315	163.899
469.208	169.48
472.101	171.414
474.993	167.69
477.886	158.663
480.779	142.509
483.671	118.313
486.564	93.2277
489.457	71.0326
492.349	55.7544
495.242	40.8293
498.135	30.4709
501.028	21.8954
503.92	16.3582
506.813	10.4138
509.706	8.60196
512.598	5.67503
515.491	2.61014
518.384	0.999039
521.277	0.798447
524.169	0.848351
527.062	2.51
529.955	2.18769
532.847	1.4671
535.74	1.17574
538.633	0.242661
541.525	1.17593
544.418	2.61786
547.311	5.20303
550.204	6.39149
553.096	6.37547
555.989	6.67951
558.882	6.40455
561.774	3.29022
564.667	3.48242
567.56	3.83684
570.452	2.36459
573.345	4.60262
576.238	6.74398
579.131	8.95127
582.023	13.0867
584.916	15.7971
587.809	21.6046
590.701	27.9554
593.594	33.3523
596.487	39.2178
599.38	41.9061
602.272	42.2906
605.165	43.7491
608.058	43.8657
610.95	44.1915
613.843	42.6249
616.736	38.7314
619.629	34.0887
622.521	30.176
625.414	26.1716
628.307	23.8493
631.199	22.0697
634.092	20.8475
636.985	19.8118
639.877	19.6809
642.77	17.3012
645.663	14.4269
648.556	11.4888
651.448	7.79744
654.341	6.41986
657.234	5.99642
660.126	5.31361
663.019	5.32993
665.912	5.10429
668.804	3.5033
671.697	4.35424
674.59	3.1686
677.482	2.32304
680.375	1.33092
683.268	2.23792
686.161	1.49461
689.053	0.283714
691.946	0.051556
694.839	0.191151
697.731	0.697445
700.624	0.211468
703.517	0.193295
706.409	0.972115
709.302	0.638988
712.195	0.189777
715.088	0.066021
717.98	0.220398
720.873	0.137619
723.766	0.610573
726.659	0.497849
729.551	1.24032
732.444	1.46631
735.337	1.58313
738.229	2.50773
741.122	1.99093
744.015	2.16291
746.907	2.46576
749.8	1.82521
752.693	3.05776
755.586	1.94591
758.478	2.39532
761.371	2.80101
764.264	1.73138
767.156	2.00547
770.049	1.63321
772.942	1.74476
775.835	1.33008
778.727	1.21948
781.62	1.09406
784.513	1.5682
787.405	1.32134
790.298	0.825825
793.191	0.956291
796.083	1.10495
798.976	0.847511
801.869	1.31277
804.761	0.843033
807.654	1.50324
810.547	1.71281
813.44	0.687244
816.332	1.41285
819.225	2.0622
822.118	0.964687
825.01	2.0982
827.903	1.16642
830.796	1.95192
833.688	2.41674
836.581	2.66049
839.474	2.18612
842.367	2.60552
845.259	3.24131
848.152	3.37366
851.045	2.97744
853.937	4.02858
856.83	3.16722
859.723	2.71223
862.616	3.02714
865.508	3.21764
868.401	3.69632
871.294	3.99491
874.186	4.74442
877.079	4.69083
879.972	4.42554
882.865	4.15114
885.757	4.71019
888.65	4.14782
891.543	4.47056
894.435	3.35603
897.328	3.19807
900.221	3.11451
903.113	3.65136
906.006	1.97282
908.899	1.71498
911.792	1.93028
914.684	1.10281
917.577	1.07078
920.47	1.23031
923.362	0.386208
926.255	0.007591
929.148	0.577488
932.04	0.443947
934.933	0.890182
937.826	0.296181
940.719	0.46611
943.611	0.721916
946.504	0.290939
949.397	0.366554
952.289	0.407967
955.182	1.93053
958.075	2.97679
960.967	6.00156
963.86	8.59429
966.753	14.3096
969.646	23.5995
972.538	37.9472
975.431	58.7106
978.324	90.0998
981.216	132.304
984.109	187.883
987.002	250.942
989.894	310.314
992.787	348.428
995.68	341.264
998.573	285.745
1001.47	203.585
1004.36	151.903
1007.25	122.256
1010.14	99.0015
1013.04	87.1757
1015.93	84.6686
1018.82	90.5566
1021.71	102.396
1024.61	116.107
1027.5	122.957
1030.39	114.776
1033.29	103.183
1036.18	85.9897
1039.07	63.189
1041.96	41.2306
1044.86	32.5038
1047.75	18.7785
1050.64	11.0932
1053.53	6.78333
1056.43	2.87299
1059.32	0.352425
1062.21	0.767792
1065.11	1.42136
1068	1.48167
1070.89	1.41414
1073.78	0.950325
1076.68	2.1445
1079.57	6.27846
1082.46	8.67437
1085.35	11.8003
1088.25	14.3221
1091.14	16.7535
1094.03	18.7039
1096.92	21.8726
1099.82	24.446
1102.71	29.3594
1105.6	32.9821
1108.49	36.623
1111.39	38.6299
1114.28	40.0768
1117.17	39.3743
1120.07	37.4699
1122.96	35.6419
1125.85	31.9741
1128.74	29.6315
1131.64	26.9492
1134.53	26.9531
1137.42	27.8344
1140.32	28.1061
1143.21	28.2908
1146.1	27.8091
1148.99	25.1303
1151.89	22.0261
1154.78	19.0031
1157.67	17.0136
1160.56	15.5357
1163.46	14.1303
1166.35	11.526
1169.24	8.81568
1172.13	5.16924
1175.03	3.3019
1177.92	0.170418
1180.81	0.711578
1183.71	1.35728
1186.6	1.104
1189.49	0.026352
1192.38	1.49183
1195.28	2.10713
1198.17	2.60421
1201.06	4.16386
1203.95	3.69701
1206.85	4.58527
1209.74	4.52856
1212.63	4.62969
1215.53	5.42363
1218.42	6.10458
1221.31	6.75027
1224.2	8.16202
1227.1	10.8393
1229.99	12.4645
1232.88	15.8463
1235.77	19.5294
1238.67	21.4635
1241.56	23.738
1244.45	24.6814
1247.35	24.2503
1250.24	21.5703
1253.13	17.6681
1256.02	13.1167
1258.92	10.5953
1261.81	8.11262
1264.7	4.43497
1267.59	3.6399
1270.49	2.20707
1273.38	0.728775
1276.27	0.504978
1279.16	0.012405
1282.06	0.680115
1284.95	0.375435
1287.84	0.430248
1290.74	0.406075
1293.63	0.342293
1296.52	0.439922
1299.41	0.211365
