Measurement: Raman, 532 nm, unoriented, Raman Data Processed
Mineral: Magnesioferrite
Rruff sample: R070127
Ideal chemistry: MgFe^3+^_2_O_4_
Locality: Langban, Filipstad, Varmland, Sweden
Source: Michael Scott
Description: Black poorly formed octahedral crystals with deep red highlites, associated with hematite and calcite
Raman shift (cm-1)	intensity
134.272	0
137.165	36.0142
140.057	63.5282
142.95	12.5894
145.843	36.1097
148.735	76.4178
151.628	72.3986
154.521	117.599
157.413	102.086
160.306	86.6522
163.199	109.749
166.091	101.285
168.984	94.4451
171.877	136.655
174.77	107.394
177.662	125.113
180.555	165.999
183.448	83.6845
186.34	127.543
189.233	134.539
192.126	99.6072
195.018	104.682
197.911	101.371
200.804	68.52
203.697	60.6487
206.589	54.2154
209.482	34.0643
212.375	50.2385
215.267	19.1048
218.16	50.4509
221.053	20.6033
223.946	22.0664
226.838	38.6027
229.731	9.33637
232.624	9.38464
235.516	7.55835
238.409	18.5036
241.302	1.1817
244.195	48.1019
247.087	49.4239
249.98	19.6571
252.873	36.9803
255.765	4.1416
258.658	35.8546
261.551	14.9878
264.443	39.6014
267.336	53.4686
270.229	42.8597
273.122	65.6158
276.014	95.4262
278.907	72.6135
281.8	67.1175
284.692	114.874
287.585	146.956
290.478	193.716
293.37	171.905
296.263	186.138
299.156	188.948
302.048	200.68
304.941	242.612
307.834	284.809
310.727	273.497
313.619	248.381
316.512	271.145
319.405	262.733
322.297	255.651
325.19	256.212
328.083	212.416
330.976	273.993
333.868	235.549
336.761	261.222
339.654	196.111
342.546	229.417
345.439	203.13
348.332	216.68
351.224	165.435
354.117	101.137
357.01	122.833
359.902	114.402
362.795	93.7294
365.688	82.6343
368.581	51.52
371.473	71.2525
374.366	47.2869
377.259	37.7449
380.151	19.8553
383.044	35.0378
385.937	10.5769
388.829	19.6556
391.722	39.2014
394.615	13.6428
397.508	43.5799
400.4	18.4413
403.293	30.3632
406.186	1.16974
409.078	13.6392
411.971	28.1655
414.864	5.05548
417.757	46.882
420.649	25.3859
423.542	21.5359
426.435	20.0185
429.327	28.7059
432.22	54.21
435.113	66.0434
438.005	69.8898
440.898	68.6131
443.791	117.226
446.684	72.1428
449.576	134.692
452.469	143.981
455.362	163.937
458.254	139.304
461.147	159.192
464.04	156.041
466.933	159.971
469.825	105.797
472.718	120.585
475.611	116.013
478.503	102.452
481.396	57.4816
484.289	97.3667
487.181	94.3872
490.074	51.6167
492.967	50.8323
495.86	24.7681
498.752	27.8226
501.645	1.59045
504.538	11.6014
507.43	32.9965
510.323	39.2336
513.216	7.45239
516.108	26.6276
519.001	51.779
521.894	12.8632
524.787	11.8795
527.679	13.5311
530.572	30.3845
533.465	20.4347
536.357	17.8791
539.25	6.65015
542.143	33.9385
545.035	49.3571
547.928	66.8373
550.821	97.4047
553.713	118.313
556.606	208.012
559.499	264.64
562.392	308.292
565.284	444.625
568.177	489.544
571.07	607.683
573.962	740.555
576.855	871.23
579.748	995.728
582.64	1152.94
585.533	1313.68
588.426	1511.08
591.319	1598.82
594.211	1786.13
597.104	1919.12
599.997	2033.58
602.889	2125.61
605.782	2200.95
608.675	2227.66
611.568	2167.48
614.46	2129.1
617.353	1991.24
620.246	1758.99
623.138	1626.77
626.031	1472.57
628.924	1257.25
631.817	1105.89
634.709	978.426
637.602	776.57
640.495	740.088
643.387	651.971
646.28	584.688
649.173	559.61
652.065	557.539
654.958	479.432
657.851	535.871
660.744	558.296
663.636	515.053
666.529	521.76
669.422	472.295
672.314	415.481
675.207	383.146
678.1	313.312
680.992	313.398
683.885	229.211
686.778	160.63
689.67	97.5444
692.563	66.9371
695.456	35.787
698.349	14.9519
701.241	25.131
704.134	22.4911
707.027	28.1841
709.919	5.03351
712.812	34.3146
715.705	7.48761
718.597	18.7545
721.49	33.2137
724.383	37.3035
727.276	10.3516
730.168	36.7728
733.061	53.6161
735.954	42.1108
738.846	83.3308
741.739	69.988
744.632	81.5362
747.524	78.7406
750.417	45.5442
753.31	119.098
756.203	93.8034
759.095	96.4123
761.988	100.019
764.881	96.1448
767.773	100.272
770.666	137.732
773.559	94.1982
776.452	105.942
779.344	126.549
782.237	106.246
785.13	70.5674
788.022	61.2426
790.915	41.5634
793.808	66.7459
796.7	76.7629
799.593	52.0763
802.486	81.8262
805.379	77.9288
808.271	108.102
811.164	41.574
814.057	61.7411
816.949	66.2762
819.842	88.0867
822.735	68.8612
825.627	51.7452
828.52	87.6415
831.413	26.0831
834.306	75.2409
837.198	34.2368
840.091	31.5101
842.984	48.0331
845.876	20.9062
848.769	36.9033
851.662	35.4382
854.554	9.70398
857.447	51.233
860.34	35.5327
863.232	3.82074
866.125	13.8011
869.018	27.5691
871.911	34.6951
874.803	18.9174
877.696	30.2805
880.589	38.2897
883.481	21.4424
886.374	26.7611
889.267	61.0836
892.16	20.6375
895.052	42.3675
897.945	40.9806
900.838	61.6537
903.73	4.99121
906.623	58.7186
909.516	8.909
912.409	41.9449
915.301	15.2621
918.194	30.3571
921.087	29.7721
923.979	42.4977
926.872	0.127136
929.765	15.2095
932.657	79.7854
935.55	25.0567
938.443	25.1528
941.336	36.5283
944.228	38.3914
947.121	30.3881
950.014	44.5403
952.906	14.0972
955.799	81.3729
958.692	70.3444
961.584	0.280273
964.477	40.0913
967.37	42.7874
970.263	69.4356
973.155	46.4381
976.048	68.997
978.941	14.7311
981.833	31.4155
984.726	27.8218
987.619	48.2129
990.511	14.3667
993.404	42.4058
996.297	36.135
999.189	53.8534
1002.08	90.0288
1004.98	0.424438
1007.87	17.8294
1010.76	44.514
1013.65	40.8108
1016.55	34.8104
1019.44	74.5026
1022.33	32.3348
1025.22	38.1082
1028.12	52.6377
1031.01	50.441
1033.9	36.6768
1036.8	63.9119
1039.69	79.5412
1042.58	89.0221
1045.47	11.2557
1048.37	57.5239
1051.26	52.1248
1054.15	49.7312
1057.04	58.6236
1059.94	26.4726
1062.83	44.2526
1065.72	41.0336
1068.61	31.9794
1071.51	24.3452
1074.4	75.2528
1077.29	0.987793
1080.18	11.7705
1083.08	71.3534
1085.97	5.89111
1088.86	60.2461
1091.76	6.45966
1094.65	53.3272
1097.54	65.23
1100.43	26.6297
1103.33	30.3566
1106.22	10.3041
1109.11	39.2868
1112.01	33.3207
1114.9	14.5452
1117.79	11.3638
1120.68	29.3549
1123.58	2.46881
1126.47	77.2155
1129.36	36.5547
1132.25	4.4231
1135.15	31.0404
1138.04	37.424
1140.93	43.4118
1143.83	49.162
1146.72	49.0523
1149.61	40.1522
1152.5	71.7142
1155.39	76.8388
1158.29	32.0784
1161.18	34.1813
1164.07	13.2255
1166.97	29.1308
1169.86	89.2644
1172.75	37.1823
1175.64	53.8524
1178.54	47.0614
1181.43	69.8571
1184.32	33.9974
1187.21	61.3643
1190.11	45.2107
1193	62.3008
1195.89	12.4523
1198.79	58.6692
1201.68	59.1883
1204.57	101.207
1207.46	55.4501
1210.36	52.3636
1213.25	66.941
1216.14	28.3202
1219.04	58.6833
1221.93	38.8185
1224.82	86.027
1227.71	25.6694
1230.61	6.5835
1233.5	57.2714
1236.39	32.2968
1239.28	4.33179
1242.18	32.298
1245.07	8.84601
1247.96	27.3104
1250.86	20.0265
1253.75	56.5747
1256.64	50.5763
1259.53	11.1646
1262.42	11.0336
1265.32	2.56195
1268.21	3.18097
1271.1	35.6543
1274	20.1989
1276.89	57.4497
1279.78	41.3342
1282.67	51.416
