Measurement: Raman, 780 nm, unoriented, Raman Data Processed
Mineral: Magnesioastrophyllite
Rruff sample: R120068
Ideal chemistry: K_2_Na(Fe^2+^_4_Mg_2_Na)Ti_2_(Si_4_O_12_)_2_O_2_(OH)_4_[box]
Locality: Apatitovaya Mt., Khibiny Massif, Kola Peninsula, Murmanskaja Oblast', Northern Region, Russia
Source: Donald Doell
Description: Massive transparent golden sheets associated with light green aegirine
Raman shift (cm-1)	intensity
99.3174	0
102.692	54.0455
106.067	33.717
109.442	0.092468
112.817	9.48512
116.192	12.4721
119.566	4.8786
122.941	0.887436
126.316	0.022125
129.691	12.6168
133.066	29.5496
136.44	55.4876
139.815	72.8791
143.19	51.5581
146.565	36.8375
149.94	48.6169
153.315	81.0131
156.689	132.974
160.064	217.768
163.439	339.301
166.814	492.58
170.189	607.489
173.563	548.61
176.938	372.245
180.313	222.927
183.688	137.817
187.063	87.5748
190.437	51.7257
193.812	28.0598
197.187	13.937
200.562	2.7207
203.937	2.45949
207.311	2.1801
210.686	1.97113
214.061	2.83021
217.436	11.0144
220.811	19.9332
224.186	30.9503
227.56	40.0171
230.935	46.0703
234.31	49.3444
237.685	59.9361
241.06	76.3528
244.435	92.9487
247.809	87.7004
251.184	59.9435
254.559	28.8042
257.934	8.74625
261.309	2.09958
264.683	0.630188
268.058	3.42985
271.433	10.3232
274.808	11.4748
278.183	13.1756
281.558	14.5939
284.932	14.705
288.307	7.11175
291.682	3.68112
295.057	10.1973
298.432	19.9195
301.806	35.7852
305.181	50.9791
308.556	60.117
311.931	60.0568
315.306	41.9083
318.68	21.038
322.055	7.49585
325.43	0.002762
328.805	1.53761
332.18	0.892227
335.555	6.22543
338.929	18.921
342.304	34.2606
345.679	51.0134
349.054	67.545
352.429	87.8184
355.803	120.801
359.178	163.989
362.553	200.75
365.928	191.308
369.303	166.877
372.678	129.906
376.052	86.125
379.427	55.601
382.802	43.8893
386.177	33.0986
389.552	19.2063
392.926	6.50772
396.301	1.17354
399.676	1.51909
403.051	2.29248
406.426	0.287918
409.8	0.089813
413.175	0.760162
416.55	0.45874
419.925	1.44029
423.3	3.2841
426.675	6.24977
430.049	10.207
433.424	14.825
436.799	18.4844
440.174	21.9248
443.549	25.8598
446.923	27.7677
450.298	29.3042
453.673	21.5891
457.048	12.8813
460.423	6.41073
463.798	1.70194
467.172	0.836723
470.547	0.436493
473.922	0.848183
477.297	4.84618
480.672	11.3658
484.046	20.1577
487.421	27.0977
490.796	27.2699
494.171	22.2662
497.546	15.3658
500.921	14.0463
504.295	13.8791
507.67	16.2051
511.045	19.4018
514.42	24.0673
517.795	25.3436
521.169	20.7849
524.544	13.6408
527.919	8.60142
531.294	8.15356
534.669	3.16389
538.044	1.28803
541.418	0.387314
544.793	0.615166
548.168	4.52042
551.543	10.7209
554.918	18.1462
558.293	31.7299
561.667	48.9223
565.042	72.8505
568.417	91.1963
571.792	85.0445
575.167	62.0102
578.541	36.3053
581.916	20.9789
585.291	10.3658
588.666	2.99139
592.041	0.653168
595.415	1.83089
598.79	1.68878
602.165	0.881248
605.54	0.042374
608.915	1.95079
612.29	4.62176
615.664	8.85535
619.039	12.4638
622.414	18.1143
625.789	23.6333
629.164	28.6682
632.538	35.7704
635.913	41.6762
639.288	49.1935
642.663	54.6991
646.038	61.1528
649.413	72.4619
652.787	82.7791
656.162	101.054
659.537	132.918
662.912	186.322
666.287	262.68
669.661	315.993
673.036	262.809
676.411	155.648
679.786	86.8215
683.161	52.1504
686.535	32.3039
689.91	23.105
693.285	14.9867
696.66	11.2387
700.035	8.18835
703.41	6.15186
706.784	6.17565
710.159	5.36779
713.534	11.7028
716.909	15.639
720.284	21.6209
723.659	19.1
727.033	9.94448
730.408	4.04877
733.783	1.23589
737.158	0.151863
740.533	2.02326
743.907	0.309334
747.282	0.534279
750.657	0.578827
754.032	3.85598
757.407	4.06425
760.782	6.14577
764.156	5.5275
767.531	2.6936
770.906	1.0295
774.281	1.81917
777.656	2.13978
781.03	1.20383
784.405	1.84116
787.78	2.38411
791.155	4.95425
794.53	11.6209
797.904	14.5493
801.279	19.6978
804.654	27.1261
808.029	42.5905
811.404	65.6052
814.779	104.414
818.153	161.45
821.528	240.006
824.903	325.278
828.278	421.739
831.653	522.084
835.028	632.444
838.402	658.573
841.777	529.022
845.152	336.796
848.527	189.06
851.902	102.083
855.276	52.4974
858.651	25.1808
862.026	8.3378
865.401	1.59912
868.776	0.830139
872.15	3.63809
875.525	14.1569
878.9	26.1237
882.275	41.5864
885.65	66.6969
889.024	90.4971
892.399	117.743
895.774	124.429
899.149	114.369
902.524	86.6439
905.899	53.9544
909.273	32.0801
912.648	22.2307
916.023	18.2334
919.398	19.0185
922.773	19.6927
926.148	21.3753
929.522	23.0114
932.897	27.5395
936.272	36.7852
939.647	41.5104
943.022	44.1793
946.396	41.513
949.771	29.1742
953.146	17.719
956.521	8.96281
959.896	4.40572
963.27	0.07756
966.645	2.76462
970.02	3.27902
973.395	2.8168
976.77	1.64162
980.145	0.603462
983.519	2.89101
986.894	3.04797
990.269	6.50695
993.644	9.9488
997.019	13.9179
1000.39	21.2737
1003.77	30.9183
1007.14	42.0898
1010.52	59.9763
1013.89	85.4254
1017.27	105.787
1020.64	119.064
1024.02	108.339
1027.39	86.382
1030.77	67.6135
1034.14	52.9633
1037.52	48.1305
1040.89	47.8625
1044.27	53.9889
1047.64	64.8955
1051.02	86.647
1054.39	121.184
1057.77	157.892
1061.14	172.962
1064.52	137.869
1067.89	93.8731
1071.27	63.7691
1074.64	42.0213
1078.01	31.304
1081.39	22.7914
1084.76	19.3136
1088.14	15.3954
1091.51	12.4377
1094.89	12.94
1098.26	10.1008
1101.64	6.4017
1105.01	3.45023
1108.39	0.012745
1111.76	1.10313
1115.14	0.027016
1118.51	0.51207
1121.89	0.278118
1125.26	1.28471
1128.64	0.463795
1132.01	0.401657
1135.39	1.00016
1138.76	0.537365
1142.14	0.079113
1145.51	0.57259
1148.88	1.30714
1152.26	1.64563
1155.63	1.02539
1159.01	1.76274
1162.38	2.8173
1165.76	3.34494
1169.13	2.31044
1172.51	2.26647
1175.88	1.2998
1179.26	2.61584
1182.63	2.02864
1186.01	2.10974
1189.38	1.8569
1192.76	3.13014
1196.13	1.84222
1199.51	0.821548
1202.88	1.59102
1206.26	1.47454
1209.63	1.45024
1213.01	0.25893
1216.38	2.06063
1219.76	1.40086
1223.13	1.175
1226.51	1.06506
1229.88	0.681538
1233.26	0.664875
1236.63	0.560452
1240.01	0.401203
1243.38	0.609539
1246.76	1.26923
1250.13	0.935532
1253.51	1.03905
1256.88	1.19977
1260.25	2.09046
1263.63	1.521
1267	0.530182
1270.38	1.10827
1273.75	1.15294
1277.13	1.71579
1280.5	1.1072
1283.88	1.16056
