Measurement: Raman, 780 nm, unoriented, Raman Data Processed
Mineral: Magnesioaubertite
Rruff sample: R060344
Ideal chemistry: MgAl(SO_4_)_2_Cl14H_2_O
Locality: Grotta de Faraglione, Vulcano, Italy
Source: Michael Scott
Description: Blue massive with a parallel fibrous texture associated with white pickeringite, co-type specimen
Raman shift (cm-1)	intensity
131.549	0
134.442	0.227486
137.334	1.06787
140.227	3.34864
143.12	4.90205
146.012	3.13442
148.905	1.27749
151.798	3.91615
154.69	0.527277
157.583	0.745401
160.476	0.333368
163.369	0.940981
166.261	0.157761
169.154	1.82527
172.047	0.36002
174.939	1.25229
177.832	2.43145
180.725	2.22568
183.618	3.11169
186.51	0.84831
189.403	0.653473
192.296	0.047626
195.188	0.890192
198.081	0.283396
200.974	0.130026
203.866	0.840979
206.759	0.607426
209.652	0.784784
212.544	2.04885
215.437	1.11158
218.33	1.15731
221.223	2.76902
224.115	1.48467
227.008	2.30872
229.901	2.34566
232.793	1.79791
235.686	1.87446
238.579	1.17564
241.471	2.64319
244.364	2.04931
247.257	3.20502
250.15	1.24571
253.042	1.5592
255.935	1.325
258.828	1.59887
261.72	1.38425
264.613	0.852445
267.506	0.016567
270.399	2.04319
273.291	0.317372
276.184	2.5814
279.077	3.47287
281.969	0.82674
284.862	1.06565
287.755	3.20524
290.647	2.10549
293.54	3.83234
296.433	4.78053
299.325	4.55725
302.218	3.62591
305.111	4.9205
308.004	7.46568
310.896	7.59213
313.789	9.88742
316.682	11.1424
319.574	10.4757
322.467	10.4168
325.36	7.52182
328.252	3.73432
331.145	3.05324
334.038	3.24751
336.931	2.37204
339.823	1.17026
342.716	1.07484
345.609	0.229484
348.501	0.969273
351.394	0.538221
354.287	0.550805
357.18	0.483285
360.072	0.052343
362.965	0.332291
365.858	0.802082
368.75	0.804278
371.643	1.01048
374.536	1.00886
377.428	1.22454
380.321	0.185559
383.214	0.456566
386.106	0.109349
388.999	0.161126
391.892	0.3093
394.785	0.510512
397.677	0.083448
400.57	1.48647
403.463	3.24426
406.355	3.26913
409.248	5.38699
412.141	8.23798
415.034	11.158
417.926	12.3252
420.819	15.1277
423.712	16.179
426.604	16.3898
429.497	13.1374
432.39	13.8166
435.282	14.2939
438.175	14.5191
441.068	17.1502
443.961	16.7704
446.853	18.3068
449.746	19.7543
452.639	20.1639
455.531	18.6381
458.424	17.1176
461.317	14.991
464.209	10.3028
467.102	8.41513
469.995	5.98597
472.887	6.09345
475.78	4.47587
478.673	3.73725
481.566	2.89908
484.458	1.7427
487.351	0.574062
490.244	0.061237
493.136	0.958164
496.029	0.594067
498.922	1.08288
501.815	1.25923
504.707	0.834279
507.6	2.14955
510.493	1.56333
513.385	2.27183
516.278	2.08723
519.171	3.05418
522.063	3.3853
524.956	5.23555
527.849	5.5357
530.741	4.66947
533.634	4.38682
536.527	3.39006
539.42	3.27011
542.312	0.906248
545.205	1.64493
548.098	0.110972
550.99	0.588331
553.883	0.749599
556.776	0.657743
559.668	0.572879
562.561	0.089663
565.454	0.471437
568.347	1.22122
571.239	1.37102
574.132	1.06109
577.025	2.23508
579.917	1.5741
582.81	3.7497
585.703	5.11604
588.596	6.52313
591.488	7.70479
594.381	10.0029
597.274	12.4099
600.166	15.5801
603.059	16.9098
605.952	14.396
608.845	11.7261
611.737	9.73563
614.63	8.69959
617.523	9.35047
620.415	8.88531
623.308	8.31279
626.201	7.24655
629.093	7.41793
631.986	5.912
634.879	3.7077
637.771	3.15122
640.664	2.16379
643.557	1.09678
646.45	1.95824
649.342	1.3832
652.235	0.028453
655.128	0.63223
658.02	0.238243
660.913	0.013859
663.806	0.584783
666.698	0.371729
669.591	0.565174
672.484	0.328449
675.377	0.555623
678.269	0.713421
681.162	0.897431
684.055	1.16301
686.947	1.01368
689.84	1.124
692.733	0.938818
695.625	0.542432
698.518	0.65403
701.411	0.088194
704.304	1.82615
707.196	1.81666
710.089	1.63326
712.982	1.76929
715.874	1.44987
718.767	1.64849
721.66	1.97637
724.553	1.32739
727.445	0.233873
730.338	0.728185
733.231	0.800887
736.123	0.435649
739.016	0.061775
741.909	0.857056
744.801	0.390244
747.694	1.39563
750.587	0.623816
753.48	0.950046
756.372	0.415116
759.265	0.778648
762.158	0.193251
765.05	0.386391
767.943	0.032704
770.836	0.213518
773.728	1.90937
776.621	1.46461
779.514	0.932018
782.407	0.075137
785.299	0.158631
788.192	0.34497
791.085	1.93231
793.977	0.288082
796.87	1.14601
799.763	1.85529
802.655	1.10684
805.548	1.99485
808.441	1.22171
811.333	2.29325
814.226	1.73754
817.119	2.28874
820.012	1.48082
822.904	1.64376
825.797	2.01272
828.69	1.40753
831.582	0.067906
834.475	1.95891
837.368	0.403145
840.26	1.12939
843.153	0.921336
846.046	1.71344
848.939	1.20721
851.831	1.95882
854.724	1.35036
857.617	1.83113
860.509	1.65413
863.402	1.29751
866.295	1.99355
869.188	0.003901
872.08	2.51728
874.973	0.556897
877.866	2.71027
880.758	1.5525
883.651	2.1675
886.544	0.886807
889.436	1.79292
892.329	1.06085
895.222	0.744268
898.115	1.81627
901.007	0.013314
903.9	0.673603
906.793	0.445858
909.685	1.3237
912.578	0.025851
915.471	0.404973
918.363	1.04557
921.256	0.066534
924.149	0.066047
927.042	0.774359
929.934	0.835496
932.827	0.763526
935.72	0.536367
938.612	2.31673
941.505	1.71445
944.398	2.72589
947.29	3.78684
950.183	3.55988
953.076	5.81662
955.968	7.10112
958.861	8.66129
961.754	10.8965
964.647	13.9085
967.539	17.9505
970.432	25.527
973.325	37.052
976.217	60.5783
979.11	88.7207
982.003	114.047
984.895	152.174
987.788	202.523
990.681	214.219
993.574	119.341
996.466	52.4073
999.359	26.6031
1002.25	13.5531
1005.14	6.58924
1008.04	4.2102
1010.93	2.69609
1013.82	2.05329
1016.72	0.147623
1019.61	0.79524
1022.5	0.312621
1025.39	0.367433
1028.29	0.168389
1031.18	0.053423
1034.07	1.30957
1036.96	2.08488
1039.86	4.77259
1042.75	6.98998
1045.64	10.7439
1048.54	12.6645
1051.43	13.4418
1054.32	11.0337
1057.21	8.1492
1060.11	4.5609
1063	3.3638
1065.89	1.31807
1068.78	0.643359
1071.68	0.081734
1074.57	0.048767
1077.46	0.350657
1080.36	0.951398
1083.25	2.42891
1086.14	2.80473
1089.03	6.27766
1091.92	7.71698
1094.82	9.843
1097.71	11.5749
1100.6	12.2084
1103.5	9.77739
1106.39	8.12506
1109.28	7.98023
1112.17	7.76125
1115.07	8.97273
1117.96	9.70181
1120.85	14.3083
1123.74	16.5501
1126.64	18.4564
1129.53	18.9829
1132.42	16.8552
1135.32	12.2363
1138.21	8.7769
1141.1	5.99136
1143.99	3.83835
1146.89	2.67164
1149.78	2.3334
1152.67	1.44312
1155.57	1.63392
1158.46	0.189721
1161.35	0.161419
1164.24	0.549963
1167.14	1.14552
1170.03	0.172273
1172.92	0.243783
1175.81	0.271853
1178.71	0.088786
1181.6	0.339725
1184.49	0.543616
1187.38	0.723307
1190.28	0.17055
1193.17	0.641676
1196.06	1.41214
1198.95	0.378243
1201.85	0.856344
1204.74	0.275312
1207.63	1.52673
1210.53	0.014964
1213.42	0.850502
1216.31	0.040337
1219.2	0.731068
1222.1	1.50069
1224.99	1.21551
1227.88	1.35129
1230.78	1.45592
1233.67	1.26305
1236.56	2.11546
1239.45	1.60824
1242.35	0.844722
1245.24	2.48151
1248.13	0.833078
1251.02	0.122919
1253.92	1.39605
1256.81	1.03522
1259.7	1.2946
1262.6	0.720614
1265.49	1.4081
1268.38	1.29435
1271.27	1.52123
1274.17	1.97476
1277.06	0.794746
1279.95	0.478528
1282.84	0.49423
1285.74	0
