Measurement: Raman, 532 nm, unoriented, Raman Data Processed
Mineral: Magnetite
Rruff sample: R060191
Ideal chemistry: Fe^2+^Fe^3+^_2_O_4_
Locality: Merrry Widow mine, Vancouver Island, British Columbia, Canada
Source: Lloyd Twaites
Description: Grayish-black octahedral crystals
Measured chemistry: (Fe^2+^_0.97_Mg_0.03_)(Fe^3+^_0.97_Al_0.03_)_2_O_4_
Raman shift (cm-1)	intensity
142.218	0
145.593	0.928291
148.968	6.80961
152.343	16.6459
155.718	28.6688
159.092	27.582
162.467	29.3219
165.842	26.4189
169.217	27.6507
172.592	29.1609
175.966	30.0692
179.341	33.3148
182.716	32.9916
186.091	35.0161
189.466	34.9159
192.84	30.6006
196.215	27.9925
199.59	19.842
202.965	12.9053
206.34	8.39941
209.715	5.71622
213.089	2.50121
216.464	1.17471
219.839	1.18003
223.214	1.11765
226.589	0.742722
229.964	0.392044
233.338	0.131592
236.713	1.01735
240.088	1.33675
243.463	0.582916
246.838	2.41707
250.212	4.25124
253.587	2.90706
256.962	5.92516
260.337	6.32457
263.712	6.06123
267.086	10.9189
270.461	12.2244
273.836	15.9919
277.211	20.3113
280.586	21.7475
283.961	26.3324
287.335	29.973
290.71	33.2312
294.085	35.5756
297.46	37.5633
300.835	39.1575
304.209	38.7193
307.584	35.3229
310.959	31.6207
314.334	28.7195
317.709	26.8427
321.084	21.0393
324.458	17.7995
327.833	16.7315
331.208	13.6854
334.583	10.3218
337.958	9.07959
341.332	6.86589
344.707	4.446
348.082	4.79013
351.457	3.91833
354.832	3.04092
358.207	1.03999
361.581	1.65065
364.956	1.2144
368.331	0.749008
371.706	1.41707
375.08	0.390518
378.455	0.65358
381.83	0.223343
385.205	1.42339
388.58	1.22868
391.955	1.08624
395.329	0.954895
398.704	0.156525
402.079	1.98778
405.454	1.14261
408.829	1.89043
412.204	1.56142
415.578	2.43968
418.953	0.657791
422.328	1.14085
425.703	1.64653
429.078	1.91315
432.452	0.613937
435.827	0.065826
439.202	0.479034
442.577	0.816223
445.952	0.112518
449.327	0.058868
452.701	0.89241
456.076	0.044342
459.451	0.513794
462.826	0.867828
466.201	0.979385
469.575	1.97452
472.95	2.63769
476.325	4.94034
479.7	6.80484
483.075	9.45056
486.45	12.0738
489.824	16.4086
493.199	19.4502
496.574	22.2861
499.949	26.527
503.324	30.2923
506.698	34.7927
510.073	46.2077
513.448	52.6692
516.823	62.5848
520.198	70.3273
523.572	78.502
526.947	86.9148
530.322	92.225
533.697	92.8225
537.072	88.1579
540.447	80.518
543.821	69.4531
547.196	57.579
550.571	47.2724
553.946	35.4852
557.321	25.9802
560.695	17.5643
564.07	11.8385
567.445	6.14848
570.82	2.40811
574.195	0.460678
577.569	1.0036
580.944	2.8373
584.319	3.51804
587.694	2.87746
591.069	1.41663
594.443	0.013794
597.818	2.01903
601.193	5.49872
604.568	10.9295
607.943	16.6705
611.318	23.4318
614.692	30.0921
618.067	45.9238
621.442	54.8946
624.817	72.6533
628.192	89.1696
631.567	112.197
634.941	139.744
638.316	173.326
641.691	212.027
645.066	249.268
648.441	291.652
651.815	333.312
655.19	371.58
658.565	394.563
661.94	403.739
665.315	394.758
668.689	368.892
672.064	338.331
675.439	303.454
678.814	264.038
682.189	228.491
685.564	196.798
688.938	168.304
692.313	142.621
695.688	119.056
699.063	98.1287
702.438	78.4158
705.812	65.3615
709.187	50.1911
712.562	39.6489
715.937	29.6148
719.312	21.42
722.687	18.1579
726.061	12.5363
729.436	7.50577
732.811	3.30396
736.186	2.73118
739.561	0.332626
742.936	1.79523
746.31	2.07589
749.685	1.65649
753.06	1.48787
756.435	1.26676
759.81	1.00394
763.184	0.739754
766.559	0.358482
769.934	2.24082
773.309	1.98924
776.684	3.06591
780.058	3.89512
783.433	4.61175
786.808	4.87277
790.183	6.16166
793.558	6.51687
796.933	7.35201
800.307	8.05928
803.682	7.40282
807.057	6.99856
810.432	6.7215
813.807	5.40546
817.181	5.15537
820.556	5.4475
823.931	4.28869
827.306	5.06996
830.681	4.8643
834.056	4.29143
837.43	4.38708
840.805	4.45764
844.18	4.17072
847.555	4.35851
850.93	3.99897
854.304	3.867
857.679	3.36484
861.054	2.97335
864.429	2.26244
867.804	3.1236
871.178	2.70318
874.553	2.10489
877.928	1.40064
881.303	2.89019
884.678	2.82332
888.053	1.37222
891.427	1.8703
894.802	1.40064
898.177	0.477058
901.552	1.93433
904.927	1.29999
908.302	1.02801
911.676	1.35064
915.051	0.95956
918.426	0.074692
921.801	0.601952
925.176	0.107891
928.55	0.300255
931.925	0.477905
935.3	0.293072
938.675	0.180943
942.05	0.740925
945.424	0.161804
948.799	1.32708
952.174	0.149242
955.549	0.828609
958.924	0.79789
962.298	0.345783
965.673	0.120026
969.048	0.348167
972.423	0.341827
975.798	0.728374
979.173	0.038452
982.547	0.941498
985.922	1.08927
989.297	0.916286
992.672	0.393776
996.047	1.17763
999.421	0.689976
1002.8	0.302357
1006.17	1.43467
1009.55	0.260231
1012.92	0.673965
1016.3	0.059254
1019.67	0.079098
1023.04	2.01249
1026.42	1.10862
1029.8	0.243984
1033.17	1.97761
1036.54	1.49464
1039.92	1.86487
1043.29	1.43122
1046.67	2.08076
1050.04	1.10828
1053.42	2.0661
1056.79	1.52862
1060.17	1.97271
1063.54	1.70503
1066.92	2.19709
1070.29	1.33432
1073.67	3.48385
1077.04	2.68239
1080.42	1.50951
1083.79	1.52194
1087.17	2.3457
1090.54	2.24935
1093.92	1.64978
1097.29	1.6222
1100.67	1.67102
1104.04	2.0295
1107.42	2.46048
1110.79	1.04929
1114.16	0.786465
1117.54	1.28121
1120.91	0.25909
1124.29	0.96228
1127.66	1.23041
1131.04	0.317596
1134.41	0.917858
1137.79	0.729557
1141.16	0.370579
1144.54	1.02198
1147.91	0.962864
1151.29	0.540668
1154.66	0.794559
1158.04	0.299103
1161.41	1.11007
1164.79	1.62834
1168.16	0.31007
1171.54	0.465607
1174.91	0.680668
1178.29	1.00505
1181.66	1.48126
1185.04	1.03787
1188.41	1.21537
1191.79	1.34508
1195.16	1.29761
1198.54	0.013527
1201.91	0.20219
1205.29	1.46304
1208.66	0.937935
1212.04	0.571964
1215.41	1.22565
1218.79	0.479942
1222.16	0.637619
1225.53	0.717236
1228.91	0.138947
1232.28	0.902622
1235.66	0.912254
1239.03	0.706364
1242.41	0.80814
1245.78	0.432343
1249.16	1.00862
1252.53	0.735886
1255.91	1.02513
1259.28	1.29817
1262.66	0.685116
1266.03	0.855717
1269.41	0.693703
1272.78	0.867912
1276.16	1.05143
1279.53	0.427608
1282.91	0.896233
1286.28	0.735897
1289.66	0.549347
1293.03	0.368008
1296.4	1.95047
1299.78	0.988411
1303.15	0.002357
