Measurement: Raman, 780 nm, unoriented, Raman Data Processed
Mineral: Magnesio-riebeckite
Rruff sample: R060037
Ideal chemistry: [box]Na_2_(Mg_3_Fe^3+^_2_)Si_8_O_22_(OH)_2_
Locality: Pollone, Piedmont, Italy
Source: University of Arizona Mineral Museum
Description: Black bladed single crystals embedded in a white matrix of calcite
Measured chemistry: [box](Na_1.90_Ca_0.10_)_Σ=2_(Mg_1.65_Fe^2+^_1.40_)_Σ=3.05_(Fe^3+^_1.25_Al_0.55_Mg_0.20_)_Σ=2_Si_8.00_O_22_((OH)_0.95_F_0.05_)_2_
Raman shift (cm-1)	intensity
183.162	0
186.054	0.317673
188.947	1.67824
191.84	3.82411
194.732	6.1281
197.625	7.76025
200.518	10.157
203.411	10.4954
206.303	10.4114
209.196	6.15261
212.089	3.33488
214.981	1.32847
217.874	1.16154
220.767	1.33444
223.659	0.96357
226.552	0.232559
229.445	0.895798
232.338	1.69494
235.23	1.34379
238.123	0.051926
241.016	0.212357
243.908	0.378197
246.801	0.484848
249.694	0.597954
252.586	0.145386
255.479	0.009003
258.372	0.813774
261.264	0.387749
264.157	0.30233
267.05	1.87483
269.942	1.34052
272.835	1.19813
275.728	2.57882
278.621	4.04423
281.513	3.86341
284.406	5.74274
287.299	6.32155
290.191	9.72008
293.084	9.68986
295.977	11.158
298.87	11.734
301.762	11.1972
304.655	8.90858
307.548	7.09874
310.44	5.07417
313.333	2.6204
316.226	2.8379
319.118	1.59609
322.011	1.50154
324.904	1.37544
327.796	0.889751
330.689	1.19315
333.582	1.59601
336.475	1.76131
339.367	2.42741
342.26	3.09286
345.153	4.21337
348.045	3.06312
350.938	4.02663
353.831	6.63617
356.724	9.26437
359.616	10.9562
362.509	14.973
365.402	18.5581
368.294	20.8622
371.187	22.8326
374.08	22.4315
376.972	19.8708
379.865	17.1817
382.758	14.3123
385.651	12.3603
388.543	9.79997
391.436	8.74331
394.329	6.80645
397.221	5.1189
400.114	3.3235
403.007	2.95923
405.899	0.536533
408.792	0.784916
411.685	0.58519
414.577	0.378788
417.47	0.849876
420.363	1.06759
423.256	0.219097
426.148	0.488697
429.041	0.549129
431.934	1.01765
434.826	0.864685
437.719	0.940079
440.612	2.36306
443.505	0.257626
446.397	0.330894
449.29	0.027481
452.183	0.585464
455.075	0.851761
457.968	1.52662
460.861	2.52911
463.753	3.08261
466.646	3.42429
469.539	3.33284
472.432	3.72621
475.324	2.91249
478.217	2.81994
481.11	2.27639
484.002	1.07497
486.895	0.582935
489.788	0.95845
492.68	1.39527
495.573	1.29361
498.466	2.60291
501.358	2.86083
504.251	3.41693
507.144	5.10761
510.037	5.36441
512.929	5.46809
515.822	6.6509
518.715	7.98757
521.607	11.4984
524.5	13.8179
527.393	18.4942
530.285	21.5475
533.178	24.3447
536.071	27.9743
538.964	30.0224
541.856	29.7096
544.749	26.9882
547.642	23.4885
550.534	21.6872
553.427	18.9181
556.32	16.9454
559.212	16.5309
562.105	16.5321
564.998	15.4393
567.891	15.6639
570.783	14.5019
573.676	13.0069
576.569	11.6438
579.461	9.02031
582.354	8.42075
585.247	6.35667
588.139	4.48095
591.032	3.71807
593.925	2.46759
596.817	0.6217
599.71	0.301983
602.603	0.09288
605.496	0.909939
608.388	0.385178
611.281	0.060654
614.174	0.165276
617.066	0.242069
619.959	0.628941
622.852	1.1265
625.745	1.01953
628.637	0.641495
631.53	0.021492
634.423	1.69017
637.315	0.463467
640.208	2.34741
643.101	1.87698
645.993	2.8975
648.886	3.67491
651.779	5.58177
654.672	6.12729
657.564	8.73934
660.457	9.13586
663.35	10.2016
666.242	10.9944
669.135	9.56122
672.028	9.14125
674.92	6.35333
677.813	4.40984
680.706	3.13139
683.598	2.63634
686.491	1.18776
689.384	1.48279
692.277	1.49391
695.169	0.672905
698.062	1.02663
700.955	0.449524
703.847	0.110409
706.74	0.049896
709.633	0.711559
712.525	0.009129
715.418	0.063568
718.311	0.537006
721.204	0.777332
724.096	0.99612
726.989	1.44511
729.882	0.425392
732.774	0.259109
735.667	0.353535
738.56	0.061546
741.452	0.769608
744.345	1.13796
747.238	0.92823
750.131	0.924366
753.023	0.769863
755.916	1.05141
758.809	1.2717
761.701	1.58698
764.594	2.21306
767.487	2.43636
770.38	2.26375
773.272	1.75625
776.165	1.24606
779.058	0.99136
781.95	0.915199
784.843	1.17697
787.736	0.919945
790.628	0.294857
793.521	0.980911
796.414	0.210995
799.307	0.489986
802.199	0.7295
805.092	0.691002
807.985	0.993141
810.877	0.687405
813.77	1.61528
816.663	1.04669
819.555	1.1648
822.448	1.8093
825.341	1.26424
828.234	1.9432
831.126	2.07817
834.019	1.5909
836.912	2.00644
839.804	1.3627
842.697	2.03291
845.59	2.32137
848.482	2.43355
851.375	2.31135
854.268	3.02979
857.16	2.63509
860.053	2.11362
862.946	2.82169
865.839	2.58392
868.731	3.50376
871.624	2.51448
874.517	3.48664
877.409	3.27101
880.302	2.77319
883.195	2.97569
886.087	2.70125
888.98	2.27323
891.873	1.75621
894.765	2.53909
897.658	1.89536
900.551	1.11974
903.444	1.10836
906.336	0.650356
909.229	0.306377
912.122	0.036987
915.014	0.159267
917.907	0.118984
920.8	0.549343
923.692	0.568501
926.585	0.551838
929.478	0.07312
932.371	0.366314
935.263	0.944561
938.156	0.265343
941.049	0.295441
943.941	0.485073
946.834	0.666111
949.727	0.612484
952.62	0.86002
955.512	1.85238
958.405	2.61904
961.298	3.01371
964.19	2.64959
967.083	4.9626
969.976	5.13334
972.868	4.50122
975.761	2.95406
978.654	2.47167
981.547	1.85127
984.439	1.84899
987.332	0.422062
990.225	0.470184
993.117	1.86377
996.01	0.482868
998.903	0.374874
1001.79	0.090603
1004.69	1.61575
1007.58	0.42173
1010.47	1.11348
1013.37	0.209465
1016.26	1.05915
1019.15	1.04554
1022.04	1.40629
1024.94	0.933598
1027.83	0.574818
1030.72	1.1419
1033.62	1.16414
1036.51	0.060658
1039.4	0.619823
1042.29	0.258987
1045.19	1.27036
1048.08	0.996914
1050.97	0.675869
1053.86	0.807728
1056.76	0.84256
1059.65	1.35207
1062.54	0.941006
1065.43	0.557961
1068.33	0.917063
1071.22	1.44104
1074.11	0.59314
1077.01	1.25568
1079.9	1.62247
1082.79	0.595026
1085.68	1.58334
1088.58	1.68853
1091.47	1.06167
1094.36	1.51298
1097.25	0.374765
1100.15	0.497818
1103.04	0.180925
1105.93	0.347679
1108.83	0.956612
1111.72	0.665049
1114.61	0.198771
1117.5	0.481455
1120.4	0.549185
1123.29	0.460316
1126.18	0.594704
1129.07	0.437141
1131.97	1.21346
1134.86	0.819506
1137.75	1.18322
1140.64	0.09037
1143.54	0.970205
1146.43	0.617596
1149.32	1.13007
1152.22	0.085096
1155.11	1.75412
1158	0.34613
1160.89	0.508295
1163.79	0.090755
1166.68	0.756916
1169.57	1.0252
1172.46	0.688084
1175.36	0.030348
1178.25	0.873669
1181.14	0.879261
1184.04	1.18859
1186.93	0.828264
1189.82	0.700191
1192.71	1.22733
1195.61	0.484407
1198.5	1.23914
1201.39	1.35908
1204.28	0.543879
1207.18	0.572313
1210.07	0.759335
1212.96	1.44951
1215.86	1.33361
1218.75	1.30665
1221.64	1.64365
1224.53	0.092354
1227.43	0.149906
1230.32	1.13428
1233.21	1.13052
1236.1	0.516876
1239	1.1457
1241.89	1.07948
1244.78	0.561058
1247.67	0.316238
1250.57	0.53266
1253.46	0.750473
1256.35	0.850443
1259.25	0.78219
1262.14	0.077576
1265.03	0.597202
1267.92	0.320946
1270.82	0.61776
1273.71	0.045759
1276.6	0.262562
