Measurement: Raman, 785 nm, unoriented, Raman Data Processed
Mineral: Magnesioferrite
Rruff sample: R060869
Ideal chemistry: MgFe^3+^_2_O_4_
Locality: Langban, Filipstad, Varmland, Sweden
Source: Michael Scott
Description: Black semimetallic massive
Measured chemistry: (Mg_0.67_Mn^2+^_0.30_Fe^2+^_0.03_)_Σ=1_(Fe^3+^_1.97_Al_0.03_)_Σ=2_O_4_
Raman shift (cm-1)	intensity
125.384	0
128.277	27.5718
131.17	257.214
134.062	195.357
136.955	137.346
139.848	56.5011
142.74	83.9954
145.633	294.406
148.526	469.991
151.419	505.641
154.311	339.94
157.204	218.395
160.097	164.976
162.989	216.873
165.882	175.777
168.775	241.915
171.668	232.2
174.56	250.818
177.453	237.007
180.346	270.979
183.238	276.486
186.131	272.567
189.024	297.519
191.917	285.662
194.809	329.897
197.702	360.895
200.595	381.043
203.487	435.196
206.38	445.32
209.273	424.254
212.165	351.918
215.058	246.839
217.951	139.482
220.844	70.0872
223.736	43.896
226.629	35.2245
229.522	21.8797
232.414	11.5137
235.307	28.8812
238.2	10.769
241.092	5.50909
243.985	40.0236
246.878	22.0543
249.77	10.9025
252.663	17.0396
255.556	34.5688
258.449	48.7183
261.341	68.8389
264.234	77.4203
267.127	73.6372
270.019	36.4766
272.912	80.1628
275.805	66.1366
278.697	81.1682
281.59	105.648
284.483	117.334
287.376	111.764
290.268	137.701
293.161	180.541
296.054	205.693
298.946	402.284
301.839	473.688
304.732	533.005
307.625	665.1
310.517	694.763
313.41	710.141
316.303	745.362
319.195	836.744
322.088	881.724
324.981	934.686
327.873	1014.14
330.766	1069.95
333.659	1045.39
336.551	1023.25
339.444	874.541
342.337	735.586
345.23	566.904
348.122	477.336
351.015	412.458
353.908	341.032
356.8	261.748
359.693	234.418
362.586	188.033
365.478	148.711
368.371	123.925
371.264	138.002
374.157	96.3903
377.049	81.3372
379.942	53.0642
382.835	13.8701
385.727	24.7505
388.62	35.7579
391.513	1.41321
394.406	44.3491
397.298	1.13342
400.191	21.9414
403.084	40.6017
405.976	122.282
408.869	171.756
411.762	214.339
414.654	288.477
417.547	331.535
420.44	452.138
423.332	544.435
426.225	701.151
429.118	877.298
432.011	1120.28
434.903	1366.75
437.796	1455.7
440.689	1521.84
443.581	1426.56
446.474	1210.96
449.367	1027.02
452.26	928.024
455.152	852.933
458.045	909.509
460.938	981.499
463.83	1066.66
466.723	1204.62
469.616	1261.81
472.508	1343.06
475.401	1393.15
478.294	1414.24
481.187	1263.59
484.079	1155.21
486.972	946.112
489.865	740.089
492.757	550.365
495.65	354.522
498.543	269.307
501.435	147.41
504.328	126.429
507.221	53.4675
510.113	63.3976
513.006	2.80823
515.899	14.1928
518.792	52.0807
521.684	27.1592
524.577	30.8578
527.47	8.08533
530.362	23.2454
533.255	101.836
536.148	60.4326
539.04	33.4301
541.933	28.519
544.826	16.5566
547.719	28.4514
550.611	10.4062
553.504	11.469
556.397	27.0591
559.289	70.5437
562.182	71.1785
565.075	141.644
567.967	132.154
570.86	211.7
573.753	345.544
576.646	516.937
579.538	704.989
582.431	987.843
585.324	1382.06
588.216	1810.9
591.109	2347.94
594.002	3008.16
596.894	3682.89
599.787	4509.19
602.68	5296.01
605.573	5960.17
608.465	6417.24
611.358	6626.52
614.251	6330.97
617.143	5930.4
620.036	5263.58
622.929	4515.84
625.822	3883.63
628.714	3078.78
631.607	2425.53
634.5	1980.99
637.392	1561.85
640.285	1277.42
643.178	1114.43
646.07	925.669
648.963	817.389
651.856	741.54
654.749	695.81
657.641	666.324
660.534	641.146
663.427	588.811
666.319	490.752
669.212	468.127
672.105	500.546
674.997	510.01
677.89	544.582
680.783	540.278
683.676	598.01
686.568	610.22
689.461	569.128
692.354	582.735
695.246	571.385
698.139	547.727
701.032	472.01
703.924	457.884
706.817	337.195
709.71	254.475
712.602	177.203
715.495	107.223
718.388	26.2944
721.281	9.69995
724.173	2.98938
727.066	43.1202
729.959	38.0693
732.851	67.8148
735.744	47.0289
738.637	43.7836
741.529	12.8984
744.422	21.924
747.315	1.49304
750.208	39.0249
753.1	64.4943
755.993	77.3342
758.886	100.593
761.778	95.7823
764.671	106.934
767.564	95.0284
770.457	155.97
773.349	142.884
776.242	195.372
779.135	208.61
782.027	216.625
784.92	205.384
787.813	184.068
790.705	197.232
793.598	195.64
796.491	168.478
799.384	144.866
802.276	106.728
805.169	140.758
808.062	125.106
810.954	130.817
813.847	134.196
816.74	115.848
819.632	119.051
822.525	101.544
825.418	121.919
828.311	115.399
831.203	101.055
834.096	89.0143
836.989	53.7482
839.881	83.3786
842.774	83.3746
845.667	72.2677
848.559	63.5476
851.452	76.5942
854.345	49.5228
857.238	50.3943
860.13	53.0027
863.023	55.4932
865.916	52.1256
868.808	12.3883
871.701	36.9691
874.594	54.2205
877.486	50.3766
880.379	22.0881
883.272	30.3181
886.165	36.3899
889.057	14.3337
891.95	28.7655
894.843	36.6522
897.735	4.46466
900.628	13.3649
903.521	25.8289
906.413	21.8612
909.306	19.7598
912.199	8.14325
915.092	7.46051
917.984	18.2497
920.877	8.67163
923.77	10.1846
926.662	14.9229
929.555	23.7285
932.448	1.50574
935.341	25.0231
938.233	5.02942
941.126	14.4025
944.019	1.13135
946.911	16.3474
949.804	20.7972
952.697	24.7307
955.589	18.4752
958.482	32.8923
961.375	25.1738
964.268	32.9891
967.16	58.221
970.053	61.173
972.946	14.4078
975.838	64.7714
978.731	25.934
981.624	31.3932
984.516	60.0307
987.409	38.4684
990.302	18.6822
993.194	4.57538
996.087	18.6992
998.98	35.9351
1001.87	42.5247
1004.76	56.6563
1007.66	59.2137
1010.55	56.0743
1013.44	43.2028
1016.34	29.2502
1019.23	34.3183
1022.12	13.8697
1025.01	9.15234
1027.91	12.8464
1030.8	59.2183
1033.69	19.9842
1036.59	36.0898
1039.48	45.7688
1042.37	41.8326
1045.26	19.7601
1048.16	4.31641
1051.05	30.0663
1053.94	41.3633
1056.83	33.2712
1059.73	38.1863
1062.62	29.307
1065.51	18.3624
1068.4	37.8727
1071.3	31.9324
1074.19	30.405
1077.08	52.2568
1079.98	30.3601
1082.87	23.2933
1085.76	23.4415
1088.65	10.144
1091.55	23.2025
1094.44	58.2665
1097.33	11.7744
1100.22	20.786
1103.12	18.1697
1106.01	37.6314
1108.9	6.85248
1111.8	17.6221
1114.69	13.9851
1117.58	19.7535
1120.47	17.2449
1123.37	26.9116
1126.26	25.4547
1129.15	18.2432
1132.04	38.8455
1134.94	20.4994
1137.83	15.1087
1140.72	6.66376
1143.62	26.4382
1146.51	18.2068
1149.4	7.73431
1152.29	5.18372
1155.19	1.30939
1158.08	8.71777
1160.97	0.916199
1163.86	19.1531
1166.76	48.2752
1169.65	14.7051
1172.54	35.275
1175.43	38.7806
1178.33	19.028
1181.22	55.4991
1184.11	36.0521
1187.01	24.7345
1189.9	61.6842
1192.79	39.5942
1195.68	48.3749
1198.58	62.8661
1201.47	42.9254
1204.36	62.1954
1207.25	6.83453
1210.15	66.5093
1213.04	39.0902
1215.93	53.1469
1218.83	25.6582
1221.72	70.0578
1224.61	49.1088
1227.5	33.3752
1230.4	61.2087
1233.29	43.9263
1236.18	15.5551
1239.07	8.80652
1241.97	18.9291
1244.86	32.0714
1247.75	37.5585
1250.64	23.273
1253.54	2.185
1256.43	49.4537
1259.32	10.1642
1262.22	20.8517
