Measurement: Raman, 532 nm, unoriented, Raman Data Processed
Mineral: Magnesiotaaffeite-2N2S
Rruff sample: R070555
Ideal chemistry: Mg_3_BeAl_8_O_16_
Locality: Tunduru, Tanzania
Source: www.multicolour.com
Description: Slightly pink cut gemstone, 0.15 ct.
Measured chemistry: (Mg_2.92_Fe_0.08_)_Î£=3_Be_1.00_Al_8.00_O_16_ ; BeO estimated by difference
Raman shift (cm-1)	intensity
163.6	0
166.493	57.375
169.386	109.641
172.279	91.1094
175.171	93.3477
178.064	197.441
180.957	252.664
183.849	321.375
186.742	259.481
189.635	373.875
192.527	101.07
195.42	62.668
198.313	98.8242
201.206	428.902
204.098	520.668
206.991	425.195
209.884	330.773
212.776	164.156
215.669	65.9141
218.562	106.043
221.454	205.606
224.347	251.59
227.24	205.562
230.132	295.016
233.025	318.641
235.918	309.32
238.811	521.168
241.703	434.106
244.596	277.25
247.489	498.438
250.381	283.742
253.274	173.664
256.167	254.144
259.06	291.023
261.952	467.066
264.845	534.797
267.738	841.191
270.63	993.695
273.523	1493.51
276.416	1904.04
279.308	1862.83
282.201	2079.89
285.094	1825.77
287.986	1132.71
290.879	746.656
293.772	922.973
296.665	1274.12
299.557	1708.6
302.45	1013.43
305.343	903.238
308.235	1045.96
311.128	960.428
314.021	718.217
316.913	549.09
319.806	437.008
322.699	237.109
325.592	430.961
328.484	282.34
331.377	159.527
334.27	318.94
337.162	56.4102
340.055	43.7695
342.948	279.34
345.841	369.455
348.733	1211.81
351.626	1680.18
354.519	987.947
357.411	204.81
360.304	84.4551
363.197	199.715
366.089	478.408
368.982	898.293
371.875	1017.42
374.768	1039.21
377.66	1140.04
380.553	1063.56
383.446	1036.64
386.338	777.432
389.231	557.033
392.124	259.627
395.017	869.496
397.909	1597.16
400.802	2668.99
403.695	4543.73
406.587	6312.91
409.48	7923.05
412.373	11216
415.265	18508.2
418.158	23036.8
421.051	15880.7
423.943	7959.43
426.836	5065.49
429.729	4614.95
432.622	5492.82
435.514	7706.32
438.407	8858.77
441.3	7722.27
444.192	5203.98
447.085	4794.4
449.978	5962.74
452.87	5993.94
455.763	3825.73
458.656	1669.69
461.549	818.414
464.441	241.553
467.334	128.254
470.227	1.26562
473.119	101.076
476.012	55.2852
478.905	429.861
481.798	668.793
484.69	1297.52
487.583	1946.46
490.476	2675.66
493.368	3162.64
496.261	2658
499.154	1809.87
502.046	1148.68
504.939	1113.26
507.832	1415.43
510.724	1429.76
513.617	1025.17
516.51	375.131
519.403	252.545
522.295	17.5488
525.188	66.7168
528.081	68.4414
530.973	95.9023
533.866	7.49414
536.759	41.5801
539.652	285.012
542.544	455.672
545.437	535.365
548.33	754.195
551.222	770.5
554.115	572.635
557.008	211.559
559.9	69.2969
562.793	98.1934
565.686	68.8106
568.579	59.8926
571.471	69.3672
574.364	62.7285
577.257	54.1738
580.149	32.1973
583.042	375.512
585.935	486.269
588.827	404.773
591.72	510.324
594.613	369.803
597.506	540.979
600.398	503.789
603.291	616.16
606.184	639.365
609.076	872.617
611.969	1157.25
614.862	1724.58
617.755	1614.4
620.647	1272.5
623.54	831.18
626.433	438.807
629.325	357.725
632.218	435.75
635.111	309.777
638.003	333.56
640.896	485.027
643.789	210.412
646.682	59.0996
649.574	70.3418
652.467	185.982
655.36	490.609
658.252	909.152
661.145	1369.73
664.038	1741.08
666.93	1907.3
669.823	1558.68
672.716	1374.11
675.609	1089.64
678.501	717.758
681.394	159.031
684.287	81.3438
687.179	56.8418
690.072	96.5625
692.965	508.066
695.857	733.373
698.75	1424.39
701.643	2186.67
704.535	2943.32
707.428	3805.6
710.321	4382.18
713.214	5359.84
716.106	5897.63
718.999	4986.16
721.892	3189.35
724.784	1797.17
727.677	1250.92
730.57	940.106
733.462	937.914
736.355	914.406
739.248	1088.24
742.141	1127.84
745.033	1477.98
747.926	1799.13
750.819	2353.84
753.711	2931.05
756.604	3713.81
759.497	4634.63
762.389	5710.84
765.282	6052.61
768.175	4359.82
771.068	2446.72
773.96	1495.57
776.853	971.178
779.746	534.572
782.638	131.684
785.531	19.9102
788.424	7.91992
791.317	74.8477
794.209	37.4512
797.102	70.2227
799.995	34.418
802.887	198.721
805.78	419.977
808.673	795.404
811.565	1172.64
814.458	1434.54
817.351	1365.68
820.244	1070.61
823.136	686.988
826.029	448.644
828.922	131.053
831.814	144.408
834.707	12.0332
837.6	2.48047
840.492	12.2266
843.385	84.2305
846.278	37.623
849.171	60.1914
852.063	101.129
854.956	98.332
857.849	139.205
860.741	109.037
863.634	77.4258
866.527	59.9785
869.419	257.398
872.312	211.162
875.205	240.57
878.098	71.9863
880.99	179.838
883.883	58.1328
886.776	171.756
889.668	71.2402
892.561	56.8242
895.454	29.7539
898.346	58.8027
901.239	94.793
904.132	11.4707
907.025	3.85742
909.917	62.1094
912.81	57.6875
915.703	145.953
918.595	194.217
921.488	243.236
924.381	192.527
927.274	200.346
930.166	105.814
933.059	316.648
935.952	331.172
938.844	314.131
941.737	504.357
944.63	679.121
947.522	800.602
950.415	978.885
953.308	984.533
956.201	917.389
959.093	997.988
961.986	764.072
964.879	483.576
967.771	497.201
970.664	349.15
973.557	214.703
976.449	258.596
979.342	269.623
982.235	228.894
985.128	156.037
988.02	119.707
990.913	141.732
993.806	77.8262
996.698	47.8828
999.591	56.957
1002.48	51.1777
1005.38	199.562
1008.27	198.56
1011.16	123.9
1014.05	123.582
1016.95	131.225
1019.84	131.68
1022.73	12.5879
1025.62	6.37305
1028.52	25.0566
1031.41	6.20117
1034.3	36.1328
1037.2	98.3106
1040.09	110.334
1042.98	183.938
1045.87	139.906
1048.77	145.9
1051.66	102.793
1054.55	30.8652
1057.44	113.232
1060.34	100.041
1063.23	84.0117
1066.12	179.853
1069.02	110.375
1071.91	212.203
1074.8	175.549
1077.69	172.982
1080.59	220.356
1083.48	98.9043
1086.37	221.922
1089.27	38.041
1092.16	215.891
1095.05	164.973
1097.94	101.107
1100.84	130.762
1103.73	198.31
1106.62	112.684
1109.51	57.1992
1112.41	5.10938
1115.3	78.1426
1118.19	142.664
1121.08	131.418
1123.98	111.769
1126.87	69.2188
1129.76	166.965
1132.65	84.5918
1135.55	63.4766
1138.44	150.916
1141.33	84.5352
1144.23	103.856
1147.12	94.1074
1150.01	217.848
1152.9	55.3262
1155.8	131.094
1158.69	232.482
1161.58	150.111
1164.47	66.2207
1167.37	1.50391
1170.26	99.4492
1173.15	67.8184
1176.05	243.147
1178.94	136.127
1181.83	88.9082
1184.72	119.883
1187.62	136.06
1190.51	83.418
1193.4	103.894
1196.3	120.797
1199.19	184.522
1202.08	87.1621
1204.97	123.469
1207.87	165.049
1210.76	61.1465
1213.65	51.082
1216.54	69.6367
1219.44	92.9805
1222.33	163.348
1225.22	165.766
1228.11	228.779
1231.01	206.83
1233.9	206.533
1236.79	115.963
1239.68	180.832
1242.58	123.219
1245.47	17.9082
1248.36	12.3555
1251.26	5.1875
1254.15	128.272
1257.04	80.4141
1259.93	47.6523
1262.83	132.721
1265.72	198.781
1268.61	183.383
1271.51	124.074
1274.4	173.627
1277.29	11.2227
1280.18	39.127
1283.08	234.648
1285.97	84.1602
1288.86	155.793
1291.75	194.287
1294.65	81.1191
1297.54	85.5762
1300.43	93.7988
1303.33	126.381
