Measurement: Raman, 532 nm, unoriented, Raman Data Processed
Mineral: Magnesio-riebeckite
Rruff sample: R070002
Ideal chemistry: [box]Na_2_(Mg_3_Fe^3+^_2_)Si_8_O_22_(OH)_2_
Locality: Alto Chapare, Cochabamba Department, Bolivia
Source: Michael Scott
Description: Light bluish gray fibrous cloth-like fabric
Measured chemistry: (Na_1.92_Ca_0.08_K_0.04_)_Σ=2_(Mg_2.62_Fe^2+^_0.50_)_Σ=3.12_(Fe^3+^_1.84_Al_0.04_)_Σ=1.88_Si_8.00_O_22_(OH)_2_; OH estimated by stoichiometry; Fe^3+^ and Fe^2+^ splitted by charge balance
Raman shift (cm-1)	intensity
151.627	0
155.002	11.6418
158.377	22.3167
161.752	176.236
165.126	407.743
168.501	677.328
171.876	434.014
175.251	135.358
178.626	76.09
182.001	81.2507
185.375	8.37531
188.75	9.33408
192.125	35.4766
195.5	97.066
198.875	216.821
202.25	384.562
205.624	524.859
208.999	520.219
212.374	444.851
215.749	388.861
219.124	322.765
222.498	293.833
225.873	305.916
229.248	300.692
232.623	221.569
235.998	82.1284
239.373	34.9056
242.747	9.93228
246.122	14.3965
249.497	34.8704
252.872	38.8675
256.247	37.8689
259.621	5.38937
262.996	38.9127
266.371	71.5887
269.746	46.8232
273.121	20.7938
276.495	8.11591
279.87	13.2596
283.245	6.82544
286.62	31.6206
289.995	89.2668
293.37	144.352
296.744	196.148
300.119	154.732
303.494	81.1753
306.869	14.7518
310.244	18.1415
313.618	17.2161
316.993	9.54236
320.368	25.6791
323.743	33.8295
327.118	37.6599
330.493	89.458
333.867	150.872
337.242	200.492
340.617	214.293
343.992	242.926
347.367	225.213
350.741	126.1
354.116	79.8536
357.491	97.5204
360.866	219.525
364.241	350.924
367.616	534.586
370.99	702.061
374.365	596.783
377.74	310.959
381.115	153.633
384.49	113.799
387.865	85.0476
391.239	64.4099
394.614	35.3242
397.989	56.8444
401.364	63.0593
404.739	64.3188
408.113	82.0474
411.488	73.203
414.863	68.4156
418.238	18.2452
421.613	39.207
424.988	68.1244
428.362	95.4136
431.737	115.528
435.112	69.1962
438.487	40.2871
441.862	8.46811
445.236	16.2702
448.611	3.7728
451.986	1.19223
455.361	10.417
458.736	1.36804
462.111	28.3838
465.485	46.1617
468.86	95.3287
472.235	124.935
475.61	156.956
478.985	139.338
482.359	80.6595
485.734	42.0632
489.109	53.6136
492.484	36.9154
495.859	35.3742
499.233	35.6441
502.608	54.7939
505.983	101.223
509.358	137.23
512.733	183.277
516.107	214.916
519.482	261.252
522.857	294.921
526.232	372.004
529.607	515.341
532.982	672.999
536.356	806.521
539.731	862.907
543.106	793.503
546.481	570.738
549.856	369.12
553.231	291.88
556.605	228.712
559.98	209.791
563.355	186.198
566.73	181.463
570.105	185.737
573.479	221.877
576.854	228.889
580.229	252.082
583.604	271.389
586.979	238.208
590.354	165.242
593.728	81.7682
597.103	39.0814
600.478	22.0618
603.853	9.39023
607.228	3.2052
610.602	1.85834
613.977	3.78116
617.352	21.0443
620.727	0.344269
624.102	7.07275
627.477	4.90228
630.851	13.6685
634.226	26.7856
637.601	17.4974
640.976	52.2112
644.351	60.4341
647.726	111.903
651.1	180.429
654.475	232.065
657.85	309.489
661.225	438.043
664.6	525.847
667.974	578.044
671.349	595.702
674.724	549.48
678.099	421.497
681.474	272.205
684.848	173.357
688.223	100.87
691.598	78.4479
694.973	47.6727
698.348	35.7931
701.722	23.5237
705.097	10.9733
708.472	11.1009
711.847	22.4279
715.222	3.05612
718.597	5.16858
721.971	2.0351
725.346	4.61932
728.721	6.78217
732.096	25.9731
735.471	22.9116
738.846	45.0206
742.22	39.2424
745.595	54.4095
748.97	37.6561
752.345	34.1288
755.72	33.1081
759.094	33.3536
762.469	60.1462
765.844	74.1616
769.219	85.6024
772.594	65.1447
775.968	57.9572
779.343	40.6601
782.718	31.0208
786.093	31.4948
789.468	7.75787
792.843	36.4244
796.217	17.833
799.592	0.748108
802.967	11.6398
806.342	5.6958
809.717	1.26794
813.091	4.06808
816.466	1.53055
819.841	11.8319
823.216	8.36285
826.591	9.10144
829.966	5.70212
833.34	1.7059
836.715	8.06934
840.09	1.27054
843.465	0.254028
846.84	5.49716
850.215	15.7934
853.589	13.5175
856.964	24.7605
860.339	18.5975
863.714	26.9822
867.089	63.0115
870.463	83.5005
873.838	99.1134
877.213	137.974
880.588	201.629
883.963	268.882
887.337	328.196
890.712	384.432
894.087	433.416
897.462	453.799
900.837	393.649
904.212	316.026
907.586	221.742
910.961	136.795
914.336	81.6645
917.711	34.2125
921.086	13.1623
924.46	19.7494
927.835	0.037567
931.21	1.62637
934.585	9.00662
937.96	39.2576
941.335	41.6578
944.709	66.56
948.084	131.717
951.459	195.948
954.834	316.362
958.209	569.04
961.583	928.013
964.958	1469.64
968.333	1968.78
971.708	2091.93
975.083	1651.3
978.458	1013.97
981.832	620.68
985.207	402.581
988.582	286.505
991.957	222.733
995.332	146.083
998.707	86.3187
1002.08	53.8539
1005.46	12.0599
1008.83	16.9565
1012.21	2.47644
1015.58	0.830994
1018.96	2.41717
1022.33	6.9758
1025.7	26.069
1029.08	26.3682
1032.45	33.2301
1035.83	41.0245
1039.2	50.0806
1042.58	76.424
1045.95	120.037
1049.33	163.165
1052.7	157.403
1056.08	118.563
1059.45	63.266
1062.83	34.0762
1066.2	22.0365
1069.58	13.5559
1072.95	8.11383
1076.33	19.8748
1079.7	4.45224
1083.08	31.794
1086.45	34.685
1089.83	72.9106
1093.2	87.1199
1096.58	89.7951
1099.95	53.6449
1103.33	47.8818
1106.7	25.9235
1110.08	36.993
1113.45	16.1878
1116.83	26.5167
1120.2	33.4026
1123.58	29.2713
1126.95	28.9923
1130.32	23.5135
1133.7	20.4341
1137.07	9.21497
1140.45	9.1297
1143.82	23.3152
1147.2	0.240387
1150.57	13.1408
1153.95	3.17191
1157.32	8.8971
1160.7	0.415466
1164.07	4.77765
1167.45	0.728058
1170.82	13.3442
1174.2	8.58054
1177.57	8.0069
1180.95	3.72992
1184.32	9.73251
1187.7	23.9368
1191.07	19.9832
1194.45	18.0054
1197.82	3.77283
1201.2	2.45201
1204.57	15.2282
1207.94	20.6795
1211.32	5.28725
1214.69	19.6611
1218.07	26.071
1221.44	9.02382
1224.82	19.6194
1228.19	24.1762
1231.57	7.5688
1234.94	5.71838
1238.32	21.8431
1241.69	28.5222
1245.07	31.3834
1248.44	3.48238
1251.82	15.4434
1255.19	13.0567
1258.57	20.2087
1261.94	16.509
1265.32	14.4106
1268.69	11.894
1272.07	23.5178
1275.44	32.7274
1278.82	15.5757
1282.19	22.7132
1285.57	28.863
1288.94	21.448
1292.32	3.39087
1295.69	19.9159
1299.07	36.8125
1302.44	10.9286
1305.82	29.254
1309.19	28.98
1312.56	14.6617
1315.94	23.514
