Measurement: Raman, 514 nm, unoriented, Raman Data Processed
Mineral: Magnesite
Rruff sample: R050443
Ideal chemistry: MgCO_3_
Locality: Brumado, Bahia, Brazil
Source: Eugene Schlepp
Description: Group of colorless crystals
Measured chemistry: Mg_1.00_CO_3_
Raman shift (cm-1)	intensity
111.473	0
115.644	36.509
119.813	61.811
123.981	36.105
128.146	62.03
132.309	20.974
136.47	69.383
140.63	82.125
144.787	116.3
148.942	75.078
153.096	42.243
157.247	28.268
161.396	46.937
165.544	7.486
169.689	33.115
173.833	26.623
177.974	20.331
182.114	53.122
186.251	68.628
190.387	43.511
194.52	101.802
198.652	123.884
202.782	261.54
206.909	941.922
211.035	2809.63
215.159	2741.87
219.281	754.114
223.4	230.254
227.518	104.274
231.634	55.054
235.748	13.608
239.86	31.934
243.97	3.699
248.079	12.006
252.185	6.116
256.289	0.481
260.391	34.047
264.492	14.457
268.59	26.535
272.687	3.738
276.781	13.231
280.874	0.643
284.964	15.799
289.053	1.375
293.14	60.057
297.225	113.017
301.308	106.926
305.389	153.114
309.468	183.712
313.545	263.132
317.62	523.532
321.693	1494.14
325.765	5855.88
329.834	15971.9
333.902	9897.93
337.967	2794.68
342.031	991.529
346.093	513.693
350.153	307.452
354.21	233.762
358.267	169.739
362.321	153.601
366.373	164.992
370.423	95.82
374.471	119.404
378.518	215.787
382.563	176.972
386.605	91.059
390.646	140.567
394.685	93.267
398.722	81.621
402.757	135.479
406.79	40.055
410.821	101.952
414.851	90.339
418.878	60.108
422.904	56.152
426.927	50.289
430.949	32.695
434.969	105.608
438.987	32.485
443.003	26.709
447.018	48.637
451.03	63.623
455.041	54.222
459.049	46.888
463.056	33.74
467.061	114.387
471.064	90.242
475.065	2.664
479.064	72.486
483.062	64.883
487.057	74.196
491.051	0.341
495.043	42.473
499.032	66.979
503.02	96.82
507.007	88.903
510.991	82.118
514.973	160.936
518.954	140.438
522.933	15.629
526.91	6.49
530.885	115.691
534.858	128.638
538.829	89.77
542.799	105.983
546.766	83.218
550.732	56.974
554.696	11.439
558.658	70.688
562.618	54.08
566.576	15.154
570.533	58.059
574.488	87.723
578.44	38.598
582.391	8.995
586.341	47.197
590.288	106.179
594.233	8.088
598.177	52.539
602.119	74.423
606.059	108.708
609.997	23.854
613.933	5.541
617.868	67.16
621.801	17.038
625.731	73.195
629.66	78.095
633.588	24.697
637.513	95.301
641.437	39.551
645.358	51.397
649.278	37.263
653.196	76.146
657.113	147.947
661.027	50.71
664.94	124.132
668.851	121.606
672.76	143.313
676.667	146.703
680.572	170.736
684.476	118.682
688.378	54.808
692.278	205.023
696.176	63.18
700.072	232.086
703.967	35.449
707.86	238.789
711.751	198.301
715.64	338.416
719.527	545.162
723.413	676.663
727.297	971.889
731.179	1518.27
735.059	2022.37
738.937	2621.8
742.814	2260.78
746.689	1352.58
750.562	822.022
754.433	413.234
758.303	308.109
762.17	200.321
766.036	30.478
769.901	124.534
773.763	182.075
777.624	22.133
781.482	86.556
785.339	34.293
789.195	161.674
793.048	139.823
796.9	62.023
800.75	55.502
804.598	190.961
808.445	67.234
812.289	53.18
816.132	48.601
819.973	51.48
823.813	112.366
827.65	22.175
831.486	36.916
835.32	21.51
839.152	65.054
842.983	29.869
846.812	31.348
850.639	26.38
854.464	22.92
858.288	45.732
862.11	64.401
865.93	2.878
869.748	97.91
873.564	80.777
877.379	36.743
881.192	27.824
885.004	32.012
888.813	150.305
892.621	169.717
896.427	50.261
900.232	180.937
904.034	104.766
907.835	278.734
911.634	91.844
915.432	127.093
919.227	120.115
923.021	107.811
926.813	183.273
930.604	143.906
934.393	203.523
938.18	363.721
941.965	240.228
945.749	132.95
949.53	109.572
953.311	130.162
957.089	181.942
960.866	197.713
964.641	220.795
968.414	127.854
972.185	92.458
975.955	213.938
979.723	223.43
983.49	269.492
987.254	233.305
991.017	129.814
994.779	202.821
998.538	250.162
1002.3	112.033
1006.05	174.688
1009.81	351.628
1013.56	330.985
1017.31	238.914
1021.06	222.93
1024.81	382.344
1028.55	298.146
1032.3	340.383
1036.04	378.846
1039.78	456.371
1043.52	504.485
1047.26	556.206
1050.99	639.854
1054.73	766.909
1058.46	988.535
1062.19	1239.15
1065.92	1585.07
1069.65	1905.31
1073.37	2695.86
1077.1	3934.72
1080.82	5786.89
1084.54	10173.4
1088.26	18894.2
1091.97	34984.4
1095.69	47628.9
1099.4	37162.8
1103.12	23247.5
1106.83	14436.1
1110.54	9140.07
1114.24	5364.4
1117.95	3054.04
1121.65	1884.01
1125.35	1366.21
1129.06	806.822
1132.75	746.439
1136.45	708.021
1140.15	480.643
1143.84	275.577
1147.53	311.888
1151.22	116.442
1154.91	88.191
1158.6	13.52
1162.28	121.482
1165.97	100.261
1169.65	158.842
1173.33	57.974
1177.01	282.526
1180.69	68.715
1184.36	128.864
1188.04	164.12
1191.71	31.69
1195.38	77.445
1199.05	1.443
1202.71	13.85
1206.38	113.885
1210.04	102.612
1213.71	101.613
1217.37	72.85
1221.03	40.347
1224.68	96.107
1228.34	94.124
1231.99	80.371
1235.65	174.85
1239.3	233.551
1242.95	94.477
1246.59	184.628
1250.24	229.002
1253.88	156.579
1257.53	91.368
1261.17	193.359
1264.81	117.492
1268.45	116.765
1272.08	133.877
1275.72	1.095
1279.35	2.988
1282.98	78.206
1286.61	64.598
1290.24	34.852
1293.87	51.8
1297.49	30.407
1301.11	9.515
1304.73	54.462
1308.36	94.642
1311.97	160.128
1315.59	59.049
1319.2	132.711
1322.82	24.539
1326.43	212.852
1330.04	38.398
1333.65	57.1
1337.26	61.012
1340.86	162.838
1344.47	51.221
1348.07	265.848
1351.67	229.133
1355.27	233.498
1358.87	205.295
1362.46	128.326
1366.06	216.318
1369.65	115.967
1373.24	139.572
1376.83	252.422
1380.42	201.51
1384	269.266
1387.59	222.797
1391.17	232.553
1394.75	218.062
1398.33	158.623
1401.91	315.447
1405.49	148.58
1409.06	194.227
1412.64	274.984
1416.21	201.99
1419.78	280.32
1423.35	177.645
1426.91	61.943
1430.48	153.459
1434.05	269.789
1437.61	458.471
1441.17	367.656
1444.73	687.699
1448.29	1174.66
1451.84	839.461
1455.4	559.051
1458.95	385.465
1462.5	149.268
1466.05	143.148
1469.6	274.76
1473.15	136.012
1476.69	392.504
1480.24	211.197
1483.78	287.613
1487.32	113.59
1490.86	89.604
1494.39	267.086
1497.93	94.449
1501.46	104.838
1505	103.168
1508.53	73.479
