Measurement: Raman, 532 nm, unoriented, Raman Data Processed
Mineral: Magnesite
Rruff sample: R050676
Ideal chemistry: MgCO_3_
Locality: Tyrol, Austria
Source: University of Arizona Mineral Museum
Description: Brown rhombohedral crystals
Measured chemistry: (Mg_0.87_Fe^2+^_0.12_Ca_0.01_)_Î£=1_CO_3_; trace amounts of Mn and Cd; CO_2_ estimated by difference
Raman shift (cm-1)	intensity
124.494	0
127.869	0.075176
131.244	0.611254
134.619	1.65034
137.993	6.88453
141.368	7.22834
144.743	7.25723
148.118	8.66564
151.493	12.2644
154.867	14.5806
158.242	12.1788
161.617	12.2012
164.992	12.0074
168.367	12.9231
171.742	15.0152
175.116	17.0779
178.491	17.6492
181.866	22.0044
185.241	26.2785
188.616	39.2632
191.99	72.6755
195.365	98.3218
198.74	124.706
202.115	168.025
205.49	240.775
208.864	349.215
212.239	221.183
215.614	53.7342
218.989	20.1852
222.364	9.00254
225.739	5.1492
229.113	3.29863
232.488	1.41309
235.863	0.113964
239.238	0.335457
242.613	0.252796
245.988	1.15746
249.362	0.44902
252.737	0.19595
256.112	0.060055
259.487	0.235615
262.862	0.957676
266.236	1.52691
269.611	0.820347
272.986	0.549488
276.361	1.81982
279.736	2.38569
283.111	2.99838
286.485	5.22224
289.86	7.53427
293.235	12.1912
296.61	19.9009
299.985	33.7943
303.36	64.5628
306.734	141.161
310.109	261.914
313.484	376.691
316.859	549.737
320.234	840.547
323.608	1178.65
326.983	970.522
330.358	390.051
333.733	163.404
337.108	86.8648
340.483	54.4919
343.857	34.8487
347.232	24.0819
350.607	16.7285
353.982	12.19
357.357	9.57034
360.731	7.8377
364.106	6.85131
367.481	6.78906
370.856	6.1235
374.231	6.5946
377.606	6.55801
380.98	6.12199
384.355	5.07909
387.73	5.09406
391.105	3.97949
394.48	1.7204
397.854	1.58836
401.229	0.649176
404.604	0.091059
407.979	0.157549
411.354	0.182602
414.729	0.599236
418.103	0.375412
421.478	1.15752
424.853	0.269756
428.228	0.687412
431.603	0.323475
434.978	0.423796
438.352	0.222525
441.727	0.459314
445.102	0.949001
448.477	3.63874
451.852	2.59719
455.226	2.49835
458.601	3.24327
461.976	3.19654
465.351	4.73185
468.726	5.69095
472.101	6.94562
475.475	7.91934
478.85	9.77818
482.225	10.6545
485.6	11.8311
488.975	12.7684
492.349	13.8886
495.724	15.7291
499.099	16.197
502.474	16.456
505.849	16.9319
509.224	16.1368
512.598	15.9696
515.973	15.5113
519.348	13.8117
522.723	13.0389
526.098	11.7634
529.472	10.5787
532.847	8.9882
536.222	7.90509
539.597	7.25054
542.972	6.0283
546.347	5.35702
549.721	4.41735
553.096	3.95896
556.471	3.14892
559.846	2.29357
563.221	1.86338
566.596	1.87443
569.97	2.04878
573.345	1.8749
576.72	1.43396
580.095	1.02811
583.47	1.03739
586.845	0.529158
590.219	0.717094
593.594	0.547695
596.969	0.439344
600.344	0.275837
603.719	0.112371
607.093	0.144955
610.468	0.24493
613.843	0.194462
617.218	1.14318
620.593	0.203362
623.967	0.282026
627.342	0.033886
630.717	0.307539
634.092	0.468374
637.467	0.061577
640.842	0.105074
644.216	1.39457
647.591	3.1666
650.966	0.797831
654.341	1.85533
657.716	1.48842
661.091	2.23203
664.465	2.83271
667.84	2.42945
671.215	3.20232
674.59	3.92935
677.965	4.31164
681.34	4.41685
684.714	5.61239
688.089	6.1525
691.464	7.47354
694.839	9.07078
698.214	11.5016
701.588	14.3549
704.963	19.1882
708.338	25.9878
711.713	34.7645
715.088	49.6401
718.462	69.9073
721.837	105.198
725.212	143.455
728.587	195.641
731.962	250.263
735.337	288.426
738.712	275.758
742.086	211.11
745.461	139.241
748.836	87.5973
752.211	53.4716
755.586	32.7034
758.96	19.5009
762.335	11.7587
765.71	7.40636
769.085	4.08294
772.46	2.21693
775.835	2.17077
779.209	0.233871
782.584	0.179497
785.959	0.112524
789.334	0.40131
792.709	0.734972
796.083	0.506266
799.458	0.548866
802.833	0.135191
806.208	0.253748
809.583	0.429236
812.957	0.230755
816.332	0.615159
819.707	0.417073
823.082	0.244261
826.457	1.11923
829.832	0.837816
833.207	1.40802
836.581	1.14121
839.956	2.17897
843.331	2.0614
846.706	2.33908
850.081	2.21027
853.455	2.88862
856.83	3.3551
860.205	2.87131
863.58	3.59648
866.955	6.71594
870.33	9.77332
873.704	14.4546
877.079	15.5432
880.454	12.4233
883.829	5.54732
887.204	3.44688
890.578	3.00127
893.953	2.77175
897.328	2.60402
900.703	2.74534
904.078	3.26336
907.452	2.48513
910.827	3.41978
914.202	2.8747
917.577	2.86928
920.952	3.69035
924.327	3.46139
927.702	3.25535
931.076	3.63096
934.451	2.8585
937.826	3.47504
941.201	4.19587
944.576	4.36668
947.95	4.02304
951.325	4.77822
954.7	3.34167
958.075	3.29851
961.45	2.77266
964.824	2.33288
968.199	1.83831
971.574	1.48954
974.949	1.82672
978.324	1.08228
981.699	0.904613
985.073	0.041842
988.448	0.017492
991.823	0.714811
995.198	0.905193
998.573	0.86199
1001.95	1.33175
1005.32	0.965368
1008.7	1.25771
1012.07	0.393021
1015.45	0.168682
1018.82	1.09898
1022.2	1.97876
1025.57	4.54519
1028.95	6.7672
1032.32	8.72996
1035.7	12.3272
1039.07	17.8213
1042.44	23.963
1045.82	32.2899
1049.19	42.6568
1052.57	55.4999
1055.94	74.0465
1059.32	103.701
1062.69	146.878
1066.07	209.917
1069.44	312.565
1072.82	474.945
1076.19	733.868
1079.57	1194.16
1082.94	1964.93
1086.32	3037.17
1089.69	4288.94
1093.07	5000.45
1096.44	4193.14
1099.82	2746.14
1103.19	1620.98
1106.57	904.281
1109.94	505.195
1113.32	293.111
1116.69	175.19
1120.07	109.531
1123.44	69.8552
1126.82	45.3117
1130.19	29.6396
1133.57	19.3689
1136.94	12.6578
1140.32	8.07566
1143.69	4.73427
1147.07	2.36731
1150.44	0.251846
1153.81	0.476231
1157.19	1.72242
1160.56	1.15322
1163.94	1.58553
1167.31	1.29172
1170.69	0.277149
1174.06	0.621534
1177.44	0.423697
1180.81	0.874424
1184.19	0.960094
1187.56	1.79813
1190.94	2.54257
1194.31	2.57612
1197.69	3.70732
1201.06	5.59823
1204.44	5.13759
1207.81	5.01411
1211.19	5.10374
1214.56	5.86214
1217.94	5.67103
1221.31	7.67166
1224.69	6.1211
1228.06	4.28595
1231.43	4.95345
1234.81	3.96409
1238.18	3.43875
1241.56	3.24468
1244.93	3.23145
1248.31	2.4725
1251.68	2.32385
1255.06	2.39883
1258.43	2.11195
1261.81	2.04454
1265.18	0.974006
1268.56	1.17057
1271.93	1.55982
1275.31	1.21911
1278.68	0.791203
1282.06	0.788704
1285.43	0.731213
1288.81	0.186529
1292.18	0.345837
1295.56	0.151743
1298.93	0.384264
1302.31	0
