Measurement: Raman, 532 nm, unoriented, Raman Data Processed
Mineral: Magnesiotaaffeite-2N2S
Rruff sample: X090001
Ideal chemistry: Mg_3_BeAl_8_O_16_
Locality: Ratnapura, Sri Lanka
Source: William W. Pinch
Description: Dark grey with a hint of purple, flattened tabular hexagonal crystal
Raman shift (cm-1)	intensity
152.155	0
155.048	3.84932
157.94	0.802765
160.833	0.174271
163.726	7.15643
166.618	0.930893
169.511	6.94324
172.404	4.2515
175.297	1.88583
178.189	2.57903
181.082	4.04524
183.975	6.69356
186.867	9.6739
189.76	6.41814
192.653	8.91374
195.545	7.1174
198.438	5.89407
201.331	5.94072
204.224	0.897278
207.116	2.76868
210.009	1.86598
212.902	0.075928
215.794	0.530167
218.687	0.64006
221.58	0.717712
224.472	0.077545
227.365	3.45004
230.258	0.686203
233.15	3.1658
236.043	4.13925
238.936	2.31213
241.829	3.47539
244.721	3.24635
247.614	3.79565
250.507	5.29896
253.399	9.9359
256.292	13.6786
259.185	16.83
262.077	17.8426
264.97	23.3976
267.863	29.3575
270.756	34.7705
273.648	42.7415
276.541	41.7415
279.434	40.061
282.326	51.7702
285.219	52.0168
288.112	58.608
291.005	62.1608
293.897	58.4486
296.79	56.8743
299.683	49.8008
302.575	46.0459
305.468	49.3946
308.361	47.9131
311.253	32.1802
314.146	20.7725
317.039	15.4739
319.932	10.1611
322.824	9.05473
325.717	6.88707
328.61	9.01224
331.502	6.67377
334.395	8.42833
337.288	5.71812
340.18	1.71783
343.073	2.43063
345.966	3.02072
348.858	3.77295
351.751	2.42798
354.644	0.032791
357.536	4.66646
360.429	14.2938
363.322	20.7309
366.215	29.9639
369.107	46.9971
372	59.726
374.893	69.1589
377.785	58.5579
380.678	47.4932
383.571	41.088
386.464	47.8788
389.356	58.3104
392.249	83.8976
395.142	118.286
398.034	179.085
400.927	262.834
403.82	339.5
406.712	391.99
409.605	461.916
412.498	601.182
415.39	743.22
418.283	650.367
421.176	415.658
424.069	286.098
426.961	252.558
429.854	275.664
432.747	327.268
435.639	359.908
438.532	330.756
441.425	299.537
444.317	301.277
447.21	309.719
450.103	268.412
452.996	164.901
455.888	75.2916
458.781	28.245
461.674	9.77953
464.566	1.00383
467.459	4.68137
470.352	3.72266
473.245	0.324692
476.137	6.118
479.03	14.0285
481.923	25.5118
484.815	38.3891
487.708	51.6402
490.601	51.0991
493.493	42.7949
496.386	30.1332
499.279	23.9013
502.171	26.3892
505.064	39.3401
507.957	42.6975
510.85	34.9831
513.742	36.2214
516.635	49.5579
519.528	67.1922
522.42	68.3044
525.313	36.244
528.206	9.41766
531.098	1.7085
533.991	0.15184
536.884	0.893234
539.777	0.874374
542.669	2.84889
545.562	2.11977
548.455	4.6492
551.347	7.71498
554.24	8.28801
557.133	7.53087
560.025	9.8414
562.918	8.21822
565.811	15.0285
568.704	26.1942
571.596	42.8916
574.489	64.4687
577.382	84.1192
580.274	100.63
583.167	103.235
586.06	81.0277
588.952	61.541
591.845	50.9431
594.738	44.9749
597.631	48.2721
600.523	47.8295
603.416	36.552
606.309	26.8642
609.201	18.4434
612.094	14.5427
614.987	8.92102
617.88	4.94072
620.772	0.186081
623.665	0.771347
626.558	1.02139
629.45	4.41354
632.343	1.75444
635.236	1.36751
638.128	1.01291
641.021	2.65546
643.914	5.90092
646.807	12.9512
649.699	17.7746
652.592	27.439
655.485	36.699
658.377	45.2115
661.27	59.7138
664.163	65.0309
667.055	59.8587
669.948	45.7785
672.841	30.1124
675.734	22.912
678.626	13.3863
681.519	8.86868
684.412	8.298
687.304	12.7661
690.197	26.6334
693.09	49.5423
695.982	80.744
698.875	116.617
701.768	154.97
704.66	173.699
707.553	155.09
710.446	112.812
713.339	79.339
716.231	55.6705
719.124	37.3249
722.017	23.4469
724.909	18.503
727.802	16.3168
730.695	26.8714
733.587	38.7813
736.48	49.9535
739.373	69.0168
742.266	97.1274
745.158	134.486
748.051	166.474
750.944	186.8
753.836	195.854
756.729	201.536
759.622	215.142
762.514	224.176
765.407	204.692
768.3	134.296
771.193	74.2125
774.085	40.1845
776.978	21.4659
779.871	9.21741
782.763	1.74406
785.656	4.8105
788.549	5.88435
791.441	2.02281
794.334	6.09561
797.227	14.8861
800.12	28.6738
803.012	49.2235
805.905	65.2669
808.798	81.6269
811.69	90.262
814.583	78.1545
817.476	58.4792
820.368	41.4692
823.261	28.3875
826.154	19.2487
829.047	12.8423
831.939	11.2829
834.832	7.15846
837.725	10.827
840.617	11.3486
843.51	11.5111
846.403	13.5678
849.295	11.3152
852.188	15.4668
855.081	14.4641
857.973	14.11
860.866	13.3531
863.759	11.4569
866.652	10.5743
869.544	8.17876
872.437	6.57964
875.33	4.09245
878.222	2.87067
881.115	1.36743
884.008	0.713394
886.9	0.064545
889.793	0.978928
892.686	0.179626
895.579	1.59955
898.471	1.22943
901.364	0.840958
904.257	1.66142
907.149	1.05897
910.042	0.303116
912.935	4.65388
915.827	1.29629
918.72	1.91783
921.613	2.78661
924.506	8.15215
927.398	2.47244
930.291	5.18744
933.184	2.76791
936.076	5.7601
938.969	4.91621
941.862	6.78044
944.755	6.88255
947.647	7.69351
950.54	9.74362
953.433	7.35532
956.325	10.6689
959.218	13.1135
962.111	15.1022
965.003	21.0165
967.896	24.6141
970.789	27.5577
973.682	32.7589
976.574	32.3273
979.467	28.2232
982.36	24.6141
985.252	21.047
988.145	16.0759
991.038	10.6067
993.93	10.5279
996.823	6.83542
999.716	3.82462
1002.61	3.78255
1005.5	3.45599
1008.39	3.53738
1011.29	2.23399
1014.18	0.534286
1017.07	2.02051
1019.97	0.724136
1022.86	1.48201
1025.75	0.526276
1028.64	2.05092
1031.54	1.60877
1034.43	1.29732
1037.32	1.47124
1040.21	0.383896
1043.11	1.98444
1046	2.23819
1048.89	1.91772
1051.78	0.511627
1054.68	0.791794
1057.57	0.448746
1060.46	1.4337
1063.36	1.75716
1066.25	1.46356
1069.14	2.37068
1072.03	0.534454
1074.93	0.446075
1077.82	3.92688
1080.71	1.9612
1083.6	0.960098
1086.5	1.6848
1089.39	0.565842
1092.28	0.171051
1095.17	0.654572
1098.07	0.132065
1100.96	1.57263
1103.85	1.04881
1106.75	0.405319
1109.64	2.17036
1112.53	2.70078
1115.42	0.405609
1118.32	0.236557
1121.21	1.45319
1124.1	1.04613
1126.99	1.1734
1129.89	2.12239
1132.78	1.01813
1135.67	0.7742
1138.57	1.58563
1141.46	0.488342
1144.35	1.45396
1147.24	0.396698
1150.14	3.49385
1153.03	2.77905
1155.92	0.920059
1158.81	0.764069
1161.71	1.71526
1164.6	0.479599
1167.49	2.05145
1170.38	2.39703
1173.28	2.96416
1176.17	0.607422
1179.06	1.63832
1181.96	1.95647
1184.85	1.49068
1187.74	2.7399
1190.63	2.98999
1193.53	4.91634
1196.42	3.02834
1199.31	4.15518
1202.2	4.8656
1205.1	2.08836
1207.99	3.98958
1210.88	4.86934
1213.78	2.31505
1216.67	3.35628
1219.56	3.11548
1222.45	3.19694
1225.35	3.30316
1228.24	2.72241
1231.13	3.36829
1234.02	1.46869
1236.92	1.39243
1239.81	2.00731
1242.7	0.565369
1245.6	2.6563
1248.49	1.82359
1251.38	0.750641
1254.27	1.47571
1257.17	2.07321
1260.06	0.574203
1262.95	1.98515
1265.84	2.39055
1268.74	2.33568
1271.63	0.687912
1274.52	2.66623
1277.41	2.15982
1280.31	0.113464
1283.2	1.70964
1286.09	0.325607
1288.99	3.13139
1291.88	1.37714
1294.77	1.6424
1297.66	0.558426
1300.56	0.725327
1303.45	0
