Measurement: Raman, 532 nm, unoriented, Raman Data Processed
Mineral: Magnesioastrophyllite
Rruff sample: R120068
Ideal chemistry: K_2_Na(Fe^2+^_4_Mg_2_Na)Ti_2_(Si_4_O_12_)_2_O_2_(OH)_4_[box]
Locality: Apatitovaya Mt., Khibiny Massif, Kola Peninsula, Murmanskaja Oblast', Northern Region, Russia
Source: Donald Doell
Description: Massive transparent golden sheets associated with light green aegirine
Raman shift (cm-1)	intensity
157.024	0.300761
159.917	0.21874
162.81	4.12447
165.702	14.6616
168.595	34.1388
171.488	54.4678
174.381	63.7833
177.273	55.456
180.166	42.3622
183.059	36.8467
185.951	32.6973
188.844	30.0749
191.737	26.0708
194.629	21.8414
197.522	19.3317
200.415	16.319
203.308	15.5544
206.2	16.5846
209.093	19.5515
211.986	23.4282
214.878	29.3097
217.771	36.6437
220.664	45.1401
223.556	53.3156
226.449	60.5346
229.342	66.0308
232.234	63.9374
235.127	58.3058
238.02	55.4308
240.913	52.0754
243.805	51.4265
246.698	49.442
249.591	38.3798
252.483	23.9376
255.376	11.8232
258.269	3.26605
261.161	1.25474
264.054	2.46175
266.947	1.10646
269.84	0.364372
272.732	0.02536
275.625	1.94765
278.518	5.3327
281.41	8.99969
284.303	9.16489
287.196	7.89912
290.089	6.9916
292.981	9.20714
295.874	14.8374
298.767	23.1871
301.659	33.1823
304.552	45.9207
307.445	55.6511
310.337	63.4832
313.23	59.5375
316.123	44.7869
319.015	32.3577
321.908	24.8818
324.801	22.421
327.694	21.8649
330.586	25.5958
333.479	30.9771
336.372	37.6395
339.264	48.1379
342.157	60.6057
345.05	72.916
347.942	83.8955
350.835	94.8794
353.728	109.338
356.621	128.166
359.513	146.721
362.406	154.259
365.299	138.175
368.191	109.043
371.084	83.8467
373.977	59.1655
376.87	38.4438
379.762	24.2493
382.655	15.6677
385.548	9.88338
388.44	6.58812
391.333	1.4932
394.226	0.243496
397.118	0.03833
400.011	0.708218
402.904	0.682159
405.796	0.714989
408.689	1.06728
411.582	0.150322
414.475	0.385048
417.367	0.585827
420.26	1.48037
423.153	2.18554
426.045	4.01367
428.938	7.17929
431.831	9.93996
434.724	13.7227
437.616	16.7142
440.509	20.491
443.402	21.9703
446.294	23.8038
449.187	23.3798
452.08	20.1353
454.972	15.1296
457.865	9.57633
460.758	6.23285
463.651	2.60566
466.543	0.986767
469.436	0.54063
472.329	1.2807
475.221	1.78462
478.114	4.59124
481.007	6.73272
483.899	10.9825
486.792	13.154
489.685	12.9745
492.577	8.32277
495.47	3.99169
498.363	1.62862
501.256	0.232632
504.148	0.648037
507.041	0.953247
509.934	2.72197
512.826	5.14933
515.719	8.52945
518.612	9.45845
521.505	6.66549
524.397	4.74226
527.29	3.94277
530.183	3.5533
533.075	5.70258
535.968	3.30003
538.861	2.37683
541.753	2.44076
544.646	2.50904
547.539	3.40052
550.432	6.73299
553.324	9.55336
556.217	14.438
559.11	21.5128
562.002	29.8775
564.895	38.693
567.788	46.5103
570.68	45.8413
573.573	35.2626
576.466	23.9184
579.359	14.3505
582.251	8.1448
585.144	3.25702
588.037	2.66379
590.929	0.10714
593.822	0.111622
596.715	0.481033
599.607	0.836632
602.5	1.04308
605.393	0.030758
608.285	0.797901
611.178	1.84758
614.071	3.29293
616.964	4.52586
619.856	7.31591
622.749	9.39254
625.642	11.4872
628.534	14.236
631.427	16.7669
634.32	20.5153
637.212	23.3276
640.105	26.5553
642.998	29.9113
645.891	34.3082
648.783	37.8859
651.676	43.429
654.569	51.2441
657.461	59.343
660.354	70.0862
663.247	85.2695
666.139	102.49
669.032	113.929
671.925	101.977
674.818	70.4784
677.71	45.1939
680.603	29.4557
683.496	21.7774
686.388	16.1075
689.281	12.6165
692.174	10.1846
695.067	7.42473
697.959	5.97001
700.852	5.02761
703.745	3.53865
706.637	3.22538
709.53	3.10826
712.423	5.09848
715.315	4.85248
718.208	5.53516
721.101	5.48653
723.994	3.53672
726.886	2.11534
729.779	0.134476
732.672	0.650524
735.564	0.332012
738.457	0.088726
741.35	0.267536
744.242	0.187149
747.135	1.67079
750.028	2.45112
752.92	4.63891
755.813	6.61253
758.706	7.19358
761.599	5.93806
764.491	5.75971
767.384	3.79271
770.277	2.08665
773.169	0.642757
776.062	1.24476
778.955	1.244
781.847	1.8405
784.74	0.125061
787.633	0.814476
790.526	2.39539
793.418	5.80402
796.311	8.00439
799.204	11.2601
802.096	14.9475
804.989	21.1289
807.882	31.9928
810.774	47.579
813.667	72.4984
816.56	105.165
819.453	149.801
822.345	203.735
825.238	264.142
828.131	326.771
831.023	389.34
833.916	447.939
836.809	479.288
839.702	437.901
842.594	331.626
845.487	216.481
848.38	132.715
851.272	79.8289
854.165	46.063
857.058	27.0618
859.95	13.8909
862.843	6.39649
865.736	1.24219
868.629	0.282249
871.521	0.505386
874.414	2.97954
877.307	7.33247
880.199	12.0814
883.092	19.6333
885.985	27.7416
888.877	37.7219
891.77	49.3587
894.663	59.7631
897.556	71.7841
900.448	72.7303
903.341	60.4472
906.234	42.627
909.126	28.8551
912.019	20.3448
914.912	16.6753
917.804	13.1653
920.697	12.5526
923.59	11.6465
926.482	11.3031
929.375	11.7419
932.268	13.5104
935.161	15.7514
938.053	19.1548
940.946	22.1079
943.839	20.9749
946.731	17.0595
949.624	10.2108
952.517	5.81192
955.409	2.38608
958.302	0.290455
961.195	1.30082
964.088	1.75999
966.98	1.87872
969.873	2.24347
972.766	0.960125
975.658	0.487598
978.551	0.469574
981.444	2.41687
984.337	3.70993
987.229	5.34077
990.122	7.99707
993.015	10.4924
995.907	15.0632
998.8	20.341
1001.69	27.2736
1004.59	37.2371
1007.48	50.2004
1010.37	68.8482
1013.26	88.5734
1016.16	109.44
1019.05	123.948
1021.94	125.455
1024.83	108.89
1027.73	85.964
1030.62	66.0441
1033.51	52.4684
1036.4	43.448
1039.3	39.9656
1042.19	39.4148
1045.08	43.4999
1047.98	51.8088
1050.87	66.2531
1053.76	85.3573
1056.65	106.547
1059.55	120.85
1062.44	114.65
1065.33	87.2931
1068.22	61.102
1071.12	42.0946
1074.01	30.3027
1076.9	21.6669
1079.8	18.1373
1082.69	13.2093
1085.58	11.6977
1088.47	10.3205
1091.37	10.2665
1094.26	10.3153
1097.15	10.4526
1100.04	9.51271
1102.94	6.75834
1105.83	3.90191
1108.72	1.44784
1111.62	1.10659
1114.51	0.327789
1117.4	0.508064
1120.29	0.566433
1123.19	0.19141
1126.08	0.833363
1128.97	0.391045
1131.86	0.611786
1134.76	0.077557
1137.65	0.081444
1140.54	0.287842
1143.43	0.269463
1146.33	0.665405
1149.22	0.859066
1152.11	0.885117
1155.01	0.645679
1157.9	0.859913
1160.79	1.53695
1163.68	1.73023
1166.58	2.04713
1169.47	1.09024
1172.36	1.77663
1175.26	1.5356
1178.15	2.3894
1181.04	1.65159
1183.93	1.7247
1186.83	2.1758
1189.72	2.02309
1192.61	1.39528
1195.5	1.81297
1198.4	1.31196
1201.29	1.84357
1204.18	1.47177
1207.07	1.38839
1209.97	0.58395
1212.86	1.77706
1215.75	1.01712
1218.64	1.7915
1221.54	1.01245
1224.43	1.06117
1227.32	1.01064
1230.22	1.29586
1233.11	0.362244
1236	0.103279
1238.89	0.632946
1241.79	0.155064
1244.68	0.555344
1247.57	0.079636
1250.46	0.431217
1253.36	0.183884
1256.25	0.207169
1259.14	0.384468
1262.04	0.54163
1264.93	0.343063
1267.82	0.816967
1270.71	0.529324
1273.61	0.866844
1276.5	0.776146
1279.39	0.674507
1282.29	0.460804
1285.18	0.991333
1288.07	1.33566
1290.96	1.00881
1293.86	0.49445
1296.75	0.525963
1299.64	0.328339
1302.53	0.072559
