Measurement: Raman, 785 nm, unoriented, Raman Data Processed
Mineral: Magnesiotaaffeite-2N2S
Rruff sample: R070555
Ideal chemistry: Mg_3_BeAl_8_O_16_
Locality: Tunduru, Tanzania
Source: www.multicolour.com
Description: Slightly pink cut gemstone, 0.15 ct.
Measured chemistry: (Mg_2.92_Fe_0.08_)_Î£=3_Be_1.00_Al_8.00_O_16_ ; BeO estimated by difference
Raman shift (cm-1)	intensity
147.566	0
150.459	140.808
153.351	290.146
156.244	230.55
159.137	225.447
162.029	29.4287
164.922	229.251
167.815	202.808
170.708	177.402
173.6	155.572
176.493	170.536
179.386	137.646
182.278	131.985
185.171	178.318
188.064	192.085
190.956	66.3705
193.849	281.726
196.742	129.965
199.635	131.349
202.527	154.835
205.42	133.215
208.313	121.883
211.205	94.9185
214.098	274.995
216.991	106.945
219.883	6.43738
222.776	288.579
225.669	78.1283
228.561	163.859
231.454	70.3351
234.347	247.115
237.24	232.332
240.132	246.142
243.025	92.1494
245.918	89.6877
248.81	15.7658
251.703	103.893
254.596	68.5044
257.488	167.644
260.381	127.054
263.274	164.809
266.167	296.508
269.059	530.413
271.952	694.216
274.845	869.704
277.737	828.517
280.63	1262.32
283.523	901.383
286.416	570.13
289.308	508.686
292.201	554.536
295.094	624.22
297.986	890.374
300.879	490.472
303.772	636.933
306.664	652.977
309.557	565.102
312.45	233.298
315.342	361.781
318.235	337.08
321.128	285.334
324.021	361.677
326.913	53.7741
329.806	131.41
332.699	212.664
335.591	26.3226
338.484	181.769
341.377	156.306
344.269	170.717
347.162	315
350.055	496.921
352.948	291.935
355.84	146.144
358.733	16.7811
361.626	110.202
364.518	175.456
367.411	393.11
370.304	496.828
373.197	812.21
376.089	764.964
378.982	734.98
381.875	480.994
384.767	335.9
387.66	247.048
390.553	95.2087
393.445	456.276
396.338	892.417
399.231	1385.25
402.123	2067.43
405.016	3013.77
407.909	3597.82
410.802	5186.16
413.694	8512.44
416.587	9857.9
419.48	6266.09
422.372	3319.93
425.265	2250.34
428.158	1994.61
431.05	2388.76
433.943	3410.5
436.836	3708.66
439.729	2721.59
442.621	2105.4
445.514	1889.16
448.407	2534.16
451.299	2424.43
454.192	1411.88
457.085	568.7
459.978	238.489
462.87	91.9467
465.763	31.7289
468.656	155.621
471.548	0.586304
474.441	9.24097
477.334	270.379
480.226	420.093
483.119	1053.79
486.012	1325.38
488.904	1874.36
491.797	2169.36
494.69	1875.44
497.583	852.607
500.475	779.386
503.368	533.221
506.261	643.015
509.153	747.88
512.046	363.778
514.939	53.5635
517.832	106.082
520.724	80.2484
523.617	190.251
526.51	50.377
529.402	189.632
532.295	30.5598
535.188	86.0682
538.08	43.9817
540.973	145.08
543.866	495.252
546.759	319.446
549.651	344.325
552.544	107.448
555.437	313.848
558.329	80.9332
561.222	256.308
564.115	74.755
567.007	8.2771
569.9	110.918
572.793	91.0888
575.686	211.567
578.578	271.636
581.471	334.502
584.364	99.414
587.256	116.224
590.149	307.7
593.042	262.637
595.934	167.192
598.827	433.526
601.72	131.233
604.613	451.195
607.505	447.846
610.398	609.519
613.291	893.576
616.183	1058.7
619.076	781.923
621.969	572.213
624.861	420.036
627.754	375.242
630.647	205.124
633.54	414.197
636.432	365.809
639.325	207.875
642.218	229.984
645.11	70.5179
648.003	90.7499
650.896	90.057
653.788	168.97
656.681	218.85
659.574	255.261
662.467	714.745
665.359	406.463
668.252	512.286
671.145	412.06
674.037	225.127
676.93	41.5499
679.823	129.342
682.716	16.4109
685.608	14.8842
688.501	5.34265
691.394	155.651
694.286	376.582
697.179	525.162
700.072	901.047
702.964	1345.17
705.857	1367.55
708.75	1260.56
711.643	1452.82
714.535	1355.92
717.428	1087.82
720.321	552.279
723.213	229.94
726.106	307.936
728.999	162.412
731.891	338.166
734.784	408.826
737.677	468.056
740.569	539.277
743.462	691.883
746.355	937.63
749.248	1246.82
752.14	1513.26
755.033	1944.76
757.926	2240.45
760.818	2862.49
763.711	2671.24
766.604	1838.71
769.496	1150.24
772.389	678.093
775.282	412.531
778.175	240.392
781.067	150.942
783.96	37.6847
786.853	78.3905
789.745	141.365
792.638	12.3003
795.531	112.318
798.423	203.442
801.316	217.819
804.209	298.807
807.102	772.852
809.994	933.118
812.887	1147.21
815.78	1121.88
818.672	834.158
821.565	532.049
824.458	317.031
827.351	278.598
830.243	184.213
833.136	149.639
836.029	359.32
838.921	93.2051
841.814	20.9357
844.707	45.5703
847.599	214.415
850.492	85.6576
853.385	54.272
856.278	168.019
859.17	192.377
862.063	206.796
864.956	51.6261
867.848	132.301
870.741	134.785
873.634	144.978
876.526	179.649
879.419	186.355
882.312	149.442
885.205	276.565
888.097	129.248
890.99	186.747
893.883	165.11
896.775	177.322
899.668	79.6513
902.561	145.306
905.453	109.5
908.346	26.2632
911.239	276.437
914.131	7.06805
917.024	111.527
919.917	118.633
922.81	258.692
925.702	133.771
928.595	89.8433
931.488	198.803
934.38	155.572
937.273	234.666
940.166	162.124
943.059	302.062
945.951	371.186
948.844	490.053
951.737	434.681
954.629	391.392
957.522	188.455
960.415	383.151
963.308	357.262
966.2	232.046
969.093	128.987
971.986	122.391
974.878	368.31
977.771	196.429
980.664	44.316
983.556	25.4148
986.449	146.1
989.342	108.831
992.235	139.404
995.127	258.12
998.02	10.0422
1000.91	5.89078
1003.8	4.92355
1006.7	117.424
1009.59	228.17
1012.48	101.637
1015.38	35.3713
1018.27	71.3063
1021.16	34.3928
1024.05	85.9639
1026.95	179.593
1029.84	156.53
1032.73	266.667
1035.62	98.1016
1038.52	215.684
1041.41	54.1618
1044.3	263.923
1047.2	143.238
1050.09	176.301
1052.98	122.062
1055.87	116.264
1058.77	24.3067
1061.66	123.725
1064.55	65.6784
1067.44	135.08
1070.34	32.6644
1073.23	264.099
1076.12	242.708
1079.02	79.6207
1081.91	94.6316
1084.8	227.232
1087.69	209.396
1090.59	300.089
1093.48	85.2757
1096.37	118.813
1099.26	234.15
1102.16	137.73
1105.05	146.026
1107.94	172.865
1110.84	120.266
1113.73	402.465
1116.62	30.3435
1119.51	102.79
1122.41	217.231
1125.3	90.6704
1128.19	31.7483
1131.08	328.927
1133.98	126.454
1136.87	185.211
1139.76	284.501
1142.65	115.914
1145.55	233.163
1148.44	160.715
1151.33	146.898
1154.23	189.158
1157.12	273.57
1160.01	172.181
1162.9	124.987
1165.8	27.1516
1168.69	114.993
1171.58	11.8341
1174.47	38.1282
1177.37	134.15
1180.26	470.519
1183.15	156.431
1186.05	47.7063
1188.94	144.87
1191.83	139.799
1194.72	165.756
1197.62	193.008
1200.51	87.2704
1203.4	97.8066
1206.29	241.774
1209.19	181.351
1212.08	107.724
1214.97	206.912
1217.87	134.231
1220.76	4.3053
1223.65	74.6233
1226.54	45.1712
1229.44	175.039
1232.33	222.975
1235.22	106.529
1238.11	1.31818
1241.01	141.296
1243.9	72.9316
1246.79	140.719
1249.68	159.272
1252.58	75.1124
1255.47	245.9
1258.36	156.983
1261.26	111.238
1264.15	224.215
1267.04	158.2
1269.93	125.452
1272.83	65.2445
1275.72	90.5645
1278.61	129.517
1281.51	57.2487
