Measurement: Raman, 532 nm, unoriented, Raman Data Processed
Mineral: Magnesite
Rruff sample: R050443
Ideal chemistry: MgCO_3_
Locality: Brumado, Bahia, Brazil
Source: Eugene Schlepp
Description: Group of colorless crystals
Measured chemistry: Mg_1.00_CO_3_
Raman shift (cm-1)	intensity
110.775	0
114.149	0.627866
117.524	0.854368
120.899	2.93881
124.274	4.22567
127.649	5.98604
131.024	5.98263
134.398	5.03268
137.773	8.00118
141.148	6.43378
144.523	3.66561
147.898	4.01194
151.272	2.85103
154.647	2.80845
158.022	2.91427
161.397	2.71165
164.772	2.53502
168.147	1.36133
171.521	1.87685
174.896	2.09007
178.271	2.14782
181.646	2.22326
185.021	1.84151
188.395	3.7231
191.77	7.58388
195.145	30.0525
198.52	56.241
201.895	76.4912
205.269	107.474
208.644	177.784
212.019	378.043
215.394	267.721
218.769	39.5566
222.143	13.3808
225.518	7.58462
228.893	3.68887
232.268	2.99152
235.643	0.889942
239.018	0.671423
242.392	0.061495
245.767	0.490221
249.142	0.962227
252.517	0.788883
255.892	0.624105
259.267	0.467346
262.641	0.436117
266.016	0.225517
269.391	0.063322
272.766	0.353981
276.141	0.066475
279.515	1.47531
282.89	1.08915
286.265	1.93944
289.64	3.40801
293.015	5.31698
296.389	6.90013
299.764	8.87008
303.139	14.2068
306.514	24.3026
309.889	55.3383
313.264	182.367
316.638	353.102
320.013	470.784
323.388	709.883
326.763	1365.43
330.138	2362
333.512	1039.35
336.887	242.524
340.262	100.814
343.637	57.109
347.012	36.2875
350.387	26.8055
353.761	18.9414
357.136	13.4927
360.511	10.5193
363.886	7.49248
367.261	6.42008
370.635	5.18872
374.01	4.30556
377.385	3.50484
380.76	2.39304
384.135	2.1163
387.51	1.27786
390.884	2.42166
394.259	0.120291
397.634	0.734142
401.009	1.11505
404.384	0.243423
407.759	0.848669
411.133	1.28742
414.508	0.753294
417.883	0.456163
421.258	0.24478
424.632	0.924465
428.007	0.937544
431.382	0.523357
434.757	1.32856
438.132	0.295391
441.507	0.898857
444.881	0.556656
448.256	0.253174
451.631	0.895597
455.006	1.34869
458.381	0.544849
461.755	0.753956
465.13	1.03916
468.505	0.502567
471.88	0.190901
475.255	0.802401
478.63	0.253555
482.004	0.451195
485.379	0.637819
488.754	0.750206
492.129	0.987667
495.504	1.28719
498.878	1.82973
502.253	1.57326
505.628	1.68034
509.003	3.32345
512.378	2.54335
515.753	1.67922
519.127	2.57181
522.502	1.9368
525.877	2.03603
529.252	1.16218
532.627	2.20325
536.001	0.571993
539.376	0.86286
542.751	0.863194
546.126	0.57859
549.501	1.30064
552.876	0.222149
556.25	0.661854
559.625	0.930834
563	0.550154
566.375	0.938005
569.75	1.11705
573.125	0.439796
576.499	0.313007
579.874	0.521173
583.249	1.53995
586.624	0.967413
589.999	2.10628
593.373	1.51799
596.748	0.61314
600.123	0.899168
603.498	0.895445
606.873	0.388296
610.247	0.826574
613.622	0.375675
616.997	0.906166
620.372	0.514269
623.747	0.147861
627.121	0.059032
630.496	0.989107
633.871	0.209669
637.246	0.500898
640.621	0.042627
643.996	0.208315
647.37	0.575645
650.745	0.168837
654.12	1.21252
657.495	1.82032
660.87	1.48113
664.245	1.41653
667.619	2.54047
670.994	2.19024
674.369	3.42668
677.744	3.08593
681.119	3.71095
684.493	4.53043
687.868	3.17846
691.243	3.47592
694.618	4.83106
697.993	5.54209
701.367	6.79285
704.742	7.58266
708.117	11.3148
711.492	15.3518
714.867	21.0825
718.242	29.9389
721.616	43.1692
724.991	66.2782
728.366	90.7199
731.741	120.258
735.116	145.879
738.49	157.405
741.865	133.935
745.24	88.5181
748.615	53.6674
751.99	32.3852
755.365	20.2869
758.739	11.9794
762.114	7.80703
765.489	4.11764
768.864	2.88024
772.239	1.28246
775.614	0.51001
778.988	0.98806
782.363	1.55623
785.738	0.136892
789.113	0.531973
792.487	0.30442
795.862	0.43906
799.237	0.092772
802.612	0.394892
805.987	0.081715
809.362	0.406296
812.736	0.879425
816.111	1.23828
819.486	0.082607
822.861	0.725897
826.236	0.589752
829.611	0.754662
832.985	1.4314
836.36	1.34007
839.735	1.33619
843.11	1.07984
846.485	1.69165
849.859	1.40335
853.234	1.48135
856.609	1.22149
859.984	0.984549
863.359	1.3769
866.734	0.742989
870.108	1.30904
873.483	1.73849
876.858	2.12849
880.233	2.17848
883.608	0.845587
886.982	0.458363
890.357	1.08159
893.732	1.38529
897.107	1.1035
900.482	1.10413
903.856	0.796696
907.231	1.77418
910.606	2.03773
913.981	1.04535
917.356	1.96503
920.731	1.62003
924.105	1.814
927.48	2.53283
930.855	1.92189
934.23	1.56408
937.605	1.91593
940.98	2.72539
944.354	2.35819
947.729	1.17757
951.104	2.78506
954.479	1.86682
957.854	1.90934
961.228	2.20495
964.603	1.32855
967.978	1.02581
971.353	1.31034
974.728	0.21854
978.102	0.897438
981.477	1.21742
984.852	1.01486
988.227	0.287819
991.602	0.29998
994.977	0.304199
998.351	0.191322
1001.73	0.565277
1005.1	0.334328
1008.48	0.148014
1011.85	0.377377
1015.23	0.430496
1018.6	0.229939
1021.98	0.230003
1025.35	0.947987
1028.72	1.92959
1032.1	2.13516
1035.47	3.99883
1038.85	5.45699
1042.22	9.71321
1045.6	15.5685
1048.97	21.1687
1052.35	25.3463
1055.72	35.6312
1059.1	45.8452
1062.47	61.3419
1065.85	85.8817
1069.22	126.498
1072.6	187.316
1075.97	290.828
1079.35	470.792
1082.72	803.937
1086.1	1325.66
1089.47	2040.33
1092.85	2760.87
1096.22	2653.36
1099.6	1787
1102.97	1128.73
1106.35	726.285
1109.72	443.74
1113.1	265.489
1116.47	150.79
1119.85	89.3865
1123.22	55.83
1126.59	35.2715
1129.97	22.7028
1133.34	15.7812
1136.72	9.24488
1140.09	5.83805
1143.47	4.64772
1146.84	1.62264
1150.22	0.811111
1153.59	0.339237
1156.97	0.158031
1160.34	0.335358
1163.72	0.124947
1167.09	0.75629
1170.47	0.440819
1173.84	0.639809
1177.22	0.225819
1180.59	0.630753
1183.97	1.5808
1187.34	0.780224
1190.72	0.652775
1194.09	1.18868
1197.47	1.16493
1200.84	1.14962
1204.21	1.14943
1207.59	2.5447
1210.96	3.6436
1214.34	3.49759
1217.71	3.40514
1221.09	3.13386
1224.46	2.27364
1227.84	2.3201
1231.21	1.98257
1234.59	2.39362
1237.96	1.59511
1241.34	2.19085
1244.71	2.86009
1248.09	0.552074
1251.46	1.34422
1254.84	1.10202
1258.21	1.35786
1261.59	1.60009
1264.96	1.03223
1268.34	1.39967
1271.71	1.42022
1275.09	1.53268
1278.46	2.00438
1281.84	1.81824
1285.21	1.16317
1288.59	0.559711
