Measurement: Raman, 780 nm, unoriented, Raman Data Processed
Mineral: Magnesite
Rruff sample: R050443
Ideal chemistry: MgCO_3_
Locality: Brumado, Bahia, Brazil
Source: Eugene Schlepp
Description: Group of colorless crystals
Measured chemistry: Mg_1.00_CO_3_
Raman shift (cm-1)	intensity
110.657	0
114.032	0.444901
117.407	1.49607
120.782	0.571688
124.157	1.43341
127.531	0.251326
130.906	0.908991
134.281	1.37017
137.656	0.619749
141.031	0.995008
144.405	1.30229
147.78	1.0278
151.155	0.509302
154.53	0.012794
157.905	0.071611
161.28	0.672102
164.654	1.05072
168.029	0.405975
171.404	0.894402
174.779	0.046869
178.154	1.23884
181.529	1.34545
184.903	1.48519
188.278	1.66628
191.653	2.50388
195.028	7.08122
198.403	8.58945
201.777	12.7262
205.152	20.754
208.527	40.3146
211.902	106.943
215.277	116.078
218.651	17.2056
222.026	6.03159
225.401	3.58945
228.776	1.28348
232.151	1.04803
235.526	1.31068
238.9	1.40417
242.275	0.751324
245.65	1.0295
249.025	0.327347
252.4	0.225163
255.774	0.197706
259.149	0.051966
262.524	0.889366
265.899	0.548429
269.274	0.101765
272.649	0.396025
276.023	0.387964
279.398	0.344854
282.773	0.683874
286.148	0.465263
289.523	0.680511
292.897	1.53929
296.272	2.21722
299.647	4.41892
303.022	7.02989
306.397	13.9521
309.772	39.5171
313.146	130.98
316.521	150.815
319.896	153.666
323.271	180.72
326.646	234.431
330.021	368.796
333.395	229.221
336.77	51.223
340.145	20.025
343.52	10.9302
346.895	7.36558
350.269	5.98849
353.644	3.88729
357.019	3.26641
360.394	1.91799
363.769	1.84038
367.144	0.871811
370.518	0.844044
373.893	0.740271
377.268	0.687138
380.643	0.828581
384.018	0.624233
387.392	0.652323
390.767	0.781794
394.142	0.760826
397.517	0.315488
400.892	0.609462
404.267	0.362913
407.641	0.398195
411.016	0.329073
414.391	0.521012
417.766	0.18214
421.141	0.43454
424.515	0.045484
427.89	0.08007
431.265	0.549506
434.64	0.395912
438.015	0.271888
441.39	1.83876
444.764	0.574121
448.139	0.173121
451.514	0.025039
454.889	0.743297
458.264	0.311965
461.639	0.179756
465.013	0.057381
468.388	0.084328
471.763	0.523185
475.138	0.477481
478.513	0.814823
481.887	0.613984
485.262	0.786764
488.637	0.381808
492.012	0.485594
495.387	0.623413
498.762	0.750018
502.136	0.704834
505.511	0.961902
508.886	0.299981
512.261	0.638408
515.636	0.63819
519.01	0.777547
522.385	0.318966
525.76	0.511291
529.135	0.771347
532.51	0.706135
535.885	0.983603
539.259	0.430181
542.634	0.49334
546.009	0.491376
549.384	0.187349
552.759	0.631529
556.133	0.686377
559.508	0.52424
562.883	0.268286
566.258	0.483541
569.633	0.516198
573.008	0.909878
576.382	1.03257
579.757	0.280902
583.132	0.524678
586.507	0.884106
589.882	0.462681
593.256	0.761681
596.631	0.385009
600.006	0.785346
603.381	0.618867
606.756	0.528546
610.13	0.864081
613.505	0.280387
616.88	0.661971
620.255	0.514509
623.63	0.505176
627.005	0.273673
630.379	0.468801
633.754	0.026258
637.129	0.089796
640.504	0.861253
643.879	0.18838
647.254	0.00057
650.628	0.230595
654.003	0.878028
657.378	1.00885
660.753	0.673748
664.128	1.00836
667.502	0.377599
670.877	1.32583
674.252	1.75315
677.627	1.6447
681.002	1.99632
684.376	1.58325
687.751	2.11615
691.126	2.69614
694.501	2.54967
697.876	3.50724
701.251	4.04415
704.625	5.49512
708	6.28325
711.375	7.92959
714.75	11.7272
718.125	16.1579
721.5	23.3324
724.874	34.2202
728.249	47.888
731.624	63.5504
734.999	80.5191
738.374	92.4341
741.749	82.8973
745.123	57.1114
748.498	34.7717
751.873	20.6987
755.248	12.0318
758.623	7.51748
761.997	4.62097
765.372	2.09628
768.747	1.67761
772.122	0.875816
775.497	0.587661
778.871	0.609987
782.246	0.657152
785.621	0.273489
788.996	0.26241
792.371	0.013266
795.745	0.281858
799.12	0.227565
802.495	0.215146
805.87	0.680129
809.245	0.266364
812.62	0.475581
815.994	0.396978
819.369	0.28497
822.744	0.610023
826.119	0.406849
829.494	0.403949
832.869	0.592293
836.243	1.22807
839.618	0.549965
842.993	0.882922
846.368	1.32555
849.743	0.833653
853.117	0.720545
856.492	0.908761
859.867	0.740005
863.242	0.743462
866.617	0.432055
869.992	0.908175
873.366	0.853662
876.741	0.551347
880.116	0.674896
883.491	0.062469
886.866	0.597142
890.24	0.283604
893.615	0.862573
896.99	0.454769
900.365	0.570524
903.74	0.141376
907.115	0.399719
910.489	0.420774
913.864	0.446105
917.239	0.594247
920.614	0.857132
923.989	0.630604
927.364	0.062057
930.738	0.605881
934.113	0.63164
937.488	0.981379
940.863	0.142453
944.238	0.321246
947.612	0.544888
950.987	1.15612
954.362	0.085673
957.737	0.402171
961.112	0.885118
964.486	0.934455
967.861	1.26987
971.236	0.348598
974.611	0.977378
977.986	0.139213
981.361	0.654366
984.735	0.433823
988.11	0.352006
991.485	0.532821
994.86	0.060928
998.235	0.37096
1001.61	0.07083
1004.98	0.393106
1008.36	0.222657
1011.73	0.23164
1015.11	0.159262
1018.48	0.149884
1021.86	0.476482
1025.23	0.199387
1028.61	0.228809
1031.98	0.80926
1035.36	1.29939
1038.73	2.55526
1042.11	3.43836
1045.48	4.93807
1048.86	6.86038
1052.23	9.04558
1055.61	11.8474
1058.98	16.768
1062.36	20.9665
1065.73	28.9663
1069.11	41.9486
1072.48	61.8227
1075.86	95.9241
1079.23	146.819
1082.61	244.39
1085.98	412.753
1089.36	688.535
1092.73	1030.4
1096.1	1125.62
1099.48	791.947
1102.85	501.227
1106.23	320.678
1109.6	199.91
1112.98	119.182
1116.35	68.4309
1119.73	39.7115
1123.1	23.6258
1126.48	15.2233
1129.85	10.0265
1133.23	6.45345
1136.6	4.2699
1139.98	2.83136
1143.35	1.7837
1146.73	0.465821
1150.1	0.347317
1153.48	0.30895
1156.85	0.469941
1160.23	0.307302
1163.6	0.140593
1166.98	0.2472
1170.35	0.29146
1173.72	0.026189
1177.1	0.01105
1180.47	0.0646
1183.85	0.23126
1187.22	0.275158
1190.6	0.293784
1193.97	0.717228
1197.35	0.918049
1200.72	1.28519
1204.1	0.556107
1207.47	0.692784
1210.85	0.747434
1214.22	1.10998
1217.6	0.752822
1220.97	0.675912
1224.35	0.390029
1227.72	0.524791
1231.1	6.27828
1234.47	0.353906
1237.85	1.07432
1241.22	1.28143
1244.6	0.807251
1247.97	0.767619
1251.35	0.558124
1254.72	0.605851
1258.1	1.03983
1261.47	1.04863
1264.85	1.58797
1268.22	0.864078
1271.6	0.796702
1274.97	0.63282
1278.35	0.12244
1281.72	1.08632
1285.09	0.145353
