Measurement: Raman, 532 nm, unoriented, Raman Data Processed
Mineral: Magnesiotaaffeite-2N2S
Rruff sample: R090035
Ideal chemistry: Mg_3_BeAl_8_O_16_
Locality: Ratnapura District, Sri-Lanka
Source: William W. Pinch
Description: Rounded hexagonal purple crystal with pyramidal terminations
Raman shift (cm-1)	intensity
161.022	0
163.915	0.428955
166.808	4.89758
169.7	7.29211
172.593	15.642
175.486	19.2445
178.379	17.6931
181.271	8.61877
184.164	9.3905
187.057	9.28711
189.949	8.22205
192.842	13.7839
195.735	11.0724
198.627	12.1534
201.52	4.63538
204.413	5.29614
207.305	3.1582
210.198	2.77112
213.091	1.75806
215.984	1.02319
218.876	2.10583
221.769	4.61719
224.662	5.1167
227.554	6.04211
230.447	11.8291
233.34	2.28674
236.232	6.19043
239.125	3.08789
242.018	0.133789
244.911	8.79199
247.803	3.68909
250.696	13.7174
253.589	20.5038
256.481	22.3645
259.374	28.25
262.267	34.7804
265.16	58.5742
268.052	84.8192
270.945	119.532
273.838	173.335
276.73	170.828
279.623	194.46
282.516	211.493
285.409	167.391
288.301	128.787
291.194	109.263
294.087	127.879
296.979	152.46
299.872	122.662
302.765	96.3912
305.657	115.952
308.55	106.317
311.443	66.8573
314.336	64.7438
317.228	69.12
320.121	55.0481
323.014	26.5875
325.906	15.8276
328.799	2.27527
331.692	4.4679
334.584	6.00647
337.477	4.94922
340.37	8.71497
343.263	0.361084
346.155	32.3881
349.048	57.4522
351.941	38.4283
354.833	0.424805
357.726	10.709
360.619	32.3922
363.512	54.7346
366.404	84.017
369.297	117.327
372.19	154.493
375.082	176.893
377.975	153.293
380.868	121.656
383.76	103.449
386.653	105.641
389.546	122.451
392.438	174.417
395.331	256.117
398.224	422.99
401.117	649.932
404.009	855.645
406.902	1014.06
409.795	1350.88
412.688	2030.21
415.58	2573.41
418.473	1877.71
421.366	1009.39
424.258	639.29
427.151	543.356
430.044	623.681
432.936	784.196
435.829	891.832
438.722	740.21
441.615	552.782
444.507	508.509
447.4	591.46
450.293	586.26
453.185	377.064
456.078	155.687
458.971	50.5264
461.863	1.87231
464.756	12.8306
467.649	8.33606
470.541	11.6322
473.434	33.3536
476.327	85.8533
479.22	131.59
482.112	193.323
485.005	297.524
487.898	421.88
490.791	495.1
493.683	447.485
496.576	297.939
499.469	180.378
502.361	148.744
505.254	150.348
508.147	155.653
511.039	100.583
513.932	39.2471
516.825	7.47009
519.717	2.50098
522.61	3.49341
525.503	3.2251
528.396	9.99487
531.288	3.10877
534.181	6.63684
537.074	30.5548
539.966	43.0159
542.859	78.9856
545.752	95.1027
548.644	88.8019
551.537	65.2998
554.43	46.8341
557.323	23.5773
560.215	17.2875
563.108	6.8667
566.001	3.01526
568.894	2.42639
571.786	2.40747
574.679	5.55029
577.572	17.1008
580.464	31.3328
583.357	26.1924
586.25	21.3137
589.142	14.0012
592.035	25.0242
594.928	32.8452
597.821	35.9241
600.713	41.1228
603.606	47.6135
606.499	55.8182
609.391	86.2947
612.284	135.772
615.177	212.221
618.069	306.299
620.962	346.565
623.855	299.52
626.748	212.096
629.64	135.27
632.533	76.2422
635.426	39.5991
638.318	15.5763
641.211	6.5918
644.104	0.360107
646.996	2.66711
649.889	17.0726
652.782	37.6852
655.675	64.579
658.567	110.975
661.46	154.704
664.353	151.087
667.245	116.248
670.138	85.4257
673.031	47.3386
675.923	22.1283
678.816	6.47766
681.709	12.1361
684.602	7.92212
687.494	14.4215
690.387	38.3121
693.28	75.11
696.172	139.097
699.065	217.218
701.958	309.518
704.851	352.197
707.743	346.945
710.636	311.886
713.529	293.444
716.421	239.791
719.314	166.456
722.207	107.585
725.1	80.5636
727.992	84.8388
730.885	92.6199
733.778	110.929
736.67	133.808
739.563	161.209
742.456	188.015
745.348	254.831
748.241	334.828
751.134	397.739
754.027	452.191
756.919	528.495
759.812	608.131
762.705	646.909
765.597	503.756
768.49	303.707
771.383	178.174
774.275	119.766
777.168	67.8728
780.061	34.1329
782.954	6.72864
785.846	0.357422
788.739	11.2041
791.632	2.10657
794.524	19.3199
797.417	24.5536
800.31	54.6028
803.202	99.6775
806.095	155.809
808.988	218.913
811.881	271.169
814.773	268.97
817.666	215.185
820.559	149.132
823.451	92.5019
826.344	63.8179
829.237	37.2082
832.13	27.7778
835.022	16.0293
837.915	6.25207
840.808	6.81335
843.7	1.78821
846.593	9.02258
849.486	1.00842
852.378	5.09949
855.271	15.958
858.164	6.95019
861.057	7.34473
863.949	7.55457
866.842	6.96509
869.735	4.03284
872.627	2.47095
875.52	5.10791
878.413	1.91394
881.306	3.3053
884.198	6.11231
887.091	2.51758
889.984	1.25415
892.876	5.10583
895.769	2.68774
898.662	1.7041
901.554	2.05884
904.447	5.65454
907.34	5.8175
910.232	17.2537
913.125	20.2623
916.018	32.7385
918.911	28.7937
921.803	32.6001
924.696	31.0331
927.589	46.6201
930.481	49.6724
933.374	57.6085
936.267	63.8497
939.159	83.0902
942.052	90.8975
944.945	98.806
947.838	97.463
950.73	93.9731
953.623	79.3499
956.516	62.9563
959.409	55.9938
962.301	37.7924
965.194	28.8984
968.087	20.207
970.979	16.6444
973.872	9.68677
976.765	11.6511
979.657	7.47974
982.55	3.63916
985.443	0.88562
988.336	2.28821
991.228	10.5787
994.121	4.63306
997.014	0.952393
999.906	7.26318
1002.8	1.83337
1005.69	9.98059
1008.58	1.10938
1011.48	0.644531
1014.37	5.6676
1017.26	0.87146
1020.15	2.69519
1023.05	3.5105
1025.94	3.80078
1028.83	5.03503
1031.73	7.59021
1034.62	9.94629
1037.51	5.08643
1040.4	1.59106
1043.3	0.190918
1046.19	6.98144
1049.08	6.66406
1051.97	5.30371
1054.87	7.91394
1057.76	4.02185
1060.65	4.84863
1063.55	5.93311
1066.44	0.770996
1069.33	1.2168
1072.22	7.04919
1075.12	2.77393
1078.01	12.4757
1080.9	8.29651
1083.8	13.1946
1086.69	3.95947
1089.58	4.47156
1092.47	4.07727
1095.37	3.76294
1098.26	0.557251
1101.15	5.44788
1104.04	4.51453
1106.94	6.29993
1109.83	6.46082
1112.72	4.38745
1115.62	3.1521
1118.51	5.08423
1121.4	5.54639
1124.29	3.05188
1127.18	1.36706
1130.08	4.90625
1132.97	6.05164
1135.86	7.80737
1138.76	3.70349
1141.65	7.96204
1144.54	1.08313
1147.43	3.89038
1150.33	10.6057
1153.22	6.21155
1156.11	0.50708
1159.01	4.87354
1161.9	15.93
1164.79	1.56482
1167.68	0.939575
1170.58	0.810181
1173.47	11.5559
1176.36	7.10913
1179.25	2.52429
1182.15	3.77271
1185.04	7.54468
1187.93	15.6291
1190.83	6.25415
1193.72	10.1365
1196.61	6.3501
1199.5	10.2047
1202.4	6.51038
1205.29	5.09802
1208.18	9.7428
1211.07	0.260742
1213.97	5.56348
1216.86	11.4499
1219.75	4.69434
1222.64	7.67163
1225.54	15.2419
1228.43	5.3335
1231.32	7.66443
1234.21	11.0171
1237.11	7.32837
1240	1.27454
1242.89	4.13061
1245.79	1.36243
1248.68	6.03906
1251.57	8.18713
1254.46	6.87683
1257.36	5.99805
1260.25	6.21936
1263.14	5.78174
1266.04	1.4519
1268.93	8.21741
1271.82	0.717896
1274.71	1.54041
1277.61	4.97729
1280.5	6.56396
1283.39	8.46118
1286.28	12.843
1289.18	20.4504
1292.07	18.8069
1294.96	7.68677
1297.86	7.89575
1300.75	1.35425
