Measurement: Raman, 532 nm, unoriented, Raman Data Processed
Mineral: Magnussonite
Rruff sample: R100027
Ideal chemistry: Mn^2+^_5_As^3+^_3_O_9_(OH,Cl)
Locality: Langban, Filipstad, Varmland, Sweden
Source: William W. Pinch
Description: Dark green massive, associated with brown armangite R100041, and white nadorite
Raman shift (cm-1)	intensity
90.4922	0
93.867	2.43152
97.2418	8.34505
100.617	15.0504
103.992	20.4444
107.366	27.1199
110.741	44.9301
114.116	41.1897
117.491	26.6481
120.865	14.3128
124.24	3.44745
127.615	7.95608
130.99	10.2288
134.365	2.03576
137.74	28.6351
141.114	82.9018
144.489	122.94
147.864	170.529
151.239	254.959
154.614	334.062
157.988	360.296
161.363	377.293
164.738	403.115
168.113	403.377
171.488	398.232
174.863	377.929
178.237	358.738
181.612	337.212
184.987	322.361
188.362	311.702
191.737	314.92
195.112	331.877
198.486	359.255
201.861	385.859
205.236	408.835
208.611	432.712
211.986	455.184
215.36	369.638
218.735	240.94
222.11	181.994
225.485	147.41
228.86	123.821
232.234	113.554
235.609	101.574
238.984	96.2636
242.359	89.4368
245.734	83.7083
249.109	77.7649
252.483	72.6568
255.858	68.4071
259.233	61.2977
262.608	52.6621
265.983	45.7323
269.358	38.0953
272.732	26.548
276.107	17.7654
279.482	7.45828
282.857	1.88296
286.232	0.6297
289.606	5.46786
292.981	5.6142
296.356	5.51761
299.731	5.13684
303.106	2.7775
306.481	2.45901
309.855	1.43958
313.23	2.12607
316.605	4.23965
319.98	8.52789
323.355	9.68082
326.729	9.1882
330.104	12.9435
333.479	12.1901
336.854	11.6279
340.229	9.81045
343.603	7.13132
346.978	5.67557
350.353	0.911865
353.728	3.13898
357.103	2.95731
360.478	3.11539
363.852	5.62302
367.227	9.41302
370.602	8.8678
373.977	12.5534
377.352	18.0017
380.726	21.215
384.101	21.0892
387.476	23.3541
390.851	24.9604
394.226	25.245
397.601	28.7876
400.975	30.4782
404.35	32.2579
407.725	39.2683
411.1	40.3062
414.475	47.5765
417.849	48.9596
421.224	49.7152
424.599	52.451
427.974	48.595
431.349	46.3108
434.724	43.7072
438.098	36.3402
441.473	30.5486
444.848	23.9235
448.223	20.213
451.598	16.0233
454.972	9.87747
458.347	8.3147
461.722	8.27896
465.097	6.88696
468.472	2.98453
471.846	3.12897
475.221	1.46597
478.596	1.9733
481.971	0.848145
485.346	2.4266
488.721	0.281708
492.095	2.04404
495.47	6.90393
498.845	12.1259
502.22	12.0539
505.595	18.8071
508.969	15.6572
512.344	13.2816
515.719	9.40146
519.094	4.41348
522.469	3.25333
525.844	3.23001
529.218	0.07373
532.593	0.612091
535.968	0.340607
539.343	3.68918
542.718	2.98813
546.092	5.70962
549.467	6.46274
552.842	7.38916
556.217	9.64142
559.592	8.7897
562.967	9.90198
566.341	11.0782
569.716	10.9482
573.091	12.8713
576.466	12.4099
579.841	14.1663
583.216	14.3303
586.59	15.5277
589.965	15.4382
593.34	15.6322
596.715	14.3628
600.09	11.3995
603.464	8.98782
606.839	7.73498
610.214	6.41513
613.589	3.24429
616.964	0.110931
620.338	0.95108
623.713	0.207153
627.088	0.543182
630.463	0.737122
633.838	9.27402
637.212	10.4155
640.587	15.3052
643.962	18.1893
647.337	20.7138
650.712	26.271
654.087	30.0391
657.461	34.0007
660.836	38.5679
664.211	36.9681
667.586	36.1935
670.961	30.4208
674.335	22.3674
677.71	16.4148
681.085	6.7601
684.46	1.18784
687.835	6.40805
691.21	7.71973
694.584	4.57834
697.959	0.077179
701.334	8.75363
704.709	19.258
708.084	30.648
711.458	46.8959
714.833	60.3902
718.208	71.0979
721.583	80.8182
724.958	86.3089
728.332	88.8407
731.707	87.3876
735.082	87.7141
738.457	80.0587
741.832	76.1736
745.207	69.7549
748.581	62.2972
751.956	53.0038
755.331	50.9932
758.706	59.003
762.081	70.4262
765.456	92.6161
768.83	130.523
772.205	181.366
775.58	259.709
778.955	355.207
782.33	480.133
785.704	620.355
789.079	746.965
792.454	829.149
795.829	822.501
799.204	732.449
802.578	625.985
805.953	529.513
809.328	450.754
812.703	380.247
816.078	306.306
819.453	234.67
822.827	169.976
826.202	116.108
829.577	79.378
832.952	50.5628
836.327	33.2839
839.702	19.5602
843.076	10.0157
846.451	6.12824
849.826	0.874573
853.201	1.89368
856.576	2.55319
859.95	4.63574
863.325	3.02719
866.7	1.93866
870.075	2.33691
873.45	1.07645
876.824	1.00616
880.199	1.96924
883.574	5.43253
886.949	5.649
890.324	9.36833
893.698	9.65939
897.073	13.0887
900.448	13.8686
903.823	17.4551
907.198	19.2347
910.573	18.7945
913.947	19.9021
917.322	19.0768
920.697	18.4297
924.072	16.4191
927.447	14.7972
930.822	13.9031
934.196	12.6142
937.571	12.3198
940.946	10.886
944.321	10.9594
947.696	11.9858
951.07	10.7885
954.445	9.94579
957.82	10.532
961.195	7.47513
964.57	7.21375
967.944	5.93684
971.319	6.54173
974.694	3.1039
978.069	4.94957
981.444	4.66998
984.819	4.87089
988.193	5.82608
991.568	4.42503
994.943	6.33307
998.318	5.95259
1001.69	3.17978
1005.07	3.19783
1008.44	4.75247
1011.82	4.77461
1015.19	2.87921
1018.57	2.9451
1021.94	2.42503
1025.32	3.41154
1028.69	1.47115
1032.07	0.209106
1035.44	3.86594
1038.82	1.43018
1042.19	0.915787
1045.57	0.634689
1048.94	1.47325
1052.32	0.813065
1055.69	0.51181
1059.07	0.693176
1062.44	1.47751
1065.81	1.25076
1069.19	0.884064
1072.56	0.355194
1075.94	0.211578
1079.31	0.466766
1082.69	1.09093
1086.06	0.014069
1089.44	0.704437
1092.81	0.854401
1096.19	3.16284
1099.56	2.45167
1102.94	2.58488
1106.31	1.9845
1109.69	2.81741
1113.06	3.04695
1116.44	2.08787
1119.81	3.2774
1123.19	3.43909
1126.56	1.62039
1129.94	2.90599
1133.31	1.44495
1136.68	4.45213
1140.06	1.36678
1143.43	1.70767
1146.81	0.581375
1150.18	2.4173
1153.56	2.4631
1156.93	2.28209
1160.31	2.2455
1163.68	0.894348
1167.06	2.45618
1170.43	1.60204
1173.81	3.18605
1177.18	1.06204
1180.56	1.05011
1183.93	3.29124
1187.31	1.75102
1190.68	1.09033
1194.06	0.102005
1197.43	3.21121
1200.81	2.88196
1204.18	0.201843
1207.56	0.799576
1210.93	3.36075
1214.31	3.41197
1217.68	0.854126
1221.06	1.5182
1224.43	0.11499
1227.81	2.35085
1231.18	1.71513
1234.56	1.43335
1237.93	2.19684
1241.31	2.66292
1244.68	0.57608
1248.05	2.39305
1251.43	3.12851
1254.8	4.0623
1258.18	3.37148
1261.55	1.98175
1264.93	1.49464
1268.3	2.28764
1271.68	2.22908
1275.05	1.19965
1278.43	2.04437
1281.8	0.336868
1285.18	2.76106
1288.55	1.53346
1291.93	0.746689
1295.3	0.327682
1298.68	1.37791
1302.05	2.24999
