Measurement: Raman, 532 nm, unoriented, Raman Data Processed
Mineral: Magnesioaubertite
Rruff sample: R060344
Ideal chemistry: MgAl(SO_4_)_2_Cl14H_2_O
Locality: Grotta de Faraglione, Vulcano, Italy
Source: Michael Scott
Description: Blue massive with a parallel fibrous texture associated with white pickeringite, co-type specimen
Raman shift (cm-1)	intensity
179.202	0
182.094	10.6544
184.987	15.9606
187.88	19.7871
190.773	15.7145
193.665	19.127
196.558	10.54
199.451	2.39172
202.343	0.755402
205.236	1.48351
208.129	1.82535
211.021	2.696
213.914	5.22827
216.807	14.9286
219.699	20.4442
222.592	19.5436
225.485	22.0658
228.377	28.1796
231.27	31.7488
234.163	40.202
237.056	46.9302
239.948	58.4334
242.841	62.7685
245.734	68.7384
248.626	67.2892
251.519	67.0559
254.412	63.0793
257.305	54.9067
260.197	50.6461
263.09	41.3896
265.983	37.9335
268.875	38.6338
271.768	35.8617
274.661	35.649
277.553	39.1582
280.446	33.4261
283.339	35.8692
286.232	40.6273
289.124	46.6058
292.017	57.2116
294.91	68.2734
297.802	72.3665
300.695	68.5729
303.588	62.7289
306.481	64.4397
309.373	70.0257
312.266	84.8457
315.159	96.3388
318.051	111.327
320.944	119.137
323.837	104.261
326.729	75.969
329.622	58.3985
332.515	46.9607
335.408	40.2579
338.3	26.7176
341.193	20.4122
344.086	11.0827
346.978	5.16023
349.871	1.12397
352.764	1.4568
355.656	2.21342
358.549	3.62604
361.442	4.38473
364.334	5.03441
367.227	3.03478
370.12	2.00723
373.012	1.36751
375.905	3.86171
378.798	5.65221
381.691	8.89945
384.583	11.125
387.476	15.0587
390.369	20.5955
393.261	18.5763
396.154	24.7807
399.047	34.7441
401.94	43.4488
404.832	62.8546
407.725	85.4191
410.618	115.008
413.51	153.422
416.403	190.39
419.296	234.075
422.188	265.547
425.081	265.116
427.974	235.398
430.866	210.68
433.759	193.51
436.652	193.466
439.545	195.464
442.437	204.797
445.33	216.352
448.223	231.174
451.115	241.07
454.008	244.845
456.901	241.79
459.793	228.677
462.686	208.24
465.579	188.769
468.472	172.031
471.364	154.677
474.257	136.591
477.15	110.088
480.042	86.8925
482.935	62.9801
485.828	38.7737
488.721	23.0724
491.613	12.6359
494.506	6.26721
497.399	2.44688
500.291	2.33063
503.184	3.15129
506.077	6.07985
508.969	12.8606
511.862	16.9785
514.755	21.697
517.648	26.7597
520.54	35.7927
523.433	42.9304
526.326	47.8543
529.218	52.3137
532.111	51.8884
535.004	45.3861
537.896	33.9496
540.789	22.4685
543.682	11.4298
546.575	5.65807
549.467	1.64829
552.36	3.48741
555.253	2.60335
558.145	3.49661
561.038	5.00664
563.931	1.70905
566.823	0.655083
569.716	2.42757
572.609	3.1934
575.502	5.43975
578.394	10.5825
581.287	15.7837
584.18	25.6499
587.072	37.0883
589.965	51.5998
592.858	66.0647
595.75	89.1551
598.643	112.582
601.536	135.076
604.428	142.537
607.321	129.11
610.214	123.232
613.107	128.231
615.999	137.857
618.892	146.826
621.785	156.004
624.677	162.409
627.57	158.304
630.463	146.816
633.356	123.794
636.248	94.2809
639.141	68.1068
642.034	45.9074
644.926	32.4348
647.819	22.5958
650.712	16.5489
653.604	9.28527
656.497	5.46768
659.39	4.5461
662.283	2.93433
665.175	3.0086
668.068	0.826225
670.961	1.48796
673.853	2.4847
676.746	0.462822
679.639	1.59892
682.531	1.19209
685.424	3.23498
688.317	3.63117
691.21	4.98943
694.102	6.22245
696.995	8.68151
699.888	10.3971
702.78	10.9598
705.673	11.3775
708.566	14.3851
711.458	13.1269
714.351	15.1706
717.244	14.9335
720.136	14.0604
723.029	14.971
725.922	15.7158
728.815	13.7911
731.707	12.86
734.6	9.83376
737.493	9.80798
740.385	7.41749
743.278	4.54826
746.171	4.40935
749.063	5.01099
751.956	1.72204
754.849	1.86105
757.742	0.75869
760.634	0.053955
763.527	0.511436
766.42	0.981926
769.312	0.655739
772.205	2.08553
775.098	0.057343
777.99	0.449211
780.883	1.49038
783.776	0.753738
786.669	1.40311
789.561	1.20739
792.454	1.91046
795.347	5.71479
798.239	3.58007
801.132	4.05262
804.025	4.98937
806.918	4.26746
809.81	3.97891
812.703	4.13388
815.596	5.00903
818.488	4.51767
821.381	5.2249
824.274	2.3226
827.166	3.27499
830.059	1.71614
832.952	1.27066
835.845	2.724
838.737	1.98309
841.63	1.82171
844.523	2.52145
847.415	5.65678
850.308	4.3957
853.201	6.36809
856.093	9.80435
858.986	11.0704
861.879	12.9594
864.771	13.3198
867.664	14.6342
870.557	14.4867
873.45	12.8948
876.342	13.0409
879.235	10.6206
882.128	8.78954
885.02	6.9643
887.913	4.60454
890.806	5.22621
893.698	4.23782
896.591	1.30966
899.484	0.581047
902.377	0.346954
905.269	1.59245
908.162	0.340965
911.055	2.11276
913.947	0.12278
916.84	0.104485
919.733	0.626289
922.625	0.459663
925.518	1.75642
928.411	3.19382
931.304	6.97783
934.196	12.7921
937.089	18.0189
939.982	26.4693
942.875	34.3385
945.767	47.4776
948.66	58.8529
951.553	74.4998
954.445	91.3639
957.338	108.818
960.231	130.087
963.123	153.753
966.016	196.51
968.909	251.999
971.802	338.784
974.694	480.897
977.587	754.361
980.48	1135.97
983.372	1569.73
986.265	2253.17
989.158	3058.64
992.05	2559.65
994.943	1170.16
997.836	582.456
1000.73	300.873
1003.62	161.413
1006.51	89.6677
1009.41	51.8762
1012.3	29.9355
1015.19	13.9619
1018.09	7.65443
1020.98	0.371857
1023.87	4.49734
1026.76	4.3456
1029.66	3.98026
1032.55	0.714546
1035.44	8.48262
1038.33	20.3601
1041.23	37.0256
1044.12	59.5101
1047.01	87.0769
1049.9	114
1052.8	118.724
1055.69	101.319
1058.58	69.0949
1061.47	40.7441
1064.37	22.4142
1067.26	13.5415
1070.15	5.81378
1073.05	6.8832
1075.94	7.47394
1078.83	15.4581
1081.72	28.0876
1084.62	46.4371
1087.51	72.4266
1090.4	113.465
1093.3	163.553
1096.19	210.289
1099.08	237.57
1101.97	218.237
1104.87	167.229
1107.76	128.328
1110.65	107.563
1113.54	107.849
1116.44	119.89
1119.33	145.854
1122.22	176.449
1125.12	210.106
1128.01	227.782
1130.9	214.206
1133.79	175.991
1136.68	131.012
1139.58	91.0865
1142.47	63.2365
1145.36	45.8916
1148.26	31.6075
1151.15	22.4411
1154.04	15.2282
1156.93	10.5574
1159.83	6.23236
1162.72	4.98745
1165.61	0.724892
1168.51	0.26017
1171.4	0.054184
1174.29	0.212921
1177.18	0.108215
1180.08	0.39698
1182.97	0.254631
1185.86	0.795738
1188.75	1.05469
1191.65	0.16465
1194.54	2.24515
1197.43	2.52317
1200.33	1.21256
1203.22	1.5929
1206.11	1.81687
1209	3.5192
1211.9	3.7983
1214.79	3.52158
1217.68	5.14236
1220.57	2.70469
1223.47	6.89434
1226.36	4.73485
1229.25	4.51077
1232.14	6.45216
1235.04	5.99223
1237.93	4.82242
1240.82	5.49116
1243.71	6.21448
1246.61	5.77419
1249.5	4.48418
1252.39	5.8774
1255.29	4.86371
1258.18	4.92563
1261.07	4.73973
1263.96	2.27887
1266.86	1.70592
1269.75	3.13007
1272.64	2.9249
1275.54	5.40668
1278.43	3.84369
1281.32	1.84515
1284.21	0.751534
1287.11	0.614021
1290	2.46418
1292.89	1.70396
1295.78	2.73791
1298.68	0.805153
1301.57	1.0043
