Measurement: Raman, 514 nm, unoriented, Raman Data Processed
Mineral: Magnesite
Rruff sample: R040114
Ideal chemistry: MgCO_3_
Locality: Snarum, Norway
Source: University of Arizona Mineral Museum
Description: Tan colored cleavage fragment
Measured chemistry: (Mg_0.98_Fe_0.01_)C_1.00_O_3_
Raman shift (cm-1)	intensity
54.266	0
58.464	1.971
62.661	34.12
66.856	252.619
71.048	338.005
75.239	206.75
79.427	86.016
83.614	131.593
87.798	90.016
91.981	138.933
96.161	118.146
100.34	102.615
104.516	122.407
108.691	131.571
112.864	130.651
117.034	171.534
121.203	95.232
125.369	76.78
129.534	57.799
133.696	54.504
137.857	56.709
142.016	59.039
146.172	17.659
150.327	23.96
154.48	28.92
158.63	14.182
162.779	85.006
166.926	51.291
171.07	65.229
175.213	64.499
179.354	78.824
183.493	68.193
187.63	89.56
191.765	127.914
195.898	176.25
200.029	300.566
204.158	982.863
208.285	3454.14
212.41	2738.4
216.533	1144.64
220.654	201.707
224.773	61.761
228.891	20.172
233.006	7.238
237.119	7.453
241.231	17.806
245.34	16.066
249.448	2.315
253.553	0.454
257.657	12.308
261.758	27.009
265.858	7.314
269.956	2.337
274.052	1.099
278.146	17.894
282.237	2.263
286.327	30.336
290.416	32.833
294.502	58.965
298.586	83.642
302.668	120.908
306.749	149.392
310.827	284.751
314.903	523.966
318.978	1491.11
323.051	7192.15
327.121	15917.2
331.19	11993.1
335.257	3553.08
339.322	1147.01
343.385	532.953
347.446	365.88
351.505	244.768
355.563	194.64
359.618	151.497
363.672	127.338
367.723	124.164
371.773	101.033
375.821	110.887
379.866	88.67
383.91	62.453
387.952	50.287
391.992	59.944
396.031	45.198
400.067	57.079
404.101	40.218
408.134	55.288
412.165	33.556
416.193	9.191
420.22	14.34
424.245	20.861
428.268	25.625
432.289	15.027
436.309	16.932
440.326	29.418
444.342	14.384
448.355	33.963
452.367	6.552
456.377	16.889
460.385	2.22
464.391	8.565
468.395	18.847
472.398	24.071
476.398	10.282
480.397	30.474
484.394	37.711
488.389	47.884
492.382	36.056
496.373	39.624
500.362	33.403
504.349	48.57
508.335	42.732
512.319	38.889
516.3	25.04
520.28	62.192
524.259	84.342
528.235	6.49
532.209	43.633
536.182	37.771
540.152	15.909
544.121	15.037
548.088	15.147
552.053	15.243
556.017	5.336
559.978	28.279
563.938	20.526
567.895	15.654
571.851	25.773
575.805	31.818
579.758	13.825
583.708	4.95
587.657	18.065
591.603	25.154
595.548	22.103
599.491	30.577
603.432	12.696
607.372	18.647
611.309	10.065
615.245	15.949
619.179	13.431
623.111	3.302
627.041	18.533
630.97	35.465
634.896	31.232
638.821	20.21
642.744	20.844
646.665	29.644
650.584	36.161
654.502	53.88
658.418	43.862
662.331	42.201
666.244	62.252
670.154	78.251
674.062	101.232
677.969	102.792
681.874	101.73
685.777	124.783
689.678	136.162
693.577	134.31
697.475	144.734
701.371	160.172
705.265	171.514
709.157	238.13
713.047	261.374
716.936	404.871
720.823	562.183
724.708	898.312
728.591	1323.49
732.472	1968.88
736.352	2502.97
740.23	2435.51
744.106	1657.59
747.98	963.806
751.853	547.9
755.723	353.861
759.592	225.935
763.459	140.524
767.325	101.265
771.188	74.061
775.05	57.948
778.91	52.339
782.768	30.398
786.625	12.155
790.479	33.868
794.332	1.453
798.183	18.122
802.033	2.712
805.88	2.243
809.726	1.709
813.57	5.88
817.413	9.514
821.253	4.8
825.092	3.928
828.929	4.71
832.764	6.898
836.598	1.438
840.429	11.374
844.259	6.358
848.088	6.396
851.914	11.519
855.739	0.408
859.562	18.278
863.383	0.113
867.203	26.918
871.02	18.705
874.836	26.476
878.65	1.236
882.463	23.985
886.274	24.721
890.083	10.445
893.89	12.153
897.695	6.155
901.499	6.476
905.301	12.193
909.102	22.858
912.9	27.52
916.697	23.181
920.492	14.844
924.285	48.773
928.077	23.195
931.867	46.89
935.655	31.597
939.442	45.188
943.226	26.705
947.009	36.755
950.791	34.408
954.57	30.94
958.348	50.922
962.124	54.694
965.899	46.753
969.671	79.663
973.442	50.879
977.211	68.925
980.979	92.398
984.745	75.365
988.509	91.212
992.271	86.045
996.032	84.55
999.791	99.915
1003.55	103.534
1007.3	111.584
1011.06	124.755
1014.81	135.622
1018.56	165.844
1022.31	198.905
1026.06	236.157
1029.8	258.502
1033.55	327.88
1037.29	365.056
1041.03	418.518
1044.77	504.357
1048.5	547.624
1052.24	644.997
1055.97	766.527
1059.7	958.165
1063.43	1146.84
1067.16	1505.56
1070.89	2056.6
1074.61	3059.02
1078.34	4523.85
1082.06	7477.83
1085.78	13475.8
1089.5	25489
1093.21	41748.9
1096.93	41188
1100.64	26193
1104.35	16260.2
1108.06	10045.8
1111.77	6078.09
1115.48	3599.37
1119.18	2107.01
1122.89	1660.37
1126.59	1037.51
1130.29	711.094
1133.99	509.336
1137.68	424.852
1141.38	327.074
1145.07	272.046
1148.76	230.621
1152.45	171.322
1156.14	138.032
1159.83	127.302
1163.51	122.494
1167.19	128.33
1170.88	75.992
1174.56	84.909
1178.23	73.784
1181.91	64.913
1185.59	80.181
1189.26	40.123
1192.93	57.458
1196.6	68.387
1200.27	49.312
1203.94	36.544
1207.6	42.98
1211.27	34.118
1214.93	13.472
1218.59	7.435
1222.25	12.819
1225.9	5.188
1229.56	15.815
1233.21	1.243
1236.86	26.707
1240.51	18.654
1244.16	41.718
1247.81	4.796
1251.45	20.037
1255.1	19.013
1258.74	9.318
1262.38	5.765
1266.02	9.05
1269.66	3.155
1273.29	17.174
1276.93	30.419
1280.56	21.331
1284.19	12.963
1287.82	2.894
1291.45	7.108
1295.07	7.64
1298.7	35.214
1302.32	31.601
1305.94	1.036
1309.56	4.431
1313.18	3.217
1316.8	4.098
1320.41	16.35
1324.02	7.554
1327.63	23.725
1331.24	42.854
1334.85	1.068
1338.46	22.974
1342.06	21.691
1345.67	25.959
1349.27	30.902
1352.87	45.807
1356.47	13.679
1360.07	20.521
1363.66	11.047
1367.25	25.378
1370.85	50.035
1374.44	1.802
1378.03	42.506
1381.61	20.131
1385.2	43.99
1388.78	29.662
1392.37	33.753
1395.95	18.921
1399.53	43.2
1403.1	44.527
1406.68	19.568
1410.26	23.237
1413.83	34.147
1417.4	52.202
1420.97	18.067
1424.54	30.242
1428.1	20.945
1431.67	44.515
1435.23	74.065
1438.8	134.113
1442.36	243.844
1445.91	1082.88
1449.47	849.324
1453.03	326.587
1456.58	195.292
1460.13	139.057
1463.68	140.475
1467.23	86.083
1470.78	89.639
1474.33	68.482
1477.87	78.951
1481.42	86.421
1484.96	39.825
1488.5	55.194
1492.04	64.961
1495.57	73.258
1499.11	29.139
1502.64	21.194
1506.17	5.816
1509.71	10.002
1513.23	31.001
1516.76	27.737
1520.29	12.642
1523.81	13.794
