Measurement: Raman, 780 nm, unoriented, Raman Data Processed
Mineral: Magnesiocopiapite
Rruff sample: R060155
Ideal chemistry: MgFe^3+^_4_(SO_4_)_6_(OH)_2_20H_2_O
Locality: Denver mine, Santa Cruz County, Arizona, USA
Source: University of Arizona Mineral Museum
Description: Yellow fine-grained efflorescence
Measured chemistry: (Mg_0.95_Mn_0.05_)_Σ=1_(Fe^3+^_3.56_Al_0.44_)_Σ=4_(S_1.00_O_4_)_6_(OH)_2_·17H_2_O ; H not measured but estimated by difference
Raman shift (cm-1)	intensity
145.058	0
147.951	3.08699
150.844	8.207
153.736	12.9296
156.629	16.4171
159.522	21.8494
162.414	24.0213
165.307	16.0956
168.2	7.56104
171.093	2.66083
173.985	0.002243
176.878	1.63437
179.771	1.71072
182.663	0.151123
185.556	1.75795
188.449	5.15949
191.341	11.079
194.234	16.0872
197.127	14.1039
200.019	9.04453
202.912	6.57495
205.805	6.60146
208.697	11.8616
211.59	16.7445
214.483	22.7751
217.376	29.309
220.268	36.3253
223.161	44.8991
226.054	57.7581
228.946	59.0462
231.839	63.3603
234.732	68.1024
237.625	71.3069
240.517	72.0546
243.41	69.8953
246.303	66.2105
249.195	64.7424
252.088	66.9067
254.981	71.0579
257.873	80.8511
260.766	91.185
263.659	106.203
266.551	119.128
269.444	124.978
272.337	118.688
275.23	95.2918
278.122	71.2472
281.015	53.1761
283.908	42.4041
286.8	35.7452
289.693	34.7255
292.586	35.7659
295.478	39.1061
298.371	43.3482
301.264	46.7255
304.157	45.5798
307.049	42.6462
309.942	28.3682
312.835	21.0035
315.727	13.1165
318.62	9.5776
321.513	5.26142
324.406	2.96446
327.298	1.7364
330.191	0.136681
333.084	1.389
335.976	0.042084
338.869	0.48642
341.762	0.293411
344.654	0.441071
347.547	0.15889
350.44	2.13141
353.332	1.08926
356.225	0.94709
359.118	1.01362
362.01	0.83033
364.903	0.79216
367.796	0.846222
370.689	0.302029
373.581	0.868423
376.474	0.85334
379.367	2.4226
382.259	3.05743
385.152	4.00991
388.045	6.23118
390.938	6.60318
393.83	8.60648
396.723	9.46227
399.616	11.4156
402.508	13.454
405.401	14.6982
408.294	16.1666
411.186	16.5933
414.079	18.9458
416.972	20.1491
419.865	23.8784
422.757	27.525
425.65	31.4078
428.543	35.2641
431.435	41.7021
434.328	48.12
437.221	54.5603
440.113	63.0273
443.006	65.8233
445.899	69.9481
448.791	71.9466
451.684	77.7542
454.577	82.0059
457.47	86.0282
460.362	93.6825
463.255	101.676
466.148	109.005
469.04	113.124
471.933	111.808
474.826	106.841
477.719	99.9172
480.611	87.6334
483.504	71.6975
486.397	55.8878
489.289	41.3056
492.182	29.0012
495.075	22.5048
497.967	15.3209
500.86	9.93205
503.753	6.60729
506.645	4.02118
509.538	1.71991
512.431	0.740948
515.323	0.104889
518.216	1.24025
521.109	0.529987
524.002	0.269043
526.894	1.26724
529.787	1.5053
532.68	0.764812
535.572	0.424862
538.465	1.82584
541.358	2.77769
544.25	3.77705
547.143	4.75385
550.036	6.49912
552.929	5.6781
555.821	5.52715
558.714	6.04364
561.607	4.22482
564.499	4.15393
567.392	2.77039
570.285	2.10594
573.178	2.81771
576.07	4.29526
578.963	5.60889
581.856	7.92971
584.748	11.1449
587.641	14.0933
590.534	17.8622
593.426	22.8907
596.319	25.3603
599.212	27.3754
602.105	27.035
604.997	26.2649
607.89	25.9335
610.783	26.0808
613.675	26.3397
616.568	25.1512
619.461	22.1562
622.353	18.7727
625.246	17.1821
628.139	15.3156
631.031	15.049
633.924	14.5014
636.817	14.9014
639.71	15.1132
642.602	14.0087
645.495	10.6799
648.388	9.27416
651.28	6.92347
654.173	4.33592
657.066	2.98938
659.958	3.56223
662.851	2.32035
665.744	2.31348
668.636	2.03125
671.529	1.15843
674.422	0.05703
677.315	1.57079
680.207	0.453945
683.1	0.385162
685.993	0.750626
688.885	0.882694
691.778	0.08503
694.671	0.053097
697.563	0.367561
700.456	0.699833
703.349	1.00825
706.242	0.340714
709.134	0.578312
712.027	0.005127
714.92	0.696568
717.812	0.833035
720.705	0.959904
723.598	1.44015
726.49	0.724243
729.383	0.292336
732.276	1.16703
735.169	1.35484
738.061	1.58248
740.954	0.47435
743.847	1.25382
746.739	0.866142
749.632	1.21669
752.525	0.526222
755.418	1.57762
758.31	1.41863
761.203	0.766048
764.096	0.830616
766.988	0.862152
769.881	1.16406
772.774	0.867886
775.666	0.646557
778.559	0.032829
781.452	1.44902
784.345	1.13631
787.237	0.590023
790.13	0.496578
793.023	1.15664
795.915	0.535805
798.808	1.86191
801.701	0.542427
804.593	0.50428
807.486	0.960758
810.379	0.046562
813.271	0.95364
816.164	0.523861
819.057	0.922474
821.949	1.24461
824.842	1.46005
827.735	1.06313
830.628	1.40591
833.52	1.84049
836.413	2.04665
839.306	2.07677
842.198	1.60847
845.091	1.70559
847.984	1.32869
850.876	2.45282
853.769	1.73682
856.662	1.71021
859.555	0.818733
862.447	2.03424
865.34	1.51838
868.233	1.96024
871.125	2.25525
874.018	2.10722
876.911	1.36579
879.803	2.45214
882.696	1.62385
885.589	1.43889
888.482	1.8493
891.374	1.1376
894.267	1.38452
897.16	0.871529
900.052	0.19706
902.945	1.18036
905.838	0.527538
908.731	0.446415
911.623	0.341354
914.516	0.1931
917.409	0.076069
920.301	0.117393
923.194	0.303688
926.087	0.099419
928.979	0.581264
931.872	0.03627
934.765	0.265205
937.658	0.403725
940.55	0.395527
943.443	0.220684
946.336	0.719795
949.228	0.453712
952.121	2.09508
955.014	1.96634
957.906	2.87111
960.799	4.0206
963.692	7.12993
966.584	10.5201
969.477	15.3135
972.37	22.0225
975.263	31.3901
978.155	44.9297
981.048	64.2195
983.941	84.9306
986.833	108.445
989.726	123.946
992.619	142.157
995.511	158.317
998.404	157.588
1001.3	124.997
1004.19	95.0432
1007.08	76.3123
1009.98	61.8362
1012.87	54.4038
1015.76	55.3914
1018.65	62.9143
1021.55	74.9674
1024.44	85.5674
1027.33	92.4559
1030.22	87.8291
1033.12	77.7229
1036.01	64.4609
1038.9	44.9391
1041.8	29.2604
1044.69	18.6355
1047.58	10.9964
1050.47	5.84044
1053.37	2.69955
1056.26	0.438301
1059.15	0.307697
1062.04	1.05484
1064.94	0.39336
1067.83	1.27477
1070.72	0.908249
1073.61	1.92317
1076.51	4.85693
1079.4	7.32974
1082.29	8.76521
1085.18	8.9311
1088.08	12.8976
1090.97	14.4544
1093.86	15.5087
1096.76	15.4182
1099.65	18.8174
1102.54	19.9793
1105.43	22.9632
1108.33	24.4699
1111.22	25.6348
1114.11	26.1346
1117.01	26.7871
1119.9	25.5641
1122.79	24.467
1125.68	22.1872
1128.58	19.7268
1131.47	20.0227
1134.36	20.0771
1137.25	20.3729
1140.15	20.7353
1143.04	20.5589
1145.93	19.0429
1148.82	17.637
1151.72	15.583
1154.61	13.2844
1157.5	11.9428
1160.39	11.1152
1163.29	9.39674
1166.18	8.71144
1169.07	5.922
1171.97	3.71547
1174.86	2.94624
1177.75	1.92806
1180.64	0.067574
1183.54	0.151295
1186.43	1.34898
1189.32	0.55579
1192.21	0.028469
1195.11	1.20414
1198	1.50878
1200.89	1.72067
1203.79	1.29585
1206.68	0.907448
1209.57	1.59844
1212.46	1.16711
1215.36	0.499466
1218.25	1.27651
1221.14	1.50364
1224.04	2.03647
1226.93	2.08677
1229.82	3.70797
1232.71	5.20524
1235.61	6.81525
1238.5	6.12336
1241.39	8.72891
1244.28	10.3647
1247.18	10.689
1250.07	10.0014
1252.96	8.47799
1255.85	6.35315
1258.75	3.45729
1261.64	3.21423
1264.53	0.927984
1267.42	0.652618
1270.32	0.169451
1273.21	0.297787
1276.1	0.032333
1279	1.11192
1281.89	0.477018
1284.78	0.134893
