Measurement: Raman, 780 nm, unoriented, Raman Data Processed
Mineral: Magnesite
Rruff sample: R050676
Ideal chemistry: MgCO_3_
Locality: Tyrol, Austria
Source: University of Arizona Mineral Museum
Description: Brown rhombohedral crystals
Measured chemistry: (Mg_0.87_Fe^2+^_0.12_Ca_0.01_)_Î£=1_CO_3_; trace amounts of Mn and Cd; CO_2_ estimated by difference
Raman shift (cm-1)	intensity
124.327	0
127.702	0.250126
131.077	1.27817
134.452	0.43428
137.826	0.886892
141.201	0.63764
144.576	0.436874
147.951	0.57865
151.326	0.080893
154.701	0.247599
158.075	0.047954
161.45	0.215534
164.825	0.033091
168.2	0.3395
171.575	0.313259
174.949	0.490363
178.324	0.415488
181.699	0.780234
185.074	1.725
188.449	2.74451
191.823	5.38812
195.198	7.18332
198.573	11.0439
201.948	19.3928
205.323	37.9822
208.697	81.9257
212.072	80.3559
215.447	20.8661
218.822	6.41569
222.197	3.33732
225.572	1.20237
228.946	0.561155
232.321	0.410936
235.696	0.411654
239.071	0.162189
242.446	0.625793
245.821	0.702984
249.195	0.30914
252.57	0.179112
255.945	0.306156
259.32	0.124092
262.695	0.11329
266.069	0.320904
269.444	0.315038
272.819	0.712573
276.194	0.529384
279.569	0.786974
282.943	2.12293
286.318	2.67804
289.693	3.31156
293.068	3.7746
296.443	6.20494
299.817	10.0421
303.192	16.3078
306.567	30.9438
309.942	49.4369
313.317	75.3665
316.692	132.091
320.066	254.069
323.441	485.197
326.816	520.622
330.191	227.962
333.566	87.89
336.94	44.4807
340.315	26.0043
343.69	16.4295
347.065	11.1553
350.44	8.08048
353.815	5.22926
357.189	4.24066
360.564	3.75167
363.939	2.31372
367.314	1.98532
370.689	1.75965
374.063	1.20322
377.438	0.760353
380.813	0.956374
384.188	0.946304
387.563	0.578156
390.938	0.146058
394.312	0.100049
397.687	0.072736
401.062	0.130407
404.437	0.028947
407.812	0.051768
411.186	0.026273
414.561	0.0617526
417.936	0.128155
421.311	0.092572
424.686	0.061887
428.06	0.103818
431.435	0.165834
434.81	0.100727
438.185	0.137069
441.56	0.101168
444.935	0.276286
448.309	0.264457
451.684	0.346492
455.059	0.384093
458.434	0.736843
461.809	0.93772
465.183	1.05866
468.558	1.08617
471.933	1.27784
475.308	2.10043
478.683	2.28454
482.058	2.25783
485.432	2.45224
488.807	2.28052
492.182	3.05054
495.557	2.97002
498.932	3.0598
502.306	3.36227
505.681	3.67695
509.056	3.27508
512.431	3.06307
515.806	2.96836
519.181	3.05836
522.555	2.66012
525.93	2.20548
529.305	2.59021
532.68	1.87368
536.055	1.81729
539.429	1.54785
542.804	1.18392
546.179	1.02016
549.554	1.27426
552.929	0.710272
556.303	0.478868
559.678	0.459662
563.053	0.308861
566.428	0.034028
569.803	0.512699
573.178	0.108466
576.552	0.234632
579.927	0.161439
583.302	0.011872
586.677	0.00711
590.052	0.222263
593.426	0.068896
596.801	0.236342
600.176	0.011665
603.551	0.195405
606.926	0.054309
610.301	0.260714
613.675	0.150059
617.05	0.253407
620.425	0.06144
623.8	0.030177
627.174	0.085055
630.549	0.119847
633.924	0.083743
637.299	0.115465
640.674	0.111729
644.049	0.191676
647.423	0.160434
650.798	0.137988
654.173	0.174147
657.548	0.104769
660.923	0.142133
664.298	0.246762
667.672	0.500361
671.047	0.196849
674.422	0.246156
677.797	0.416995
681.172	0.355955
684.546	0.54046
687.921	0.420322
691.296	0.367667
694.671	1.03591
698.046	1.33404
701.42	1.68562
704.795	1.81338
708.17	2.10816
711.545	3.12528
714.92	4.06265
718.294	6.13733
721.669	8.69305
725.044	12.4189
728.419	17.2846
731.794	24.4209
735.169	31.764
738.543	34.1748
741.918	28.8922
745.293	19.2903
748.668	12.5396
752.043	7.87345
755.418	4.81076
758.792	2.80534
762.167	1.99894
765.542	0.82253
768.917	0.606855
772.292	0.500303
775.666	0.110119
779.041	0.321735
782.416	0.045157
785.791	0.049223
789.166	0.131234
792.54	0.217232
795.915	0.264468
799.29	0.160731
802.665	0.08797
806.04	0.224149
809.414	0.143073
812.789	0.398473
816.164	0.053726
819.539	0.064401
822.914	0.319867
826.289	0.303378
829.663	0.730489
833.038	0.30323
836.413	0.639644
839.788	0.398539
843.163	0.279274
846.538	0.464358
849.912	0.538883
853.287	0.464673
856.662	0.134559
860.037	0.695099
863.412	0.35888
866.786	0.630517
870.161	0.96726
873.536	1.67634
876.911	2.01571
880.286	1.47331
883.66	0.926257
887.035	0.50329
890.41	0.36843
893.785	0.394162
897.16	0.196735
900.534	0.210526
903.909	0.017405
907.284	0.047798
910.659	0.018407
914.034	0.266469
917.409	0.150067
920.783	0.27297
924.158	0.249738
927.533	0.024931
930.908	0.106311
934.283	0.142806
937.658	0.074547
941.032	0.256065
944.407	0.434682
947.782	0.016761
951.157	0.324646
954.532	0.202742
957.906	0.069739
961.281	0.078316
964.656	0.14578
968.031	0.458253
971.406	0.181756
974.78	0.418863
978.155	0.571332
981.53	0.418195
984.905	0.45843
988.28	0.215117
991.654	0.032158
995.029	0.015993
998.404	-0.007668
1001.78	0.0540956
1005.15	0.13008
1008.53	0.263346
1011.9	0.068357
1015.28	0.01265
1018.65	0.172305
1022.03	0.152946
1025.4	0.120447
1028.78	0.027641
1032.15	0.375589
1035.53	0.582047
1038.9	0.601627
1042.28	1.23978
1045.65	1.48587
1049.03	2.51502
1052.4	3.12828
1055.78	4.06654
1059.15	5.73478
1062.53	7.74902
1065.9	11.1253
1069.28	15.6214
1072.65	23.456
1076.03	34.376
1079.4	52.9444
1082.77	86.8577
1086.15	141.494
1089.52	233.432
1092.9	327.349
1096.27	318.346
1099.65	225.328
1103.02	137.678
1106.4	77.7378
1109.77	43.8629
1113.15	24.11
1116.52	14.3508
1119.9	8.79024
1123.27	5.4086
1126.65	3.3919
1130.02	2.48575
1133.4	1.65866
1136.77	0.835096
1140.15	0.435325
1143.52	0.059179
1146.9	0.218905
1150.27	0.027366
1153.65	0.014805
1157.02	0.065094
1160.39	0.052722
1163.77	0.056561
1167.14	0.045783
1170.52	0.317069
1173.89	0.099817
1177.27	0.103037
1180.64	0.004494
1184.02	0.139597
1187.39	0.04498
1190.77	0.268104
1194.14	0.346564
1197.52	0.126382
1200.89	0.475936
1204.27	0.4147
1207.64	0.31564
1211.02	0.303952
1214.39	0.710449
1217.77	0.813401
1221.14	0.45434
1224.52	0.707012
1227.89	0.426578
1231.27	0.328973
1234.64	0.389136
1238.02	0.147693
1241.39	0.472156
1244.77	0.514263
1248.14	0.094105
1251.52	0.203125
1254.89	0.279205
1258.27	0.222919
1261.64	0.225623
1265.01	0.3254
1268.39	0.256383
1271.76	0.186233
1275.14	0.163133
1278.51	0.374766
1281.89	0.025478
1285.26	0.132807
