Measurement: Raman, 780 nm, unoriented, Raman Data Processed
Mineral: Magnussonite
Rruff sample: R100027
Ideal chemistry: Mn^2+^_5_As^3+^_3_O_9_(OH,Cl)
Locality: Langban, Filipstad, Varmland, Sweden
Source: William W. Pinch
Description: Dark green massive, associated with brown armangite R100041, and white nadorite
Raman shift (cm-1)	intensity
91.5332	0
94.908	5.80431
98.2828	1.90227
101.658	1.4744
105.032	1.96799
108.407	6.02602
111.782	7.04586
115.157	7.05589
118.532	8.5303
121.907	12.6951
125.281	17.1387
128.656	13.3544
132.031	7.15651
135.406	3.48885
138.781	4.95986
142.155	8.67548
145.53	9.05752
148.905	12.1394
152.28	13.2509
155.655	12.3618
159.03	8.82256
162.404	6.59152
165.779	5.0577
169.154	3.86414
172.529	4.30329
175.904	3.95464
179.278	1.95774
182.653	2.63297
186.028	3.23747
189.403	2.79411
192.778	5.11912
196.153	8.54368
199.527	8.69034
202.902	9.85234
206.277	11.2349
209.652	10.4572
213.027	8.07495
216.401	2.3665
219.776	0.583145
223.151	0.764763
226.526	0.406994
229.901	1.31385
233.275	0.187073
236.65	0.555256
240.025	1.94555
243.4	3.79679
246.775	4.66203
250.15	4.49291
253.524	4.54425
256.899	3.74855
260.274	4.40004
263.649	3.38722
267.024	2.42916
270.399	3.25975
273.773	1.34725
277.148	2.10059
280.523	0.798012
283.898	0.779541
287.273	0.139011
290.647	1.11657
294.022	0.181942
297.397	0.214348
300.772	0.037441
304.147	1.0537
307.522	0.408207
310.896	1.33752
314.271	1.93663
317.646	2.53111
321.021	2.5081
324.396	4.21595
327.77	3.75561
331.145	3.38112
334.52	3.45993
337.895	3.79687
341.27	3.61549
344.644	1.72015
348.019	1.03951
351.394	0.729961
354.769	0.174644
358.144	0.30386
361.519	0.739758
364.893	0.623699
368.268	0.34473
371.643	0.408836
375.018	1.01033
378.393	0.991882
381.767	0.458057
385.142	1.64179
388.517	1.22289
391.892	1.79814
395.267	1.71725
398.642	1.95588
402.016	2.40786
405.391	1.9948
408.766	3.09644
412.141	4.69385
415.516	4.16359
418.89	4.44991
422.265	4.42753
425.64	6.19511
429.015	6.41637
432.39	4.6684
435.765	4.57459
439.139	3.94613
442.514	2.42612
445.889	2.57822
449.264	0.71455
452.639	1.97292
456.014	1.47593
459.388	0.765755
462.763	2.55157
466.138	0.52301
469.513	1.40926
472.887	1.00385
476.262	0.32346
479.637	0.027874
483.012	0.00103
486.387	1.20304
489.762	1.72181
493.136	0.351498
496.511	1.91262
499.886	2.54943
503.261	2.6058
506.636	4.96679
510.01	1.99256
513.385	2.47065
516.76	1.89801
520.135	1.40585
523.51	0.904926
526.885	0.807613
530.259	1.0336
533.634	1.47416
537.009	2.5279
540.384	1.07631
543.759	0.028046
547.134	1.64237
550.508	0.593899
553.883	0.630611
557.258	0.520313
560.633	0.757374
564.008	0.062725
567.382	1.74612
570.757	1.1178
574.132	1.31888
577.507	1.7503
580.882	2.20218
584.256	2.59461
587.631	3.77953
591.006	2.95273
594.381	2.16963
597.756	2.20556
601.131	3.08178
604.505	2.19033
607.88	1.27421
611.255	1.36071
614.63	0.944611
618.005	0.973854
621.38	0.398594
624.754	0.227489
628.129	0.176624
631.504	0.020786
634.879	0.927631
638.254	1.33623
641.628	0.826138
645.003	2.52617
648.378	3.64944
651.753	1.68499
655.128	2.13099
658.503	3.91069
661.877	2.92708
665.252	2.94213
668.627	3.28259
672.002	2.0771
675.377	1.74242
678.751	0.73259
682.126	1.28888
685.501	0.739136
688.876	1.29769
692.251	0.637306
695.625	0.395378
699	0.36573
702.375	0.734337
705.75	1.25138
709.125	2.31103
712.5	3.76093
715.874	4.60335
719.249	6.49371
722.624	8.29105
725.999	9.44692
729.374	10.3894
732.749	10.7819
736.123	10.0895
739.498	9.77343
742.873	9.14211
746.248	8.68375
749.623	7.19863
752.997	7.19045
756.372	6.16402
759.747	5.57739
763.122	8.4261
766.497	9.82672
769.871	15.3704
773.246	21.5761
776.621	32.107
779.996	45.3968
783.371	60.3157
786.745	76.3578
790.12	87.6816
793.495	94.677
796.87	89.8264
800.245	78.1935
803.62	66.154
806.994	57.7518
810.369	52.0369
813.744	45.2391
817.119	37.3951
820.494	26.4758
823.869	17.3438
827.243	11.4085
830.618	6.63095
833.993	5.37773
837.368	2.79211
840.743	1.85015
844.117	0.944881
847.492	0.842297
850.867	0.270512
854.242	0.402412
857.617	0.339626
860.991	0.35659
864.366	0.420567
867.741	0.497616
871.116	0.665859
874.491	0.654079
877.866	0.467857
881.24	0.680042
884.615	1.78493
887.99	1.437
891.365	2.00126
894.74	1.18992
898.115	1.65992
901.489	1.74235
904.864	2.21416
908.239	2.70526
911.614	1.80196
914.989	2.44249
918.363	1.5052
921.738	3.03955
925.113	2.18808
928.488	1.50824
931.863	1.83086
935.237	2.0284
938.612	1.28956
941.987	1.65611
945.362	2.11622
948.737	1.5703
952.112	0.032375
955.486	1.92867
958.861	0.99184
962.236	0.812336
965.611	1.20722
968.986	0.792458
972.361	0.212223
975.735	0.080437
979.11	0.736038
982.485	1.0083
985.86	0.596085
989.235	1.16075
992.609	1.00046
995.984	0.555386
999.359	0.762238
1002.73	2.3398
1006.11	0.631649
1009.48	1.00861
1012.86	0.202374
1016.23	0.759399
1019.61	1.02311
1022.98	1.21301
1026.36	0.565052
1029.73	0.838955
1033.11	0.621468
1036.48	1.07947
1039.86	0.387005
1043.23	1.18353
1046.61	1.32793
1049.98	1.0059
1053.36	0.489613
1056.73	0.851933
1060.11	0.365204
1063.48	0.161858
1066.86	1.19547
1070.23	1.13483
1073.61	1.37514
1076.98	0.119034
1080.36	0.63834
1083.73	1.16446
1087.1	1.37025
1090.48	1.16782
1093.85	0.592384
1097.23	3.53336
1100.6	1.07111
1103.98	2.07267
1107.35	0.932106
1110.73	0.895081
1114.1	0.386318
1117.48	0.495281
1120.85	0.297501
1124.23	1.41932
1127.6	0.051556
1130.98	1.81973
1134.35	0.601421
1137.73	1.35456
1141.1	2.35089
1144.48	0.810009
1147.85	1.17685
1151.23	1.31139
1154.6	1.72681
1157.97	0.31308
1161.35	1.06004
1164.72	2.37007
1168.1	1.42977
1171.47	1.49072
1174.85	0.831017
1178.22	1.08153
1181.6	0.914467
1184.97	1.9806
1188.35	1.05223
1191.72	2.53128
1195.1	2.15585
1198.47	1.43894
1201.85	0.636604
1205.22	2.06982
1208.6	0.623619
1211.97	1.45379
1215.35	1.60142
1218.72	0.480301
1222.1	0.757019
1225.47	1.79279
1228.85	0.165932
1232.22	0.698982
1235.6	1.28488
1238.97	1.88731
1242.35	1.17791
1245.72	0.351471
1249.1	0.930763
1252.47	1.18361
1255.85	1.06826
1259.22	1.0349
1262.6	0.422966
1265.97	0.985382
1269.34	1.23107
1272.72	0.841408
1276.09	0.742294
1279.47	1.14893
1282.84	0.346756
