Measurement: Raman, 780 nm, unoriented, Raman Data Processed
Mineral: Magnetite
Rruff sample: R080025
Ideal chemistry: Fe^2+^Fe^3+^_2_O_4_
Locality: 2500' level, Zinc Corporation of America mine #4, Balmat, New York, USA
Source: William W. Pinch
Description: Black cubes
Raman shift (cm-1)	intensity
154.775	0
157.667	0.20718
160.56	0.969791
163.453	1.20014
166.345	0.860458
169.238	0.714474
172.131	1.13098
175.024	1.71414
177.916	1.5051
180.809	0.836819
183.702	1.00866
186.594	1.03835
189.487	0.444969
192.38	0.003845
195.272	0.032383
198.165	0.072914
201.058	0.172546
203.951	0.735813
206.843	0.008152
209.736	0.037388
212.629	0.230343
215.521	0.368008
218.414	0.441547
221.307	0.228775
224.199	0.104431
227.092	0.480328
229.985	0.736809
232.877	1.22424
235.77	1.24122
238.663	1.17152
241.556	1.61284
244.448	1.5796
247.341	2.00579
250.234	2.0029
253.126	1.94284
256.019	2.2545
258.912	3.27488
261.805	3.67814
264.697	3.83605
267.59	4.22468
270.483	4.84636
273.375	5.6606
276.268	6.21703
279.161	7.14382
282.053	6.98537
284.946	7.89898
287.839	7.24915
290.731	8.39345
293.624	8.60484
296.517	8.50035
299.41	8.1541
302.302	7.5743
305.195	7.03153
308.088	6.83348
310.98	5.58195
313.873	4.37774
316.766	4.60977
319.659	3.58615
322.551	3.49668
325.444	2.24449
328.337	2.25591
331.229	1.66319
334.122	1.31132
337.015	1.56338
339.907	0.880314
342.8	0.594339
345.693	0.634026
348.586	0.001919
351.478	0.704338
354.371	0.045183
357.264	0.14941
360.156	0.197073
363.049	0.094395
365.942	0.052408
368.834	0.249149
371.727	0.051723
374.62	0.370213
377.512	0.301878
380.405	0.296749
383.298	0.342113
386.191	0.195206
389.083	0.316402
391.976	0.223675
394.869	0.434555
397.761	0.574963
400.654	0.151888
403.547	0.649727
406.44	0.172503
409.332	0.072872
412.225	0.952076
415.118	0.73748
418.01	0.948339
420.903	0.286097
423.796	0.787821
426.688	0.262815
429.581	0.851963
432.474	0.672485
435.366	1.15163
438.259	0.460657
441.152	0.9772
444.045	0.963799
446.937	1.17394
449.83	0.556576
452.723	0.542891
455.615	0.59189
458.508	0.589834
461.401	0.592119
464.293	0.221766
467.186	0.892721
470.079	0.096027
472.972	0.197922
475.864	0.811911
478.757	0.877167
481.65	0.508986
484.542	0.694111
487.435	0.734678
490.328	0.5037
493.221	0.528439
496.113	0.921463
499.006	0.841433
501.899	0.445303
504.791	0.803385
507.684	0.975512
510.577	0.786913
513.469	1.56351
516.362	0.880192
519.255	0.962908
522.148	1.20864
525.04	1.24079
527.933	0.794617
530.826	1.26539
533.718	0.456331
536.611	0.630169
539.504	0.663515
542.396	0.570116
545.289	0.738445
548.182	1.05159
551.074	1.00745
553.967	0.354935
556.86	0.052866
559.753	0.035023
562.645	0.233242
565.538	0.102299
568.431	0.031212
571.323	0.180796
574.216	0.103481
577.109	0.077745
580.001	0.170193
582.894	0.048109
585.787	0.446436
588.68	0.244452
591.572	0.627064
594.465	1.10364
597.358	0.435465
600.25	1.13399
603.143	1.46267
606.036	2.21076
608.928	2.00043
611.821	3.32453
614.714	3.41559
617.607	4.05875
620.499	4.78975
623.392	6.4726
626.285	7.68499
629.177	9.23888
632.07	10.6412
634.963	12.3562
637.856	14.1435
640.748	16.2963
643.641	18.565
646.534	20.4158
649.426	21.9869
652.319	24.0106
655.212	24.6398
658.104	25.0816
660.997	24.5986
663.89	24.3215
666.783	22.6368
669.675	20.5471
672.568	19.1325
675.461	16.766
678.353	14.4197
681.246	12.54
684.139	11.0375
687.031	9.11487
689.924	7.55325
692.817	6.65924
695.71	5.53106
698.602	4.98614
701.495	3.30655
704.388	3.25829
707.28	2.40353
710.173	1.79707
713.066	1.36627
715.958	1.81888
718.851	0.472031
721.744	0.821104
724.636	0.294271
727.529	0.038877
730.422	0.24147
733.315	0.109793
736.207	0.008976
739.1	0.088488
741.993	0.165958
744.885	0.032082
747.778	0.140135
750.671	0.292826
753.563	0.035053
756.456	0.014498
759.349	0.002086
762.242	0.126068
765.134	0.123853
768.027	0.584963
770.92	0.251023
773.812	0.466277
776.705	0.697137
779.598	1.06016
782.49	0.555619
785.383	1.16889
788.276	1.24589
791.169	1.32598
794.061	1.27554
796.954	1.08986
799.847	1.32904
802.739	1.34173
805.632	1.68014
808.525	1.6116
811.418	1.48787
814.31	1.24811
817.203	1.17107
820.096	1.5509
822.988	1.80411
825.881	1.8778
828.774	1.64652
831.666	1.7285
834.559	2.12394
837.452	1.89049
840.345	2.28964
843.237	1.76731
846.13	1.9563
849.023	1.64409
851.915	2.08003
854.808	2.06833
857.701	2.04481
860.593	1.93761
863.486	1.77282
866.379	1.72549
869.271	1.28291
872.164	1.55279
875.057	1.97811
877.95	1.35259
880.842	1.28252
883.735	1.30468
886.628	1.42077
889.52	0.774913
892.413	0.357849
895.306	0.696984
898.198	0.224337
901.091	0.769065
903.984	0.280049
906.877	0.428104
909.769	0.099041
912.662	0.406343
915.555	0.415187
918.447	0.137248
921.34	0.230478
924.233	0.301734
927.125	0.179583
930.018	0.408484
932.911	0.051102
935.804	0.121087
938.696	0.165188
941.589	0.235303
944.482	0.00767
947.374	0.162053
950.267	0.071743
953.16	0.326297
956.053	0.400555
958.945	0.360175
961.838	0.65959
964.731	0.302172
967.623	0.256924
970.516	0.458134
973.409	0.123393
976.301	0.35583
979.194	0.360836
982.087	0.190501
984.98	0.199122
987.872	0.521296
990.765	0.332785
993.658	0.318938
996.55	0.448586
999.443	0.360865
1002.34	0.225797
1005.23	0.156923
1008.12	0.108312
1011.01	0.070951
1013.91	0.727404
1016.8	0.463588
1019.69	0.016109
1022.59	0.469893
1025.48	0.029592
1028.37	0.491724
1031.26	0.254606
1034.15	0.508924
1037.05	0.36613
1039.94	0.369922
1042.83	0.414636
1045.73	0.666814
1048.62	0.709736
1051.51	0.66807
1054.4	0.09456
1057.3	0.586392
1060.19	0.24086
1063.08	0.576966
1065.97	0.890492
1068.87	0.222301
1071.76	0.338603
1074.65	0.304001
1077.55	0.234773
1080.44	0.028787
1083.33	0.368833
1086.22	0.067534
1089.12	0.704912
1092.01	0.256779
1094.9	0.078445
1097.8	0.207685
1100.69	0.412567
1103.58	0.220192
1106.47	0.108253
1109.37	0.080976
1112.26	0.065243
1115.15	0.053833
1118.04	0.298869
1120.94	0.43671
1123.83	0.118299
1126.72	0.264777
1129.62	0.281768
1132.51	0.386468
1135.4	0.050023
1138.29	0.059064
1141.18	0.077188
1144.08	0.30168
1146.97	0.302187
1149.86	0.33968
1152.76	0.190315
1155.65	0.36031
1158.54	0.036594
1161.43	0.392238
1164.33	0.005492
1167.22	0.653584
1170.11	0.056917
1173.01	0.184972
1175.9	0.657423
1178.79	0.361502
1181.68	0.345021
1184.58	0.572906
1187.47	0.302621
1190.36	0.529977
1193.25	0.314443
1196.15	0.022191
1199.04	0.253395
1201.93	0.261689
1204.83	0.150387
1207.72	0.517816
1210.61	0.252626
1213.5	0.424002
1216.4	0.289317
1219.29	0.000341
1222.18	0.036363
1225.07	0.473185
1227.97	0.35995
1230.86	0.445205
1233.75	0.127473
1236.64	0.255763
1239.54	0.445422
1242.43	0.323418
1245.32	0.233905
1248.21	0.194413
1251.11	0.178664
1254	0.213004
1256.89	0.066452
1259.79	0.807438
1262.68	0.672374
1265.57	0.504496
1268.46	0.368339
1271.36	0.470394
1274.25	0.377664
1277.14	0.688418
1280.04	0.455001
1282.93	0.164909
1285.82	0.005003
