Measurement: Raman, 785 nm, unoriented, Raman Data Processed
Mineral: Makatite
Rruff sample: R050594
Ideal chemistry: Na_2_Si_4_O_8_(OH)_2_4H_2_O
Locality: Aris phonolite, Windhoek District, Windhoek, Namibia
Source: Marcus Origlieri
Description: White fibrous mass
Raman shift (cm-1)	intensity
120.274	0
123.648	17.94
127.023	136.155
130.398	89.991
133.773	114.822
137.148	10.196
140.523	83.419
143.897	244.492
147.272	225.873
150.647	279.983
154.022	171.058
157.397	137.097
160.771	231.175
164.146	79.826
167.521	123.044
170.896	69.82
174.271	93.927
177.645	85.838
181.02	126.79
184.395	78.832
187.77	162.096
191.145	333.751
194.52	297.727
197.894	390.591
201.269	495.08
204.644	583.051
208.019	584.734
211.394	642.364
214.768	615.664
218.143	506.226
221.518	478.986
224.893	344.677
228.268	197.858
231.643	179.226
235.017	88.703
238.392	73.761
241.767	66.302
245.142	26.167
248.517	63.238
251.891	26.312
255.266	7.169
258.641	49.592
262.016	152.345
265.391	127.617
268.766	179.451
272.14	236.834
275.515	251.123
278.89	284.573
282.265	304.395
285.64	342.012
289.014	351.006
292.389	437.791
295.764	379.242
299.139	303.575
302.514	349.373
305.889	358.873
309.263	339.96
312.638	360.348
316.013	315.438
319.388	218.058
322.763	331.384
326.138	235.667
329.512	239.777
332.887	280.968
336.262	352.397
339.637	362.175
343.012	381.553
346.386	329.319
349.761	292.95
353.136	263.389
356.511	183.606
359.886	230.624
363.26	21.685
366.635	62.859
370.01	26.295
373.385	7.339
376.76	24.698
380.135	2.912
383.509	12.684
386.884	31.189
390.259	65.739
393.634	212.711
397.009	281.996
400.384	347.083
403.758	452.363
407.133	388.395
410.508	362.967
413.883	276.376
417.258	231.78
420.632	117.448
424.007	59.695
427.382	79.627
430.757	75.382
434.132	30.575
437.506	41.577
440.881	47.381
444.256	77.66
447.631	150.869
451.006	96.437
454.38	34.839
457.755	70.826
461.13	13.189
464.505	3.682
467.88	33.364
471.255	11.082
474.629	17.945
478.004	6.055
481.379	70.62
484.754	22.363
488.129	25.429
491.504	1.809
494.878	51.844
498.253	106.39
501.628	129.294
505.003	228.778
508.378	283.817
511.752	300.458
515.127	323.906
518.502	341.213
521.877	212.94
525.252	195.54
528.627	125.845
532.001	168.024
535.376	200.693
538.751	84.781
542.126	230.642
545.501	311.237
548.875	542.106
552.25	727.456
555.625	1078.27
559	1409.88
562.375	1723.9
565.75	1993.58
569.124	2112.85
572.499	2006.85
575.874	1661.62
579.249	1403.16
582.624	805.712
585.998	667.168
589.373	417.686
592.748	297.879
596.123	287.8
599.498	306.613
602.872	338.421
606.247	315.815
609.622	269.964
612.997	242.447
616.372	167.283
619.747	133.925
623.121	104.275
626.496	70.712
629.871	38.981
633.246	20.163
636.621	29.101
639.995	32.422
643.37	43.748
646.745	43.01
650.12	133.573
653.495	98.674
656.87	93.217
660.244	106.117
663.619	111.602
666.994	141.552
670.369	155.577
673.744	116.169
677.119	198.699
680.493	185.246
683.868	312.78
687.243	329.756
690.618	495.885
693.993	570.988
697.367	640.47
700.742	748.744
704.117	755.816
707.492	617.781
710.867	483.031
714.242	265.331
717.616	176.177
720.991	7.784
724.366	17.287
727.741	85.631
731.115	27.181
734.49	75.829
737.865	101.4
741.24	115.536
744.615	146.29
747.99	182.499
751.364	189.47
754.739	66.87
758.114	102.921
761.489	44.216
764.864	41.079
768.239	5.833
771.613	32.136
774.988	90.464
778.363	141.302
781.738	153.543
785.113	192.788
788.487	118.108
791.862	124.722
795.237	86.646
798.612	82.608
801.987	101.8
805.362	79.658
808.736	89.904
812.111	90.886
815.486	106.035
818.861	9.382
822.236	11.024
825.61	6.276
828.985	6.597
832.36	36.698
835.735	27.656
839.11	44.708
842.485	55.312
845.859	37.61
849.234	31.144
852.609	42.29
855.984	89.023
859.359	173.431
862.734	307.378
866.108	387.664
869.483	492.809
872.858	823.796
876.233	904.414
879.607	1100.4
882.982	1237.46
886.357	1487.5
889.732	1633.43
893.107	1788.55
896.482	1835.15
899.856	1768.02
903.231	1701.49
906.606	1586.73
909.981	1467.7
913.356	1355.6
916.731	1297.34
920.105	1137
923.48	1046.65
926.855	920.045
930.23	851.903
933.605	749.777
936.979	635.261
940.354	628.704
943.729	583.579
947.104	549.882
950.479	382.074
953.854	309.322
957.228	234.507
960.603	147.492
963.978	98.897
967.353	59.598
970.728	44.888
974.102	10.563
977.477	16.022
980.852	24.932
984.227	59.899
987.602	136.149
990.977	255.273
994.351	357.437
997.726	452.151
1001.1	505.739
1004.48	397.33
1007.85	290.783
1011.23	91.964
1014.6	89.007
1017.98	76.012
1021.35	21.416
1024.72	20.659
1028.1	49.774
1031.47	10.615
1034.85	9.588
1038.22	34.992
1041.6	67.547
1044.97	44.766
1048.35	49.173
1051.72	26.039
1055.1	37.893
1058.47	87.394
1061.85	187.365
1065.22	227.268
1068.6	291.628
1071.97	328.939
1075.35	403.701
1078.72	404.292
1082.1	466.865
1085.47	555.994
1088.85	490.822
1092.22	501.124
1095.6	462.599
1098.97	386.89
1102.35	346.51
1105.72	293.125
1109.1	204.18
1112.47	286.364
1115.85	271.899
1119.22	272.929
1122.59	321.452
1125.97	369.223
1129.34	445.745
1132.72	516.499
1136.09	561.245
1139.47	597.498
1142.84	635.373
1146.22	425.334
1149.59	415.9
1152.97	212.87
1156.34	120.206
1159.72	92.278
1163.09	31.455
1166.47	11.502
1169.84	31.568
1173.22	34.169
1176.59	32.344
1179.97	90.852
1183.34	27.317
1186.72	24.13
1190.09	27.439
1193.47	58.568
1196.84	34.468
1200.21	47.765
1203.59	83.94
1206.96	65.885
1210.34	35.823
1213.71	81.626
1217.09	17.103
1220.46	3.053
1223.84	92.12
1227.21	99.861
1230.59	39.206
1233.96	55.109
1237.34	55.622
1240.71	68.148
1244.09	68.272
1247.46	56.701
1250.84	3.736
1254.21	64.679
1257.59	68.715
1260.96	58.648
1264.34	107.865
1267.71	47.979
1271.09	45.704
1274.46	98.616
1277.84	97.225
1281.21	26.359
1284.59	4.214
1287.96	43.197
1291.34	6.114
1294.71	80.194
