Measurement: Raman, 532 nm, unoriented, Raman Data Processed
Mineral: Malachite
Rruff sample: R050531
Ideal chemistry: Cu_2_CO_3_(OH)_2_
Locality: Tsumeb mine, Tsumeb, Otavi District, Oshikoto, Namibia
Source: University of Arizona Mineral Museum
Description: Spherical aggregates of green radiating acicular crystals associated with olivenite and bayldonite
Measured chemistry: (Cu_1.95_Zn_0.05_)_Î£=2_(CO_3_)(OH)_2_ ; C not measured but estimated by stoichiometry
Raman shift (cm-1)	intensity
112.328	0
115.703	20.469
119.077	91.204
122.452	27.338
125.827	187.98
129.202	627.7
132.577	1051.38
135.952	1437.32
139.326	2313.33
142.701	3497.2
146.076	3941.13
149.451	4468.72
152.826	4760.4
156.201	4098.74
159.575	3273.79
162.95	3658.39
166.325	4627.6
169.7	5014.06
173.075	4961.1
176.449	5250.08
179.824	4883.97
183.199	3174.74
186.574	1696.25
189.949	894.544
193.324	580.545
196.698	551.612
200.073	707.474
203.448	862.092
206.823	1122.28
210.198	1477.43
213.572	1777.84
216.947	2032.74
220.322	1964.51
223.697	1516.31
227.072	793.101
230.447	264.294
233.821	43.45
237.196	102.067
240.571	53.24
243.946	148.523
247.321	380.922
250.695	799.173
254.07	1234.18
257.445	1694.74
260.82	2178.39
264.195	2495.99
267.569	2590.39
270.944	2186.03
274.319	1550.42
277.694	1020.52
281.069	653.042
284.444	413.556
287.818	287.927
291.193	168.475
294.568	73.587
297.943	45.763
301.318	48.526
304.693	15.565
308.067	0.021
311.442	2.096
314.817	29.279
318.192	74.498
321.567	113.95
324.941	228.991
328.316	367.378
331.691	468.86
335.066	641.736
338.441	829.687
341.815	1027.76
345.19	1244.15
348.565	1318.93
351.94	1240.72
355.315	1071.27
358.69	842.145
362.064	530.571
365.439	349.572
368.814	207.744
372.189	141.162
375.564	88.378
378.939	6.896
382.313	0.087
385.688	31.768
389.063	16.473
392.438	82.985
395.813	112.956
399.187	128.108
402.562	227.108
405.937	328.4
409.312	550.347
412.687	888.7
416.061	1326.2
419.436	1970.38
422.811	2721.29
426.186	3527.18
429.561	3941.6
432.936	3616.4
436.31	2576.25
439.685	1615.91
443.06	971.576
446.435	625.609
449.81	329.743
453.185	197.67
456.559	62.289
459.934	47.721
463.309	5.96
466.684	32.201
470.059	29.228
473.433	15.929
476.808	8.108
480.183	82.079
483.558	110.645
486.933	168.286
490.307	230.904
493.682	250.393
497.057	290.26
500.432	415.85
503.807	544.345
507.182	629.448
510.556	711.899
513.931	735.468
517.306	816.047
520.681	938.068
524.056	1140.85
527.43	1418.2
530.805	1579.77
534.18	1480.29
537.555	1197.08
540.93	862.085
544.305	607.29
547.679	439.604
551.054	338.061
554.429	249.408
557.804	252.287
561.179	224.701
564.554	224.632
567.928	178.465
571.303	143.484
574.678	112.499
578.053	37.741
581.428	102.774
584.802	153.268
588.177	132.969
591.552	236.617
594.927	221.212
598.302	190.55
601.677	116.107
605.051	64.665
608.426	7.938
611.801	5.285
615.176	26.492
618.551	12.118
621.925	12.008
625.3	16.074
628.675	36.073
632.05	32.208
635.425	2.318
638.799	15.997
642.174	22.963
645.549	22.782
648.924	46.736
652.299	17.636
655.674	67.562
659.048	36.208
662.423	34.877
665.798	26.997
669.173	32.275
672.548	56.712
675.922	40.04
679.297	9.232
682.672	12.896
686.047	0.073
689.422	36.818
692.797	39.978
696.171	111.008
699.546	108.168
702.921	142.099
706.296	220.433
709.671	314.005
713.045	425.183
716.42	607.979
719.795	592.589
723.17	422.588
726.545	247.855
729.92	196.891
733.294	179
736.669	157.145
740.044	228.091
743.419	308.36
746.794	425.256
750.169	511.565
753.543	397.533
756.918	275.022
760.293	219.59
763.668	181.139
767.043	122.719
770.417	137.228
773.792	109.152
777.167	77.341
780.542	83.709
783.917	30.06
787.292	43.334
790.666	64.167
794.041	7.014
797.416	38.7
800.791	49.435
804.166	5.155
807.54	24.417
810.915	11.88
814.29	46.385
817.665	96.781
821.04	49.557
824.414	4.965
827.789	25.663
831.164	36.539
834.539	50.588
837.914	29.607
841.289	6.229
844.664	28.844
848.038	67.25
851.413	48.453
854.788	38.63
858.163	44.616
861.537	40.097
864.912	47.023
868.287	51.255
871.662	45.462
875.037	41.84
878.412	42.046
881.786	60.895
885.161	15.489
888.536	20.092
891.911	28.988
895.286	50.526
898.661	66.564
902.035	44.663
905.41	36.517
908.785	5.294
912.16	41.028
915.535	17.151
918.909	7.629
922.284	10.068
925.659	10.082
929.034	22.318
932.409	19.728
935.784	6.793
939.158	46.84
942.533	41.48
945.908	29.646
949.283	10.949
952.658	17.119
956.032	5.589
959.407	26.357
962.782	9.958
966.157	24.682
969.532	4.712
972.906	6.245
976.281	2.292
979.656	19.238
983.031	32.472
986.406	33.744
989.781	14.564
993.156	4.887
996.53	4.251
999.905	4.12
1003.28	9.33
1006.65	2.253
1010.03	40.608
1013.4	42.162
1016.78	22.736
1020.15	30.533
1023.53	82.786
1026.9	122.176
1030.28	171.006
1033.65	191.32
1037.03	273.97
1040.4	364.863
1043.78	483.6
1047.15	625.122
1050.53	802.306
1053.9	988.312
1057.28	1042.43
1060.65	1019.95
1064.03	988.483
1067.4	875.849
1070.78	840.985
1074.15	825.925
1077.53	845.793
1080.9	886.389
1084.28	916.661
1087.65	1045.25
1091.03	1104.74
1094.4	1127.24
1097.78	1069.64
1101.15	858.841
1104.52	620.679
1107.9	411.765
1111.27	277.701
1114.65	159.161
1118.02	100.032
1121.4	54.685
1124.77	30.829
1128.15	20.311
1131.52	35.885
1134.9	19.615
1138.27	31.781
1141.65	17.279
1145.02	0.932
1148.4	3.285
1151.77	29.556
1155.15	11.471
1158.52	28.981
1161.9	19.429
1165.27	32.28
1168.65	17.005
1172.02	14.825
1175.4	1.157
1178.77	21.248
1182.14	39.103
1185.52	57.634
1188.89	8.471
1192.27	56.031
1195.64	32.77
1199.02	3.567
1202.39	33.423
1205.77	32.505
1209.14	36.591
1212.52	37.197
1215.89	50.202
1219.27	31.62
1222.64	57.03
1226.02	17.89
1229.39	53.176
1232.77	48.688
1236.14	72.221
1239.52	65.127
1242.89	52.988
1246.27	54.418
1249.64	47.972
1253.02	62.305
1256.39	52.4
1259.77	45.366
1263.14	55.684
1266.52	3.24
1269.89	15.832
1273.27	34.149
1276.64	50.793
1280.02	70.738
1283.39	81.392
1286.77	3.257
1290.14	9.696
1293.51	50.603
1296.89	14.19
1300.26	3.503
