Measurement: Raman, 785 nm, unoriented, Raman Data Processed
Mineral: Malayaite
Rruff sample: R061106
Ideal chemistry: CaSnO(SiO_4_)
Locality: Meldon, Dartmoor, Devon, England
Source: Michael Scott
Description: Dark yellow massive associated with wollastonite and garnet
Measured chemistry: Ca_1.00_Sn_1.00_O(Si_1.00_O_4_)
Raman shift (cm-1)	intensity
127.415	0
130.308	172.484
133.2	963.902
136.093	1358.93
138.986	183.02
141.878	255.775
144.771	883.888
147.664	1155.64
150.556	1171.29
153.449	1106.18
156.342	1055.46
159.234	1223.11
162.127	1811.68
165.02	2759.89
167.913	4183.53
170.805	5888.76
173.698	6832.83
176.591	5458.31
179.483	4151.78
182.376	3477.13
185.269	2419.47
188.161	1334.06
191.054	719.775
193.947	431.622
196.84	270.872
199.732	197.354
202.625	139.195
205.518	112.488
208.41	65.4867
211.303	64.9387
214.196	113.657
217.088	197.802
219.981	362.047
222.874	416.271
225.767	211.357
228.659	24.0933
231.552	15.9713
234.445	5.86743
237.337	21.1034
240.23	47.7207
243.123	26.4783
246.015	38.7062
248.908	22.5516
251.801	29.6179
254.694	21.3621
257.586	19.5247
260.479	22.5151
263.372	7.23047
266.264	23.1354
269.157	33.3897
272.05	65.599
274.942	113.758
277.835	220.692
280.728	344.742
283.62	584.933
286.513	887.662
289.406	1356.47
292.299	1509.36
295.191	1505.16
298.084	1343.27
300.977	1467.86
303.869	1679.53
306.762	2082.11
309.655	3059.57
312.548	5270.5
315.44	9454.27
318.333	15740.3
321.226	22344.7
324.118	22047.6
327.011	14062.3
329.904	7856.13
332.796	4696.76
335.689	3070.93
338.582	2323.88
341.474	1893.03
344.367	1632.48
347.26	1620.21
350.153	1985.57
353.045	3151.61
355.938	5852.57
358.831	10234.7
361.723	15693.9
364.616	14158.8
367.509	6055.59
370.401	2543.83
373.294	1329.63
376.187	760.747
379.08	456.613
381.972	309.672
384.865	188.686
387.758	94.8558
390.65	46.2563
393.543	12.9458
396.436	22.8363
399.329	23.9801
402.221	14.0172
405.114	29.5817
408.007	3.86438
410.899	35.704
413.792	24.4044
416.685	47.0317
419.577	70.5889
422.47	98.1837
425.363	157.263
428.255	316.178
431.148	509.031
434.041	960.141
436.934	1679.19
439.826	2669.69
442.719	3294.93
445.612	2654.11
448.504	1605.93
451.397	901.117
454.29	553.152
457.183	367.581
460.075	197.602
462.968	136.335
465.861	92.3451
468.753	30.2388
471.646	13.0153
474.539	2.86548
477.431	18.0537
480.324	18.5338
483.217	24.2645
486.109	10.8899
489.002	13.6654
491.895	51.9395
494.788	98.725
497.68	226.802
500.573	463.542
503.466	886.584
506.358	1506.19
509.251	2212.06
512.144	2539.52
515.036	1914.98
517.929	1155.56
520.822	693.047
523.715	442.9
526.607	353.513
529.5	299.172
532.393	283.627
535.285	329.985
538.178	385.264
541.071	415.158
543.963	460.998
546.856	530.918
549.749	670.654
552.641	889.541
555.534	1225.48
558.427	1912.12
561.32	3672.17
564.212	7683.29
567.105	14535.5
569.998	24903.7
572.89	25799.6
575.783	11169.3
578.676	4570.37
581.568	2419.22
584.461	1482.09
587.354	1000.86
590.247	687.618
593.139	487.344
596.032	343.921
598.925	298.822
601.817	191.06
604.71	147.957
607.603	90.7549
610.495	76.557
613.388	46.0936
616.281	52.4353
619.174	41.2435
622.066	16.6446
624.959	10.4648
627.852	7.93237
630.744	11.3672
633.637	6.85144
636.53	29.1693
639.423	2.96692
642.315	2.86108
645.208	8.76892
648.101	8.54822
650.993	14.9134
653.886	18.6079
656.779	37.2218
659.671	6.31763
662.564	12.2515
665.457	57.6735
668.35	38.6929
671.242	54.9875
674.135	30.9891
677.028	42.3694
679.92	57.804
682.813	47.8366
685.706	54.9646
688.598	55.636
691.491	49.0043
694.384	63.3838
697.277	59.4724
700.169	76.3726
703.062	42.3136
705.955	64.3779
708.847	97.6175
711.74	148.545
714.633	173.319
717.525	119.171
720.418	58.7374
723.311	42.421
726.203	33.5292
729.096	48.7915
731.989	73.7407
734.881	116.131
737.774	179.791
740.667	241.424
743.56	112.919
746.452	74.3467
749.345	31.6022
752.238	39.0489
755.13	20.2712
758.023	23.3009
760.916	37.4547
763.808	22.1849
766.701	12.6672
769.594	2.85486
772.487	21.4355
775.379	21.6903
778.272	36.3075
781.165	6.84766
784.057	22.1145
786.95	17.1572
789.843	10.0289
792.736	13.9805
795.628	14.9927
798.521	1.85773
801.414	9.07422
804.306	10.5309
807.199	3.72418
810.092	4.63495
812.984	40.8327
815.877	44.2668
818.77	38.4455
821.663	37.3945
824.555	70.1289
827.448	88.5413
830.341	102.654
833.233	168.252
836.126	215.041
839.019	337.241
841.911	480.88
844.804	710.698
847.697	1012.02
850.59	1190.19
853.482	1203.74
856.375	1003.77
859.268	843.148
862.16	755.135
865.053	807.028
867.946	933.967
870.838	903.133
873.731	681.611
876.624	451.862
879.516	357.574
882.409	392.054
885.302	532.636
888.195	745.049
891.087	853.39
893.98	705.6
896.873	416.002
899.765	257.933
902.658	152.996
905.551	106.006
908.443	53.3881
911.336	27.4434
914.229	23.3558
917.122	5.80695
920.014	7.5777
922.907	6.96429
925.8	6.88019
928.692	7.29919
931.585	2.32696
934.478	26.9522
937.37	38.6086
940.263	57.3682
943.156	63.4634
946.049	99.3453
948.941	156.325
951.834	262.345
954.727	444.457
957.619	715.662
960.512	936.945
963.405	981.794
966.298	783.329
969.19	576.222
972.083	499.967
974.976	439.254
977.868	377.126
980.761	342.667
983.654	334.713
986.546	322.871
989.439	272.465
992.332	218.387
995.225	193.983
998.117	153.819
1001.01	128.898
1003.9	106.131
1006.79	78.0066
1009.69	50.4727
1012.58	30.2956
1015.47	45.0442
1018.37	17.6531
1021.26	25.9955
1024.15	7.26978
1027.04	8.96515
1029.94	35.3672
1032.83	10.4114
1035.72	32.2541
1038.62	20.5709
1041.51	9.00684
1044.4	23.0806
1047.29	5.47241
1050.19	7.25891
1053.08	6.30847
1055.97	13.453
1058.86	15.8616
1061.76	17.7428
1064.65	35.1727
1067.54	13.4953
1070.43	11.2982
1073.33	24.8817
1076.22	11.7822
1079.11	1.58325
1082.01	15.4011
1084.9	23.6098
1087.79	7.92853
1090.68	16.375
1093.58	4.1441
1096.47	3.50617
1099.36	3.47034
1102.25	27.3588
1105.15	21.0514
1108.04	49.3403
1110.93	58.7654
1113.83	57.6025
1116.72	75.343
1119.61	84.1381
1122.5	84.5804
1125.4	50.2015
1128.29	66.4499
1131.18	70.1839
1134.07	52.2764
1136.97	60.4529
1139.86	37.9993
1142.75	49.1433
1145.64	40.5451
1148.54	23.7034
1151.43	32.595
1154.32	19.6984
1157.22	6.13965
1160.11	15.7297
1163	9.46765
1165.89	3.30096
1168.79	19.5757
1171.68	0.537903
1174.57	5.836
1177.46	15.2606
1180.36	23.9645
1183.25	54.1667
1186.14	75.2604
1189.04	41.6201
1191.93	72.5614
1194.82	97.3513
1197.71	83.0851
1200.61	79.0961
1203.5	81.551
1206.39	85.9456
1209.28	94.3856
1212.18	84.5565
1215.07	91.7653
1217.96	109.929
1220.86	124.212
1223.75	125.626
1226.64	183.374
1229.53	190.785
1232.43	217.286
1235.32	223.596
1238.21	259.581
1241.1	198.238
1244	178.026
1246.89	132.64
1249.78	96.9054
1252.67	121.174
1255.57	69.8356
1258.46	30.8807
1261.35	18.2302
1264.24	12.275
