Measurement: Raman, 532 nm, unoriented, Raman Data Processed
Mineral: Malayaite
Rruff sample: R080024
Ideal chemistry: CaSnO(SiO_4_)
Locality: Ash Mountain, McDame, British Columbia, Canada
Source: Mark N. Feinglos, M.D.; William P. Pinch
Description: Tan colored tabular crystals with a subconchoidal  fracture on a broken surface.
Measured chemistry: Ca_1.01_(Sn_1.01_Ti_0.01_)Si_0.98_O_5_; = bright part. (Ca_1.01_Fe_0.01_)(Sn_0.96_Ti_0.05_)Si_0.98_O_5_ = dark part
Raman shift (cm-1)	intensity
126.672	0
130.047	245.771
133.422	1045.75
136.797	2068.78
140.172	243.779
143.546	11.3696
146.921	13.1621
150.296	90.5325
153.671	249.326
157.046	464.86
160.421	696.099
163.795	1041.68
167.17	1506.74
170.545	2143.48
173.92	2661.75
177.294	2179.28
180.669	1710.89
184.044	1423.95
187.419	751.877
190.794	319.155
194.169	141.727
197.543	62.1638
200.918	23.7092
204.293	0.077393
207.668	21.6036
211.043	26.7795
214.417	52.7378
217.792	93.8142
221.167	237.424
224.542	227.274
227.917	54.562
231.292	5.61169
234.666	1.03174
238.041	11.0559
241.416	16.6312
244.791	15.3071
248.166	18.2224
251.541	12.1273
254.915	6.78711
258.29	10.5498
261.665	7.83862
265.04	5.3739
268.415	31.4342
271.789	75.3723
275.164	162.113
278.539	271.855
281.914	403.23
285.289	604.121
288.663	938.767
292.038	1298.47
295.413	1350.57
298.788	1304.38
302.163	1702.93
305.538	2487.17
308.912	3404.82
312.287	4671.92
315.662	6613.07
319.037	9747.16
322.412	12877.2
325.786	10732.8
329.161	5851.52
332.536	3139.4
335.911	1928.83
339.286	1421.75
342.661	1225.69
346.035	1254.37
349.41	1412.56
352.785	1647.97
356.16	2139.57
359.535	3172.81
362.909	4558.38
366.284	3356.83
369.659	1219.9
373.034	525.701
376.409	291.729
379.784	193.018
383.158	117.451
386.533	66.4819
389.908	16.5283
393.283	1.80456
396.658	9.38342
400.032	18.1985
403.407	16.7482
406.782	18.061
410.157	15.0372
413.532	10.0054
416.906	13.4431
420.281	58.5552
423.656	121.207
427.031	237.606
430.406	369.348
433.781	579.717
437.155	857.168
440.53	1128.02
443.905	1162.4
447.28	893.044
450.655	562.539
454.029	354.493
457.404	201.145
460.779	140.46
464.154	97.282
467.529	49.9734
470.904	6.37573
474.278	21.4329
477.653	17.3047
481.028	3.90686
484.403	53.7924
487.778	122.807
491.152	243.291
494.527	438.187
497.902	707.677
501.277	1046.43
504.652	1479.52
508.026	1985.29
511.401	2336.77
514.776	1973.23
518.151	1140.21
521.526	591.461
524.901	331.898
528.275	207.475
531.65	158.509
535.025	155.717
538.4	193.993
541.775	232.417
545.149	279.268
548.524	423.888
551.899	797.388
555.274	1781.26
558.649	3181.99
562.024	4734.12
565.398	7413.89
568.773	12459.1
572.148	17153.2
575.523	9928.22
578.898	3436.7
582.273	1548.42
585.647	851.824
589.022	512.85
592.397	315.148
595.772	193.919
599.146	105.68
602.521	57.5516
605.896	23.99
609.271	1.83081
612.646	4.33044
616.021	15.219
619.395	7.26794
622.77	3.23108
626.145	4.28406
629.52	5.91284
632.895	5.3313
636.269	0.974365
639.644	6.63293
643.019	2.97986
646.394	5.15918
649.769	0.821167
653.144	2.55908
656.518	3.7467
659.893	6.50867
663.268	8.9613
666.643	15.24
670.018	15.9008
673.393	11.1808
676.767	23.2612
680.142	35.4762
683.517	26.9106
686.892	27.0513
690.267	45.548
693.641	52.3212
697.016	54.7738
700.391	64.0113
703.766	77.2764
707.141	85.2745
710.515	95.6608
713.89	116.004
717.265	110.512
720.64	85.1881
724.015	76.5167
727.389	93.6621
730.764	124.91
734.139	160.55
737.514	227.355
740.889	295.426
744.264	249.685
747.638	173.167
751.013	140.785
754.388	119.206
757.763	98.5242
761.138	82.7648
764.513	70.4357
767.887	57.8887
771.262	44.2249
774.637	29.2895
778.012	22.9468
781.387	26.3745
784.761	13.3923
788.136	9.16052
791.511	3.76001
794.886	3.94543
798.261	5.93042
801.635	7.47742
805.01	0.296509
808.385	0.109253
811.76	13.3945
815.135	14.0443
818.51	20.4324
821.884	42.4753
825.259	79.0422
828.634	115.452
832.009	187.816
835.384	294.377
838.759	453.042
842.133	658.111
845.508	908.566
848.883	1204.69
852.258	1349.68
855.633	1227.39
859.007	993.418
862.382	837.512
865.757	814.069
869.132	848.101
872.507	759.619
875.881	553.783
879.256	424.113
882.631	410.061
886.006	505.117
889.381	648.849
892.756	709.156
896.13	523.793
899.505	308.462
902.88	173.269
906.255	93.8487
909.63	51.2311
913.005	21.5444
916.379	7.06689
919.754	1.87964
923.129	0.876709
926.504	2.03613
929.879	1.13037
933.253	9.23364
936.628	27.0205
940.003	33.9247
943.378	50.223
946.753	105.482
950.127	172.153
953.502	267.772
956.877	388.836
960.252	543.941
963.627	585.996
967.001	411.457
970.376	233.226
973.751	133.678
977.126	90.5377
980.501	77.6221
983.875	78.6741
987.25	59.9998
990.625	62.0761
994	45.1443
997.375	36.3201
1000.75	20.0486
1004.12	11.2572
1007.5	2.18933
1010.87	4.75769
1014.25	5.03418
1017.62	8.69275
1021	0.933472
1024.37	3.91065
1027.75	3.45007
1031.12	6.92529
1034.5	5.62024
1037.87	3.89587
1041.25	4.59363
1044.62	13.8079
1048	21.3459
1051.37	29.1102
1054.75	37.66
1058.12	78.9523
1061.5	123.633
1064.87	202.843
1068.25	275.788
1071.62	369.76
1075	406.486
1078.37	315.135
1081.74	186.574
1085.12	100.942
1088.49	57.0521
1091.87	32.7231
1095.24	23.4683
1098.62	9.47156
1101.99	7.46912
1105.37	21.1551
1108.74	21.6057
1112.12	27.3315
1115.49	24.4226
1118.87	21.8591
1122.24	36.5066
1125.62	35.1581
1128.99	33.477
1132.37	27.5829
1135.74	23.0005
1139.12	18.4636
1142.49	8.48962
1145.87	18.8
1149.24	20.0514
1152.62	14.7672
1155.99	12.1654
1159.37	10.652
1162.74	9.59766
1166.12	6.91113
1169.49	9.11853
1172.87	0.19043
1176.24	9.82007
1179.62	0.530151
1182.99	9.55896
1186.37	0.621338
1189.74	1.74463
1193.11	4.3114
1196.49	5.04736
1199.86	2.62671
1203.24	4.54578
1206.61	4.07251
1209.99	0.307373
1213.36	6.88098
1216.74	7.3053
1220.11	10.093
1223.49	0.741821
1226.86	4.17969
1230.24	4.73206
1233.61	8.16235
1236.99	4.98425
1240.36	3.2644
1243.74	13.7831
1247.11	18.1665
1250.49	30.6478
1253.86	13.5657
1257.24	22.3727
1260.61	22.9629
1263.98	19.0276
1267.36	22.2605
1270.73	21.7938
1274.11	13.3363
1277.48	19.9974
1280.86	12.4271
1284.23	11.0422
1287.61	11.1608
1290.98	16.6925
1294.36	0.037476
1297.73	2.4176
1301.11	5.00574
1304.48	1.2334
