Measurement: Raman, 532 nm, unoriented, Raman Data Processed
Mineral: Malayaite
Rruff sample: R061106
Ideal chemistry: CaSnO(SiO_4_)
Locality: Meldon, Dartmoor, Devon, England
Source: Michael Scott
Description: Dark yellow massive associated with wollastonite and garnet
Measured chemistry: Ca_1.00_Sn_1.00_O(Si_1.00_O_4_)
Raman shift (cm-1)	intensity
124.94	0
128.314	435.224
131.689	1032.68
135.064	1950.44
138.439	558.077
141.814	184.403
145.189	242.262
148.563	324.049
151.938	412.626
155.313	533.533
158.688	747.106
162.063	1288.38
165.437	2288.14
168.812	3785.24
172.187	5549.03
175.562	5556.53
178.937	4652.11
182.311	4553.08
185.686	2896.63
189.061	1345.07
192.436	592.965
195.811	281.224
199.185	92.6516
202.56	44.6709
205.935	52.0996
209.31	38.8306
212.685	43.5185
216.06	115.297
219.434	342.067
222.809	511.372
226.184	208.167
229.559	42.2393
232.934	32.187
236.309	48.0789
239.683	5.4353
243.058	49.8132
246.433	8.36987
249.808	39.509
253.183	25.699
256.557	16.7883
259.932	35.9314
263.307	1.19092
266.682	35.2317
270.057	82.4468
273.431	138.488
276.806	210.879
280.181	425.116
283.556	744.962
286.931	1286.86
290.305	2143.57
293.68	2220.65
297.055	2048.72
300.43	2129.42
303.805	2537.61
307.18	2932.59
310.554	4806.19
313.929	8805.1
317.304	14684.2
320.679	22477.1
324.054	24200.1
327.428	14383.9
330.803	7328.79
334.178	4153.18
337.553	2709.89
340.928	2074.21
344.303	1762.89
347.677	1826.51
351.052	2534.87
354.427	4329.68
357.802	7195.06
361.177	11949.5
364.551	13502.4
367.926	5158.4
371.301	1970.93
374.676	923.519
378.051	549.847
381.425	324.276
384.8	222.108
388.175	126.819
391.55	91.0088
394.925	8.80908
398.3	23.0278
401.674	67.6143
405.049	50.7612
408.424	5.10547
411.799	17.3701
415.174	41.9399
418.548	29.2607
421.923	85.9971
425.298	160.896
428.673	307.053
432.048	504.318
435.423	980.217
438.797	1649.13
442.172	2412.74
445.547	2133.38
448.922	1138.05
452.297	612.588
455.671	354.593
459.046	186.213
462.421	70.3247
465.796	7.23389
469.171	36.415
472.546	41.5659
475.92	83.1709
479.295	32.1401
482.67	6.50293
486.045	9.4375
489.42	136.385
492.794	240.969
496.169	570.743
499.544	1188.67
502.919	2149.12
506.294	3611.01
509.668	5571.9
513.043	6302.05
516.418	4180.24
519.793	2164.14
523.168	1217.48
526.543	801.954
529.917	530.106
533.292	429.699
536.667	435.017
540.042	559.76
543.417	546.718
546.791	698.734
550.166	955.678
553.541	1554.25
556.916	2965.68
560.291	5794.24
563.665	10325
567.04	18210.7
570.415	32404.3
573.79	32276.5
577.165	11208.3
580.54	4424.98
583.914	2311.45
587.289	1446.42
590.664	949.987
594.039	641.738
597.414	411.772
600.788	307.57
604.163	178.216
607.538	109.634
610.913	139.827
614.288	61.2144
617.663	15.3565
621.037	52.5659
624.412	123.157
627.787	124.182
631.162	83.4502
634.537	4.3042
637.911	51.7393
641.286	43.9111
644.661	10.6929
648.036	26.4341
651.411	35.4634
654.785	15.0664
658.16	21.5225
661.535	63.9663
664.91	143.084
668.285	99.2407
671.659	124.497
675.034	45.2407
678.409	102.644
681.784	94.4561
685.159	156.13
688.534	136.932
691.908	158.136
695.283	190.27
698.658	208.955
702.033	284.274
705.408	317.229
708.783	407.718
712.157	496.398
715.532	565.44
718.907	358.805
722.282	192.56
725.657	145.814
729.031	207.236
732.406	327.246
735.781	421.795
739.156	625.649
742.531	627.418
745.905	393.374
749.28	359.325
752.655	282.031
756.03	292.932
759.405	248.691
762.779	211.014
766.154	211.397
769.529	212.881
772.904	166.715
776.279	103.517
779.654	111.607
783.028	95.9268
786.403	107.718
789.778	91.4214
793.153	33.8433
796.528	61.1997
799.903	16.4409
803.277	7.28027
806.652	14.6641
810.027	28.1143
813.402	11.1782
816.777	23.0557
820.151	177.691
823.526	298.712
826.901	281.707
830.276	323.396
833.651	447.374
837.025	534.529
840.4	714.965
843.775	934.872
847.15	1287.97
850.525	1503.08
853.899	1563.16
857.274	1362.77
860.649	1271.4
864.024	1301.52
867.399	1540.68
870.774	1689.76
874.148	1202.61
877.523	800.829
880.898	606.621
884.273	612.286
887.648	771.477
891.023	875.8
894.397	761.476
897.772	434.359
901.147	221.202
904.522	172.13
907.896	78.0918
911.271	5.29541
914.646	24.6475
918.021	22.4307
921.396	15.8872
924.771	15.4868
928.145	58.273
931.52	67.0381
934.895	104.882
938.27	144.675
941.645	200.543
945.019	290.263
948.394	368.168
951.769	645.602
955.144	1016.43
958.519	1719.78
961.894	2166.09
965.268	1739.81
968.643	964.831
972.018	513.792
975.393	318.252
978.768	254.765
982.143	187.944
985.517	121.63
988.892	167.475
992.267	78.25
995.642	54.9263
999.016	19.5776
1002.39	13.8447
1005.77	22.0542
1009.14	35.6616
1012.52	128.823
1015.89	29.7061
1019.26	28.9224
1022.64	36.54
1026.02	81.5205
1029.39	53.7466
1032.77	41.6938
1036.14	19.6064
1039.51	45.5894
1042.89	90.6733
1046.26	82.1743
1049.64	113.933
1053.01	30.6846
1056.39	38.6523
1059.76	105.649
1063.14	30.2227
1066.51	18.8784
1069.89	62.001
1073.26	110.17
1076.64	104.636
1080.01	77.1875
1083.39	24.6846
1086.76	16.7197
1090.14	46.3091
1093.51	38.186
1096.89	55.8159
1100.26	47.9766
1103.64	96.8115
1107.01	81.3701
1110.38	116.068
1113.76	97.6489
1117.13	143.712
1120.51	126.421
1123.88	137.574
1127.26	157.071
1130.63	148.619
1134.01	91.7769
1137.38	161.501
1140.76	151.159
1144.13	88.7271
1147.51	107.199
1150.88	46.669
1154.26	50.9058
1157.63	73.9785
1161.01	42.2437
1164.38	55.7671
1167.76	21.6929
1171.13	44.5239
1174.51	47.6294
1177.88	29.499
1181.26	82.2598
1184.63	71.7344
1188.01	136.444
1191.38	61.1377
1194.76	65.0342
1198.13	17.085
1201.51	64.8833
1204.88	87.9902
1208.26	9.72949
1211.63	33.6187
1215.01	87.6631
1218.38	11.4404
1221.75	63.6636
1225.13	82.5024
1228.5	165.008
1231.88	9.44775
1235.25	58.6284
1238.63	13.0391
1242	74.1899
1245.38	53.4321
1248.75	49.1011
1252.13	41.0855
1255.5	80.3975
1258.88	0.961426
1262.25	15.7275
1265.63	29.5415
1269	60.5029
1272.38	99.6201
1275.75	99.8433
1279.13	89.7905
1282.5	85.5161
1285.88	18.4668
1289.25	48.2002
