Measurement: Raman, 532 nm, unoriented, Raman Data Processed
Mineral: Malayaite
Rruff sample: R061131
Ideal chemistry: CaSnO(SiO_4_)
Locality: Humpolec, Czech Republic
Source: Michael Scott
Description: Pale tan colored grains disseminated through the rock
Measured chemistry: (Ca_1.01_Fe_0.01_)(Sn_0.99_Ti_0.01_)Si_0.99_O_5_
Raman shift (cm-1)	intensity
139.092	0
142.467	14.6627
145.842	5.00281
149.217	47.6482
152.591	109.781
155.966	207.781
159.341	251.24
162.716	385.967
166.091	580.371
169.466	775.267
172.84	910.425
176.215	965.125
179.59	959.423
182.965	1032.15
186.34	1094.53
189.714	1270.66
193.089	1560.57
196.464	1837.54
199.839	2118.97
203.214	2208.87
206.589	2119.49
209.963	1848.71
213.338	1523.03
216.713	1205.39
220.088	905.47
223.463	763.835
226.838	549.638
230.212	419.411
233.587	368.132
236.962	312.511
240.337	218.275
243.712	199.336
247.086	144.745
250.461	150.609
253.836	98.1323
257.211	207.732
260.586	284.195
263.961	321.494
267.335	89.0713
270.71	46.363
274.085	53.8413
277.46	29.977
280.835	6.95019
284.209	107.335
287.584	208.749
290.959	267.013
294.334	343.834
297.709	366.5
301.084	389.608
304.458	484.196
307.833	855.317
311.208	1353.43
314.583	1957.5
317.958	2835.57
321.332	3556.43
324.707	3411.84
328.082	2310.7
331.457	1343.51
334.832	846.697
338.207	658.443
341.581	608.555
344.956	563.573
348.331	705.213
351.706	990.271
355.081	1315.94
358.455	1379.39
361.83	1586.9
365.205	1772.38
368.58	1173.19
371.955	558.329
375.329	212.124
378.704	107.097
382.079	14.3957
385.454	17.9695
388.829	77.1501
392.204	125.138
395.578	106.911
398.953	54.1204
402.328	39.217
405.703	48.5081
409.078	39.6023
412.452	8.78174
415.827	91.5137
419.202	113.358
422.577	217.947
425.952	322.861
429.327	414.73
432.701	508.557
436.076	603.153
439.451	675.5
442.826	838.678
446.201	1116.09
449.575	1769.56
452.95	2925.92
456.325	4852.03
459.7	7385.3
463.075	9548.03
466.45	8028.84
469.824	4096.24
473.199	2187.38
476.574	1343.14
479.949	916.434
483.324	645.417
486.698	520.152
490.073	458.937
493.448	456.717
496.823	405.836
500.198	382.937
503.572	378.824
506.947	383.65
510.322	321.651
513.697	234.937
517.072	106.48
520.447	44.0056
523.821	17.2918
527.196	27.0007
530.571	25.4575
533.946	5.85693
537.321	45.6338
540.696	47.645
544.07	38.7461
547.445	42.502
550.82	90.1987
554.195	222.77
557.57	505.533
560.944	1177.26
564.319	2108.79
567.694	3188.44
571.069	4227.38
574.444	3617.89
577.818	1702.95
581.193	722.943
584.568	334.138
587.943	171.317
591.318	78.5576
594.693	9.96948
598.067	45.7742
601.442	25.9319
604.817	37.5769
608.192	41.4085
611.567	85.9937
614.942	117.798
618.316	135.932
621.691	229.936
625.066	268.23
628.441	382.146
631.816	442.04
635.19	409.75
638.565	269.208
641.94	184.609
645.315	155.957
648.69	151.2
652.064	127.442
655.439	124.439
658.814	75.6553
662.189	71.4524
665.564	76.1592
668.939	33.7263
672.313	18.4915
675.688	30.6787
679.063	7.94311
682.438	9.89941
685.813	101.57
689.188	87.1641
692.562	123.998
695.937	132.223
699.312	66.1025
702.687	48.0244
706.062	1.29517
709.436	14.2891
712.811	3.58252
716.186	6.67993
719.561	19.6782
722.936	55.2927
726.311	15.502
729.685	67.6643
733.06	161.547
736.435	193.373
739.81	250.113
743.185	233.412
746.559	226.16
749.934	153.285
753.309	108.888
756.684	96.4277
760.059	129.939
763.433	95.5349
766.808	103.26
770.183	101.873
773.558	99.2617
776.933	61.6924
780.308	22.3599
783.682	99.3164
787.057	102.969
790.432	134.046
793.807	123.711
797.182	145.167
800.557	151.554
803.931	149.55
807.306	182.331
810.681	58.374
814.056	41.5537
817.431	6.68677
820.805	8.32251
824.18	3.39551
827.555	2.25562
830.93	57.1377
834.305	133.058
837.679	207.499
841.054	367.617
844.429	412.799
847.804	575.561
851.179	653.205
854.553	635.874
857.928	610.128
861.303	548.134
864.678	544.571
868.053	505.883
871.428	439.658
874.802	417.889
878.177	312.845
881.552	265.617
884.927	264.981
888.302	364.547
891.677	366.577
895.051	324.252
898.426	281.979
901.801	226.543
905.176	146.765
908.551	142.045
911.925	56.9934
915.3	22.2676
918.675	24.834
922.05	11.782
925.425	4.70386
928.799	41.8567
932.174	33.0117
935.549	33.1951
938.924	56.5947
942.299	96.0962
945.674	135.477
949.048	152.027
952.423	212.691
955.798	268.777
959.173	321.976
962.548	376.719
965.923	349.94
969.297	301.336
972.672	256.928
976.047	205.647
979.422	201.34
982.797	160.498
986.171	220.405
989.546	219.74
992.921	230.692
996.296	247.727
999.671	180.261
1003.05	141.707
1006.42	159.319
1009.79	158.039
1013.17	118.067
1016.54	67.1458
1019.92	50.6948
1023.29	35.8477
1026.67	17.6714
1030.04	19.196
1033.42	11.6265
1036.79	20.5466
1040.17	35.9565
1043.54	72.8491
1046.92	21.4243
1050.29	28.0232
1053.67	38.0347
1057.04	64.2808
1060.42	61.0156
1063.79	110.331
1067.17	150.091
1070.54	115.628
1073.92	108.209
1077.29	134.804
1080.67	179.514
1084.04	144.204
1087.42	162.291
1090.79	30.3672
1094.17	53.6987
1097.54	35.5352
1100.91	51.5513
1104.29	43.4976
1107.66	59.7793
1111.04	4.68994
1114.41	95.3071
1117.79	57.001
1121.16	32.4033
1124.54	28.166
1127.91	67.6294
1131.29	112.637
1134.66	2.87988
1138.04	22.8164
1141.41	22.9082
1144.79	73.5962
1148.16	123.99
1151.54	55.7842
1154.91	86.2783
1158.29	283.149
1161.66	326.604
1165.04	239.845
1168.41	138.619
1171.79	131.688
1175.16	86.6162
1178.54	108.605
1181.91	62.0273
1185.29	43.1079
1188.66	41.9233
1192.04	1.7251
1195.41	58.1148
1198.79	48.2554
1202.16	33.6172
1205.54	81.0396
1208.91	6.01807
1212.28	33.6968
1215.66	52.2656
1219.03	27.1494
1222.41	81.7983
1225.78	96.0371
1229.16	65.9614
1232.53	98.1636
1235.91	49.2192
1239.28	72.2275
1242.66	43.4336
1246.03	10.2246
1249.41	48.5942
1252.78	21.98
1256.16	0.56543
1259.53	13.0034
1262.91	26.1948
1266.28	44.4028
1269.66	41.1445
1273.03	19.2441
1276.41	8.41406
1279.78	35.293
1283.15	51.6773
1286.53	37.2593
1289.9	41.2251
1293.28	64.9668
1296.65	1.77148
1300.03	12.0566
1303.4	26.1421
1306.78	43.9487
1310.15	67.8047
1313.53	17.8896
1316.9	0
