Measurement: Raman, 785 nm, unoriented, Raman Data Processed
Mineral: Malayaite
Rruff sample: R061131
Ideal chemistry: CaSnO(SiO_4_)
Locality: Humpolec, Czech Republic
Source: Michael Scott
Description: Pale tan colored grains disseminated through the rock
Measured chemistry: (Ca_1.01_Fe_0.01_)(Sn_0.99_Ti_0.01_)Si_0.99_O_5_
Raman shift (cm-1)	intensity
115.043	0
117.935	19.2368
120.828	1.10472
123.721	7.07165
126.613	103.421
129.506	160.794
132.399	154.871
135.291	84.3904
138.184	66.3146
141.077	112.058
143.97	253.146
146.862	326.038
149.755	390.509
152.648	367.948
155.54	371.882
158.433	349.768
161.326	446.521
164.218	511.947
167.111	615.285
170.004	696.092
172.897	723.163
175.789	706.389
178.682	666.601
181.575	571.902
184.467	605.001
187.36	651.524
190.253	647.645
193.145	639.964
196.038	677.613
198.931	701.163
201.823	726.332
204.716	687.336
207.609	707.032
210.501	624.849
213.394	529.093
216.287	444.722
219.18	357.654
222.072	337.387
224.965	327.872
227.858	301.818
230.75	235.86
233.643	178.454
236.536	171.513
239.429	127.249
242.321	77.4105
245.214	54.8539
248.107	15.4568
250.999	27.0771
253.892	57.7252
256.785	7.44983
259.677	55.2745
262.57	76.5404
265.463	12.3187
268.356	10.1864
271.248	19.6263
274.141	34.4683
277.034	5.79468
279.926	64.2141
282.819	95.0109
285.712	143.544
288.604	222.839
291.497	275.294
294.39	309.335
297.283	316.892
300.175	284.666
303.068	349.946
305.961	436.656
308.853	599.578
311.746	865.032
314.639	1171.36
317.531	1511.03
320.424	1869.49
323.317	2022.21
326.209	1696.27
329.102	1126.1
331.995	706.537
334.888	471.825
337.78	362.934
340.673	312.685
343.566	295.57
346.458	267.724
349.351	328.683
352.244	347.516
355.137	435.603
358.029	450.004
360.922	517.692
363.815	637.225
366.707	643.936
369.6	437.321
372.493	240.175
375.385	133.11
378.278	52.8081
381.171	53.6565
384.063	31.101
386.956	28.946
389.849	33.8673
392.742	31.4595
395.634	19.635
398.527	1.61023
401.42	30.4918
404.312	42.0005
407.205	11.9222
410.098	39.2252
412.99	102.706
415.883	119.125
418.776	187.376
421.669	229.191
424.561	274.894
427.454	320.429
430.347	395.997
433.239	470.106
436.132	462.517
439.025	502.322
441.918	469.51
444.81	494.252
447.703	602.706
450.596	751.04
453.488	933.51
456.381	1226.31
459.274	1614.3
462.166	2135.03
465.059	2142.52
467.952	1457.28
470.844	855.674
473.737	563.52
476.63	424.797
479.523	314.582
482.415	248.351
485.308	228.741
488.201	217.644
491.093	209.608
493.986	209.091
496.879	184.181
499.772	160.888
502.664	168.669
505.557	156.154
508.45	108.855
511.342	94.783
514.235	59.1461
517.128	59.6061
520.02	3.34546
522.913	12.9885
525.806	2.20203
528.698	3.4054
531.591	4.82764
534.484	16.6382
537.377	15.2562
540.269	18.5763
543.162	88.8815
546.055	76.064
548.947	145.654
551.84	150.143
554.733	228.886
557.625	370.039
560.518	603.67
563.411	930.424
566.303	1340.87
569.196	1808.93
572.089	2130.18
574.982	1721.02
577.874	906.269
580.767	458.344
583.66	262.214
586.552	142.812
589.445	84.079
592.338	51.8948
595.231	20.7927
598.123	9.80151
601.016	65.6206
603.909	7.31104
606.801	13.1282
609.694	30.6914
612.587	14.5688
615.479	8.1499
618.372	65.5424
621.265	101.702
624.158	123.946
627.05	137.602
629.943	246.336
632.836	234.848
635.728	180.938
638.621	120.202
641.514	72.6612
644.406	28.479
647.299	24.2389
650.192	6.94104
653.085	12.4825
655.977	6.96887
658.87	15.9436
661.763	9.32385
664.655	20.8683
667.548	30.4271
670.441	19.7609
673.333	16.4491
676.226	8.30322
679.119	34.0154
682.011	13.1027
684.904	47.2588
687.797	22.9969
690.69	23.2305
693.582	56.7832
696.475	65.6466
699.368	46.8041
702.26	28.8113
705.153	26.949
708.046	30.7289
710.938	41.4559
713.831	13.9672
716.724	7.98767
719.617	9.78394
722.509	11.9232
725.402	14.6412
728.295	24.7379
731.187	46.4681
734.08	30.9667
736.973	58.5421
739.865	89.9568
742.758	109.578
745.651	78.6303
748.544	118.654
751.436	71.313
754.329	78.0931
757.222	57.0514
760.114	54.3794
763.007	12.2344
765.9	31.7731
768.793	43.0405
771.685	39.895
774.578	55.0684
777.471	34.4164
780.363	65.994
783.256	55.4934
786.149	44.4933
789.041	67.0646
791.934	70.4327
794.827	75.4614
797.72	54.0437
800.612	35.0714
803.505	30.7535
806.398	36.1182
809.29	0.448242
812.183	13.6041
815.076	13.9457
817.968	2.20032
820.861	2.87769
823.754	14.509
826.646	18.908
829.539	34.9097
832.432	29.9293
835.325	54.3735
838.217	121.305
841.11	131.99
844.003	134.843
846.895	217.4
849.788	264.559
852.681	244.971
855.573	238.034
858.466	229.587
861.359	242.888
864.252	242.551
867.144	233.318
870.037	244.734
872.93	223.862
875.822	187.451
878.715	172.268
881.608	149.78
884.5	184.963
887.393	200.032
890.286	226.622
893.179	223.491
896.071	222.158
898.964	162.828
901.857	106.497
904.749	91.7588
907.642	64.0076
910.535	71.1143
913.428	40.041
916.32	16.4398
919.213	18.4187
922.106	20.0933
924.998	31.5804
927.891	17.6958
930.784	14.1855
933.676	8.45605
936.569	12.9855
939.462	8.11902
942.355	15.9187
945.247	27.8029
948.14	23.5071
951.033	26.9719
953.925	43.3127
956.818	116.846
959.711	155.315
962.603	174.829
965.496	210.62
968.389	223.307
971.281	236.04
974.174	249.918
977.067	218.434
979.96	237.288
982.852	233.217
985.745	222.401
988.638	227.68
991.53	215.054
994.423	204.684
997.316	191.71
1000.21	157.849
1003.1	170.316
1005.99	171.237
1008.89	163.96
1011.78	183.999
1014.67	134.631
1017.57	114.415
1020.46	129.403
1023.35	107.547
1026.24	122.016
1029.13	87.1478
1032.03	109.44
1034.92	115.181
1037.81	102.074
1040.71	92.0902
1043.6	96.3252
1046.49	107.538
1049.38	88.9054
1052.28	76.0312
1055.17	42.8258
1058.06	85.9162
1060.95	119.259
1063.85	95.6185
1066.74	36.9882
1069.63	32.2351
1072.53	15.449
1075.42	41.4322
1078.31	86.5045
1081.2	60.7574
1084.1	29.0472
1086.99	13.9398
1089.88	23.5841
1092.78	22.8832
1095.67	77.7548
1098.56	108.349
1101.45	90.392
1104.35	84.2395
1107.24	116.627
1110.13	97.5851
1113.02	103.906
1115.92	67.9069
1118.81	106.271
1121.7	88.7684
1124.59	125.949
1127.49	139.594
1130.38	146.32
1133.27	122.579
1136.16	127.885
1139.06	110.236
1141.95	142.324
1144.84	113.839
1147.74	78.2236
1150.63	108.188
1153.52	76.1148
1156.41	88.7286
1159.31	106.64
1162.2	76.6735
1165.09	72.9452
1167.98	40.3893
1170.88	50.4522
1173.77	53.934
1176.66	52.8676
1179.56	50.5292
1182.45	67.3907
1185.34	65.1865
1188.23	70.1992
1191.13	64.2632
1194.02	43.286
1196.91	38.1421
1199.81	30.0175
1202.7	23.9285
1205.59	12.4556
1208.48	15.5475
1211.38	10.2967
1214.27	17.9587
1217.16	30.913
1220.05	46.6863
1222.95	33.2696
1225.84	9.86487
1228.73	12.1434
1231.62	27.7085
1234.52	0
