Measurement: Raman, 532 nm, unoriented, Raman Data Processed
Mineral: Malachite
Rruff sample: R050508
Ideal chemistry: Cu_2_CO_3_(OH)_2_
Locality: Kambova, Kantanga, Zaire
Source: University of Arizona Mineral Museum
Description: Green short bladed crystals
Measured chemistry: Cu_2.00_(CO_3_)(OH)_2_
Raman shift (cm-1)	intensity
135.363	0
138.737	46.904
142.112	274.195
145.487	211.178
148.862	107.641
152.237	219.554
155.612	174.067
158.986	93.9105
162.361	148.75
165.736	303.553
169.111	441.106
172.486	419.645
175.86	537.649
179.235	652.887
182.61	420.229
185.985	133.774
189.36	18.0792
192.734	17.93
196.109	19.7393
199.484	2.52461
202.859	34.0808
206.234	82.8698
209.608	127.567
212.983	177.269
216.358	238.176
219.733	306.358
223.108	300.886
226.483	175.172
229.857	79.626
233.232	37.5446
236.607	28.1242
239.982	39.3539
243.357	67.6005
246.732	110.744
250.106	170.045
253.481	250.949
256.856	350.245
260.231	434.87
263.606	518.586
266.98	637.336
270.355	610.905
273.73	391.251
277.105	219.376
280.48	131.682
283.854	90.1898
287.229	55.1186
290.604	33.9505
293.979	24.2131
297.354	18.0997
300.729	7.64731
304.103	1.26804
307.478	3.93858
310.853	4.06037
314.228	1.36826
317.603	4.09122
320.978	11.6608
324.352	23.176
327.727	37.412
331.102	54.8319
334.477	73.2984
337.852	94.6197
341.226	112.249
344.601	136.439
347.976	161.54
351.351	167.571
354.726	138.37
358.1	93.2676
361.475	57.7251
364.85	34.6674
368.225	18.6771
371.6	9.3908
374.974	2.86861
378.349	0.732498
381.724	1.79907
385.099	1.18778
388.474	0.509735
391.849	0.973
395.223	4.43888
398.598	8.05073
401.973	17.3571
405.348	32.7091
408.723	60.2987
412.098	108.397
415.472	190.415
418.847	295.568
422.222	420.779
425.597	576.236
428.972	734.011
432.346	758.845
435.721	535.204
439.096	287.221
442.471	155.963
445.846	92.1835
449.221	54.238
452.595	30.6175
455.97	18.0172
459.345	8.418
462.72	1.54822
466.095	2.34827
469.469	4.71168
472.844	1.99731
476.219	2.33466
479.594	7.46534
482.969	16.1618
486.344	26.7719
489.718	26.6669
493.093	21.4166
496.468	19.0059
499.843	23.9596
503.218	32.5223
506.592	43.7158
509.967	54.2339
513.342	54.9776
516.717	65.9647
520.092	101.668
523.466	155.009
526.841	230.771
530.216	316.213
533.591	372.097
536.966	318.647
540.341	207.999
543.715	128.779
547.09	80.2831
550.465	56.9402
553.84	48.1245
557.215	52.0957
560.59	62.9755
563.964	79.1244
567.339	71.7357
570.714	42.8267
574.089	21.2391
577.464	13.0313
580.838	13.3111
584.213	20.2646
587.588	29.0976
590.963	41.5942
594.338	52.2697
597.712	56.7852
601.087	39.1262
604.462	19.7766
607.837	7.71076
611.212	2.93262
614.587	0.176224
617.961	1.57684
621.336	1.65956
624.711	1.46696
628.086	0.665798
631.461	0.769295
634.835	0.310745
638.21	0.102116
641.585	1.33636
644.96	1.51754
648.335	2.09455
651.71	2.35621
655.084	3.85452
658.459	3.85243
661.834	4.65035
665.209	5.59576
668.584	6.30312
671.958	5.98019
675.333	6.33173
678.708	5.37647
682.083	5.50312
685.458	4.4153
688.832	3.15923
692.207	2.95068
695.582	2.25966
698.957	3.641
702.332	6.22987
705.707	9.61267
709.081	12.738
712.456	19.111
715.831	28.9831
719.206	33.2056
722.581	19.682
725.955	9.51095
729.33	6.45108
732.705	6.02923
736.08	7.74651
739.455	11.6128
742.83	16.9294
746.204	26.0302
749.579	30.9216
752.954	18.1535
756.329	8.1586
759.704	7.24293
763.078	6.72616
766.453	7.7088
769.828	8.86301
773.203	9.6198
776.578	7.71915
779.952	4.65585
783.327	2.79754
786.702	1.39002
790.077	0.17977
793.452	0.154263
796.827	0.294607
800.201	0.56427
803.576	0.152588
806.951	1.12311
810.326	1.54632
813.701	3.83496
817.076	10.1246
820.45	1.98587
823.825	0.339708
827.2	0.151587
830.575	0.420691
833.95	0.124846
837.324	0.560465
840.699	1.12542
844.074	1.71036
847.449	2.35031
850.824	2.51567
854.198	4.33726
857.573	4.38927
860.948	4.64093
864.323	4.62284
867.698	5.02796
871.073	4.54099
874.447	4.73945
877.822	4.59836
881.197	3.34778
884.572	3.70934
887.947	3.1717
891.322	1.87552
894.696	0.89953
898.071	1.42112
901.446	1.74077
904.821	1.09707
908.196	0.412804
911.57	0.976534
914.945	0.946327
918.32	0.077936
921.695	0.683767
925.07	0.237131
928.444	0.706997
931.819	0.886829
935.194	0.736626
938.569	1.03923
941.944	1.25199
945.318	0.823412
948.693	0.755028
952.068	0.319464
955.443	0.37858
958.818	0.339111
962.193	0.222923
965.567	0.465635
968.942	1.43552
972.317	0.551855
975.692	0.015747
979.067	0.028912
982.442	0.047693
985.816	0.189444
989.191	0.669325
992.566	0.398792
995.941	0.718845
999.316	0.577023
1002.69	0.026857
1006.07	0.008877
1009.44	0.633108
1012.82	0.593542
1016.19	1.85912
1019.57	3.0664
1022.94	4.41153
1026.31	7.33532
1029.69	10.5352
1033.06	14.4092
1036.44	20.024
1039.81	29.7306
1043.19	47.102
1046.56	69.2306
1049.94	99.5699
1053.31	136.21
1056.69	160.766
1060.06	158.772
1063.44	149.41
1066.81	141.895
1070.19	138.81
1073.56	133.876
1076.94	130.742
1080.31	131.478
1083.69	133.796
1087.06	148.179
1090.44	162.716
1093.81	180.089
1097.18	182.421
1100.56	160.959
1103.93	115.378
1107.31	71.0162
1110.68	44.5428
1114.06	26.0757
1117.43	16.5952
1120.81	10.6501
1124.18	6.6668
1127.56	3.75056
1130.93	2.29636
1134.31	0.938997
1137.68	0.626249
1141.06	0.11775
1144.43	0.156378
1147.81	0.411259
1151.18	0.207191
1154.56	0.437355
1157.93	0.566122
1161.31	0.312074
1164.68	0.568428
1168.06	0.37932
1171.43	0.045139
1174.81	0.305026
1178.18	0.676656
1181.56	0.794447
1184.93	0.914586
1188.31	1.03093
1191.68	0.51862
1195.06	1.40116
1198.43	1.76197
1201.81	1.55376
1205.18	2.3452
1208.55	2.12053
1211.93	2.22007
1215.3	1.96896
1218.68	1.65857
1222.05	1.87014
1225.43	1.7649
1228.8	1.50791
1232.18	1.9917
1235.55	1.38873
1238.93	1.81671
1242.3	1.84028
1245.68	1.80369
1249.05	1.20184
1252.43	2.06386
1255.8	1.56019
1259.18	1.00276
1262.55	1.21192
1265.93	0.85925
1269.3	0.506104
1272.68	1.04353
1276.05	0.570888
1279.42	0.576986
1282.8	0.414197
1286.17	0.561607
1289.55	0.589668
1292.92	0.979294
1296.3	0.353262
1299.67	0.508997
1303.05	0.000819
