Measurement: Raman, 532 nm, unoriented, Raman Data Processed
Mineral: Mammothite
Rruff sample: R130100
Ideal chemistry: Pb_6_Cu_4_AlSb^5+^O_2_(SO_4_)_2_Cl_4_(OH)_16_
Locality: Rowley mine, Maricopa Co., Arizona, USA
Source: Joe Ruiz
Description: Blue bladed crystals, associated with blue cubes of boleite R130099, irregular masses of blue diaboleite, colorless paralaurionite, colorless gypsum in massive cerussite
Raman shift (cm-1)	intensity
174.696	0
177.589	0.503828
180.482	0.449974
183.374	5.45025
186.267	9.74385
189.16	13.3057
192.053	18.9989
194.945	24.2994
197.838	29.8012
200.731	37.8932
203.623	44.5603
206.516	50.2712
209.409	48.1327
212.301	41.0403
215.194	36.3732
218.087	31.989
220.98	28.3592
223.872	28.5219
226.765	25.9123
229.658	22.6331
232.55	19.5703
235.443	17.1811
238.336	16.9496
241.228	14.7011
244.121	12.9312
247.014	12.0071
249.906	10.1946
252.799	8.94568
255.692	7.69308
258.585	5.95456
261.477	3.48788
264.37	1.05614
267.263	0.597992
270.155	0.361824
273.048	0.875561
275.941	1.2569
278.834	2.43685
281.726	5.12537
284.619	8.07656
287.512	11.4484
290.404	12.6609
293.297	12.652
296.19	11.947
299.082	14.0916
301.975	14.5744
304.868	20.0357
307.76	22.7173
310.653	23.0343
313.546	18.3205
316.439	11.9248
319.331	10.3294
322.224	11.0297
325.117	11.2307
328.009	10.2355
330.902	7.00738
333.795	3.61745
336.688	0.961658
339.58	0.352407
342.473	0.459339
345.366	0.524727
348.258	0.947067
351.151	0.088261
354.044	0.433233
356.936	0.083509
359.829	1.36055
362.722	1.48349
365.615	1.46986
368.507	2.1509
371.4	1.40005
374.293	1.98668
377.185	3.71529
380.078	5.45451
382.971	8.09371
385.863	11.5815
388.756	14.2092
391.649	17.8183
394.541	20.4443
397.434	21.9875
400.327	21.4596
403.22	16.7797
406.112	12.6158
409.005	7.80506
411.898	3.86247
414.79	2.13161
417.683	1.27547
420.576	1.01502
423.469	1.51988
426.361	6.0014
429.254	10.2689
432.147	10.5406
435.039	5.38096
437.932	5.33119
440.825	7.53155
443.717	10.6569
446.61	17.2497
449.503	22.1306
452.396	24.6279
455.288	18.6209
458.181	10.3887
461.074	5.92629
463.966	2.825
466.859	1.77
469.752	1.15409
472.644	0.218615
475.537	0.324726
478.43	0.14753
481.322	0.628614
484.215	1.61415
487.108	1.39549
490.001	2.08188
492.893	3.91662
495.786	3.04008
498.679	5.57045
501.571	5.57631
504.464	6.01515
507.357	6.41205
510.25	6.53012
513.142	8.06216
516.035	9.19897
518.928	11.8361
521.82	16.6197
524.713	22.1215
527.606	29.511
530.498	34.5407
533.391	37.93
536.284	34.0268
539.177	23.4646
542.069	15.6682
544.962	11.4085
547.855	9.08067
550.747	7.7118
553.64	5.77713
556.533	2.9913
559.425	1.72842
562.318	0.421349
565.211	0.077648
568.104	0.251209
570.996	0.284701
573.889	0.048794
576.782	0.229086
579.674	0.007975
582.567	0.543842
585.46	0.622879
588.352	1.73006
591.245	2.92716
594.138	5.89973
597.03	7.86107
599.923	9.28554
602.816	5.83449
605.709	3.87531
608.601	4.12254
611.494	4.97438
614.387	5.40942
617.279	5.35896
620.172	6.6996
623.065	7.76643
625.957	9.08258
628.85	11.802
631.743	16.165
634.636	21.4976
637.528	28.2963
640.421	34.7529
643.314	37.6134
646.206	33.3573
649.099	24.2756
651.992	15.8529
654.885	9.97916
657.777	7.104
660.67	4.95391
663.563	2.89781
666.455	1.34702
669.348	0.663132
672.241	0.188803
675.133	0.219196
678.026	0.152157
680.919	0.608803
683.812	0.028812
686.704	0.515806
689.597	0.520985
692.49	1.36901
695.382	1.77392
698.275	2.13172
701.168	2.28141
704.06	2.08227
706.953	1.4577
709.846	0.131718
712.739	0.732119
715.631	0.921038
718.524	0.253376
721.417	1.73568
724.309	1.59696
727.202	2.21437
730.095	2.1957
732.987	2.67024
735.88	2.03317
738.773	1.26907
741.665	1.04678
744.558	0.50415
747.451	0.560051
750.344	0.493167
753.236	0.212034
756.129	0.451299
759.022	0.031687
761.914	0.450617
764.807	0.480516
767.7	0.337576
770.592	0.333854
773.485	0.039336
776.378	1.14393
779.271	1.62336
782.163	1.63315
785.056	1.65546
787.949	1.96873
790.841	1.46686
793.734	1.4382
796.627	1.62442
799.519	0.846697
802.412	0.802754
805.305	1.18336
808.198	0.505337
811.09	1.64268
813.983	0.657238
816.876	0.749403
819.768	0.945081
822.661	0.790698
825.554	0.503123
828.447	0.357262
831.339	0.069161
834.232	0.016738
837.125	0.138499
840.017	0.463876
842.91	0.6747
845.803	0.902295
848.695	1.11909
851.588	0.701736
854.481	0.734979
857.374	0.604629
860.266	1.13821
863.159	0.973605
866.052	1.55185
868.944	1.69192
871.837	1.88364
874.73	2.04379
877.622	1.54504
880.515	1.7505
883.408	0.771621
886.301	0.63361
889.193	0.968276
892.086	0.59096
894.979	0.081678
897.871	0.734834
900.764	0.056624
903.657	0.731992
906.549	0.138067
909.442	0.600978
912.335	1.1509
915.227	2.58971
918.12	3.75602
921.013	7.14317
923.906	9.6393
926.798	13.7346
929.691	18.8485
932.584	23.2679
935.476	23.3134
938.369	16.7761
941.262	10.7924
944.154	7.02321
947.047	6.15727
949.94	5.12879
952.833	4.17577
955.725	4.04399
958.618	4.70638
961.511	4.51592
964.403	5.16231
967.296	6.5771
970.189	7.89118
973.082	8.40232
975.974	8.9571
978.867	10.6034
981.76	11.7923
984.652	13.2254
987.545	14.2994
990.438	14.5306
993.33	13.1462
996.223	11.2837
999.116	10.3735
1002.01	8.91381
1004.9	9.8377
1007.79	10.8498
1010.69	14.5692
1013.58	19.1102
1016.47	23.5058
1019.37	29.2728
1022.26	32.1739
1025.15	28.1507
1028.04	17.3261
1030.94	9.96332
1033.83	5.60558
1036.72	3.21252
1039.61	1.51657
1042.51	1.34829
1045.4	1.02149
1048.29	0.442122
1051.18	0.75224
1054.08	1.15022
1056.97	1.16339
1059.86	0.26802
1062.76	0.3192
1065.65	0.113959
1068.54	0.185449
1071.43	0.829
1074.33	0.297662
1077.22	0.011196
1080.11	0.36902
1083	0.345401
1085.9	0.731484
1088.79	0.770989
1091.68	1.34859
1094.58	1.49321
1097.47	1.94336
1100.36	1.75955
1103.25	2.20785
1106.15	2.75256
1109.04	3.05394
1111.93	4.27208
1114.82	4.50392
1117.72	5.55414
1120.61	6.89393
1123.5	8.07146
1126.39	10.3145
1129.29	12.5245
1132.18	13.726
1135.07	15.2292
1137.96	16.9155
1140.86	16.4391
1143.75	14.2468
1146.64	11.7043
1149.54	8.09833
1152.43	5.64134
1155.32	3.8378
1158.21	2.03831
1161.11	2.2216
1164	1.64589
1166.89	0.701666
1169.79	1.92673
1172.68	0.475978
1175.57	0.99645
1178.46	0.144045
1181.36	0.635272
1184.25	0.002572
1187.14	0.136505
1190.03	0.03542
1192.93	0.08269
1195.82	0.206555
1198.71	0.186859
1201.61	0.446113
1204.5	0.318126
1207.39	0.282832
1210.28	0.277052
1213.18	0.360429
1216.07	0.531916
1218.96	0.114883
1221.85	0.393126
1224.75	0.44151
1227.64	0.267242
1230.53	0.078375
1233.42	0.810505
1236.32	0.779512
1239.21	0.285216
1242.1	0.253402
1244.99	1.06194
1247.89	1.06504
1250.78	0.471334
1253.67	0.192386
1256.57	0.016885
1259.46	0.517589
1262.35	0.34198
1265.24	0.728661
1268.14	0.87381
1271.03	0.451947
1273.92	0.582289
1276.82	0.9307
1279.71	0.43594
1282.6	0.317317
1285.49	0.529826
1288.39	0.973978
1291.28	0.759643
1294.17	0.57074
1297.06	0.678066
1299.96	0.285314
