Measurement: Raman, 532 nm, unoriented, Raman Data Processed
Mineral: Manaksite
Rruff sample: R060693
Ideal chemistry: KNaMn^2+^Si_4_O_10_
Locality: Palitra pegmatite, Kedykverpakhk Mountain, Lovozero massif, Kola Peninsula, Russia
Source: Michael Scott
Description: Pale brown massive associated with grayish-green bario-olgite, R060614, purple ussingite and colorless serandite
Measured chemistry: (K_0.98_Na_0.02_)_Σ=1_Na_1.00_(Mn^2+^_0.78_Fe^2+^_0.21_Mg_0.01_)_Σ=1_Si_4.00_O_10_
Raman shift (cm-1)	intensity
149.484	0
152.377	41.938
155.27	144.21
158.163	360.971
161.055	801.273
163.948	1270.16
166.841	1474.97
169.733	1395.17
172.626	843.313
175.519	356.946
178.412	228.231
181.304	193.827
184.197	241.396
187.09	362.468
189.982	466.532
192.875	396.352
195.768	286.946
198.661	268.643
201.553	232.954
204.446	274.24
207.339	432.943
210.231	291.812
213.124	83.812
216.017	102.34
218.909	77.557
221.802	145.604
224.695	294.875
227.587	493.533
230.48	830.164
233.373	771.045
236.266	510.789
239.158	166.947
242.051	46.824
244.944	158.697
247.836	235.611
250.729	310.164
253.622	388.244
256.514	438.725
259.407	484.666
262.3	569.359
265.193	707.43
268.085	710.912
270.978	860.883
273.871	928.797
276.763	1029.78
279.656	1136.67
282.549	1235.81
285.441	1268.27
288.334	1417.26
291.227	796.219
294.12	412.756
297.012	89.939
299.905	138.918
302.798	85.217
305.69	3.686
308.583	24.574
311.476	13.688
314.369	27.377
317.261	41.305
320.154	144.764
323.047	320.381
325.939	426.695
328.832	523.734
331.725	255.352
334.617	193.834
337.51	74.143
340.403	76.643
343.296	160.178
346.188	346.596
349.081	488.197
351.974	455.951
354.866	443.086
357.759	377.9
360.652	397.584
363.544	580.846
366.437	938.529
369.33	1358.07
372.223	1469.92
375.115	1247.85
378.008	1147.17
380.901	1241.36
383.793	1281.08
386.686	1408.35
389.579	1072.23
392.471	615.629
395.364	249.744
398.257	35.125
401.15	10.262
404.042	40.137
406.935	177.68
409.828	438.762
412.72	728.928
415.613	1162.76
418.506	1583.17
421.398	1740.91
424.291	1582.38
427.184	1124.64
430.077	744.516
432.969	979.312
435.862	1209.57
438.755	1899.65
441.647	2718.65
444.54	2284.25
447.433	1154.54
450.326	607.59
453.218	447.141
456.111	456.705
459.004	472.42
461.896	252.889
464.789	18.678
467.682	76.143
470.574	55.18
473.467	78.912
476.36	0.881
479.253	38.393
482.145	39.82
485.038	234.131
487.931	442.48
490.823	399.125
493.716	538.832
496.609	794.52
499.501	1139.31
502.394	1649.67
505.287	2154.83
508.18	1734.8
511.072	1230.05
513.965	1025.85
516.858	1115.02
519.75	1252.7
522.643	905.205
525.536	589.596
528.429	208.072
531.321	58.967
534.214	62.109
537.107	41.258
539.999	5.281
542.892	19.285
545.785	44.83
548.677	58.58
551.57	273.707
554.463	333.383
557.356	261.344
560.248	63.949
563.141	105.096
566.034	283.209
568.926	424.418
571.819	501.092
574.712	652.104
577.604	1007.1
580.497	1533.03
583.39	2856.62
586.282	4614.23
589.175	7294.38
592.068	11517.2
594.961	17414.1
597.853	19673.5
600.746	12200.2
603.639	5816.05
606.531	3193.95
609.424	1896.81
612.317	1154.41
615.209	844.959
618.102	486.977
620.995	415.752
623.888	412.775
626.78	294.389
629.673	291.902
632.566	161.156
635.458	51.242
638.351	4.77
641.244	8.344
644.137	25.146
647.029	5.287
649.922	5.803
652.815	178.229
655.707	254.941
658.6	500.361
661.493	520.396
664.385	652.35
667.278	1202.21
670.171	1912.71
673.064	3092.77
675.956	4135.35
678.849	5838.48
681.742	5432.13
684.634	3165.53
687.527	1882.53
690.42	1346.9
693.312	1291.38
696.205	1422.05
699.098	1766.7
701.991	1906.54
704.883	1458.29
707.776	688.471
710.669	381.727
713.561	277.525
716.454	208.52
719.347	159.553
722.24	107.043
725.132	77.705
728.025	54.373
730.918	87.193
733.81	54.533
736.703	81.867
739.596	40.223
742.489	10.199
745.381	150.967
748.274	221.662
751.167	171.436
754.059	45.049
756.952	209.475
759.845	176.781
762.737	41.734
765.63	5.166
768.523	316.471
771.416	449.494
774.308	735.182
777.201	1136.09
780.094	1718.13
782.986	2171.18
785.879	1503.42
788.772	741.578
791.664	655.609
794.557	483.951
797.45	332.322
800.343	251.365
803.235	149.412
806.128	114.334
809.021	84.287
811.913	145.377
814.806	172.176
817.699	42.271
820.591	123.219
823.484	16.092
826.377	78.191
829.269	180.518
832.162	133.861
835.055	6.439
837.948	61.541
840.84	76.834
843.733	97.564
846.626	155.346
849.518	66.908
852.411	125.965
855.304	108.445
858.196	6.629
861.089	7.924
863.982	68.273
866.875	129.695
869.767	76.395
872.66	114.689
875.553	164.795
878.445	98.287
881.338	225.393
884.231	38.234
887.123	196.609
890.016	193.574
892.909	253.781
895.802	419.986
898.694	466.24
901.587	319.422
904.48	165.674
907.372	180.084
910.265	273.955
913.158	133.467
916.05	77.889
918.943	95.445
921.836	120.746
924.729	195.986
927.621	249.361
930.514	206.666
933.407	42.348
936.299	185.533
939.192	147.092
942.085	116.844
944.978	30.391
947.87	17.145
950.763	87.119
953.656	23.646
956.548	64.615
959.441	38.141
962.334	136.199
965.227	242.145
968.119	222.924
971.012	350.51
973.905	427.51
976.797	564.029
979.69	375.895
982.583	370.982
985.475	186.512
988.368	198.121
991.261	297.744
994.154	426.217
997.046	590.27
999.939	1005.27
1002.83	1191.01
1005.72	848.887
1008.62	804.469
1011.51	794.486
1014.4	1294.29
1017.29	1632.2
1020.19	1503.31
1023.08	682.047
1025.97	553.916
1028.87	637.328
1031.76	686.539
1034.65	736.883
1037.54	682.43
1040.44	448.879
1043.33	133.516
1046.22	84.07
1049.12	89.799
1052.01	62.533
1054.9	17.697
1057.79	237.848
1060.69	124.75
1063.58	67.494
1066.47	144.311
1069.36	118.627
1072.26	375.148
1075.15	425.986
1078.04	661.516
1080.93	666.025
1083.83	945.635
1086.72	1187.63
1089.61	1518.88
1092.51	2042.93
1095.4	3395.06
1098.29	5228.44
1101.18	8081.7
1104.08	12631.9
1106.97	19445.7
1109.86	21638.5
1112.75	13323.3
1115.65	6711.37
1118.54	4421.11
1121.43	3424.53
1124.33	2563.38
1127.22	1699.38
1130.11	1077.58
1133	880.418
1135.9	572.236
1138.79	236.783
1141.68	247.965
1144.57	136.971
1147.47	52.043
1150.36	15.4
1153.25	79.242
1156.14	98.568
1159.04	134.1
1161.93	53.844
1164.82	117.557
1167.72	6.182
1170.61	105.047
1173.5	1.475
1176.39	338.395
1179.29	254.549
1182.18	196.49
1185.07	331.508
1187.96	224.598
1190.86	203.223
1193.75	17.213
1196.64	9.064
1199.54	52.596
1202.43	55.301
1205.32	28.904
1208.21	120.76
1211.11	180.865
1214	221.24
1216.89	144.674
1219.78	58.373
1222.68	206.729
1225.57	102.998
1228.46	147.328
1231.36	232.014
1234.25	203.053
1237.14	243.992
1240.03	376.592
1242.93	332.08
1245.82	287.588
1248.71	328.553
1251.6	323.199
1254.5	89.793
1257.39	110.129
1260.28	164.893
1263.17	20.268
1266.07	33.719
1268.96	3.797
1271.85	50.945
1274.75	319.803
1277.64	283.838
1280.53	137.695
1283.42	209.447
1286.32	94.518
1289.21	216.875
1292.1	35.861
