Measurement: Raman, 780 nm, unoriented, Raman Data Processed
Mineral: Manaksite
Rruff sample: R060693
Ideal chemistry: KNaMn^2+^Si_4_O_10_
Locality: Palitra pegmatite, Kedykverpakhk Mountain, Lovozero massif, Kola Peninsula, Russia
Source: Michael Scott
Description: Pale brown massive associated with grayish-green bario-olgite, R060614, purple ussingite and colorless serandite
Measured chemistry: (K_0.98_Na_0.02_)_Σ=1_Na_1.00_(Mn^2+^_0.78_Fe^2+^_0.21_Mg_0.01_)_Σ=1_Si_4.00_O_10_
Raman shift (cm-1)	intensity
147.543	0.281872
150.436	2.22935
153.328	5.46415
156.221	11.1915
159.114	14.9243
162.006	22.2516
164.899	26.7283
167.792	28.0809
170.685	21.9687
173.577	9.39896
176.47	1.96593
179.363	0.219475
182.255	1.4339
185.148	0.057072
188.041	3.08993
190.933	5.41344
193.826	3.64415
196.719	3.70368
199.612	4.01157
202.504	4.00201
205.397	5.57974
208.29	9.00622
211.182	8.00415
214.075	6.25133
216.968	5.80423
219.86	7.46051
222.753	11.7472
225.646	20.0215
228.538	30.668
231.431	39.7402
234.324	30.3245
237.217	17.4503
240.109	8.72378
243.002	7.41848
245.895	9.6385
248.787	15.9269
251.68	22.4659
254.573	27.2413
257.466	23.144
260.358	20.3761
263.251	21.4769
266.144	23.0628
269.036	26.4077
271.929	28.3286
274.822	26.7174
277.714	22.0453
280.607	24.2225
283.5	25.9941
286.392	27.7151
289.285	22.2402
292.178	12.3967
295.071	4.99536
297.963	1.49048
300.856	0.954071
303.749	1.74595
306.641	1.52364
309.534	0.619434
312.427	0.163311
315.32	2.71013
318.212	4.84909
321.105	8.59841
323.998	10.9735
326.89	14.1536
329.783	13.7829
332.676	9.06115
335.568	5.01463
338.461	3.55632
341.354	3.57093
344.247	5.23028
347.139	8.03058
350.032	8.86475
352.925	9.59218
355.817	8.92881
358.71	9.73178
361.603	13.0029
364.495	18.7439
367.388	29.0855
370.281	37.0303
373.173	36.7809
376.066	30.3107
378.959	29.5113
381.852	36.048
384.744	41.4554
387.637	38.9914
390.53	25.2157
393.422	11.0194
396.315	3.91332
399.208	0.411201
402.101	0.545071
404.993	2.41651
407.886	6.48324
410.779	11.6017
413.671	19.1835
416.564	26.5244
419.457	31.4556
422.349	33.4115
425.242	28.9374
428.135	20.0705
431.027	16.2069
433.92	17.7743
436.813	24.1081
439.706	37.5837
442.598	47.1831
445.491	32.8606
448.384	14.2617
451.276	6.95483
454.169	4.82421
457.062	6.44138
459.954	4.40947
462.847	1.56303
465.74	0.318813
468.633	1.19963
471.525	1.09775
474.418	0.251431
477.311	0.595112
480.203	1.91906
483.096	4.6735
485.989	8.54915
488.882	14.6619
491.774	18.8545
494.667	23.0218
497.56	31.4934
500.452	43.6386
503.345	61.5249
506.238	68.2244
509.13	47.181
512.023	31.3303
514.916	25.5947
517.808	26.5084
520.701	23.7766
523.594	15.5792
526.487	7.71931
529.379	3.56265
532.272	1.31992
535.165	0.247866
538.057	0.049412
540.95	0.057762
543.843	0.056326
546.736	0.538319
549.628	0.387663
552.521	0.333868
555.414	1.44124
558.306	1.88542
561.199	2.9358
564.092	4.35902
566.984	6.47697
569.877	10.0179
572.77	14.9453
575.663	25.1508
578.555	42.8869
581.448	71.8912
584.341	102.065
587.233	140.316
590.126	202.083
593.019	302.753
595.911	434.592
598.804	421.93
601.697	240.096
604.59	115.261
607.482	61.2938
610.375	36.7694
613.268	23.221
616.16	15.5413
619.053	9.72332
621.946	7.06285
624.838	4.29714
627.731	2.87943
630.624	1.53205
633.516	0.836094
636.409	0.139156
639.302	0.165319
642.195	0.236523
645.087	0.001642
647.98	0.244312
650.873	1.42642
653.765	2.98619
656.658	4.91436
659.551	9.2704
662.443	15.8539
665.336	25.4214
668.229	35.9754
671.122	50.2233
674.014	70.7512
676.907	102.774
679.8	127.849
682.692	106.486
685.585	62.0863
688.478	37.3745
691.37	28.4598
694.263	27.1025
697.156	30.0456
700.049	36.7529
702.941	36.3387
705.834	25.3255
708.727	12.8045
711.619	6.92723
714.512	3.93618
717.405	1.94671
720.298	1.20487
723.19	0.563963
726.083	0.070263
728.976	0.013508
731.868	0.585243
734.761	0.041113
737.654	0.037397
740.546	0.180689
743.439	0.028584
746.332	0.109037
749.225	0.346441
752.117	0.982388
755.01	0.591716
757.903	1.2141
760.795	1.55513
763.688	2.48473
766.581	4.77905
769.473	7.78153
772.366	10.8461
775.259	16.3462
778.152	24.721
781.044	38.6132
783.937	42.3381
786.83	26.0046
789.722	14.7836
792.615	10.6477
795.508	8.54775
798.4	5.68498
801.293	3.19682
804.186	1.7887
807.078	1.24041
809.971	0.744279
812.864	0.381115
815.757	0.086472
818.649	0.358478
821.542	0.306931
824.435	0.322705
827.327	0.331671
830.22	0.072942
833.113	0.123425
836.005	0.621385
838.898	0.533214
841.791	0.32022
844.683	0.518369
847.576	0.073871
850.469	0.526581
853.362	0.298833
856.254	0.412752
859.147	0.620012
862.04	0.560716
864.932	0.545729
867.825	0.789772
870.718	0.965077
873.611	0.498848
876.503	0.728127
879.396	0.735695
882.289	1.12523
885.181	0.759308
888.074	0.725842
890.967	0.63821
893.859	0.666926
896.752	0.838014
899.645	0.402575
902.538	0.347819
905.43	0.33944
908.323	0.25259
911.216	0.398967
914.108	0.189616
917.001	0.030775
919.894	0.044957
922.786	0.210526
925.679	0.170905
928.572	0.079792
931.465	0.040726
934.357	0.010287
937.25	0.111922
940.143	0.228701
943.035	0.004509
945.928	0.115753
948.821	0.24674
951.713	0.213128
954.606	0.172731
957.499	0.14406
960.391	2.49314
963.284	1.51355
966.177	2.91939
969.07	4.52549
971.962	7.01554
974.855	8.2332
977.748	7.652
980.64	5.56466
983.533	3.75061
986.426	3.65175
989.318	3.97029
992.211	4.55871
995.104	6.31864
997.997	9.9253
1000.89	13.9052
1003.78	13.6763
1006.67	10.9131
1009.57	9.65691
1012.46	10.319
1015.35	15.2833
1018.25	20.1423
1021.14	15.301
1024.03	9.41921
1026.92	6.76471
1029.82	7.71228
1032.71	9.95588
1035.6	11.6777
1038.49	8.56517
1041.39	3.68968
1044.28	1.496
1047.17	0.269797
1050.07	0.250921
1052.96	0.484704
1055.85	0.168452
1058.74	0.150023
1061.64	0.094898
1064.53	0.674092
1067.42	2.12317
1070.31	3.65368
1073.21	5.7066
1076.1	8.3076
1078.99	11.7397
1081.88	15.0575
1084.78	18.9451
1087.67	22.4394
1090.56	30.9692
1093.46	47.0086
1096.35	75.5525
1099.24	110.571
1102.13	153.113
1105.03	224.969
1107.92	322.269
1110.81	323.689
1113.7	189.556
1116.6	105.717
1119.49	71.6809
1122.38	55.4046
1125.28	39.3057
1128.17	24.9251
1131.06	15.6022
1133.95	9.93655
1136.85	6.35131
1139.74	4.58009
1142.63	2.84617
1145.52	1.74018
1148.42	1.3248
1151.31	1.18846
1154.2	0.415756
1157.1	0.161536
1159.99	0.023565
1162.88	0.214348
1165.77	0.099444
1168.67	0.207201
1171.56	0.198428
1174.45	0.159818
1177.34	0.259597
1180.24	0.210106
1183.13	0.180794
1186.02	0.114838
1188.91	0.055333
1191.81	0.223738
1194.7	0.270823
1197.59	0.017145
1200.49	0.122054
1203.38	0.172885
1206.27	0.126015
1209.16	0.144859
1212.06	0.116214
1214.95	0.145374
1217.84	0.2787
1220.73	0.249651
1223.63	0.010852
1226.52	0.032595
1229.41	0.227698
1232.31	0.382844
1235.2	0.244911
1238.09	0.547767
1240.98	0.572036
1243.88	0.461539
1246.77	0.59657
1249.66	0.775386
1252.55	0.56278
1255.45	0.274681
1258.34	0.316895
1261.23	0.347446
1264.12	0.379674
1267.02	0.491189
1269.91	0.418562
1272.8	0.407647
1275.7	0.552136
1278.59	0.103715
1281.48	0.580145
1284.37	0.197522
1287.27	0.090365
