Measurement: Raman, 780 nm, unoriented, Raman Data Processed
Mineral: Manganite
Rruff sample: R070593
Ideal chemistry: Mn^3+^O(OH)
Locality: Ilfeld, near Nordhausen, Harz Mountains, Thuringia, Germany
Source: James Shigley
Description: Bundled aggregates of steel-gray metallic prisms
Measured chemistry: Mn^3+^_1.00_O(OH) ; OH estimated by difference and stoichiometry
Raman shift (cm-1)	intensity
116.374	0
119.748	46.8087
123.123	49.8103
126.498	123.904
129.873	81.8937
133.248	171.956
136.623	336.11
139.997	470.137
143.372	773.552
146.747	1128.73
150.122	710.456
153.497	293.731
156.871	89.2438
160.246	44.4669
163.621	82.8082
166.996	75.3863
170.371	14.5297
173.745	31.9323
177.12	34.1696
180.495	24.6446
183.87	3.44525
187.245	16.943
190.62	4.02539
193.994	41.3836
197.369	48.814
200.744	44.2211
204.119	113.168
207.494	78.903
210.869	146.975
214.243	272.545
217.618	533.172
220.993	527.949
224.368	192.314
227.743	125.242
231.117	178.056
234.492	221.202
237.867	307.564
241.242	526.696
244.617	782.186
247.992	1246.93
251.366	1815.82
254.741	2591.61
258.116	2943.3
261.491	2387.86
264.865	1283.22
268.24	722.971
271.615	429.226
274.99	414.992
278.365	498.419
281.74	804.041
285.114	1169.34
288.489	675.594
291.864	120.355
295.239	5.58069
298.614	9.80145
301.988	38.8048
305.363	2.78882
308.738	4.4068
312.113	4.5069
315.488	38.157
318.863	99.7602
322.237	132.349
325.612	178.811
328.987	234.046
332.362	235.02
335.737	287.792
339.111	385.512
342.486	581.293
345.861	897.558
349.236	1386.05
352.611	2173.61
355.986	3160.86
359.36	3602.38
362.735	2358.26
366.11	1500.03
369.485	1304.56
372.86	1595.84
376.235	2780.09
379.609	4919.57
382.984	8415.57
386.359	15135.7
389.734	15500.6
393.109	6414.8
396.483	2406.57
399.858	1158.03
403.233	673.417
406.608	447.491
409.983	367.249
413.358	250.282
416.732	145.238
420.107	127.104
423.482	129.015
426.857	74.9175
430.232	21.5865
433.606	41.2131
436.981	9.59805
440.356	49.1459
443.731	40.4367
447.106	0.97699
450.481	7.94745
453.855	5.33658
457.23	24.7379
460.605	8.14935
463.98	27.4651
467.355	9.46112
470.729	11.548
474.104	9.83099
477.479	9.33942
480.854	180.103
484.229	432.428
487.603	852.915
490.978	1632.43
494.353	1680.96
497.728	713.795
501.103	353.506
504.478	422.454
507.852	674.024
511.227	1082.54
514.602	1729.13
517.977	2663.87
521.352	3931.06
524.726	5403.9
528.101	6899.78
531.476	7555.78
534.851	6778.13
538.226	5493.48
541.601	4977.83
544.975	5427.22
548.35	6973.31
551.725	9143.95
555.1	11633.3
558.475	12685.7
561.849	10703.1
565.224	7187.41
568.599	4500.17
571.974	2642.96
575.349	1666.16
578.723	989.481
582.098	629.555
585.473	398.069
588.848	141.618
592.223	35.8423
595.598	34.6804
598.972	56.3923
602.347	5.95935
605.722	141.738
609.097	343.776
612.472	784.764
615.847	1190.97
619.221	1828.92
622.596	2077.44
625.971	1817.23
629.346	1252.28
632.721	811.693
636.096	539.234
639.47	327.572
642.845	175.482
646.22	78.3869
649.595	8.02216
652.97	14.9197
656.344	6.60571
659.719	9.4054
663.094	6.50876
666.469	5.72949
669.844	7.79038
673.218	6.56424
676.593	8.01602
679.968	27.4367
683.343	32.5099
686.718	45.7165
690.092	28.7163
693.467	69.8814
696.842	87.3934
700.217	139.98
703.592	145.648
706.967	143.408
710.341	132.176
713.716	175.476
717.091	146.923
720.466	123.579
723.841	143.816
727.216	108.368
730.59	107.561
733.965	115.066
737.34	97.669
740.715	99.423
744.09	83.5976
747.464	86.5734
750.839	110.993
754.214	103.175
757.589	70.4167
760.964	95.3957
764.338	70.8305
767.713	71.8413
771.088	64.213
774.463	42.0322
777.838	55.9773
781.213	26.1651
784.587	34.823
787.962	58.725
791.337	23.9037
794.712	23.219
798.087	54.7037
801.462	34.6167
804.836	38.2825
808.211	28.9721
811.586	81.6399
814.961	3.48914
818.336	19.6369
821.71	18.3996
825.085	36.1435
828.46	39.5432
831.835	42.7246
835.21	15.6859
838.585	1.34641
841.959	17.3177
845.334	7.38713
848.709	6.74822
852.084	11.9231
855.459	35.3285
858.833	21.1684
862.208	42.4076
865.583	31.4653
868.958	12.7212
872.333	42.2767
875.707	12.268
879.082	32.5329
882.457	40.2609
885.832	24.4802
889.207	12.7578
892.582	11.3169
895.956	23.4068
899.331	1.37669
902.706	0.105637
906.081	38.6827
909.456	8.90181
912.83	39.869
916.205	42.9063
919.58	3.68602
922.955	40.8541
926.33	9.46637
929.705	49.2291
933.079	42.714
936.454	39.271
939.829	10.981
943.204	36.6123
946.579	13.0901
949.953	54.4672
953.328	30.155
956.703	28.948
960.078	24.3461
963.453	36.7154
966.827	13.6643
970.202	40.0937
973.577	49.1699
976.952	28.7519
980.327	51.7344
983.702	30.033
987.076	37.2874
990.451	40.7685
993.826	33.5748
997.201	46.1927
1000.58	42.085
1003.95	34.4911
1007.33	37.5706
1010.7	9.56311
1014.08	9.9404
1017.45	12.7872
1020.83	16.9037
1024.2	29.3551
1027.57	9.06801
1030.95	21.5916
1034.32	31.5359
1037.7	34.0409
1041.07	31.7788
1044.45	26.1443
1047.82	20.8156
1051.2	42.8269
1054.57	4.08388
1057.95	34.1895
1061.32	19.6095
1064.7	30.1979
1068.07	23.299
1071.45	21.9777
1074.82	6.7717
1078.2	39.4612
1081.57	46.106
1084.95	8.34944
1088.32	54.4107
1091.7	28.6484
1095.07	34.5219
1098.44	29.6914
1101.82	44.1965
1105.19	40.9286
1108.57	30.7234
1111.94	23.7713
1115.32	33.172
1118.69	44.1555
1122.07	20.3569
1125.44	29.7093
1128.82	32.4967
1132.19	17.3754
1135.57	57.3818
1138.94	90.6004
1142.32	140.247
1145.69	194.183
1149.07	143.448
1152.44	93.2426
1155.82	25.1662
1159.19	12.0664
1162.57	3.42981
1165.94	22.9238
1169.32	27.2997
1172.69	36.8689
1176.07	22.654
1179.44	40.3325
1182.82	10.4523
1186.19	3.32324
1189.57	8.80325
1192.94	8.79561
1196.32	23.4335
1199.69	56.1905
1203.07	29.6389
1206.44	38.5382
1209.81	58.7517
1213.19	21.6652
1216.56	32.9648
1219.94	48.2842
1223.31	57.0167
1226.69	15.1615
1230.06	0.729065
1233.44	23.1971
1236.81	29.7766
1240.19	19.0933
1243.56	41.1259
1246.94	5.31761
1250.31	22.9332
1253.69	83.2845
1257.06	50.5052
1260.44	76.4026
1263.81	32.9538
1267.19	42.733
1270.56	35.7514
1273.94	57.5597
1277.31	46.0796
1280.69	27.9886
