Measurement: Raman, 532 nm, unoriented, Raman Data Processed
Mineral: Manganite
Rruff sample: R060827
Ideal chemistry: Mn^3+^O(OH)
Locality: Roberts mine, Crosby, Minnesota, USA
Source: Michael Scott
Description: Black submetallic prismatic crystals
Measured chemistry: Mn^3+^_1.00_O(OH)
Raman shift (cm-1)	intensity
133.576	0
136.951	27.2013
140.325	101.325
143.7	151.695
147.075	172.645
150.45	100.455
153.825	49.746
157.199	30.6867
160.574	21.8285
163.949	34.7652
167.324	25.374
170.699	34.0328
174.073	1.67438
177.448	8.54419
180.823	6.73624
184.198	7.85815
187.573	2.22342
190.947	1.11597
194.322	7.30814
197.697	22.4084
201.072	10.8763
204.447	21.6453
207.822	33.5109
211.196	35.6805
214.571	62.0766
217.946	81.6869
221.321	29.6291
224.696	8.83551
228.07	7.28714
231.445	14.5833
234.82	8.02002
238.195	3.50391
241.57	38.1856
244.945	39.7962
248.319	82.4898
251.694	98.7106
255.069	145.276
258.444	131.841
261.819	118.26
265.193	86.7195
268.568	68.0854
271.943	40.3896
275.318	47.8123
278.693	45.9548
282.067	69.6262
285.442	39.387
288.817	12.5214
292.192	3.81882
295.567	11.6248
298.942	3.46362
302.316	1.44083
305.691	7.63458
309.066	3.60785
312.441	15.52
315.816	4.83814
319.19	11.2956
322.565	17.3572
325.94	32.7082
329.315	30.9273
332.69	36.4612
336.065	47.2112
339.439	83.2474
342.814	96.1319
346.189	133.945
349.564	183.052
352.939	227.204
356.313	269.968
359.688	233.093
363.063	167.067
366.438	128.867
369.813	128.146
373.188	172.476
376.562	271.231
379.937	415.213
383.312	582.78
386.687	710.258
390.062	568.331
393.436	282.518
396.811	152.453
400.186	91.4571
403.561	63.9275
406.936	54.471
410.31	39.4763
413.685	24.0643
417.06	11.1285
420.435	3.67422
423.81	23.7821
427.185	24.8961
430.559	25.5298
433.934	18.9378
437.309	13.4879
440.684	20.1852
444.059	30.1922
447.433	2.379
450.808	2.56624
454.183	5.27203
457.558	6.04248
460.933	12.7272
464.308	9.21353
467.682	0.440369
471.057	6.55554
474.432	11.2694
477.807	7.88635
481.182	21.3106
484.556	29.2801
487.931	42.0963
491.306	57.9832
494.681	53.8198
498.056	38.6171
501.43	43.6588
504.805	84.4649
508.18	110.574
511.555	174.015
514.93	275.216
518.304	362.313
521.679	435.724
525.054	555.558
528.429	607.644
531.804	574.877
535.179	524.007
538.553	480.118
541.928	520.94
545.303	591.044
548.678	696.33
552.053	835.308
555.427	873.65
558.802	807.138
562.177	650.648
565.552	445.047
568.927	297.611
572.302	165.813
575.676	95.2917
579.051	49.9627
582.426	33.4151
585.801	19.8916
589.176	6.72238
592.55	10.6289
595.925	28.9536
599.3	86.7408
602.675	160.596
606.05	241.258
609.424	399.146
612.799	596.087
616.174	785.489
619.549	932.035
622.924	921.093
626.298	744.682
629.673	513.837
633.048	346.976
636.423	248.903
639.798	172.547
643.173	100.978
646.547	93.9286
649.922	46.6337
653.297	33.5616
656.672	15.9999
660.047	7.40299
663.422	3.69019
666.796	1.15393
670.171	26.032
673.546	0.067017
676.921	9.18249
680.296	2.3085
683.67	22.9494
687.045	8.36356
690.42	1.79709
693.795	16.8689
697.17	26.2524
700.544	14.8892
703.919	32.6756
707.294	29.2012
710.669	34.9633
714.044	21.3737
717.418	39.0525
720.793	38.1572
724.168	42.3922
727.543	41.4505
730.918	40.5991
734.293	19.3332
737.667	35.9224
741.042	34.4221
744.417	34.6133
747.792	24.0666
751.167	27.4771
754.542	20.6998
757.916	22.3963
761.291	19.0902
764.666	23.4053
768.041	48.6449
771.416	28.3925
774.79	36.8215
778.165	9.86188
781.54	8.70212
784.915	23.7979
788.29	27.4948
791.664	21.8061
795.039	4.05823
798.414	14.6687
801.789	14.5246
805.164	22.9307
808.538	3.45346
811.913	14.7124
815.288	18.051
818.663	2.41707
822.038	18.676
825.413	7.27034
828.787	10.5251
832.162	12.5186
835.537	13.4411
838.912	0.10788
842.287	12.1822
845.662	35.6446
849.036	2.50034
852.411	18.5023
855.786	1.8508
859.161	21.7342
862.536	10.5858
865.91	19.8919
869.285	10.1961
872.66	22.0005
876.035	6.89589
879.41	8.46861
882.784	22.8566
886.159	17.5453
889.534	17.5028
892.909	17.8933
896.284	6.68225
899.659	27.8437
903.033	40.4179
906.408	16.0031
909.783	3.78677
913.158	14.6713
916.533	4.0359
919.907	19.8151
923.282	3.38574
926.657	39.2069
930.032	30.8897
933.407	17.645
936.782	18.114
940.156	17.8838
943.531	3.87676
946.906	8.42671
950.281	5.88506
953.655	11.6663
957.03	14.9724
960.405	7.91368
963.78	24.1505
967.155	33.3854
970.53	20.1656
973.904	25.9632
977.279	24.8123
980.654	21.3548
984.029	28.2704
987.404	11.5706
990.779	16.3603
994.153	9.82541
997.528	15.168
1000.9	18.2496
1004.28	3.43898
1007.65	31.5269
1011.03	3.77695
1014.4	14.6446
1017.78	11.5664
1021.15	17.7543
1024.53	7.4156
1027.9	7.90208
1031.28	10.3907
1034.65	11.549
1038.03	25.5458
1041.4	20.4546
1044.78	16.4288
1048.15	16.2182
1051.53	25.383
1054.9	12.1814
1058.28	17.248
1061.65	18.2237
1065.02	10.1363
1068.4	37.1628
1071.77	16.1148
1075.15	3.18515
1078.52	8.97407
1081.9	1.34744
1085.27	19.6402
1088.65	12.8802
1092.02	28.5901
1095.4	1.01593
1098.77	19.1539
1102.15	7.76794
1105.52	16.7788
1108.9	4.68912
1112.27	9.68811
1115.65	12.844
1119.02	4.7077
1122.4	6.83666
1125.77	27.816
1129.15	39.5896
1132.52	38.3834
1135.9	29.2269
1139.27	1.89363
1142.64	26.5504
1146.02	6.9061
1149.39	30.1749
1152.77	20.4956
1156.14	11.8813
1159.52	18.4327
1162.89	26.543
1166.27	15.1587
1169.64	5.55208
1173.02	15.4577
1176.39	5.09691
1179.77	15.2086
1183.14	12.253
1186.52	8.01161
1189.89	38.7704
1193.27	1.98749
1196.64	15.1952
1200.02	1.26549
1203.39	27.0417
1206.77	14.3666
1210.14	29.7469
1213.52	20.7172
1216.89	11.3098
1220.27	25.2
1223.64	26.7884
1227.02	7.70833
1230.39	24.1358
1233.77	26.253
1237.14	27.2268
1240.52	27.0037
1243.89	22.8517
1247.26	20.9638
1250.64	19.1396
1254.01	29.2633
1257.39	27.0025
1260.76	12.614
1264.14	6.67424
1267.51	15.4653
1270.89	21.3565
1274.26	44.1219
1277.64	39.35
1281.01	17.3121
1284.39	25.1356
1287.76	4.33977
1291.14	19.3182
1294.51	0
