Measurement: Raman, 532 nm, unoriented, Raman Data Processed
Mineral: Manganoquadratite
Rruff sample: R090021
Ideal chemistry: AgMnAsS_3_
Locality: Uchucchacua, Lima Department, Peru
Source: William W. Pinch
Description: Tetragonal stepped crystals associated with proustite and alabandite.
Measured chemistry: Ag_0.99_Mn_1.02_(As_0.85_Sb_0.14_)S_3.00_
Raman shift (cm-1)	intensity
194.099	0
196.992	43.5469
199.884	13.7236
202.777	31.8945
205.67	45.563
208.562	15.7295
211.455	28.2905
214.348	12.4102
217.241	9.63867
220.133	2.08398
223.026	21.9395
225.919	28.0645
228.811	18.2593
231.704	0.575195
234.597	25.9351
237.489	60.6924
240.382	58.9624
243.275	116.423
246.168	140.516
249.06	187.847
251.953	263.303
254.846	349.476
257.738	443.262
260.631	505.387
263.524	608.086
266.416	776.249
269.309	922.731
272.202	1077.57
275.095	1294.68
277.987	1504.55
280.88	1768.47
283.773	2000.59
286.665	2171.54
289.558	2362.57
292.451	2538.95
295.344	2689.86
298.236	2861.36
301.129	2975.54
304.022	3087.95
306.914	3168.54
309.807	3180.97
312.7	3116.34
315.592	2980.35
318.485	2781.62
321.378	2414.05
324.271	2133.4
327.163	1816.68
330.056	1546.61
332.949	1353.14
335.841	1232.04
338.734	1182.71
341.627	1177.84
344.519	1163.68
347.412	1227.41
350.305	1298.77
353.197	1271.89
356.09	1146.11
358.983	882.392
361.876	619.339
364.768	411.004
367.661	238.029
370.554	132.313
373.446	60.478
376.339	16.3291
379.232	9.01807
382.125	39.8789
385.017	41.897
387.91	42.6397
390.803	23.4263
393.695	2.53809
396.588	18.9922
399.481	3.1665
402.373	22.4624
405.266	50.3999
408.159	39.0869
411.051	52.648
413.944	36.917
416.837	48.5635
419.73	39.272
422.622	55.0869
425.515	62.646
428.408	63.9922
431.3	80.7954
434.193	83.4331
437.086	80.9609
439.978	90.5205
442.871	89.3906
445.764	74.7339
448.657	54.6968
451.549	73.8081
454.442	65.6392
457.335	42.4087
460.227	28.6797
463.12	37.7417
466.013	31.251
468.906	13.4331
471.798	14.8589
474.691	36.5674
477.584	29.3076
480.476	34.0503
483.369	39.3198
486.262	28.3823
489.154	43.9941
492.047	46.1348
494.94	30.7148
497.832	42.0513
500.725	5.97803
503.618	4.64795
506.511	3.88379
509.403	5.00781
512.296	15.1592
515.189	20.3428
518.081	17.7998
520.974	35.8735
523.867	35.959
526.76	22.0469
529.652	14.123
532.545	10.7437
535.438	25.7935
538.33	16.8965
541.223	11.3018
544.116	10.5034
547.008	28.7793
549.901	22.8047
552.794	23.0986
555.687	22.8438
558.579	19.8545
561.472	1.82715
564.365	20.3345
567.257	33.1377
570.15	34.4023
573.043	24.0776
575.935	2.72266
578.828	9.42773
581.721	10.9487
584.613	14.7217
587.506	19.6797
590.399	12.4077
593.292	25.3901
596.184	46.6108
599.077	27.3936
601.97	5.18652
604.862	20.4097
607.755	27.2197
610.648	54.7022
613.54	35.0791
616.433	38.7446
619.326	21.6504
622.218	20.1738
625.111	37.3735
628.004	49.706
630.897	41.1748
633.789	18.793
636.682	43.4414
639.575	18.7583
642.467	48.5425
645.36	19.0708
648.253	26.0225
651.145	29.6704
654.038	32.6528
656.931	43.9795
659.824	45.5835
662.716	41.7622
665.609	21.4453
668.502	3.64258
671.394	32.7773
674.287	42.1846
677.18	11.2651
680.072	14.7119
682.965	44.1577
685.858	25.3242
688.751	22.2334
691.643	7.84717
694.536	18.603
697.429	12.6821
700.321	26.2051
703.214	15.7632
706.107	23.373
709	28.4922
711.892	24.4702
714.785	15.6802
717.678	20.4482
720.57	10.2065
723.463	20.0415
726.356	7.22217
729.248	1.23438
732.141	26.9736
735.034	23.749
737.927	10.6172
740.819	16.437
743.712	2.5166
746.605	27.6148
749.497	6.604
752.39	23.227
755.283	6.61914
758.175	10.8535
761.068	11.5322
763.961	15.8198
766.854	35.7534
769.746	23.4097
772.639	28.7339
775.532	5.52295
778.424	15.5122
781.317	21.1982
784.21	2.75049
787.102	26.0044
789.995	15.9033
792.888	20.4517
795.78	34.8491
798.673	30.3735
801.566	36.479
804.459	9.88477
807.351	32.6558
810.244	56.1645
813.137	38.5596
816.029	36.3887
818.922	24.5102
821.815	19.3726
824.707	26.2515
827.6	58.187
830.493	32.3584
833.386	17.5073
836.278	18.2554
839.171	22.6685
842.064	35.8174
844.956	21.9775
847.849	8.03125
850.742	4.64258
853.635	13.0273
856.527	22.98
859.42	22.4966
862.313	3.82617
865.205	20.9561
868.098	7.3418
870.991	36.2017
873.883	7.04004
876.776	10.3755
879.669	21.0586
882.562	8.1875
885.454	12.856
888.347	11.21
891.24	6.92676
894.132	24.6538
897.025	29.9287
899.918	21.7207
902.81	13.0161
905.703	7.83008
908.596	19.1699
911.489	2.97461
914.381	13.9512
917.274	34.6641
920.167	19.4536
923.059	25.0625
925.952	13.5757
928.845	33.6343
931.737	24.0962
934.63	49.7812
937.523	22.6562
940.415	24.6157
943.308	17.6924
946.201	39.1509
949.094	19.6528
951.986	6.66406
954.879	26.2793
957.772	18.7852
960.664	54.519
963.557	19.9556
966.45	8.80615
969.342	3.77588
972.235	0.866211
975.128	12.3965
978.021	9.75635
980.913	27.9463
983.806	12.5195
986.699	20.2915
989.591	3.83984
992.484	2.0459
995.377	10.794
998.269	20.4692
1001.16	2.90674
1004.05	25.6982
1006.95	5.33301
1009.84	18.5684
1012.73	5.52197
1015.63	11.8076
1018.52	27.3984
1021.41	22.627
1024.3	4.13379
1027.2	15.686
1030.09	20.186
1032.98	18.6982
1035.88	35.7139
1038.77	33.3877
1041.66	4.21582
1044.55	32.4678
1047.44	25.6968
1050.34	33.2002
1053.23	13.0176
1056.12	23.7959
1059.02	16.7661
1061.91	15.8281
1064.8	46.9517
1067.69	11.2046
1070.59	32.2334
1073.48	2.84863
1076.37	19.1631
1079.27	28.1201
1082.16	24.9624
1085.05	34.959
1087.94	25.7217
1090.84	6.54883
1093.73	10.6113
1096.62	21.792
1099.51	17.2051
1102.41	24.127
1105.3	27.021
1108.19	31.4326
1111.09	34.7617
1113.98	40.0898
1116.87	26.1372
1119.76	21.2139
1122.66	12.9971
1125.55	13.8496
1128.44	16.9302
1131.33	11.9038
1134.23	27.1934
1137.12	35.7568
1140.01	26.293
1142.9	22.9429
1145.8	10.9932
1148.69	12.6279
1151.58	0.313965
1154.47	17.6831
1157.37	16.6401
1160.26	15.4727
1163.15	46.4004
1166.05	37.875
1168.94	32.2554
1171.83	19.9839
1174.72	5.23438
1177.62	24.9053
1180.51	2.13769
1183.4	17.4355
1186.3	22.7705
1189.19	17.0044
1192.08	16.0059
1194.97	19.4692
1197.87	24.5664
1200.76	19.2612
1203.65	22.5435
1206.54	8.18457
1209.44	15.5566
1212.33	41.9014
1215.22	37.688
1218.12	25.7822
1221.01	38.2607
1223.9	43.1274
1226.79	33.6172
1229.68	8.70703
1232.58	1.37012
1235.47	22.1382
1238.36	23.9326
1241.26	24.6621
1244.15	29.1919
1247.04	44.5269
1249.93	22.9072
1252.83	8.61914
1255.72	21.2026
1258.61	2.94092
1261.51	15.0532
1264.4	21.0855
1267.29	21.0972
1270.18	51.3296
1273.08	9.23828
1275.97	2.31592
1278.86	17.4834
1281.75	27.3447
1284.65	29.3667
1287.54	24.3257
1290.43	14.206
1293.33	7.66602
1296.22	0.960449
1299.11	45.7417
1302	24.311
