Measurement: Raman, 780 nm, unoriented, Raman Data Processed
Mineral: Manganvesuvianite
Rruff sample: R060377
Ideal chemistry: Ca_19_Mn^3+^Al_10_Mg_2_(SiO_4_)_10_(Si_2_O_7_)_4_O(OH)_9_
Locality: K'Chwaning II mine, Kalahari Manganese Field, north Cape Province, South Africa
Source: Michael Scott
Description: Deep reddish-brown prismatic crystals associated with black hausmannite
Raman shift (cm-1)	intensity
164.851	0
167.744	8.36737
170.637	8.40225
173.53	5.56525
176.422	3.20715
179.315	6.73181
182.208	15.4293
185.1	22.0241
187.993	23.0435
190.886	19.3886
193.778	8.34235
196.671	7.16305
199.564	2.68872
202.457	6.05756
205.349	2.22754
208.242	4.57629
211.135	8.80222
214.027	15.6588
216.92	17.7819
219.813	15.491
222.705	15.4258
225.598	4.74371
228.491	7.9491
231.383	4.86237
234.276	18.7156
237.169	25.3835
240.061	32.6455
242.954	29.5173
245.847	25.0876
248.74	6.16058
251.632	8.68823
254.525	5.02005
257.418	5.95773
260.31	10.055
263.203	7.94013
266.096	3.66821
268.988	1.18164
271.881	6.63455
274.774	20.78
277.667	22.7905
280.559	38.9162
283.452	62.2682
286.345	86.3248
289.237	82.3181
292.13	57.1851
295.023	40.8429
297.916	22.4935
300.808	15.2678
303.701	9.1187
306.594	2.61682
309.486	5.13863
312.379	5.47299
315.272	1.74246
318.164	0.495911
321.057	0.919464
323.95	14.6345
326.842	26.0869
329.735	31.9399
332.628	40.8015
335.521	40.6509
338.413	25.8559
341.306	10.3301
344.199	11.2741
347.091	10.5335
349.984	11.9136
352.877	15.9689
355.769	21.9929
358.662	22.3114
361.555	38.0897
364.447	46.5545
367.34	45.7512
370.233	51.4771
373.126	50.5694
376.018	36.7062
378.911	26.3886
381.804	13.2075
384.696	5.05086
387.589	0.729004
390.482	6.88179
393.375	6.80586
396.267	14.9837
399.16	21.7304
402.053	24.3522
404.945	33.5339
407.838	40.5905
410.731	47.8845
413.623	44.0521
416.516	37.9024
419.409	33.5984
422.301	26.6312
425.194	23.1203
428.087	19.7206
430.98	12.5739
433.872	6.03644
436.765	12.9632
439.658	0.468674
442.55	1.8568
445.443	0.107773
448.336	0.855118
451.228	0.729065
454.121	1.54207
457.014	1.14278
459.907	2.94376
462.799	3.95549
465.692	0.182465
468.585	5.74631
471.477	9.2889
474.37	13.4379
477.263	14.8927
480.156	16.2676
483.048	13.2929
485.941	10.6777
488.834	7.87167
491.726	5.78262
494.619	7.54833
497.512	10.5167
500.404	7.47633
503.297	15.9052
506.19	21.9435
509.082	29.0717
511.975	32.3891
514.868	27.3628
517.761	17.4601
520.653	6.38657
523.546	3.03449
526.439	1.08955
529.331	0.412582
532.224	2.10674
535.117	1.14462
538.01	11.4498
540.902	31.229
543.795	39.9667
546.688	48.0142
549.58	49.3951
552.473	45.6266
555.366	39.8537
558.258	30.2586
561.151	17.0909
564.044	11.316
566.936	6.7453
569.829	6.41667
572.722	8.23511
575.615	6.91548
578.507	10.0815
581.4	11.0298
584.293	9.6768
587.185	12.3646
590.078	17.1709
592.971	23.611
595.863	25.9432
598.756	16.9719
601.649	19.1307
604.542	18.9141
607.434	12.6729
610.327	9.32974
613.22	10.5607
616.112	4.69772
619.005	4.66396
621.898	1.89918
624.79	2.51639
627.683	3.05176
630.576	6.92737
633.468	11.3453
636.361	12.2534
639.254	20.0699
642.146	32.7042
645.039	49.7257
647.932	63.6016
650.825	70.9058
653.717	76.8464
656.61	79.5943
659.503	87.8571
662.395	108.704
665.288	130.505
668.181	159.208
671.073	174.99
673.966	175.253
676.859	154.92
679.752	128.635
682.644	107.419
685.537	80.8321
688.43	61.8807
691.322	52.2966
694.215	39.3355
697.108	26.6942
700	20.3028
702.893	6.16013
705.786	2.95499
708.679	2.31433
711.571	0.552979
714.464	3.87994
717.357	1.67656
720.249	3.127
723.142	1.56027
726.035	8.49336
728.928	3.40418
731.82	2.9643
734.713	8.85561
737.606	8.43932
740.498	7.73991
743.391	13.0513
746.284	6.2657
749.176	8.92216
752.069	12.2555
754.962	8.99335
757.855	6.71061
760.747	3.08745
763.64	6.52736
766.533	5.4222
769.425	4.71783
772.318	5.26906
775.211	2.61835
778.103	8.34053
780.996	1.30618
783.889	1.58612
786.782	1.43292
789.674	1.02951
792.567	2.12352
795.46	8.08411
798.352	6.71819
801.245	17.9235
804.138	26.0402
807.03	43.1748
809.923	74.7218
812.816	116.717
815.708	148.801
818.601	128.424
821.494	76.4285
824.386	43.487
827.279	31.7828
830.172	21.5932
833.065	15.006
835.957	11.6438
838.85	10.8099
841.743	9.99817
844.635	7.30655
847.528	10.9526
850.421	20.1423
853.313	15.6388
856.206	21.1508
859.099	25.1835
861.992	18.791
864.884	22.9157
867.777	19.0619
870.67	16.9768
873.562	13.7488
876.455	14.9607
879.348	19.5256
882.24	11.5417
885.133	9.52402
888.026	6.68474
890.919	7.84735
893.811	2.86349
896.704	1.56026
899.597	0.003754
902.489	1.61021
905.382	2.3105
908.275	4.19891
911.168	6.72913
914.06	13.4689
916.953	21.9491
919.846	22.7279
922.738	32.8107
925.631	41.4038
928.524	47.1054
931.416	48.8207
934.309	44.1006
937.202	38.4749
940.095	26.2585
942.987	22.2544
945.88	23.2647
948.773	13.9987
951.665	16.6925
954.558	14.3843
957.451	11.8467
960.343	8.39159
963.236	12.8969
966.129	9.42584
969.021	18.7094
971.914	10.6359
974.807	15.5016
977.699	14.5381
980.592	9.84401
983.485	18.3127
986.378	14.4232
989.27	30.6277
992.163	49.0848
995.056	25.7159
997.948	4.81192
1000.84	2.62236
1003.73	4.35176
1006.63	0.353592
1009.52	2.49028
1012.41	0.739609
1015.3	5.9926
1018.2	1.36299
1021.09	3.52321
1023.98	0.215195
1026.88	4.75531
1029.77	9.18849
1032.66	14.0118
1035.55	16.8251
1038.45	18.4993
1041.34	18.1918
1044.23	15.1471
1047.12	12.9957
1050.02	10.9895
1052.91	6.6752
1055.8	8.57095
1058.69	9.43376
1061.59	5.42592
1064.48	3.81015
1067.37	2.66505
1070.27	7.38568
1073.16	2.29326
1076.05	3.19327
1078.94	2.19957
1081.84	1.92082
1084.73	0.455658
1087.62	0.742676
1090.52	5.80646
1093.41	2.26849
1096.3	1.42094
1099.19	6.72485
1102.09	5.52328
1104.98	6.23062
1107.87	3.78325
1110.76	3.91145
1113.66	9.11673
1116.55	7.5275
1119.44	4.05603
1122.33	4.1032
1125.23	9.79987
1128.12	8.33287
1131.01	3.71539
1133.9	1.95969
1136.8	10.2402
1139.69	4.52924
1142.58	9.4534
1145.48	7.47907
1148.37	3.91086
1151.26	7.16556
1154.15	10.4352
1157.05	2.33125
1159.94	7.83574
1162.83	10.4251
1165.72	5.47008
1168.62	7.8529
1171.51	8.52736
1174.4	5.93071
1177.3	0.70813
1180.19	7.2789
1183.08	6.66782
1185.97	7.68149
1188.87	7.67346
1191.76	4.3871
1194.65	4.48407
1197.55	6.90936
1200.44	7.83704
1203.33	8.45122
1206.22	0.659271
1209.12	1.42976
1212.01	4.08502
1214.9	4.54964
1217.79	5.87746
1220.69	2.04581
1223.58	6.23996
1226.47	0.69133
1229.36	4.91994
1232.26	1.29793
1235.15	10.4261
1238.04	8.86615
1240.93	4.19217
1243.83	3.53505
1246.72	4.39654
1249.61	2.94168
1252.51	6.11945
1255.4	6.32379
1258.29	5.30544
1261.18	6.82144
1264.08	7.35324
1266.97	7.38312
1269.86	0.024384
1272.76	8.22697
1275.65	8.22893
1278.54	1.93602
1281.43	1.9308
1284.33	0.283066
