Measurement: Raman, 532 nm, unoriented, Raman Data Processed
Mineral: Manganoneptunite
Rruff sample: R130094
Ideal chemistry: KNa_2_LiMn^2+^_2_Ti_2_Si_8_O_24_
Locality: Mount Kurnasurt, Lovozero Massif, Kola Peninsula, USSR
Source: Michael Scott
Description: Deep red massive, good cleavage, associated with raite R060854, and orthoclase
Raman shift (cm-1)	intensity
204.588	0
207.48	3.49402
210.373	2.55173
213.266	0.743988
216.158	8.06647
219.051	11.1643
221.944	17.2081
224.836	16.2305
227.729	13.3602
230.622	11.876
233.514	15.614
236.407	14.9776
239.3	15.2104
242.193	16.8074
245.085	19.4209
247.978	17.7706
250.871	9.1127
253.763	1.78856
256.656	0.785004
259.549	0.164627
262.442	1.15726
265.334	4.49725
268.227	5.63469
271.12	11.5549
274.012	19.129
276.905	22.2315
279.798	18.1492
282.69	17.8558
285.583	17.0791
288.476	14.2148
291.368	14.7204
294.261	15.5965
297.154	18.6295
300.047	16.4666
302.939	17.1282
305.832	22.1865
308.725	31.278
311.617	35.3965
314.51	29.4996
317.403	25.3163
320.296	31.0696
323.188	38.3579
326.081	35.6957
328.974	30.9297
331.866	29.907
334.759	28.8728
337.652	28.8466
340.544	31.2091
343.437	30.8886
346.33	24.6472
349.223	20.4142
352.115	21.431
355.008	23.7721
357.901	21.8049
360.793	18.4258
363.686	14.0363
366.579	9.21088
369.471	4.22296
372.364	1.94899
375.257	0.288422
378.149	0.542831
381.042	0.781052
383.935	1.7249
386.828	2.06934
389.72	0.952988
392.613	1.59592
395.506	0.684586
398.398	1.92004
401.291	4.01511
404.184	6.20873
407.077	8.78725
409.969	11.3893
412.862	11.8992
415.755	13.3271
418.647	13.1328
421.54	11.3576
424.433	12.8217
427.325	12.4867
430.218	8.9435
433.111	5.80499
436.003	3.0863
438.896	2.2843
441.789	0.083939
444.682	0.299591
447.574	0.136429
450.467	1.11554
453.36	0.161667
456.252	0.308609
459.145	0.126419
462.038	1.38824
464.93	0.634659
467.823	0.664322
470.716	0.837509
473.609	3.3553
476.501	5.57246
479.394	8.72365
482.287	11.2417
485.179	11.6899
488.072	11.6461
490.965	11.751
493.858	9.97232
496.75	6.87335
499.643	7.60951
502.536	7.57076
505.428	11.0976
508.321	12.2651
511.214	12.9989
514.106	11.5519
516.999	11.7997
519.892	15.4836
522.784	19.202
525.677	24.3397
528.57	27.5582
531.463	28.3959
534.355	29.4411
537.248	31.0674
540.141	32.6793
543.033	31.9653
545.926	33.2057
548.819	36.069
551.712	41.5181
554.604	40.024
557.497	39.0131
560.39	38.2022
563.282	34.369
566.175	32.3937
569.068	30.7162
571.96	28.1749
574.853	27.6317
577.746	26.4976
580.639	28.2758
583.531	25.3417
586.424	22.2489
589.317	16.8881
592.209	10.6648
595.102	6.72531
597.995	1.89169
600.888	1.69403
603.78	0.106262
606.673	0.67392
609.566	0.471893
612.458	1.38277
615.351	1.12976
618.244	0.749313
621.136	0.56958
624.029	0.195648
626.922	0.080917
629.814	0.478088
632.707	2.98752
635.6	5.6049
638.493	8.75252
641.385	11.1581
644.278	15.0896
647.171	18.2868
650.063	22.5774
652.956	24.6779
655.849	23.2498
658.741	17.6541
661.634	14.3308
664.527	12.5102
667.42	11.3638
670.312	13.24
673.205	15.3269
676.098	16.5054
678.99	20.1621
681.883	25.8168
684.776	31.4553
687.668	39.6596
690.561	47.8687
693.454	51.5472
696.347	49.6469
699.239	33.1507
702.132	18.852
705.025	11.3593
707.917	9.73644
710.81	12.0014
713.703	12.6574
716.596	13.3251
719.488	9.20381
722.381	2.92949
725.274	0.81073
728.166	1.14238
731.059	2.00674
733.952	1.8334
736.844	3.22205
739.737	1.90236
742.63	3.1429
745.523	3.58859
748.415	5.21791
751.308	5.24496
754.201	3.86711
757.093	4.61264
759.986	5.05196
762.879	4.69975
765.771	5.896
768.664	5.35489
771.557	3.11952
774.449	7.56918
777.342	1.8479
780.235	0.920609
783.128	2.50409
786.02	3.47919
788.913	1.95779
791.806	1.11537
794.698	3.2639
797.591	4.99766
800.484	9.06
803.376	15.0243
806.269	27.4857
809.162	51.4772
812.055	85.3894
814.947	142.215
817.84	227.33
820.733	338.394
823.625	421.608
826.518	427.329
829.411	394.713
832.303	375.295
835.196	373.764
838.089	334.389
840.982	245.866
843.874	148.025
846.767	88.0088
849.66	59.9335
852.552	51.5254
855.445	50.367
858.338	51.6438
861.231	52.2249
864.123	49.5273
867.016	45.9494
869.909	42.6649
872.801	40.9874
875.694	29.4355
878.587	21.9006
881.479	14.7217
884.372	13.6698
887.265	15.5411
890.158	17.1991
893.05	17.0885
895.943	13.8518
898.836	13.4467
901.728	12.8017
904.621	10.497
907.514	6.71378
910.406	3.25467
913.299	2.44208
916.192	4.26335
919.085	2.48958
921.977	2.17755
924.87	2.51688
927.763	5.23946
930.655	11.7999
933.548	16.5093
936.441	19.3257
939.333	18.3861
942.226	13.7561
945.119	8.62366
948.011	5.98837
950.904	5.28009
953.797	4.26413
956.69	4.94019
959.582	3.82721
962.475	1.26283
965.368	1.68796
968.26	5.44972
971.153	6.65848
974.046	8.15297
976.938	7.37205
979.831	3.59413
982.724	4.56226
985.617	10.1084
988.509	16.8874
991.402	23.131
994.295	27.0409
997.187	26.4303
1000.08	25.6652
1002.97	27.2524
1005.87	26.1818
1008.76	27.2078
1011.65	30.762
1014.54	34.2291
1017.44	31.0903
1020.33	23.3132
1023.22	14.1176
1026.11	9.70573
1029.01	7.40157
1031.9	5.20625
1034.79	3.39067
1037.68	4.0491
1040.58	5.27899
1043.47	10.0912
1046.36	14.8288
1049.26	16.0267
1052.15	17.0919
1055.04	16.6528
1057.93	18.8069
1060.83	25.4177
1063.72	24.0599
1066.61	22.5882
1069.51	18.4275
1072.4	12.8561
1075.29	12.8002
1078.18	14.2442
1081.08	13.712
1083.97	12.597
1086.86	10.3761
1089.75	8.92069
1092.65	3.45248
1095.54	1.13495
1098.43	1.78253
1101.33	1.28668
1104.22	1.57625
1107.11	1.50865
1110	0.107727
1112.89	3.07665
1115.79	3.69995
1118.68	6.30023
1121.57	8.12556
1124.47	8.44721
1127.36	8.37166
1130.25	9.35771
1133.14	11.0359
1136.04	9.56244
1138.93	10.7926
1141.82	10.9069
1144.71	10.8491
1147.61	9.51463
1150.5	8.12293
1153.39	7.19011
1156.29	5.39478
1159.18	5.47423
1162.07	3.86513
1164.96	2.28055
1167.86	3.14397
1170.75	1.6671
1173.64	2.09438
1176.54	2.2406
1179.43	1.01474
1182.32	1.67654
1185.21	1.15788
1188.11	1.31058
1191	0.007919
1193.89	0.320328
1196.78	1.12003
1199.68	1.90503
1202.57	0.433731
1205.46	1.99585
1208.35	0.891235
1211.25	2.2009
1214.14	2.56113
1217.03	1.00861
1219.92	0.097534
1222.82	0.354187
1225.71	0.87973
1228.6	1.06511
1231.5	1.44566
1234.39	0.811462
1237.28	1.32957
1240.17	1.67731
1243.07	1.02895
1245.96	1.27512
1248.85	1.08989
1251.74	0.247238
1254.64	1.49208
1257.53	0.639145
1260.42	1.80397
1263.32	0.488876
1266.21	0.835602
1269.1	0.665207
1271.99	1.56772
1274.89	0.739548
1277.78	0.671677
1280.67	1.02277
1283.57	0.916946
1286.46	1.35776
1289.35	1.82709
1292.24	0.306671
1295.13	0.245834
1298.03	0.414658
1300.92	0.382706
