Measurement: Raman, 532 nm, unoriented, Raman Data Processed
Mineral: Manganvesuvianite
Rruff sample: R060377
Ideal chemistry: Ca_19_Mn^3+^Al_10_Mg_2_(SiO_4_)_10_(Si_2_O_7_)_4_O(OH)_9_
Locality: K'Chwaning II mine, Kalahari Manganese Field, north Cape Province, South Africa
Source: Michael Scott
Description: Deep reddish-brown prismatic crystals associated with black hausmannite
Raman shift (cm-1)	intensity
172.513	0
175.406	2.74066
178.298	5.62079
181.191	2.26825
184.084	6.80676
186.976	25.1017
189.869	22.5996
192.762	22.8178
195.655	12.0384
198.547	11.4894
201.44	20.3671
204.333	21.681
207.225	42.1141
210.118	59.9115
213.011	68.0141
215.904	74.3447
218.796	72.4086
221.689	60.3932
224.582	51.7153
227.474	32.8711
230.367	15.2243
233.26	7.20819
236.152	4.63635
239.045	3.89099
241.938	4.5575
244.831	3.03162
247.723	3.58844
250.616	3.40106
253.509	5.64075
256.401	13.2636
259.294	13.0378
262.187	13.0237
265.079	4.63544
267.972	10.1043
270.865	9.28174
273.758	17.3939
276.65	17.0376
279.543	22.9293
282.436	36.4895
285.328	43.4354
288.221	55.6126
291.114	61.8954
294.007	62.1911
296.899	51.2496
299.792	44.1821
302.685	34.1968
305.577	34.3327
308.47	36.4102
311.363	39.6403
314.255	46.4708
317.148	56.5622
320.041	67.6748
322.933	88.4155
325.826	93.4515
328.719	95.1381
331.612	75.6076
334.504	58.2764
337.397	42.1874
340.29	30.241
343.183	29.367
346.075	25.9709
348.968	38.1044
351.861	48.2272
354.753	60.1318
357.646	74.6347
360.539	91.3152
363.431	102.89
366.324	108.987
369.217	95.8399
372.11	94.9903
375.002	65.9969
377.895	42.1394
380.788	24.8809
383.68	10.4583
386.573	6.72192
389.466	0.779205
392.358	4.28873
395.251	17.2023
398.144	31.8795
401.036	53.0237
403.929	64.5653
406.822	68.2701
409.715	76.2625
412.607	81.7804
415.5	74.5463
418.393	67.763
421.285	66.3233
424.178	54.3228
427.071	42.8103
429.964	31.1266
432.856	21.0371
435.749	13.541
438.642	14.8063
441.534	6.77423
444.427	1.49603
447.32	3.09045
450.212	4.65259
453.105	6.56836
455.998	6.84891
458.891	4.65134
461.783	0.72522
464.676	10.0492
467.569	19.65
470.461	34.6332
473.354	52.2748
476.247	63.5046
479.139	84.2551
482.032	92.1273
484.925	96.7904
487.818	101.094
490.71	101.952
493.603	107.426
496.496	111.537
499.388	120.293
502.281	135.434
505.174	144.581
508.067	148.328
510.959	139.762
513.852	116.345
516.745	85.7998
519.637	67.9896
522.53	51.7829
525.423	46.8488
528.316	49.1737
531.208	53.9481
534.101	64.6462
536.994	81.655
539.886	99.2066
542.779	128.554
545.672	139.278
548.564	141.702
551.457	127.299
554.35	108.865
557.242	85.2836
560.135	72.3218
563.028	56.2511
565.921	53.6526
568.813	48.257
571.706	54.7146
574.599	58.9942
577.491	60.4228
580.384	58.699
583.277	46.7769
586.17	34.4009
589.062	29.1494
591.955	26.503
594.848	25.433
597.74	23.1833
600.633	10.6066
603.526	6.91833
606.418	1.49133
609.311	3.96414
612.204	3.6488
615.097	3.01608
617.989	4.44321
620.882	2.22702
623.775	13.1825
626.667	20.9273
629.56	32.6368
632.453	46.9638
635.346	55.3907
638.238	61.7392
641.131	61.1491
644.024	60.1041
646.916	49.5575
649.809	39.6537
652.702	29.7398
655.594	20.3253
658.487	17.6007
661.38	12.8698
664.273	15.3927
667.165	17.268
670.058	27.6007
672.951	24.3868
675.843	24.83
678.736	17.884
681.629	13.8384
684.521	14.6993
687.414	17.6479
690.307	19.87
693.199	26.2207
696.092	32.0099
698.985	26.4127
701.878	15.1799
704.77	9.14414
707.663	1.67842
710.556	0.638138
713.448	0.805161
716.341	0.288513
719.234	1.07665
722.127	1.16833
725.019	4.14372
727.912	5.72441
730.805	7.95897
733.697	4.2191
736.59	4.91989
739.483	7.05066
742.375	5.20003
745.268	4.01993
748.161	7.79704
751.054	2.7544
753.946	5.84492
756.839	7.01988
759.732	4.96457
762.625	5.27725
765.517	2.78253
768.41	1.59732
771.303	2.30167
774.195	0.25235
777.088	0.383865
779.981	2.11497
782.873	7.55574
785.766	0.458099
788.659	7.96832
791.552	7.08154
794.444	12.0122
797.337	13.61
800.23	17.8038
803.122	11.9981
806.015	17.9058
808.908	16.3969
811.8	12.2353
814.693	7.27576
817.586	6.90424
820.479	5.61069
823.371	0.789825
826.264	2.25632
829.157	3.3743
832.049	0.456818
834.942	0.187683
837.835	3.90326
840.727	7.14209
843.62	12.1753
846.513	21.7735
849.405	31.8561
852.298	40.6987
855.191	46.6496
858.084	45.7284
860.976	43.7486
863.869	29.8464
866.762	31.1265
869.654	28.9157
872.547	28.14
875.44	28.0297
878.333	27.1852
881.225	25.665
884.118	23.3521
887.011	19.9666
889.903	14.028
892.796	9.15396
895.689	11.1838
898.582	7.75644
901.474	10.0428
904.367	10.5001
907.26	21.6258
910.152	34.0301
913.045	42.7905
915.938	58.8434
918.83	74.2354
921.723	92.5684
924.616	116.386
927.509	118.574
930.401	124.101
933.294	117.256
936.187	110.83
939.079	98.6362
941.972	84.3468
944.865	80.1456
947.757	69.599
950.65	65.5177
953.543	59.8294
956.436	55.7068
959.328	51.2777
962.221	50.5974
965.114	42.943
968.006	37.7585
970.899	36.4028
973.792	29.0507
976.684	25.955
979.577	18.1524
982.47	8.97141
985.362	4.10391
988.255	0.062347
991.148	1.36902
994.041	2.96091
996.933	5.20373
999.826	3.41128
1002.72	6.54355
1005.61	7.08343
1008.5	10.4766
1011.4	9.52506
1014.29	15.0729
1017.18	17.0912
1020.08	15.4164
1022.97	21.54
1025.86	27.4363
1028.75	25.5547
1031.65	32.6536
1034.54	29.6562
1037.43	33.6007
1040.32	33.737
1043.22	29.4856
1046.11	23.5076
1049	14.2501
1051.89	5.68665
1054.79	1.06647
1057.68	0.23288
1060.57	2.22237
1063.47	0.679688
1066.36	1.82942
1069.25	1.13176
1072.14	5.73093
1075.04	2.53624
1077.93	5.38498
1080.82	6.18544
1083.71	6.3685
1086.61	10.2575
1089.5	7.56171
1092.39	10.7305
1095.29	11.3196
1098.18	9.4339
1101.07	12.4301
1103.96	13.2506
1106.86	16.6268
1109.75	16.2513
1112.64	19.2374
1115.53	16.1858
1118.43	13.7775
1121.32	16.4353
1124.21	12.192
1127.11	11.7954
1130	13.1625
1132.89	11.3679
1135.78	9.23604
1138.68	11.3216
1141.57	10.2831
1144.46	4.03691
1147.35	2.94196
1150.25	10.1026
1153.14	8.73968
1156.03	6.34465
1158.92	4.44286
1161.82	7.54245
1164.71	7.9948
1167.6	10.2207
1170.5	3.8428
1173.39	7.23869
1176.28	7.20901
1179.17	2.82994
1182.07	2.55229
1184.96	1.5367
1187.85	1.62627
1190.74	2.049
1193.64	1.77562
1196.53	1.17836
1199.42	1.26979
1202.32	2.6273
1205.21	0.794235
1208.1	4.96074
1210.99	0.597168
1213.89	3.25949
1216.78	0.477325
1219.67	2.52289
1222.56	1.39313
1225.46	4.84541
1228.35	3.04748
1231.24	4.49686
1234.13	5.08479
1237.03	3.42027
1239.92	1.78146
1242.81	0.484528
1245.71	1.93742
1248.6	0.828751
1251.49	4.47635
1254.38	3.88014
1257.28	1.77794
1260.17	1.63135
1263.06	4.02965
1265.95	3.02701
1268.85	3.54422
1271.74	5.95291
1274.63	4.12836
1277.53	2.14723
1280.42	5.21507
1283.31	3.35831
1286.2	4.30483
1289.1	3.57553
1291.99	3.86792
1294.88	0.14296
1297.78	3.70625
1300.67	0.341492
