Measurement: Raman, 532 nm, unoriented, Raman Data Processed
Mineral: Manganite
Rruff sample: R070269
Ideal chemistry: Mn^3+^O(OH)
Locality: Wessels Mine (Wessel's Mine), Hotazel, Kalahari manganese fields, Northern Cape Province, South Africa
Source: Michael Scott
Description: Divergent black acicular crystals (with dark brown lights) associated with gaudefroyite in gypsum cleavage plate
Measured chemistry: lighter phase: (Mn^3+^_0.99_Fe^3+^_0.01_)_Î£=1_O(OH) ; trace amounts of Cr and Ca; OH by difference; darker phase: gypsum
Raman shift (cm-1)	intensity
143.876	0
146.769	50.2293
149.662	73.7737
152.554	53.2037
155.447	104.73
158.34	19.9399
161.233	1.45642
164.125	24.9849
167.018	50.0149
169.911	21.8812
172.803	24.7214
175.696	37.7217
178.589	6.52161
181.482	8.78528
184.374	15.4251
187.267	58.5941
190.16	46.5207
193.052	45.5924
195.945	19.7778
198.838	11.8948
201.731	40.8695
204.623	11.5304
207.516	50.785
210.409	35.0818
213.301	79.9126
216.194	80.2524
219.087	78.0485
221.979	19.1332
224.872	10.0984
227.765	19.0254
230.657	2.03125
233.55	14.3743
236.443	6.94397
239.336	35.541
242.228	55.4958
245.121	81.1028
248.014	137.53
250.906	183.668
253.799	223.371
256.692	229.497
259.584	248.298
262.477	223.293
265.37	240.845
268.263	174.951
271.155	155.794
274.048	144.371
276.941	134.914
279.833	146
282.726	133.571
285.619	102.467
288.512	65.3354
291.404	39.9279
294.297	13.843
297.19	15.5367
300.082	11.9766
302.975	11.1738
305.868	0.654663
308.76	6.18176
311.653	15.1112
314.546	22.6462
317.438	59.0828
320.331	69.2034
323.224	39.686
326.117	74.5785
329.009	104.398
331.902	113.837
334.795	157.338
337.687	195.932
340.58	284.104
343.473	356.05
346.365	495.488
349.258	551.576
352.151	649.625
355.044	700.541
357.936	738.771
360.829	616.515
363.722	545.846
366.614	523.041
369.507	560.893
372.4	671.951
375.293	843.308
378.185	1022.52
381.078	1215.18
383.971	1258.38
386.863	1053.22
389.756	817.971
392.649	562.058
395.541	360.949
398.434	290.051
401.327	155.118
404.219	132.685
407.112	119.274
410.005	105.753
412.898	109.412
415.79	86.6533
418.683	84.5217
421.576	64.3367
424.469	52.6904
427.361	25.7573
430.254	33.6086
433.147	36.6719
436.039	20.6853
438.932	58.5249
441.825	41.9939
444.717	26.1266
447.61	9.44202
450.503	23.9673
453.396	47.9412
456.288	12.2515
459.181	9.26294
462.074	17.6228
464.966	40.6118
467.859	38.0298
470.752	13.1199
473.644	45.1716
476.537	14.9556
479.43	9.06812
482.322	31.2949
485.215	76.3132
488.108	92.0085
491.001	65.3694
493.893	52.0559
496.786	97.4482
499.679	107.358
502.571	256.015
505.464	384.864
508.357	576.114
511.25	784.297
514.142	1079.51
517.035	1329.26
519.928	1661.45
522.82	1897.73
525.713	2052.85
528.606	2053.96
531.498	2066.57
534.391	1980.63
537.284	1890.71
540.177	1964.18
543.069	2174.29
545.962	2326.96
548.855	2524.03
551.747	2601.95
554.64	2545.49
557.533	2274.58
560.425	1919.4
563.318	1547.74
566.211	1119.85
569.104	791.195
571.996	592.5
574.889	389.178
577.782	258.219
580.674	172.247
583.567	106.038
586.46	94.4939
589.352	107.38
592.245	155.86
595.138	176.755
598.031	284.631
600.923	403.52
603.816	607.079
606.709	904.32
609.601	1274.58
612.494	1699.21
615.387	2069.75
618.279	2212.92
621.172	2252.52
624.065	1903.05
626.958	1549.45
629.85	1160.43
632.743	837.006
635.636	623.787
638.528	439.227
641.421	264.211
644.314	215.331
647.207	115.522
650.099	28.2629
652.992	67.9575
655.885	34.6753
658.777	10.0242
661.67	5.20386
664.563	33.249
667.455	12.1941
670.348	36.7307
673.241	34.4724
676.134	9.16382
679.026	5.50928
681.919	9.51929
684.812	34.791
687.704	10.0261
690.597	3.4917
693.49	45.5823
696.382	33.3145
699.275	87.8242
702.168	86.0898
705.061	66.4416
707.953	95.7727
710.846	92.5686
713.739	104.881
716.631	149.589
719.524	191.886
722.417	146.763
725.309	129.602
728.202	138.772
731.095	115.638
733.987	121.788
736.88	130.687
739.773	98.4192
742.666	81.8645
745.558	117.463
748.451	77.8496
751.344	111.193
754.236	75.8464
757.129	53.3179
760.022	57.5767
762.915	38.3186
765.807	65.439
768.7	59.5364
771.593	9.85156
774.485	42.2732
777.378	41.3633
780.271	44.8452
783.163	43.4055
786.056	67.1985
788.949	59.5994
791.842	23.7915
794.734	38.4731
797.627	59.0364
800.52	19.4883
803.412	66.0769
806.305	50.3909
809.198	5.41797
812.091	30.4431
814.983	18.2107
817.876	15.4885
820.769	32.2244
823.661	42.2527
826.554	14.1392
829.447	48.385
832.339	4.28906
835.232	3.89551
838.125	5.09619
841.018	14.0576
843.91	9.36792
846.803	8.177
849.696	4.66675
852.588	9.43896
855.481	19.3936
858.374	56.4087
861.266	18.5923
864.159	35.0386
867.052	5.37939
869.944	29.0149
872.837	0.458496
875.73	15.2806
878.623	29.2602
881.515	46.2103
884.408	27.1048
887.301	13.6921
890.193	34.0347
893.086	13.6975
895.979	10.7383
898.871	3.96265
901.764	49.1998
904.657	39.4123
907.55	25.7396
910.442	18.8502
913.335	6.11914
916.228	46.5149
919.12	21.8625
922.013	28.1404
924.906	21.4844
927.798	36.8882
930.691	22.6179
933.584	31.2263
936.477	19.8398
939.369	24.042
942.262	49.2698
945.155	23.4114
948.047	77.6282
950.94	51.9817
953.833	51.4412
956.726	7.30615
959.618	40.873
962.511	33.1331
965.404	43.5471
968.296	31.9544
971.189	25.8545
974.082	9.08569
976.974	37.4922
979.867	0.240479
982.76	13.1668
985.653	56.5198
988.545	78.1367
991.438	50.9734
994.331	59.0752
997.223	37.4609
1000.12	23.1235
1003.01	19.9817
1005.9	52.0974
1008.79	8.78149
1011.69	55.9695
1014.58	18.2109
1017.47	1.45068
1020.37	21.0664
1023.26	31.021
1026.15	47.418
1029.04	19.6699
1031.94	32.2466
1034.83	47.4363
1037.72	40.3293
1040.61	7.7439
1043.51	32.3335
1046.4	16.1135
1049.29	37.5706
1052.18	8.08398
1055.08	37.4407
1057.97	27.5637
1060.86	3.58813
1063.76	41.3413
1066.65	47.0898
1069.54	6.34229
1072.43	18.9944
1075.33	37.5769
1078.22	70.9919
1081.11	44.2315
1084	45.3662
1086.9	2.48071
1089.79	32.4385
1092.68	18.24
1095.58	43.9875
1098.47	23.4316
1101.36	20.8298
1104.25	34.2805
1107.15	37.3628
1110.04	65.5408
1112.93	66.7165
1115.82	46.1025
1118.72	72.3958
1121.61	34.48
1124.5	50.3862
1127.39	102.066
1130.29	22.5972
1133.18	14.3743
1136.07	33.1118
1138.97	52.9443
1141.86	35.6304
1144.75	73.7012
1147.64	45.6533
1150.54	74.4373
1153.43	44.781
1156.32	74.4224
1159.21	55.5732
1162.11	11.2627
1165	3.86646
1167.89	45.98
1170.79	64.0166
1173.68	49.2117
1176.57	45.9971
1179.46	44.8076
1182.36	61.1562
1185.25	3.87183
1188.14	28.427
1191.03	55.1125
1193.93	20.1038
1196.82	53.2957
1199.71	71.2334
1202.61	17.1599
1205.5	31.7515
1208.39	81.1257
1211.28	49.2556
1214.18	41.4893
1217.07	8.25757
1219.96	35.8076
1222.85	23.196
1225.75	53.8037
1228.64	53.9287
1231.53	54.3513
1234.42	1.05908
1237.32	23.4219
1240.21	12.2649
1243.1	31.5044
1246	50.3916
1248.89	93.3518
1251.78	6.40064
1254.67	45.6587
1257.57	3.71021
1260.46	55.3477
1263.35	26.9565
1266.24	4.25952
1269.14	44.4778
1272.03	3.65112
1274.92	12.6228
1277.82	44.27
1280.71	40.3914
1283.6	37.717
1286.49	47.9221
1289.39	65.9995
1292.28	16.727
1295.17	23.4758
1298.06	45.3635
