Measurement: Raman, 785 nm, unoriented, Raman Data Processed
Mineral: Manganoneptunite
Rruff sample: R060901
Ideal chemistry: KNa_2_LiMn^2+^_2_Ti_2_Si_8_O_24_
Locality: Mont St. Hilaire, Quebec, Canada
Source: Royal Ontario Museum
Description: Dark reddish-brown single crystal cleavage fragment.
Measured chemistry: (K_0.92_Na_0.08_)_Σ=1_Na_2.00_Li_1.00_(Mn^2+^_1.44_Zn_0.25_Mg_0.20_Fe^3+^_0.11_)_Σ=2_(Ti_1.89_Fe^3+^_0.08_Al_0.03_)_Σ=2_Si_8.00_O_24_ ; Li not measured but estimated by difference and stoichiometry; Fe as Fe3 by charge balance
Raman shift (cm-1)	intensity
119.599	0
122.492	10.562
125.384	127.402
128.277	382.849
131.17	448.173
134.062	223.523
136.955	24.9285
139.848	44.9578
142.74	185.241
145.633	385.878
148.526	555.931
151.419	522.745
154.311	380.186
157.204	290.107
160.097	260.421
162.989	294.815
165.882	285.254
168.775	301.425
171.668	284.874
174.56	261.818
177.453	245.51
180.346	219.644
183.238	209.501
186.131	246.236
189.024	300.71
191.917	419.54
194.809	573.737
197.702	600.991
200.595	568.877
203.487	456.597
206.38	334.169
209.273	251.403
212.165	189.415
215.058	167.529
217.951	113.028
220.844	60.6857
223.736	21.1756
226.629	7.09546
229.522	14.6904
232.414	10.292
235.307	20.8572
238.2	15.4891
241.092	13.8895
243.985	34.3373
246.878	23.9168
249.77	19.6815
252.663	25.673
255.556	25.955
258.449	15.4194
261.341	18.8946
264.234	50.5269
267.127	110.164
270.019	174.909
272.912	253.306
275.805	341.678
278.697	435.373
281.59	427.926
284.483	411.414
287.376	297.383
290.268	227.336
293.161	219.193
296.054	256.118
298.946	366.619
301.839	534.786
304.732	761.033
307.625	1085.08
310.517	1263.13
313.41	1130.92
316.303	804.312
319.195	602.887
322.088	546.376
324.981	517.005
327.873	521.538
330.766	527.795
333.659	556.747
336.551	626.723
339.444	690.342
342.337	688.727
345.23	620.472
348.122	522.32
351.015	421.36
353.908	311.329
356.8	215.393
359.693	126.121
362.586	62.6511
365.478	4.90839
368.371	12.0462
371.264	22.9858
374.157	6.82996
377.049	36.2779
379.942	95.2051
382.835	158.633
385.727	220.593
388.62	239.824
391.513	202.97
394.406	148.911
397.298	100.704
400.191	87.1759
403.084	77.2644
405.976	81.5668
408.869	91.0231
411.762	115.789
414.654	124.148
417.547	141.47
420.44	136.203
423.332	114.412
426.225	118.329
429.118	97.0387
432.011	60.6233
434.903	28.6465
437.796	15.0779
440.689	0.86554
443.581	7.70697
446.474	4.70282
449.367	16.9457
452.26	15.0138
455.152	9.85287
458.045	19.641
460.938	5.22278
463.83	32.6337
466.723	24.7954
469.616	54.674
472.508	82.2003
475.401	125.926
478.294	160.609
481.187	208.318
484.079	274.422
486.972	318.558
489.865	358.96
492.757	368.66
495.65	311.814
498.543	259.544
501.435	243.719
504.328	244.998
507.221	255.181
510.113	248.991
513.006	210.268
515.899	195.469
518.792	201.489
521.684	214.239
524.577	251.843
527.47	264.337
530.362	272.139
533.255	236.87
536.148	234.189
539.04	240.801
541.933	258.493
544.826	219.618
547.719	231.328
550.611	238.161
553.504	228.656
556.397	201.825
559.289	192.087
562.182	160.496
565.075	160.012
567.967	138.638
570.86	133.315
573.753	162.663
576.646	164.207
579.538	196.056
582.431	189.947
585.324	213.444
588.216	215.601
591.109	180.125
594.002	105.063
596.894	66.6809
599.787	45.4004
602.68	14.8923
605.573	6.04022
608.465	1.57169
611.358	8.94049
614.251	20.7468
617.143	9.42346
620.036	14.648
622.929	0.366608
625.822	8.97321
628.714	1.61304
631.607	37.5185
634.5	64.5921
637.392	127.241
640.285	197.5
643.178	287.098
646.07	407.913
648.963	489.359
651.856	561.668
654.749	555.157
657.641	461.453
660.534	324.148
663.427	238.328
666.319	227.834
669.212	254.865
672.105	307.632
674.997	376.868
677.89	417.953
680.783	498.242
683.676	607.173
686.568	810.132
689.461	1121.28
692.354	1411.62
695.246	1491.56
698.139	1180.99
701.032	719.143
703.924	469.545
706.817	334.083
709.71	283.586
712.602	275.474
715.495	249.887
718.388	197.293
721.281	95.3256
724.173	35.2221
727.066	8.96494
729.959	16.2162
732.851	5.14145
735.744	4.94104
738.637	10.6824
741.529	24.4507
744.422	50.5615
747.315	72.0519
750.208	125.29
753.1	141.042
755.993	165.525
758.886	188.079
761.778	207.249
764.671	205.95
767.564	190.986
770.457	194.538
773.349	191.94
776.242	160.229
779.135	151.621
782.027	114.455
784.92	84.4277
787.813	35.9582
790.705	19.8666
793.598	10.6619
796.491	20.2616
799.384	8.90894
802.276	7.28821
805.169	95.1055
808.062	237.168
810.954	480.342
813.847	963.474
816.74	1864.16
819.632	3211.18
822.525	4874.5
825.418	5649.4
828.311	5169.9
831.203	4363.69
834.096	3825.58
836.989	3596.29
839.881	3356.53
842.774	2828.53
845.667	2129.76
848.559	1443.28
851.452	965.836
854.345	643.262
857.238	481.509
860.13	359.666
863.023	266.308
865.916	190.277
868.808	165.253
871.701	130.529
874.594	108.677
877.486	79.7785
880.379	71.4087
883.272	52.8875
886.165	53.7469
889.057	70.3608
891.95	63.6844
894.843	51.3392
897.735	22.0273
900.628	27.3265
903.521	29.4254
906.413	22.1422
909.306	17.2908
912.199	19.2086
915.092	25.9554
917.984	12.2304
920.877	24.8854
923.77	52.3134
926.662	117.647
929.555	158.55
932.448	211.635
935.341	241.961
938.233	226.686
941.126	206.966
944.019	142.84
946.911	121.662
949.804	99.2641
952.697	97.1714
955.589	73.9063
958.482	64.2733
961.375	44.7274
964.268	28.4614
967.16	15.8844
970.053	32.0103
972.946	20.0758
975.838	5.67636
978.731	6.58212
981.624	10.4062
984.516	1.83844
987.409	12.2957
990.302	43.9429
993.194	36.3572
996.087	72.0532
998.98	80.5547
1001.87	68.7802
1004.76	88.7035
1007.66	86.9976
1010.55	116.536
1013.44	163.616
1016.34	213.501
1019.23	220.148
1022.12	231.428
1025.01	204.28
1027.91	193.481
1030.8	192.732
1033.69	202.684
1036.59	230.942
1039.48	240.322
1042.37	208.977
1045.26	174.658
1048.16	186.801
1051.05	178.217
1053.94	185.102
1056.83	206.723
1059.73	215.914
1062.62	222.677
1065.51	193.354
1068.4	163.632
1071.3	141.805
1074.19	126.936
1077.08	105.576
1079.98	99.1368
1082.87	86.3742
1085.76	79.8181
1088.65	65.429
1091.55	72.2522
1094.44	25.4727
1097.33	34.136
1100.22	13.3226
1103.12	8.80487
1106.01	14.6634
1108.9	3.53531
1111.8	5.6911
1114.69	24.9171
1117.58	15.9599
1120.47	19.306
1123.37	21.4961
1126.26	28.4989
1129.15	22.8192
1132.04	25.174
1134.94	15.1764
1137.83	16.965
1140.72	19.0318
1143.62	29.2963
1146.51	17.9515
1149.4	26.0807
1152.29	28.7649
1155.19	24.306
1158.08	16.0967
1160.97	20.1008
1163.86	3.6871
1166.76	0.256165
1169.65	0.461853
1172.54	1.22635
1175.43	12.5685
1178.33	20.4112
1181.22	4.64587
1184.11	9.38444
1187.01	0.100571
1189.9	11.4998
1192.79	18.3684
1195.68	13.1823
1198.58	0.826111
1201.47	23.4526
1204.36	13.8712
1207.25	1.90443
1210.15	16.419
1213.04	12.1837
1215.93	14.6218
1218.83	8.25577
1221.72	19.489
1224.61	12.5301
1227.5	20.6115
1230.4	18.8913
1233.29	22.8563
1236.18	3.33669
1239.07	6.4101
1241.97	9.51993
1244.86	2.14813
1247.75	22.7116
1250.64	13.6229
1253.54	7.37839
1256.43	12.6081
1259.32	4.71951
