Measurement: Raman, 532 nm, unoriented, Raman Data Processed
Mineral: Manganite
Rruff sample: R070593
Ideal chemistry: Mn^3+^O(OH)
Locality: Ilfeld, near Nordhausen, Harz Mountains, Thuringia, Germany
Source: James Shigley
Description: Bundled aggregates of steel-gray metallic prisms
Measured chemistry: Mn^3+^_1.00_O(OH) ; OH estimated by difference and stoichiometry
Raman shift (cm-1)	intensity
127.674	0
131.049	147.456
134.424	247.481
137.799	446.882
141.174	694.9
144.548	1112.05
147.923	1498.93
151.298	748.225
154.673	373.767
158.048	140.287
161.423	185.828
164.797	49.0966
168.172	84.7559
171.547	75.5117
174.922	53.9294
178.297	66.8898
181.671	78.3738
185.046	33.9587
188.421	61.6227
191.796	76.1664
195.171	21.3392
198.545	14.8151
201.92	113.006
205.295	32.5423
208.67	54.396
212.045	209.339
215.419	215.734
218.794	465.485
222.169	186.812
225.544	3.90137
228.919	74.8907
232.294	27.4821
235.668	73.914
239.043	93.9966
242.418	364.975
245.793	465.657
249.168	562.312
252.542	792.816
255.917	1085.61
259.292	1116.5
262.667	857.608
266.042	521.338
269.416	400.963
272.791	303.843
276.166	283.915
279.541	309.894
282.916	348.184
286.291	409.519
289.665	219.229
293.04	138.711
296.415	82.7828
299.79	58.3755
303.165	22.6267
306.539	33.4952
309.914	38.2324
313.289	27.3522
316.664	0.079346
320.039	19.7708
323.414	51.9147
326.788	82.4733
330.163	145.899
333.538	198.638
336.913	277.313
340.288	460.93
343.662	702.218
347.037	1073.54
350.412	1466.69
353.787	1902.34
357.162	2677.36
360.536	2191.68
363.911	1344.99
367.286	895.446
370.661	977.473
374.036	1402.03
377.411	1842.92
380.785	2429.04
384.16	3937.07
387.535	5722.92
390.91	3374.64
394.285	1312.01
397.659	644.382
401.034	376.946
404.409	252.943
407.784	202.178
411.159	140.764
414.534	163.156
417.908	199.908
421.283	186.141
424.658	144.898
428.033	79.6182
431.408	75.2593
434.782	129.051
438.157	86.2741
441.532	73.279
444.907	71.7302
448.282	25.8646
451.656	58.0718
455.031	8.85626
458.406	3.03388
461.781	8.82831
465.156	15.3423
468.531	62.0416
471.905	40.8493
475.28	39.7772
478.655	62.6499
482.03	59.5272
485.405	34.8182
488.779	96.6631
492.154	210.84
495.529	267.469
498.904	286.986
502.279	363.834
505.654	658.777
509.028	1136.99
512.403	1687.78
515.778	2552.76
519.153	3487.13
522.528	4635.86
525.903	5836.81
529.277	6666.43
532.652	6612.52
536.027	5596.42
539.402	4923.74
542.777	5217.85
546.151	6294.9
549.526	7815.77
552.901	9482.05
556.276	10897.8
559.651	10573.1
563.025	7944.24
566.4	5123.58
569.775	3157.94
573.15	1955.14
576.525	1245.16
579.899	736.628
583.274	451.121
586.649	233.855
590.024	66.6838
593.399	24.2384
596.774	2.07495
600.148	66.1536
603.523	147.561
606.898	197.03
610.273	383.824
613.648	593.794
617.022	840.184
620.397	982.604
623.772	926.332
627.147	739.569
630.522	492.938
633.896	238.611
637.271	207.101
640.646	112.432
644.021	18.4817
647.396	20.9955
650.771	12.5967
654.145	43.5222
657.52	7.94635
660.895	1.85205
664.27	9.27667
667.645	7.20514
671.019	2.27447
674.394	99.488
677.769	100.758
681.144	46.9117
684.519	2.41486
687.894	59.7988
691.268	75.5602
694.643	150.9
698.018	153.618
701.393	154.499
704.768	127.546
708.142	145.241
711.517	172.288
714.892	140.599
718.267	191.17
721.642	111.135
725.016	170.883
728.391	156.886
731.766	117.387
735.141	151.149
738.516	141.384
741.891	130.41
745.265	160.595
748.64	145.307
752.015	110.236
755.39	107.578
758.765	82.9995
762.139	98.6471
765.514	127.638
768.889	73.8039
772.264	126.876
775.639	93.7798
779.014	111.486
782.388	28.9518
785.763	74.4579
789.138	22.5984
792.513	22.8644
795.888	86.3596
799.262	0.743896
802.637	34.082
806.012	98.9022
809.387	29.0504
812.762	24.3491
816.136	81.0292
819.511	32.2255
822.886	60.9815
826.261	98.6044
829.636	69.294
833.011	52.0839
836.385	4.0589
839.76	57.514
843.135	8.76294
846.51	30.9926
849.885	6.11517
853.26	62.2092
856.634	28.4977
860.009	61.434
863.384	29.5454
866.759	3.63379
870.134	86.4111
873.508	7.35541
876.883	35.9528
880.258	58.643
883.633	15.6033
887.008	22.9421
890.382	5.36279
893.757	70.4416
897.132	42.0763
900.507	83.4409
903.882	42.6027
907.256	47.4423
910.631	11.6948
914.006	60.647
917.381	98.2083
920.756	104.034
924.131	6.06934
927.505	23.2996
930.88	50.228
934.255	31.3973
937.63	64.6568
941.005	54.0568
944.379	51.9185
947.754	1.10809
951.129	82.1921
954.504	68.2522
957.879	85.361
961.254	12.6803
964.628	91.4322
968.003	36.5805
971.378	95.6936
974.753	59.6841
978.128	20.4141
981.502	98.677
984.877	44.1055
988.252	48.4679
991.627	79.3251
995.002	30.512
998.376	87.1721
1001.75	14.6773
1005.13	32.5175
1008.5	27.9717
1011.88	28.947
1015.25	29.7241
1018.62	11.6296
1022	65.4782
1025.38	83.1732
1028.75	36.3708
1032.12	4.22211
1035.5	1.02405
1038.87	99.512
1042.25	61.3011
1045.62	39.5179
1049	30.4265
1052.37	78.6063
1055.75	105.849
1059.12	38.5889
1062.5	45.7626
1065.87	88.8199
1069.25	53.1138
1072.62	58.5906
1076	12.33
1079.37	129.879
1082.75	93.9722
1086.12	65.8276
1089.5	44.6915
1092.87	68.7961
1096.25	46.9853
1099.62	35.4395
1103	44.8309
1106.37	39.7266
1109.74	59.6716
1113.12	13.7797
1116.49	50.4894
1119.87	23.2459
1123.24	56.7166
1126.62	50.6645
1129.99	61.507
1133.37	42.4337
1136.74	51.235
1140.12	133.35
1143.49	148.752
1146.87	145.893
1150.24	139.179
1153.62	129.061
1156.99	26.7075
1160.37	105.403
1163.74	55.7847
1167.12	62.3153
1170.49	44.1777
1173.87	54.4847
1177.24	16.8276
1180.62	66.9349
1183.99	66.4023
1187.37	69.6281
1190.74	94.3563
1194.12	45.6464
1197.49	48.7989
1200.87	3.4696
1204.24	102.163
1207.62	181.131
1210.99	44.7736
1214.37	48.7422
1217.74	74.6269
1221.11	52.4108
1224.49	79.9277
1227.86	30.2046
1231.24	71.7953
1234.61	93.4475
1237.99	22.116
1241.36	47.3774
1244.74	61.1031
1248.11	1.95404
1251.49	59.0979
1254.86	107.962
1258.24	89.5054
1261.61	38.2576
1264.99	3.82159
1268.36	25.5181
1271.74	50.5101
1275.11	54.3204
1278.49	82.4965
1281.86	62.1925
1285.24	126.136
