Measurement: Raman, 532 nm, unoriented, Raman Data Processed
Mineral: Manganoneptunite
Rruff sample: R060901
Ideal chemistry: KNa_2_LiMn^2+^_2_Ti_2_Si_8_O_24_
Locality: Mont St. Hilaire, Quebec, Canada
Source: Royal Ontario Museum
Description: Dark reddish-brown single crystal cleavage fragment.
Measured chemistry: (K_0.92_Na_0.08_)_Σ=1_Na_2.00_Li_1.00_(Mn^2+^_1.44_Zn_0.25_Mg_0.20_Fe^3+^_0.11_)_Σ=2_(Ti_1.89_Fe^3+^_0.08_Al_0.03_)_Σ=2_Si_8.00_O_24_ ; Li not measured but estimated by difference and stoichiometry; Fe as Fe3 by charge balance
Raman shift (cm-1)	intensity
139.843	0
143.218	2.98898
146.593	19.0282
149.968	39.2677
153.343	16.5133
156.718	5.67444
160.092	6.43741
163.467	9.8432
166.842	16.0425
170.217	25.3143
173.592	32.6102
176.966	41.5828
180.341	43.7357
183.716	47.1223
187.091	60.5977
190.466	103.857
193.84	143.25
197.215	174.855
200.59	203.01
203.965	159.15
207.34	95.5931
210.714	76.5523
214.089	42.2901
217.464	25.0468
220.839	12.4776
224.214	3.32931
227.589	7.4921
230.963	6.01648
234.338	14.8894
237.713	28.2395
241.088	38.2541
244.463	46.4451
247.838	47.3581
251.212	38.4139
254.587	17.0239
257.962	4.30814
261.337	9.38678
264.712	9.7424
268.086	33.4209
271.461	40.7194
274.836	58.8538
278.211	84.4001
281.586	71.6157
284.96	60.3704
288.335	33.8836
291.71	19.3082
295.085	24.6929
298.46	50.3575
301.834	95.1797
305.209	147.565
308.584	201.245
311.959	216.884
315.334	197.826
318.709	164.251
322.083	161.52
325.458	167.357
328.833	166.427
332.208	164.813
335.583	169.575
338.957	170.233
342.332	163.719
345.707	136.814
349.082	119.746
352.457	104.603
355.832	91.9143
359.206	58.46
362.581	35.9622
365.956	18.6959
369.331	0.470245
372.706	2.32385
376.08	1.7227
379.455	3.9819
382.83	18.065
386.205	27.6558
389.58	24.9326
392.954	44.7109
396.329	32.0394
399.704	39.5888
403.079	44.4054
406.454	57.6491
409.829	69.3337
413.203	61.4535
416.578	74.9207
419.953	59.3398
423.328	57.0383
426.703	64.2918
430.077	53.8074
433.452	19.3797
436.827	25.082
440.202	15.4463
443.577	6.95258
446.952	10.1652
450.326	11.4724
453.701	8.47713
457.076	11.8811
460.451	7.1409
463.826	3.95872
467.2	21.8986
470.575	16.0431
473.95	31.0353
477.325	37.6826
480.7	59.7332
484.074	76.5138
487.449	81.3431
490.824	91.3378
494.199	94.4122
497.574	72.1888
500.949	65.6661
504.323	54.0093
507.698	67.405
511.073	74.528
514.448	58.1509
517.823	75.3558
521.197	82.04
524.572	106.266
527.947	118.767
531.322	115.26
534.697	102.587
538.072	102.102
541.446	106.919
544.821	110.526
548.196	116.897
551.571	137.455
554.946	143.835
558.32	132.148
561.695	133.593
565.07	146.375
568.445	143.737
571.82	148.339
575.194	140.662
578.569	145.917
581.944	143.129
585.319	125.433
588.694	120.443
592.068	90.7956
595.443	50.4336
598.818	21.2536
602.193	11.1067
605.568	5.91243
608.942	3.53943
612.317	2.50908
615.692	0.059052
619.067	10.5659
622.442	0.018265
625.817	6.60796
629.191	10.1632
632.566	21.8804
635.941	39.0005
639.316	68.1015
642.691	106.508
646.066	140.619
649.44	185.154
652.815	222.525
656.19	183.922
659.565	148.004
662.94	101.434
666.314	97.2099
669.689	107.654
673.064	129.429
676.439	135.726
679.814	187.591
683.188	236.981
686.563	322.2
689.938	409.524
693.313	489.938
696.688	464.635
700.062	314.908
703.437	184.081
706.812	135.438
710.187	123.729
713.562	93.5828
716.937	86.3689
720.311	48.2439
723.686	22.2156
727.061	0.109665
730.436	8.71869
733.811	10.3822
737.185	9.34212
740.56	31.5612
743.935	28.0099
747.31	39.4733
750.685	68.8241
754.059	61.7512
757.434	98.7202
760.809	109.327
764.184	105.271
767.559	103.215
770.934	106.327
774.308	98.3906
777.683	80.1515
781.058	70.059
784.433	36.6899
787.808	22.3477
791.183	8.97684
794.557	12.2746
797.932	16.1844
801.307	15.1211
804.682	40.9625
808.057	132.675
811.431	319.271
814.806	634.328
818.181	1147.6
821.556	1824.77
824.931	2361.95
828.305	2417.56
831.68	2236.15
835.055	2157.59
838.43	2034.91
841.805	1749.74
845.179	1253.89
848.554	811.742
851.929	511.746
855.304	359.997
858.679	287.208
862.053	237.309
865.428	204.629
868.803	172.186
872.178	149.145
875.553	102.639
878.928	83.3966
882.302	54.3278
885.677	62.7257
889.052	70.2956
892.427	69.1331
895.802	67.4178
899.177	54.163
902.551	48.8021
905.926	35.3168
909.301	22.4167
912.676	5.54199
916.051	9.13495
919.425	13.5142
922.8	21.94
926.175	26.9787
929.55	65.8793
932.925	77.9261
936.299	100.154
939.674	98.9898
943.049	77.9736
946.424	69.8767
949.799	50.6671
953.173	49.4913
956.548	32.3531
959.923	21.8225
963.298	7.54248
966.673	17.3691
970.048	22.1912
973.422	12.0057
976.797	3.14435
980.172	18.4977
983.547	18.6789
986.922	22.9628
990.296	34.7358
993.671	72.5589
997.046	79.6854
1000.42	88.108
1003.8	78.4502
1007.17	83.5255
1010.54	112.507
1013.92	116.587
1017.29	111.859
1020.67	112.425
1024.05	89.6764
1027.42	73.2211
1030.79	88.7283
1034.17	71.7952
1037.54	82.976
1040.92	77.309
1044.29	74.0439
1047.67	108.844
1051.04	107.959
1054.42	118.513
1057.79	131.594
1061.17	122.918
1064.54	135.498
1067.92	131.607
1071.29	122.681
1074.67	105.382
1078.04	88.0041
1081.42	87.3762
1084.79	83.2378
1088.17	58.0611
1091.54	45.3303
1094.92	41.9182
1098.29	4.3941
1101.66	4.14406
1105.04	3.14848
1108.41	3.74058
1111.79	6.62158
1115.16	8.4335
1118.54	15.6675
1121.91	29.1586
1125.29	21.9309
1128.66	33.9752
1132.04	33.7522
1135.41	50.0605
1138.79	26.3091
1142.16	47.6675
1145.54	44.7605
1148.91	48.806
1152.29	47.0823
1155.66	16.1067
1159.04	21.5366
1162.41	11.4253
1165.79	11.6176
1169.16	0.066193
1172.54	7.33783
1175.91	7.1821
1179.29	12.2627
1182.66	11.5414
1186.04	8.05222
1189.41	0.934723
1192.79	6.05279
1196.16	6.51386
1199.54	12.1059
1202.91	10.7969
1206.29	5.81914
1209.66	13.656
1213.03	9.73454
1216.41	0.494461
1219.78	11.104
1223.16	5.61478
1226.53	15.2546
1229.91	2.47339
1233.28	10.0493
1236.66	10.0421
1240.03	4.01457
1243.41	5.32823
1246.78	14.3248
1250.16	12.9132
1253.53	17.8766
1256.91	2.28891
1260.28	4.21214
1263.66	12.471
1267.03	13.9233
1270.41	7.19688
1273.78	1.52553
1277.16	13.8752
1280.53	13.6259
1283.9	14.2047
1287.28	22.0255
1290.65	6.79428
1294.03	8.91722
1297.4	15.2547
1300.78	0
