Measurement: Raman, 780 nm, unoriented, Raman Data Processed
Mineral: Manganoeudialyte
Rruff sample: R110212
Ideal chemistry: Na_14_Ca_6_Mn_3_Zr_3_[Si_26_O_72_(OH)_2_]Cl_2_4H_2_O
Locality: Pocos de Caldas plateau, Minas Gerais, Brazil
Source: Gunnar Farber
Description: Red massive associated with orthoclase, nepheline and aegirine
Raman shift (cm-1)	intensity
129.691	0
132.583	9.43396
135.476	37.7636
138.369	68.179
141.262	92.912
144.154	100.921
147.047	92.5597
149.94	74.3041
152.832	51.1528
155.725	33.4613
158.618	17.5546
161.51	8.65118
164.403	1.32806
167.296	0.857544
170.189	2.38995
173.081	1.36688
175.974	1.13525
178.867	6.04272
181.759	10.723
184.652	18.1144
187.545	27.6783
190.437	39.4073
193.33	51.4748
196.223	61.333
199.115	70.3872
202.008	72.3481
204.901	69.3279
207.794	65.1194
210.686	56.4179
213.579	45.2177
216.472	35.4228
219.364	24.4529
222.257	17.484
225.15	9.453
228.042	3.65888
230.935	0.287354
233.828	3.21533
236.721	5.72321
239.613	3.49744
242.506	1.4035
245.399	0.472168
248.291	6.01617
251.184	5.33777
254.077	3.453
256.969	3.61285
259.862	7.45404
262.755	12.1472
265.648	10.7736
268.54	17.1403
271.433	18.628
274.326	17.159
277.218	18.0508
280.111	21.7026
283.004	21.7506
285.897	20.9664
288.789	27.454
291.682	32.2997
294.575	29.4525
297.467	35.5703
300.36	38.4241
303.253	41.2578
306.145	48.2848
309.038	51.8342
311.931	53.3664
314.824	47.5944
317.716	45.7394
320.609	41.8411
323.502	45.3754
326.394	51.662
329.287	64.9132
332.18	73.4059
335.072	81.8365
337.965	92.1595
340.858	89.4108
343.75	84.04
346.643	75.1093
349.536	61.7793
352.429	53.0288
355.321	43.3074
358.214	37.925
361.107	28.1142
364	19.391
366.892	15.8953
369.785	16.5327
372.678	15.4235
375.57	11.7464
378.463	11.6847
381.356	12.4755
384.248	14.478
387.141	24.1125
390.034	35.0842
392.926	43.1906
395.819	47.6078
398.712	43.6489
401.605	35.4171
404.497	26.7175
407.39	17.9164
410.283	5.20825
413.175	0.05188
416.068	3.67523
418.961	5.61859
421.853	6.62756
424.746	7.29193
427.639	5.42316
430.532	0.368286
433.424	8.3573
436.317	19.2716
439.21	34.6997
442.102	49.2571
444.995	64.769
447.888	81.6224
450.781	98.6973
453.673	110.676
456.566	132.493
459.459	143.256
462.351	153.455
465.244	158.305
468.137	158.383
471.029	159.72
473.922	163.79
476.815	157.106
479.707	152.996
482.6	153.777
485.493	157.503
488.386	165.182
491.278	169.152
494.171	176.882
497.064	179.393
499.956	180.828
502.849	169.225
505.742	160.916
508.635	145.558
511.527	122.963
514.42	98.6876
517.313	77.5617
520.205	61.3707
523.098	53.1007
525.991	37.5521
528.883	30.7389
531.776	24.8955
534.669	17.3875
537.562	11.1516
540.454	14.6108
543.347	24.4601
546.24	31.5389
549.132	51.1625
552.025	79.2104
554.918	114.88
557.81	155.967
560.703	196.036
563.596	239.91
566.489	293.171
569.381	276.601
572.274	178.602
575.167	86.9602
578.059	38.4224
580.952	7.85034
583.845	2.40851
586.737	9.81805
589.63	5.51105
592.523	1.15216
595.415	10.942
598.308	26.8206
601.201	39.4904
604.094	50.204
606.986	54.5631
609.879	53.2898
612.772	42.1874
615.664	25.1684
618.557	9.15863
621.45	0.080261
624.342	2.0932
627.235	0.762573
630.128	1.92407
633.021	2.79083
635.913	1.81659
638.806	1.41327
641.699	1.24664
644.591	0.109497
647.484	2.07562
650.377	9.13763
653.269	18.4377
656.162	27.533
659.055	33.801
661.948	42.4946
664.84	51.9413
667.733	68.2247
670.626	78.058
673.518	93.9492
676.411	107.681
679.304	122.576
682.197	139.506
685.089	152.376
687.982	177.353
690.875	195.102
693.767	221.493
696.66	248.107
699.553	271.231
702.445	289.11
705.338	285.391
708.231	255.797
711.124	203.907
714.016	145.118
716.909	101.83
719.802	72.3707
722.694	56.6643
725.587	44.9465
728.48	40.2219
731.372	46.0078
734.265	46.8332
737.158	50.5529
740.051	60.6946
742.943	62.7668
745.836	64.2658
748.729	61.6216
751.621	54.1439
754.514	47.0412
757.407	42.9504
760.299	42.3567
763.192	37.5615
766.085	32.1972
768.977	26.4996
771.87	19.5585
774.763	14.8428
777.656	11.1602
780.548	10.1277
783.441	8.58887
786.334	6.2547
789.226	3.35474
792.119	2.75494
795.012	4.21204
797.904	5.60486
800.797	5.7851
803.69	2.18567
806.583	2.00336
809.475	1.36426
812.368	0.084961
815.261	2.54419
818.153	4.83343
821.046	9.1745
823.939	10.3832
826.832	12.9343
829.724	12.1672
832.617	16.4379
835.51	18.8987
838.402	19.105
841.295	19.1644
844.188	18.1199
847.08	19.1301
849.973	20.3976
852.866	18.5377
855.759	17.9213
858.651	14.9836
861.544	14.147
864.437	12.3156
867.329	7.08215
870.222	4.59436
873.115	5.32379
876.007	6.06744
878.9	4.45862
881.793	0.106995
884.686	0.856384
887.578	4.15393
890.471	9.97864
893.364	13.5767
896.256	19.4326
899.149	26.2706
902.042	36.1696
904.934	40.8801
907.827	47.4611
910.72	48.0499
913.612	49.5446
916.505	50.9102
919.398	60.4645
922.291	52.6562
925.183	44.68
928.076	41.7025
930.969	34.2769
933.861	32.7188
936.754	29.6895
939.647	35.1981
942.539	38.6374
945.432	43.9567
948.325	44.0447
951.218	41.6255
954.11	30.6984
957.003	23.6971
959.896	12.2981
962.788	1.46149
965.681	2.61499
968.574	2.70264
971.466	1.72138
974.359	1.75775
977.252	4.15167
980.145	11.6447
983.037	22.71
985.93	30.1254
988.823	43.5474
991.715	55.6014
994.608	74.2627
997.501	78.6561
1000.39	76.7766
1003.29	66.1716
1006.18	58.5612
1009.07	51.6488
1011.96	43.6267
1014.86	40.7024
1017.75	39.5662
1020.64	32.4145
1023.53	26.8595
1026.43	27.0686
1029.32	24.2327
1032.21	31.523
1035.11	24.725
1038	24.1555
1040.89	23.2399
1043.78	19.3278
1046.68	11.394
1049.57	10.9729
1052.46	13.0148
1055.36	19.0013
1058.25	26.3901
1061.14	38.8713
1064.03	54.285
1066.93	72.5419
1069.82	85.3353
1072.71	91.9379
1075.6	88.1708
1078.5	85.2902
1081.39	84.6637
1084.28	82.4155
1087.17	82.9508
1090.07	89.7316
1092.96	92.9315
1095.85	79.3311
1098.74	61.2065
1101.64	41.8064
1104.53	25.2693
1107.42	12.0448
1110.32	7.23816
1113.21	1.38989
1116.1	4.41223
1118.99	1.77478
1121.89	3.82935
1124.78	10.2659
1127.67	7.05627
1130.57	14.8344
1133.46	19.4116
1136.35	15.1736
1139.24	14.1578
1142.14	9.70764
1145.03	6.19104
1147.92	4.30322
1150.81	2.17798
