Measurement: Raman, 532 nm, unoriented, Raman Data Processed
Mineral: Manganoeudialyte
Rruff sample: R110212
Ideal chemistry: Na_14_Ca_6_Mn_3_Zr_3_[Si_26_O_72_(OH)_2_]Cl_2_4H_2_O
Locality: Pocos de Caldas plateau, Minas Gerais, Brazil
Source: Gunnar Farber
Description: Red massive associated with orthoclase, nepheline and aegirine
Raman shift (cm-1)	intensity
172.934	0
175.827	3.9865
178.72	18.504
181.612	40.4196
184.505	63.4988
187.398	82.1168
190.29	99.925
193.183	121.23
196.076	138.643
198.968	154.207
201.861	168.045
204.754	173.761
207.647	166.977
210.539	158.487
213.432	139.999
216.325	110.771
219.217	85.3841
222.11	68.8476
225.003	50.8226
227.895	40.2217
230.788	32.4898
233.681	20.1081
236.573	13.2862
239.466	9.74991
242.359	0.747986
245.252	6.48679
248.144	2.94688
251.037	1.51411
253.93	2.21448
256.822	0.251526
259.715	5.1472
262.608	6.42865
265.5	14.7309
268.393	28.3104
271.286	35.8138
274.179	42.5233
277.071	42.5214
279.964	46.2838
282.857	43.1516
285.75	49.0054
288.642	50.6373
291.535	54.7566
294.428	58.2523
297.32	59.2436
300.213	62.6894
303.106	63.4306
305.998	61.5815
308.891	55.3648
311.784	45.4359
314.676	30.4706
317.569	19.6007
320.462	13.9658
323.355	13.8345
326.247	22.8407
329.14	30.6977
332.033	46.7851
334.925	65.6332
337.818	71.7936
340.711	70.4883
343.603	63.0266
346.496	52.5183
349.389	50.5207
352.281	46.4367
355.174	44.7727
358.067	44.7208
360.96	40.5241
363.852	28.0668
366.745	18.3178
369.638	4.92218
372.53	2.54726
375.423	2.77971
378.316	1.12599
381.209	10.4607
384.101	20.4444
386.994	41.0019
389.887	56.3692
392.779	65.3368
395.672	60.8203
398.565	51.2416
401.457	46.6353
404.35	47.3957
407.243	37.8123
410.135	35.0386
413.028	25.8696
415.921	24.055
418.814	17.1414
421.706	12.0279
424.599	6.56502
427.492	5.77464
430.384	1.11668
433.277	1.59399
436.17	0.861649
439.062	1.85269
441.955	5.81415
444.848	4.74575
447.741	2.8633
450.633	1.63118
453.526	2.58072
456.419	2.80866
459.311	1.19422
462.204	1.31795
465.097	1.34102
467.99	1.32938
470.882	0.81575
473.775	0.864769
476.668	0.911652
479.56	0.320679
482.453	1.93904
485.346	2.52349
488.238	6.71208
491.131	12.4896
494.024	20.933
496.916	26.6796
499.809	34.7586
502.702	44.7521
505.595	50.3027
508.487	50.44
511.38	46.0457
514.273	43.0904
517.165	42.6971
520.058	45.2915
522.951	47.236
525.844	54.0629
528.736	56.0832
531.629	51.7069
534.522	46.9755
537.414	42.9602
540.307	51.356
543.2	62.311
546.092	75.758
548.985	93.7234
551.878	118.803
554.771	155.213
557.663	192.859
560.556	228.931
563.449	255.458
566.341	287.332
569.234	300.347
572.127	247.293
575.019	159.551
577.912	90.7838
580.805	53.3512
583.697	29.4034
586.59	14.0918
589.483	9.19778
592.376	9.2215
595.268	11.419
598.161	14.514
601.054	25.493
603.946	36.4024
606.839	47.5422
609.732	54.7068
612.625	56.5855
615.517	49.5081
618.41	40.7761
621.303	29.7276
624.195	21.3202
627.088	19.7079
629.981	16.4604
632.873	7.12492
635.766	3.00467
638.659	4.0321
641.552	6.23711
644.444	6.54372
647.337	0.423225
650.23	0.05484
653.122	6.3795
656.015	13.4757
658.908	15.4311
661.8	19.2929
664.693	23.9285
667.586	24.9183
670.479	32.6182
673.371	37.5237
676.264	48.9343
679.157	58.1124
682.049	72.6119
684.942	82.4902
687.835	94.6332
690.727	114.861
693.62	135.389
696.513	155.24
699.405	174.3
702.298	175.437
705.191	156.069
708.084	121.181
710.976	83.1051
713.869	44.9894
716.762	18.1313
719.654	2.43578
722.547	0.831161
725.44	0.548599
728.332	9.31009
731.225	26.2402
734.118	48.5932
737.011	73.4743
739.903	97.0014
742.796	102.566
745.689	101.575
748.581	104.039
751.474	117.075
754.367	140.355
757.26	166.659
760.152	187.484
763.045	198.326
765.938	187.977
768.83	168.522
771.723	138.739
774.616	113.437
777.508	97.5608
780.401	83.5662
783.294	75.1965
786.187	67.3858
789.079	59.9586
791.972	50.1293
794.865	41.5069
797.757	30.7169
800.65	23.2162
803.543	17.3112
806.435	15.7048
809.328	11.5518
812.221	7.53485
815.114	6.28132
818.006	3.96698
820.899	1.66318
823.792	2.37902
826.684	1.89675
829.577	1.8449
832.47	0.820129
835.362	1.93217
838.255	0.630867
841.148	1.441
844.04	0.959198
846.933	0.235573
849.826	1.86189
852.719	1.34163
855.611	1.67419
858.504	3.76909
861.397	3.99394
864.289	7.70309
867.182	9.66422
870.075	14.0919
872.967	16.4255
875.86	19.3936
878.753	25.0172
881.646	28.8883
884.538	36.4738
887.431	46.9003
890.324	58.9234
893.216	77.0881
896.109	96.569
899.002	114.64
901.894	129.821
904.787	135.546
907.68	133.346
910.573	128.526
913.465	128.422
916.358	133
919.251	136.666
922.143	143.154
925.036	142.412
927.929	140.783
930.822	135.939
933.714	141.354
936.607	151.518
939.5	169.673
942.392	182.925
945.285	187.809
948.178	179.444
951.07	157.774
953.963	128.972
956.856	89.9811
959.749	56.5386
962.641	32.9045
965.534	18.5483
968.427	6.37437
971.319	1.14163
974.212	5.39873
977.105	4.30969
979.997	0.081909
982.89	6.79414
985.783	13.469
988.676	23.3729
991.568	31.626
994.461	33.8229
997.354	37.9111
1000.25	39.1101
1003.14	35.249
1006.03	33.4445
1008.92	34.7912
1011.82	37.9619
1014.71	46.3713
1017.6	45.2142
1020.5	42.9729
1023.39	42.1833
1026.28	49.457
1029.17	58.8445
1032.07	60.4807
1034.96	53.9112
1037.85	32.6892
1040.74	18.612
1043.64	6.82118
1046.53	3.61491
1049.42	0.055801
1052.32	7.42015
1055.21	15.4032
1058.1	29.8849
1060.99	46.2334
1063.89	67.7356
1066.78	91.479
1069.67	114.222
1072.56	129.323
1075.46	139.31
1078.35	129.947
1081.24	104.206
1084.13	80.0841
1087.03	63.2325
1089.92	57.7584
1092.81	50.3591
1095.7	46.3346
1098.6	34.2342
1101.49	24.2905
1104.38	12.1561
1107.28	3.62009
1110.17	0.801361
1113.06	1.79777
1115.95	1.41917
1118.85	0.739815
1121.74	1.01717
1124.63	4.14616
1127.53	5.03214
1130.42	5.23977
1133.31	7.03642
1136.2	5.68878
1139.1	6.68937
1141.99	3.9278
1144.88	2.70104
1147.77	1.06207
1150.67	2.04211
1153.56	0.607521
1156.45	0.494972
1159.35	0.673035
1162.24	2.71365
1165.13	2.62952
1168.02	3.36547
1170.92	5.48804
1173.81	4.45959
1176.7	5.74986
1179.59	5.33499
1182.49	7.07271
1185.38	9.1471
1188.27	9.077
1191.16	8.72754
1194.06	9.24887
1196.95	9.30734
1199.84	10.4226
1202.73	11.0134
1205.63	9.90563
1208.52	11.3588
1211.41	9.09311
1214.31	10.9123
1217.2	9.10788
1220.09	10.1665
1222.98	8.54292
1225.88	7.75155
1228.77	5.33517
1231.66	5.41175
1234.56	6.49101
1237.45	6.162
1240.34	5.99191
1243.23	4.1931
1246.13	5.44531
1249.02	2.34129
1251.91	3.52141
1254.8	4.68333
1257.7	0.925003
1260.59	3.78413
1263.48	2.7588
1266.38	0.783104
1269.27	3.16145
1272.16	2.00996
1275.05	2.15462
1277.95	3.6204
1280.84	1.49403
1283.73	1.49696
1286.62	1.88288
1289.52	1.10113
1292.41	1.50975
1295.3	0.490723
1298.19	0.957031
1301.09	1.22794
