Measurement: Raman, 780 nm, unoriented, Raman Data Processed
Mineral: Manganoquadratite
Rruff sample: R090021
Ideal chemistry: AgMnAsS_3_
Locality: Uchucchacua, Lima Department, Peru
Source: William W. Pinch
Description: Tetragonal stepped crystals associated with proustite and alabandite.
Measured chemistry: Ag_0.99_Mn_1.02_(As_0.85_Sb_0.14_)S_3.00_
Raman shift (cm-1)	intensity
103.466	0
106.841	11.0303
110.215	10.3682
113.59	17.0859
116.965	31.7553
120.34	35.7182
123.715	26.8157
127.089	43.21
130.464	43.5031
133.839	46.1675
137.214	42.9056
140.589	53.0746
143.963	46.5312
147.338	60.1539
150.713	74.3607
154.088	66.1754
157.463	60.1055
160.838	59.5825
164.212	46.4054
167.587	45.7717
170.962	35.1434
174.337	35.9238
177.712	26.9727
181.086	23.1896
184.461	9.15155
187.836	4.81372
191.211	11.0972
194.586	13.6655
197.96	22.688
201.335	18.5867
204.71	21.1058
208.085	13.7129
211.46	11.9116
214.835	15.3392
218.209	6.74182
221.584	13.5415
224.959	28.1523
228.334	45.3684
231.709	99.5089
235.083	109.829
238.458	182.034
241.833	229.032
245.208	301.591
248.583	390.683
251.958	510.045
255.332	624.278
258.707	795.661
262.082	973.661
265.457	1172.29
268.832	1394.46
272.207	1595.83
275.581	1770.93
278.956	1918.81
282.331	2002.14
285.706	2026.13
289.08	2028.96
292.455	2021.76
295.83	1990.53
299.205	1977.7
302.58	1993.06
305.955	2021.35
309.329	2031.51
312.704	1949.53
316.079	1754.12
319.454	1497.47
322.829	1245.4
326.204	1060.08
329.578	904.971
332.953	794.453
336.328	741.044
339.703	693.169
343.078	659.202
346.452	606.837
349.827	600.484
353.202	628.488
356.577	622.193
359.952	518.023
363.327	345.848
366.701	199.803
370.076	92.4429
373.451	18.7719
376.826	30.0483
380.201	40.9192
383.575	34.63
386.95	35.5041
390.325	17.7672
393.7	4.89142
397.075	3.52057
400.45	24.1628
403.824	42.4626
407.199	48.2931
410.574	66.9838
413.949	72.7885
417.324	89.7423
420.698	96.288
424.073	103.996
427.448	116.955
430.823	124.516
434.198	128.192
437.572	118.375
440.947	107.137
444.322	97.6471
447.697	86.0883
451.072	72.3068
454.447	64.7814
457.821	58.7843
461.196	48.8404
464.571	52.2192
467.946	50.1454
471.321	43.5127
474.695	41.3807
478.07	39.1249
481.445	36.8205
484.82	22.4444
488.195	24.9521
491.57	27.7935
494.944	23.1387
498.319	21.6167
501.694	9.45546
505.069	13.0608
508.444	10.0451
511.818	10.0248
515.193	6.88216
518.568	9.11813
521.943	8.66083
525.318	3.76587
528.692	1.5316
532.067	2.57297
535.442	5.49188
538.817	0.941254
542.192	6.16255
545.567	2.85042
548.941	0.130005
552.316	0.723846
555.691	2.35182
559.066	1.52206
562.441	2.73019
565.816	3.13762
569.19	3.25539
572.565	7.25629
575.94	3.52696
579.315	4.13892
582.69	5.19981
586.064	2.54564
589.439	2.31798
592.814	3.42542
596.189	0.462677
599.564	4.4523
602.938	6.3304
606.313	4.60562
609.688	6.02924
613.063	3.67026
616.438	6.14806
619.812	14.1867
623.187	10.3357
626.562	12.8817
629.937	5.78789
633.312	12.7159
636.687	4.34363
640.061	14.6187
643.436	7.94354
646.811	9.23677
650.186	14.1893
653.561	15.4222
656.936	3.24283
660.31	4.9917
663.685	4.50189
667.06	6.87248
670.435	5.70502
673.81	8.899
677.184	3.56798
680.559	4.08505
683.934	5.75177
687.309	6.49782
690.684	7.73183
694.058	4.20358
697.433	0.228241
700.808	0.535126
704.183	3.10847
707.558	1.29501
710.933	0.645615
714.307	0.756027
717.682	0.008835
721.057	8.8111
724.432	1.97043
727.807	1.09665
731.182	7.66922
734.556	1.55939
737.931	2.72362
741.306	0.440811
744.681	5.13405
748.056	7.44797
751.43	3.41144
754.805	4.54941
758.18	5.59181
761.555	1.39769
764.93	6.38751
768.304	0.264893
771.679	2.73756
775.054	5.6698
778.429	8.17931
781.804	8.68123
785.178	9.59572
788.553	0.964264
791.928	10.3184
795.303	12.8739
798.678	11.4658
802.053	11.146
805.427	12.7077
808.802	13.6592
812.177	13.9822
815.552	10.8648
818.927	10.8315
822.302	11.5761
825.676	15.4014
829.051	11.8567
832.426	15.3898
835.801	12.8568
839.176	11.1403
842.55	7.7173
845.925	6.15633
849.3	6.72388
852.675	7.3486
856.05	9.41067
859.424	12.9779
862.799	11.4454
866.174	16.7916
869.549	9.14308
872.924	3.78665
876.299	9.77982
879.673	9.40594
883.048	9.05537
886.423	2.75676
889.798	0.242661
893.173	3.2989
896.548	0.05246
899.922	3.1965
903.297	5.89316
906.672	0.499039
910.047	1.13888
913.422	6.42477
916.796	5.14578
920.171	12.2479
923.546	4.94733
926.921	5.43747
930.296	4.42801
933.67	9.19333
937.045	10.1518
940.42	2.88026
943.795	3.11418
947.17	10.4754
950.544	2.04999
953.919	9.758
957.294	2.85376
960.669	8.51028
964.044	5.87006
967.419	1.20332
970.793	6.73566
974.168	6.2048
977.543	8.37584
980.918	0.081314
984.293	7.18628
987.668	7.05649
991.042	9.06474
994.417	10.6366
997.792	7.09814
1001.17	2.61003
1004.54	0.253754
1007.92	8.50052
1011.29	8.10765
1014.67	8.82051
1018.04	8.99103
1021.42	3.30762
1024.79	3.1514
1028.16	7.6691
1031.54	5.99721
1034.91	8.25174
1038.29	7.83244
1041.66	8.51074
1045.04	5.55248
1048.41	4.47391
1051.79	2.4386
1055.16	7.2872
1058.54	7.80627
1061.91	3.96692
1065.29	2.92943
1068.66	2.33963
1072.04	7.36496
1075.41	4.89073
1078.79	5.8398
1082.16	3.89792
1085.54	5.52386
1088.91	9.17445
1092.29	8.39308
1095.66	7.04323
1099.04	9.99223
1102.41	7.89807
1105.79	8.38686
1109.16	1.70303
1112.54	2.64714
1115.91	2.86523
1119.29	2.00348
1122.66	10.4947
1126.04	11.6101
1129.41	8.20427
1132.79	4.68452
1136.16	5.6902
1139.53	1.50378
1142.91	10.1855
1146.28	6.85055
1149.66	14.5359
1153.03	13.6608
1156.41	4.39011
1159.78	9.57286
1163.16	13.9928
1166.53	2.74536
1169.91	3.82211
1173.28	7.03831
1176.66	12.0372
1180.03	10.0168
1183.41	9.50467
1186.78	5.29135
1190.16	8.34225
1193.53	8.80797
1196.91	3.95592
1200.28	7.93149
1203.66	2.21431
1207.03	11.1689
1210.4	4.72519
1213.78	4.07178
1217.15	5.72128
1220.53	6.35692
1223.9	8.0731
1227.28	2.23117
1230.65	12.3577
1234.03	7.95833
1237.4	2.66962
1240.78	4.57826
1244.15	7.07845
1247.53	7.3956
1250.9	1.76737
1254.28	8.47327
1257.65	6.20345
1261.03	13.0971
1264.4	8.60864
1267.78	13.1447
1271.15	9.0519
1274.53	6.60059
1277.9	7.65958
1281.28	2.92708
1284.65	4.45085
