Measurement: Raman, 785 nm, unoriented, Raman Data Processed
Mineral: Manganite
Rruff sample: R070269
Ideal chemistry: Mn^3+^O(OH)
Locality: Wessels Mine (Wessel's Mine), Hotazel, Kalahari manganese fields, Northern Cape Province, South Africa
Source: Michael Scott
Description: Divergent black acicular crystals (with dark brown lights) associated with gaudefroyite in gypsum cleavage plate
Measured chemistry: lighter phase: (Mn^3+^_0.99_Fe^3+^_0.01_)_Î£=1_O(OH) ; trace amounts of Cr and Ca; OH by difference; darker phase: gypsum
Raman shift (cm-1)	intensity
151.393	0
154.286	54.9121
157.178	2.60394
160.071	4.50781
162.964	71.7195
165.856	81.644
168.749	68.4368
171.642	40.2568
174.534	1.02258
177.427	3.99933
180.32	18.8913
183.212	23.5485
186.105	14.3554
188.998	41.385
191.891	15.4448
194.783	36.1177
197.676	10.176
200.569	11.0288
203.461	1.93835
206.354	12.4121
209.247	1.11017
212.139	34.5619
215.032	16.6423
217.925	39.3293
220.818	42.6392
223.71	22.6554
226.603	9.6814
229.496	3.6214
232.388	18.1298
235.281	1.91583
238.174	5.25092
241.066	28.6792
243.959	41.5264
246.852	53.8707
249.745	39.5206
252.637	42.5659
255.53	71.1091
258.423	41.4552
261.315	55.8495
264.208	28.3923
267.101	37.8241
269.993	51.0073
272.886	61.5683
275.779	72.8294
278.672	76.8798
281.564	112.785
284.457	115.17
287.35	55.7535
290.242	14.5201
293.135	9.82312
296.028	10.749
298.921	4.84613
301.813	17.6244
304.706	0.8479
307.599	9.76898
310.491	6.51465
313.384	18.8795
316.277	35.0709
319.169	48.2169
322.062	51.0797
324.955	72.215
327.847	104.433
330.74	110.081
333.633	147.138
336.526	190.041
339.418	239.284
342.311	258.36
345.204	323.738
348.096	382.435
350.989	450.858
353.882	497.343
356.774	547.842
359.667	502.061
362.56	457.138
365.452	496.952
368.345	546.58
371.238	652.539
374.131	802.876
377.023	1000.96
379.916	1190.9
382.809	1302.93
385.701	1108.08
388.594	814.01
391.487	520.872
394.38	348.704
397.272	220.939
400.165	149.428
403.058	111.217
405.95	98.1492
408.843	70.9142
411.736	62.0483
414.628	59.2615
417.521	37.6796
420.414	19.8895
423.307	39.6626
426.199	24.2361
429.092	7.89832
431.985	7.94507
434.877	12.8632
437.77	2.07861
440.663	5.56445
443.555	12.433
446.448	3.46338
449.341	3.43036
452.234	2.88696
455.126	1.25781
458.019	8.41669
460.912	14.696
463.804	32.5798
466.697	2.63171
469.59	1.23254
472.483	2.59326
475.375	34.7665
478.268	38.1558
481.161	60.397
484.053	99.9302
486.946	137.903
489.839	166.829
492.731	118.234
495.624	79.6885
498.517	92.1328
501.409	74.5784
504.302	128.737
507.195	204.649
510.088	266.278
512.98	392.392
515.873	482.618
518.766	655.91
521.658	777.53
524.551	886.861
527.444	985.864
530.337	1062.62
533.229	1083.75
536.122	1119.63
539.015	1217.19
541.907	1342.12
544.8	1501.25
547.693	1647.39
550.585	1762.4
553.478	1791.45
556.371	1748.12
559.263	1534.51
562.156	1253.4
565.049	952.143
567.942	725.791
570.834	505.836
573.727	370.406
576.62	272.812
579.512	213.38
582.405	130.858
585.298	105.043
588.19	81.4647
591.083	68.5421
593.976	30.4452
596.869	31.2635
599.761	1.67657
602.654	16.1282
605.547	16.7625
608.439	53.068
611.332	63.4067
614.225	66.2612
617.117	99.6718
620.01	131.229
622.903	129.951
625.795	121.856
628.688	90.7649
631.581	58.0768
634.474	51.3665
637.366	41.8988
640.259	7.71637
643.152	3.04614
646.044	1.52722
648.937	3.99707
651.83	11.1567
654.722	9.64197
657.615	6.11774
660.508	12.3826
663.401	5.02728
666.293	1.69867
669.186	4.10663
672.079	10.5459
674.971	0.599304
677.864	9.41065
680.757	21.7031
683.649	1.78693
686.542	2.604
689.435	19.1894
692.328	20.1535
695.22	17.958
698.113	38.9496
701.006	23.4461
703.898	45.5844
706.791	42.4648
709.684	43.0503
712.577	60.6661
715.469	54.3047
718.362	65.0356
721.255	78.2993
724.147	73.105
727.04	71.1838
729.933	75.545
732.825	67.846
735.718	80.8099
738.611	69.1715
741.504	48.2935
744.396	51.4218
747.289	79.5966
750.182	50.5291
753.074	75.5065
755.967	47.5897
758.86	21.8174
761.752	38.3082
764.645	46.9423
767.538	66.1536
770.431	43.9506
773.323	36.3272
776.216	34.0652
779.109	21.4649
782.001	24.2072
784.894	12.0383
787.787	36.0841
790.679	1.60797
793.572	29.5859
796.465	27.0323
799.357	12.4268
802.25	9.78436
805.143	11.0607
808.036	4.35779
810.928	13.8544
813.821	15.4116
816.714	18.4468
819.606	8.8472
822.499	12.8799
825.392	7.50467
828.284	18.4886
831.177	19.6371
834.07	19.555
836.963	15.3463
839.855	20.8917
842.748	12.5094
845.641	23.2508
848.533	18.6487
851.426	11.8519
854.319	8.67218
857.212	18.2035
860.104	24.4702
862.997	11.0068
865.89	18.7249
868.782	27.8423
871.675	17.9448
874.568	25.6424
877.46	7.46027
880.353	15.2251
883.246	19.5872
886.139	21.3232
889.031	6.33591
891.924	8.76032
894.817	7.85132
897.709	12.0725
900.602	12.5963
903.495	8.20169
906.388	5.72391
909.28	5.90445
912.173	1.88913
915.066	5.96283
917.958	1.63483
920.851	8.35642
923.744	23.817
926.636	4.28073
929.529	17.3993
932.422	11.1511
935.314	10.7667
938.207	8.19531
941.1	2.47845
943.993	11.2525
946.885	2.96539
949.778	8.78714
952.671	16.1008
955.563	14.6539
958.456	36.2128
961.349	2.19983
964.241	32.623
967.134	8.34708
970.027	14.9072
972.92	30.5765
975.812	15.0998
978.705	21.4121
981.598	24.404
984.49	32.16
987.383	16.6518
990.276	34.4198
993.168	16.3645
996.061	15.844
998.954	27.6679
1001.85	15.8167
1004.74	2.73041
1007.63	7.54114
1010.52	23.9066
1013.42	31.328
1016.31	10.1376
1019.2	3.16418
1022.1	4.56506
1024.99	8.80777
1027.88	13.7823
1030.77	23.5062
1033.67	27.617
1036.56	13.2539
1039.45	7.78632
1042.34	7.47647
1045.24	1.31586
1048.13	12.0344
1051.02	2.13702
1053.91	3.18652
1056.81	10.1021
1059.7	5.98959
1062.59	22.9481
1065.49	1.85037
1068.38	13.9729
1071.27	0.542145
1074.16	22.5247
1077.06	19.7508
1079.95	23.4523
1082.84	3.01556
1085.73	4.63272
1088.63	16.1428
1091.52	1.10956
1094.41	9.23563
1097.31	11.5027
1100.2	31.0374
1103.09	30.1782
1105.98	30.7446
1108.88	23.6963
1111.77	12.7104
1114.66	24.9407
1117.56	11.0313
1120.45	17.5471
1123.34	34.08
1126.23	15.5891
1129.12	22.2077
1132.02	38.2012
1134.91	7.36218
1137.8	21.0587
1140.7	36.0278
1143.59	25.0598
1146.48	0.191254
1149.37	18.2592
1152.27	39.1291
1155.16	31.1245
1158.05	18.1348
1160.94	17.1177
1163.84	19.9517
1166.73	20.3579
1169.62	19.6999
1172.52	28.3425
1175.41	23.2141
1178.3	19.7172
1181.19	16.291
1184.09	31.6092
1186.98	21.9692
1189.87	24.9279
1192.77	21.696
1195.66	17.726
1198.55	31.869
1201.44	27.6246
1204.34	8.58725
1207.23	25.575
1210.12	20.2378
1213.01	11.2555
1215.91	24.4879
1218.8	8.1015
1221.69	20.4778
1224.58	15.7084
1227.48	0.314362
1230.37	26.5941
1233.26	26.7654
1236.15	13.0235
1239.05	13.2527
1241.94	8.69162
