Measurement: Raman, 785 nm, unoriented, Raman Data Processed
Mineral: Manganite
Rruff sample: R060827
Ideal chemistry: Mn^3+^O(OH)
Locality: Roberts mine, Crosby, Minnesota, USA
Source: Michael Scott
Description: Black submetallic prismatic crystals
Measured chemistry: Mn^3+^_1.00_O(OH)
Raman shift (cm-1)	intensity
121.046	0
123.938	25.0656
126.831	111.347
129.724	249.352
132.616	333.322
135.509	374.717
138.402	215.748
141.294	285.585
144.187	492.215
147.08	746.87
149.973	899.851
152.865	853.34
155.758	722.951
158.651	501.519
161.543	394.895
164.436	355.875
167.329	332.356
170.221	317.525
173.114	223.466
176.007	198.838
178.9	126.596
181.792	88.3418
184.685	75.4824
187.578	51.3865
190.47	35.6813
193.363	17.0114
196.256	6.90851
199.149	3.62207
202.041	6.23755
204.934	9.44488
207.827	10.2856
210.719	31.6502
213.612	62.17
216.505	183.79
219.397	263.498
222.29	119.363
225.183	31.3008
228.076	12.2106
230.968	27.9967
233.861	28.3181
236.754	36.0788
239.646	87.5467
242.539	127.213
245.432	221.777
248.324	294.178
251.217	414.871
254.11	494.885
257.002	499.764
259.895	450.849
262.788	366.166
265.681	312.09
268.573	237.289
271.466	218.829
274.359	285.313
277.251	382.21
280.144	550.125
283.037	530.972
285.93	270.444
288.822	63.2546
291.715	15.7803
294.608	17.3873
297.5	19.1669
300.393	26.5139
303.286	11.7811
306.178	21.9972
309.071	26.2118
311.964	74.7031
314.856	76.1803
317.749	109.081
320.642	135.365
323.535	165.443
326.427	225.659
329.32	264.594
332.213	317.988
335.105	352.065
337.998	406.725
340.891	493.059
343.784	622.513
346.676	833.997
349.569	1139.04
352.462	1412.38
355.354	1628.9
358.247	1530.45
361.14	1188.65
364.032	881.935
366.925	702.821
369.818	703.869
372.711	821.236
375.603	1114.85
378.496	1722.35
381.389	2618.5
384.281	3561.68
387.174	3936.22
390.067	2982.45
392.959	1720.37
395.852	888.215
398.745	568.246
401.637	383.037
404.53	297.909
407.423	188.407
410.316	166.916
413.208	167.309
416.101	97.5098
418.994	79.2508
421.886	42.441
424.779	60.2774
427.672	42.8203
430.565	47.191
433.457	33.7565
436.35	11.8451
439.243	0.111816
442.135	27.8052
445.028	32.0464
447.921	0.69873
450.813	10.5491
453.706	17.1566
456.599	37.1607
459.492	51.3171
462.384	20.4243
465.277	13.1126
468.17	19.1813
471.062	1.62091
473.955	27.6632
476.848	34.4075
479.74	79.4645
482.633	187.32
485.526	373.952
488.419	605.261
491.311	732.811
494.204	651.811
497.097	382.539
499.989	296.538
502.882	308.788
505.775	388.31
508.668	573.746
511.56	814.053
514.453	1115.61
517.346	1481.09
520.238	1902.96
523.131	2401.26
526.024	2756.99
528.916	3002.33
531.809	2999.67
534.702	2913.03
537.595	2861.23
540.487	3047.83
543.38	3449.62
546.273	4039.49
549.165	4861.54
552.058	5670.85
554.951	6175.53
557.843	6058.5
560.736	5156.48
563.629	3918.38
566.521	2733.15
569.414	1841.93
572.307	1255
575.2	883.931
578.092	550.913
580.985	317.674
583.878	227.758
586.77	65.0785
589.663	23.9712
592.556	41.5118
595.448	31.6781
598.341	2.96021
601.234	54.6615
604.127	161.472
607.019	383.896
609.912	608.572
612.805	978.001
615.697	1361.74
618.59	1719.92
621.483	1816.49
624.375	1584.53
627.268	1262.55
630.161	892.51
633.054	670.751
635.946	483.112
638.839	343.021
641.732	264.192
644.624	152.506
647.517	87.391
650.41	31.119
653.303	5.25446
656.195	28.7123
659.088	12.7673
661.981	2.74915
664.873	15.4117
667.766	20.9503
670.659	9.21692
673.551	27.6266
676.444	23.1642
679.337	46.7465
682.23	10.0418
685.122	27.7806
688.015	19.3544
690.908	77.5815
693.8	95.1212
696.693	84.2646
699.586	90.7957
702.478	86.874
705.371	60.3875
708.264	108.344
711.157	132.62
714.049	117.747
716.942	164.19
719.835	134.208
722.727	173.503
725.62	156.311
728.513	129.316
731.405	149.854
734.298	104.603
737.191	128.244
740.083	91.229
742.976	108.646
745.869	40.3549
748.762	68.6728
751.654	104.306
754.547	85.818
757.44	58.2914
760.332	107.477
763.225	68.1335
766.118	57.1059
769.01	80.7714
771.903	81.8724
774.796	64.0563
777.689	68.3286
780.581	74.989
783.474	54.5186
786.367	41.0883
789.259	28.5263
792.152	50.0084
795.045	13.5491
797.938	6.07184
800.83	2.46838
803.723	5.47235
806.616	12.7825
809.508	14.2279
812.401	16.8141
815.294	7.72443
818.186	28.7814
821.079	30.993
823.972	15.1757
826.865	15.3188
829.757	20.1234
832.65	14.179
835.543	19.4401
838.435	2.78943
841.328	17.2429
844.221	27.8915
847.114	20.5605
850.006	30.7282
852.899	24.1686
855.792	27.2709
858.684	31.1764
861.577	17.7686
864.47	28.6415
867.362	28.642
870.255	5.09442
873.148	14.9302
876.04	32.1515
878.933	1.133
881.826	55.4738
884.719	22.5552
887.611	22.5001
890.504	54.0075
893.397	20.0769
896.289	35.8917
899.182	3.43414
902.075	6.92969
904.967	3.14099
907.86	0.866943
910.753	6.80127
913.646	9.89117
916.538	3.02057
919.431	30.0984
922.324	16.3242
925.216	47.2574
928.109	35.6747
931.002	43.5054
933.894	14.1842
936.787	38.8882
939.68	31.9493
942.573	24.1581
945.465	37.2963
948.358	44.502
951.251	3.17242
954.143	12.3895
957.036	49.9486
959.929	10.7329
962.822	31.4104
965.714	46.6426
968.607	49.3182
971.5	52.4549
974.392	44.8178
977.285	33.077
980.178	37.4246
983.07	64.0186
985.963	58.8859
988.856	45.1293
991.749	33.7701
994.641	17.5806
997.534	67.6182
1000.43	67.3761
1003.32	50.4502
1006.21	34.4701
1009.11	42.3633
1012	28.7144
1014.89	57.5969
1017.78	23.3585
1020.67	25.6772
1023.57	20.9582
1026.46	14.9405
1029.35	5.46887
1032.25	10.1483
1035.14	28.0909
1038.03	6.38654
1040.92	32.6095
1043.82	47.8164
1046.71	36.1127
1049.6	40.9611
1052.49	36.5482
1055.39	50.4058
1058.28	57.029
1061.17	21.1645
1064.07	8.2608
1066.96	29.6827
1069.85	33.6799
1072.74	38.0478
1075.64	27.1866
1078.53	63.9318
1081.42	38.5633
1084.32	1.96106
1087.21	20.6992
1090.1	19.3007
1092.99	50.6147
1095.89	47.1091
1098.78	4.53577
1101.67	14.3637
1104.56	51.3865
1107.46	37.2328
1110.35	43.8252
1113.24	37.9035
1116.13	41.4152
1119.03	11.0498
1121.92	27.8372
1124.81	5.30719
1127.7	18.6296
1130.6	36.8152
1133.49	5.91748
1136.38	35.1398
1139.28	49.1523
1142.17	31.0801
1145.06	47.3585
1147.95	19.873
1150.85	40.3276
1153.74	12.389
1156.63	27.1011
1159.53	14.4303
1162.42	21.1543
1165.31	23.6018
1168.2	38.6986
1171.1	8.6947
1173.99	33.9841
1176.88	27.0818
1179.77	26.962
1182.67	56.8973
1185.56	31.2192
1188.45	39.4198
1191.35	45.5497
1194.24	58.2344
1197.13	50.6417
1200.02	60.6314
1202.92	33.1071
1205.81	5.43219
1208.7	4.48956
1211.59	29.579
1214.49	47.902
1217.38	64.929
1220.27	28.8627
1223.16	71.5123
1226.06	40.9285
1228.95	47.9813
1231.84	38.8981
1234.73	7.9859
1237.63	11.4746
1240.52	25.7828
1243.41	40.7953
1246.31	22.7587
1249.2	23.7026
1252.09	36.1335
1254.98	14.8436
