Measurement: Raman, 780 nm, unoriented, Raman Data Processed
Mineral: Manganoneptunite
Rruff sample: R130094
Ideal chemistry: KNa_2_LiMn^2+^_2_Ti_2_Si_8_O_24_
Locality: Mount Kurnasurt, Lovozero Massif, Kola Peninsula, USSR
Source: Michael Scott
Description: Deep red massive, good cleavage, associated with raite R060854, and orthoclase
Raman shift (cm-1)	intensity
91.1996	0
94.5744	1.77112
97.9492	0.997345
101.324	0.997528
104.699	23.1159
108.074	9.34381
111.448	19.1516
114.823	43.9181
118.198	53.5983
121.573	83.6316
124.948	87.4923
128.322	52.052
131.697	31.3613
135.072	0.359741
138.447	2.78531
141.822	0.216248
145.197	12.5208
148.571	28.2858
151.946	16.8078
155.321	2.22876
158.696	8.24411
162.071	16.9046
165.446	14.2838
168.82	19.9656
172.195	18.8382
175.57	29.4967
178.945	41.9512
182.32	34.9847
185.694	39.3632
189.069	51.1113
192.444	62.2606
195.819	84.9505
199.194	122.346
202.569	132.331
205.943	94.0605
209.318	53.5614
212.693	38.0834
216.068	34.2287
219.442	29.4009
222.817	29.5268
226.192	27.6073
229.567	30.4081
232.942	37.3015
236.317	40.6953
239.691	44.5116
243.066	53.302
246.441	50.8707
249.816	24.4446
253.191	0.493332
256.565	6.38019
259.94	3.74992
263.315	4.53951
266.69	17.7384
270.065	31.4685
273.44	50.137
276.814	52.1581
280.189	43.4009
283.564	35.7144
286.939	24.186
290.314	21.0473
293.688	26.209
297.063	31.0891
300.438	33.6396
303.813	46.4847
307.188	66.2884
310.562	79.181
313.937	65.7462
317.312	63.2988
320.687	75.4026
324.062	80.9034
327.437	80.8717
330.811	80.7256
334.186	71.7113
337.561	70.5534
340.936	67.059
344.311	53.2037
347.685	37.2363
351.06	29.5403
354.435	31.6746
357.81	28.3992
361.185	22.0563
364.56	15.0979
367.934	5.83604
371.309	1.4507
374.684	2.91185
378.059	1.06697
381.434	3.72812
384.808	9.1107
388.183	9.65974
391.558	9.90268
394.933	12.791
398.308	17.1168
401.683	20.4912
405.057	27.9049
408.432	28.8688
411.807	30.8126
415.182	31.53
418.557	29.1656
421.931	26.1952
425.306	25.1662
428.681	18.3306
432.056	12.6019
435.431	4.03268
438.805	1.38321
442.18	0.867935
445.555	0.400742
448.93	1.03064
452.305	1.99078
455.68	0.991287
459.054	1.20049
462.429	2.384
465.804	2.38538
469.179	5.62042
472.554	8.19226
475.928	10.7233
479.303	17.3977
482.678	22.2339
486.053	22.6178
489.428	22.7487
492.803	18.7234
496.177	18.7703
499.552	15.9329
502.927	16.4809
506.302	20.1045
509.677	21.7864
513.051	20.7029
516.426	16.7366
519.801	20.2863
523.176	24.639
526.551	25.0773
529.926	24.6282
533.3	23.3057
536.675	22.3221
540.05	20.2085
543.425	23.4277
546.799	29.2594
550.174	29.9972
553.549	27.3688
556.924	21.5104
560.299	18.11
563.674	16.4955
567.048	11.8963
570.423	12.4126
573.798	12.7699
577.173	14.342
580.548	15.2889
583.923	17.1323
587.297	14.4511
590.672	9.02
594.047	3.25723
597.422	0.071129
600.797	0.724487
604.171	0.313072
607.546	1.48711
610.921	1.73426
614.296	0.945412
617.671	0.921165
621.045	1.22245
624.42	4.33047
627.795	8.30339
631.17	13.7141
634.545	22.2725
637.919	32.4478
641.294	41.7729
644.669	50.309
648.044	60.8592
651.419	68.7232
654.794	63.963
658.168	46.7951
661.543	35.7171
664.918	30.5047
668.293	32.0959
671.668	41.2257
675.043	48.5892
678.417	61.8963
681.792	80.6516
685.167	102.829
688.542	122.68
691.917	141.127
695.291	134.33
698.666	81.6321
702.041	45.4562
705.416	30.5728
708.791	28.405
712.165	30.1456
715.54	31.5832
718.915	17.6051
722.29	6.68373
725.665	0.656136
729.039	0.363594
732.414	0.117081
735.789	0.188385
739.164	0.684532
742.539	3.94056
745.914	6.98697
749.288	8.33481
752.663	4.98167
756.038	2.58488
759.413	1.49213
762.788	3.50329
766.163	4.49449
769.537	3.04525
772.912	1.88749
776.287	0.521057
779.662	2.0728
783.037	1.65652
786.411	1.16965
789.786	1.59512
793.161	4.94827
796.536	9.92442
799.911	19.4368
803.285	36.3371
806.66	74.7557
810.035	134.356
813.41	218.74
816.785	347.38
820.159	508.16
823.534	560.044
826.909	457.636
830.284	346.695
833.659	321.781
837.034	291.832
840.408	192.835
843.783	102.452
847.158	62.7925
850.533	50.0073
853.908	52.5904
857.283	56.5886
860.657	51.1057
864.032	45.4312
867.407	40.5117
870.782	34.7144
874.157	29.2837
877.531	21.0178
880.906	17.5387
884.281	16.9758
887.656	18.5589
891.031	16.2405
894.405	11.8419
897.78	11.8387
901.155	11.9708
904.53	10.0511
907.905	6.76764
911.279	1.71741
914.654	1.793
918.029	2.45378
921.404	1.47189
924.779	1.50792
928.154	5.13522
931.528	8.56546
934.903	12.3158
938.278	12.8971
941.653	8.22411
945.028	4.91915
948.403	4.97964
951.777	3.93494
955.152	6.02173
958.527	4.01717
961.902	1.22169
965.277	1.44914
968.651	4.02971
972.026	4.37635
975.401	2.87862
978.776	1.03537
982.151	0.381165
985.525	2.55086
988.9	6.96292
992.275	11.2783
995.65	7.24931
999.025	4.69932
1002.4	5.75699
1005.77	5.98368
1009.15	9.00974
1012.52	10.575
1015.9	11.6853
1019.27	6.55396
1022.65	1.07641
1026.02	0.853477
1029.4	0.507401
1032.77	0.657196
1036.15	2.54015
1039.52	3.09651
1042.9	8.67065
1046.27	13.7197
1049.65	17.1973
1053.02	18.6379
1056.4	23.9445
1059.77	29.9708
1063.15	21.7756
1066.52	12.2634
1069.9	8.71806
1073.27	5.88058
1076.64	4.53528
1080.02	4.83627
1083.39	3.57246
1086.77	2.32717
1090.14	2.37924
1093.52	1.95673
1096.89	1.02805
1100.27	1.96438
1103.64	1.58092
1107.02	3.64936
1110.39	4.94857
1113.77	5.83742
1117.14	6.32756
1120.52	5.12919
1123.89	5.74858
1127.27	6.88017
1130.64	5.35559
1134.02	3.90901
1137.39	2.15041
1140.77	2.01606
1144.14	1.61312
1147.52	0.77037
1150.89	0.34584
1154.27	1.52467
1157.64	1.54237
1161.02	0.687813
1164.39	0.091599
1167.77	0.053925
1171.14	4.15802
1174.52	6.87961
1177.89	12.0375
1181.27	19.4408
1184.64	28.4889
1188.01	39.3932
1191.39	54.7591
1194.76	69.7138
1198.14	88.1877
1201.51	106.277
1204.89	126.288
1208.26	141.281
1211.64	156.627
1215.01	169.782
1218.39	175.737
1221.76	179.289
1225.14	180.575
1228.51	169.15
1231.89	160.361
1235.26	146.606
1238.64	127.277
1242.01	107.121
1245.39	85.883
1248.76	65.7537
1252.14	46.5105
1255.51	30.2923
1258.88	16.4223
1262.26	9.29938
1265.63	4.56943
1269.01	1.14969
1272.38	1.93692
1275.76	2.12881
1279.13	1.70471
1282.51	0.536591
