Measurement: Raman, 780 nm, unoriented, Raman Data Processed
Mineral: Mansfieldite
Rruff sample: R060409
Ideal chemistry: AlAs^5+^O_4_2H_2_O
Locality: Djebel Debagh, Constantine, Algeria
Source: Herb Obodda
Description: Pale blue cryptocrystalline mass
Measured chemistry: (Al_0.98_Fe^3+^_0.02_)_Σ=1_(As_0.97_P_0.03_)_Σ=1_O_4_·2H_2_O
Raman shift (cm-1)	intensity
173.047	0
175.94	0.461166
178.833	4.65894
181.726	16.4755
184.618	36.6052
187.511	65.536
190.404	86.6103
193.296	116.743
196.189	151.288
199.082	173.562
201.974	188.738
204.867	200.844
207.76	153.063
210.652	91.0985
213.545	45.5147
216.438	26.7066
219.331	17.3597
222.223	25.4983
225.116	31.962
228.009	34.2516
230.901	22.1613
233.794	17.517
236.687	15.7269
239.579	20.6905
242.472	28.7809
245.365	25.2825
248.257	12.4101
251.15	6.77559
254.043	9.01083
256.936	3.29153
259.828	7.08614
262.721	3.92596
265.614	5.60284
268.506	1.77512
271.399	3.00668
274.292	5.0602
277.185	0.255188
280.077	1.66597
282.97	15.064
285.863	25.8768
288.755	38.3767
291.648	56.3362
294.541	76.3377
297.433	103.944
300.326	112.836
303.219	116.624
306.111	115.324
309.004	116.49
311.897	113.819
314.79	99.836
317.682	86.3412
320.575	70.447
323.468	58.9607
326.36	59.4999
329.253	68.4951
332.146	82.8297
335.038	86.8779
337.931	84.4603
340.824	85.1625
343.717	82.3112
346.609	56.9957
349.502	24.6635
352.395	4.30487
355.287	4.40285
358.18	4.60503
361.073	1.54971
363.965	5.52008
366.858	6.47147
369.751	10.8452
372.644	9.41892
375.536	2.9949
378.429	11.2606
381.322	16.4586
384.214	24.1201
387.107	29.8762
390	46.0114
392.892	71.2479
395.785	99.0256
398.678	131.959
401.57	164.194
404.463	187.483
407.356	209.464
410.249	231.887
413.141	241.43
416.034	252.143
418.927	268.838
421.819	298.227
424.712	310.812
427.605	303.982
430.498	270.793
433.39	214.335
436.283	157.198
439.176	116.05
442.068	84.0395
444.961	66.6746
447.854	49.6896
450.746	43.5252
453.639	39.6364
456.532	32.2299
459.425	26.9612
462.317	17.3115
465.21	13.15
468.103	3.76184
470.995	1.42087
473.888	2.16894
476.781	1.3587
479.673	4.05164
482.566	0.666656
485.459	2.79243
488.351	9.00525
491.244	17.3289
494.137	26.8345
497.029	37.5056
499.922	52.3619
502.815	64.4926
505.708	72.8442
508.6	78.0121
511.493	76.2859
514.386	72.2768
517.278	66.978
520.171	58.2752
523.064	50.9836
525.957	37.3655
528.849	27.4167
531.742	21.1534
534.635	13.966
537.527	9.83935
540.42	5.60065
543.313	3.80003
546.205	0.141502
549.098	0.347649
551.991	0.207024
554.884	0.664703
557.776	2.2667
560.669	0.290512
563.562	1.14464
566.454	1.60663
569.347	2.78529
572.24	0.756035
575.132	3.08924
578.025	2.38155
580.918	3.85609
583.811	2.95882
586.703	2.65839
589.596	0.962982
592.489	1.84065
595.381	3.7003
598.274	5.25143
601.167	5.32074
604.059	7.60393
606.952	5.7402
609.845	5.53838
612.737	6.44859
615.63	7.35997
618.523	7.81243
621.416	8.85237
624.308	5.96169
627.201	5.79475
630.094	6.10745
632.986	4.92926
635.879	6.34345
638.772	5.7113
641.664	5.91897
644.557	6.07239
647.45	3.28253
650.342	3.89563
653.235	6.60644
656.128	4.61156
659.021	9.12656
661.913	6.69869
664.806	7.69866
667.699	5.49535
670.591	5.65406
673.484	4.97679
676.377	4.3426
679.269	5.62869
682.162	4.43694
685.055	4.12399
687.948	3.06795
690.84	2.79139
693.733	5.49252
696.626	1.64233
699.518	5.63538
702.411	2.84795
705.304	1.09466
708.197	6.28706
711.089	3.73635
713.982	3.55631
716.875	4.40179
719.767	0.786606
722.66	3.96219
725.553	2.82954
728.445	5.46385
731.338	6.25938
734.231	6.65526
737.124	7.22288
740.016	4.95219
742.909	8.36993
745.802	6.97989
748.694	7.07954
751.587	7.89564
754.48	6.80142
757.372	5.35886
760.265	3.76331
763.158	2.03042
766.051	3.89288
768.943	3.45652
771.836	2.10971
774.729	2.25359
777.621	2.14626
780.514	2.15827
783.407	0.836853
786.299	4.98244
789.192	4.56551
792.085	2.87064
794.977	3.92712
797.87	0.147308
800.763	0.176109
803.655	5.0469
806.548	9.09116
809.441	12.4287
812.334	24.1835
815.226	31.6378
818.119	41.7007
821.012	56.3768
823.904	62.665
826.797	71.1291
829.69	78.2894
832.582	84.9429
835.475	90.813
838.368	91.87
841.261	86.8821
844.153	84.2177
847.046	88.1774
849.939	87.0054
852.831	79.5818
855.724	71.2803
858.617	65.6222
861.51	60.7113
864.402	56.6736
867.295	54.1138
870.188	48.2589
873.08	45.2709
875.973	40.0762
878.866	41.8082
881.758	45.9471
884.651	50.7528
887.544	54.2916
890.437	55.8787
893.329	66.841
896.222	86.9889
899.115	115.362
902.007	154.142
904.9	205.424
907.793	252.801
910.685	304.999
913.578	344.122
916.471	357.539
919.364	335.554
922.256	281.091
925.149	218.692
928.042	162.699
930.934	125.776
933.827	101.489
936.72	89.179
939.612	82.8004
942.505	70.6892
945.398	59.5861
948.29	46.7411
951.183	35.7864
954.076	27.8996
956.968	19.0774
959.861	9.77989
962.754	6.62955
965.647	2.49053
968.539	0.220726
971.432	1.72266
974.325	1.49674
977.217	3.04504
980.11	2.93185
983.003	3.51939
985.895	1.60068
988.788	3.47405
991.681	1.92501
994.574	2.3017
997.466	0.050339
1000.36	1.60857
1003.25	5.86393
1006.14	6.83596
1009.04	11.1426
1011.93	14.2896
1014.82	11.1015
1017.72	13.4883
1020.61	14.0859
1023.5	11.092
1026.39	10.2856
1029.29	9.59135
1032.18	10.3239
1035.07	10.9848
1037.96	15.0874
1040.86	12.5957
1043.75	9.52848
1046.64	7.49005
1049.54	8.5427
1052.43	7.09882
1055.32	5.62614
1058.21	9.04782
1061.11	7.67095
1064	6.49354
1066.89	8.5395
1069.78	3.90127
1072.68	3.70195
1075.57	4.45358
1078.46	2.85063
1081.35	7.33448
1084.25	3.88765
1087.14	4.9953
1090.03	7.08919
1092.92	4.79842
1095.82	7.82437
1098.71	3.32302
1101.6	6.51681
1104.5	2.41358
1107.39	1.04306
1110.28	2.43609
1113.17	2.74955
1116.07	2.71945
1118.96	5.57463
1121.85	2.94839
1124.74	2.20147
1127.64	6.09797
1130.53	2.35796
1133.42	2.89159
1136.32	3.28589
1139.21	0.043888
1142.1	1.51019
1144.99	0.582779
1147.89	3.10722
1150.78	0.111889
1153.67	0.783363
1156.57	2.05629
1159.46	4.44087
1162.35	0.183224
1165.24	4.41987
1168.13	3.06932
1171.03	1.48164
1173.92	0.355225
1176.81	3.03242
1179.71	3.40846
1182.6	1.73418
1185.49	2.95168
1188.38	2.72047
1191.28	4.49503
1194.17	3.12764
1197.06	3.44601
1199.95	1.30629
1202.85	3.27844
1205.74	4.19307
1208.63	5.8384
1211.53	3.20196
1214.42	4.43391
1217.31	2.92184
1220.2	3.88945
1223.1	2.20346
1225.99	1.06374
1228.88	1.58173
1231.78	0.448944
1234.67	3.01677
1237.56	1.61823
1240.45	2.35384
1243.35	0.947205
1246.24	3.11964
1249.13	1.36177
1252.02	0.911739
1254.92	0.439503
1257.81	6.20813
1260.7	4.91581
1263.59	4.7428
1266.49	3.13404
1269.38	2.02035
1272.27	5.15841
1275.16	1.45494
1278.06	0.62389
1280.95	1.68261
1283.84	0.02343
