Measurement: Raman, 532 nm, unoriented, Raman Data Processed
Mineral: Mansfieldite
Rruff sample: R060409
Ideal chemistry: AlAs^5+^O_4_2H_2_O
Locality: Djebel Debagh, Constantine, Algeria
Source: Herb Obodda
Description: Pale blue cryptocrystalline mass
Measured chemistry: (Al_0.98_Fe^3+^_0.02_)_Σ=1_(As_0.97_P_0.03_)_Σ=1_O_4_·2H_2_O
Raman shift (cm-1)	intensity
178.298	0
181.191	0.21756
184.084	8.88777
186.976	37.6735
189.869	71.7687
192.762	115.837
195.655	166.486
198.547	217.019
201.44	261.076
204.333	305.374
207.225	282.792
210.118	180.234
213.011	95.3379
215.904	55.6258
218.796	29.7092
221.689	30.9042
224.582	31.5194
227.474	44.8582
230.367	37.3854
233.26	29.438
236.152	20.0478
239.045	20.4587
241.938	34.7422
244.831	41.6538
247.723	25.4066
250.616	14.6385
253.509	14.652
256.401	12.6292
259.294	8.5068
262.187	10.7296
265.079	13.6272
267.972	5.92786
270.865	4.75696
273.758	2.15216
276.65	2.49359
279.543	6.10571
282.436	3.45721
285.328	13.4123
288.221	31.2325
291.114	48.6513
294.007	80.3079
296.899	122.579
299.792	151.738
302.685	163.602
305.577	171.934
308.47	177.171
311.363	180.005
314.255	168.031
317.148	134.935
320.041	114.589
322.933	81.5133
325.826	71.1275
328.719	81.4293
331.612	111.262
334.504	131.623
337.397	130.768
340.29	129.235
343.183	135.987
346.075	112.082
348.968	62.0748
351.861	19.0169
354.753	0.911407
357.646	6.9093
360.539	3.50046
363.431	0.875946
366.324	6.25934
369.217	7.81818
372.11	9.85751
375.002	2.35892
377.895	7.39114
380.788	15.4414
383.68	17.5
386.573	18.3996
389.466	39.4552
392.358	67.5897
395.251	113.163
398.144	170.535
401.036	217.608
403.929	261.868
406.822	291.347
409.715	320.888
412.607	343.811
415.5	367.301
418.393	405.106
421.285	449.551
424.178	510.392
427.071	531.619
429.964	501.026
432.856	422.23
435.749	328.48
438.642	242.152
441.534	180.872
444.427	137.704
447.32	107.763
450.212	87.3725
453.105	80.326
455.998	67.273
458.891	59.8836
461.783	45.9682
464.676	33.4941
467.569	21.9994
470.461	11.726
473.354	7.44574
476.247	0.602417
479.139	0.976624
482.032	2.92996
484.925	3.08063
487.818	3.82947
490.71	21.6132
493.603	31.8307
496.496	50.8159
499.388	71.8846
502.281	103.244
505.174	113.867
508.067	127.455
510.959	132.781
513.852	131.569
516.745	126.206
519.637	109.701
522.53	93.5658
525.423	74.9248
528.316	58.1804
531.208	43.1515
534.101	32.7366
536.994	22.0683
539.886	13.6372
542.779	8.08798
545.672	5.22873
548.564	1.4422
551.457	2.37567
554.35	0.945984
557.242	0.877106
560.135	2.61613
563.028	1.78264
565.921	0.751953
568.813	1.77571
571.706	5.91757
574.599	2.48743
577.491	3.19141
580.384	0.773041
583.277	4.54744
586.17	1.51151
589.062	3.03665
591.955	4.20789
594.848	5.48126
597.74	7.48508
600.633	9.65276
603.526	8.48564
606.418	7.3434
609.311	9.37596
612.204	8.63539
615.097	10.9723
617.989	9.8672
620.882	9.74822
623.775	7.257
626.667	8.85147
629.56	6.4411
632.453	5.64572
635.346	6.76096
638.238	8.88709
641.131	8.58237
644.024	9.94875
646.916	10.7642
649.809	4.8217
652.702	8.2242
655.594	9.69664
658.487	8.7478
661.38	10.4573
664.273	10.1237
667.165	8.99474
670.058	8.07283
672.951	9.89923
675.843	9.62517
678.736	8.93921
681.629	10.1715
684.521	8.4286
687.414	9.00078
690.307	9.34534
693.199	8.51059
696.092	7.84071
698.985	5.3728
701.878	5.93881
704.77	4.53789
707.663	9.2415
710.556	6.0891
713.448	5.32982
716.341	5.67613
719.234	5.70152
722.127	4.45782
725.019	4.39925
727.912	7.091
730.805	5.57022
733.697	10.2649
736.59	13.9156
739.483	14.5245
742.375	13.2122
745.268	16.807
748.161	13.3973
751.054	13.3649
753.946	14.435
756.839	14.0464
759.732	12.3751
762.625	8.86978
765.517	9.42493
768.41	6.67703
771.303	2.45956
774.195	3.51965
777.088	3.44748
779.981	1.33368
782.873	0.567383
785.766	5.84662
788.659	4.27832
791.552	9.81839
794.444	11.2529
797.337	6.63626
800.23	5.68448
803.122	5.80316
806.015	9.13544
808.908	25.5976
811.8	36.912
814.693	56.1821
817.586	77.6773
820.479	96.8805
823.371	113.353
826.264	127.778
829.157	137.362
832.049	159.834
834.942	172.379
837.835	172.374
840.727	162.412
843.62	162.609
846.513	168.082
849.405	173.099
852.298	164.776
855.191	140.494
858.084	119.959
860.976	111.026
863.869	104.749
866.762	104.47
869.654	95.9765
872.547	84.0025
875.44	76.2249
878.333	74.4254
881.225	82.7214
884.118	90.5077
887.011	95.2865
889.903	95.696
892.796	99.9587
895.689	127.094
898.582	167.439
901.474	226.955
904.367	308.471
907.26	412.923
910.152	529.209
913.045	636.083
915.938	711.87
918.83	722.919
921.723	648.985
924.616	522.506
927.509	389.481
930.401	292.834
933.294	230.281
936.187	193.835
939.079	169.59
941.972	154.226
944.865	134.204
947.757	114.705
950.65	85.0349
953.543	67.8002
956.436	46.8847
959.328	31.3897
962.221	19.5207
965.114	11.5646
968.006	3.57428
970.899	0.385254
973.792	2.13278
976.684	1.42078
979.577	6.71661
982.47	6.39282
985.362	6.64166
988.255	3.33603
991.148	6.88589
994.041	0.750824
996.933	3.13388
999.826	3.65399
1002.72	8.71057
1005.61	9.56815
1008.5	12.8732
1011.4	19.2405
1014.29	21.8454
1017.18	23.7246
1020.08	22.055
1022.97	22.9437
1025.86	18.7052
1028.75	21.1255
1031.65	25.359
1034.54	25.0327
1037.43	22.028
1040.32	20.7996
1043.22	18.5442
1046.11	18.4869
1049	18.5022
1051.89	15.483
1054.79	11.8411
1057.68	11.2114
1060.57	11.1482
1063.47	11.5237
1066.36	6.70847
1069.25	11.4893
1072.14	13.68
1075.04	8.98337
1077.93	8.45743
1080.82	9.63806
1083.71	10.0965
1086.61	9.0285
1089.5	9.24188
1092.39	12.0239
1095.29	7.81885
1098.18	8.90341
1101.07	7.15976
1103.96	6.52567
1106.86	6.25119
1109.75	6.37216
1112.64	4.01364
1115.53	7.14288
1118.43	3.85861
1121.32	5.07236
1124.21	5.15942
1127.11	3.1095
1130	1.96591
1132.89	5.22617
1135.78	3.99149
1138.68	2.38318
1141.57	3.98679
1144.46	2.51114
1147.35	0.715973
1150.25	0.89151
1153.14	0.691559
1156.03	0.437744
1158.92	2.86764
1161.82	4.22687
1164.71	0.325348
1167.6	1.6933
1170.5	2.073
1173.39	2.96521
1176.28	0.267181
1179.17	3.09998
1182.07	2.90601
1184.96	0.094849
1187.85	3.2663
1190.74	6.45404
1193.64	0.778687
1196.53	5.21289
1199.42	4.39227
1202.32	1.79221
1205.21	0.876434
1208.1	3.09409
1210.99	2.58163
1213.89	3.73068
1216.78	2.20346
1219.67	1.66324
1222.56	2.05692
1225.46	2.15051
1228.35	2.86267
1231.24	4.99496
1234.13	4.06836
1237.03	2.97818
1239.92	1.11462
1242.81	1.72098
1245.71	3.06229
1248.6	0.405731
1251.49	4.73666
1254.38	1.07413
1257.28	1.68875
1260.17	0.434204
1263.06	2.54538
1265.95	2.51483
1268.85	4.96646
1271.74	4.21197
1274.63	7.19223
1277.53	2.87237
1280.42	4.59256
1283.31	4.46109
1286.2	1.43231
1289.1	4.12155
1291.99	4.84042
1294.88	3.35858
1297.78	5.46069
1300.67	2.19315
