Measurement: Raman, 780 nm, unoriented, Raman Data Processed
Mineral: Mapimite
Rruff sample: R080002
Ideal chemistry: Zn^2+^_2_Fe^3+^_3_(As^5+^O_4_)_3_(OH)_4_10H_2_O
Locality: Level 5 between Palomes Oriente and San Carlos, Ojuela mine, Mapimi, Durango, Mexico
Source: William W. Pinch, from M Romero
Description: Group of green tabular, rectangular crystals, from the original find
Raman shift (cm-1)	intensity
155.257	0
158.149	0.838051
161.042	1.13834
163.935	0.121933
166.828	0.341324
169.72	0.587135
172.613	0.865242
175.506	2.23402
178.398	4.40368
181.291	5.26378
184.184	7.91838
187.077	9.50998
189.969	9.92916
192.862	6.99572
195.755	5.55341
198.647	2.71901
201.54	1.65701
204.433	1.32293
207.325	1.77625
210.218	2.2216
213.111	2.30227
216.004	4.77242
218.896	7.61688
221.789	9.53374
224.682	11.5252
227.574	15.4086
230.467	18.3711
233.36	20.6407
236.252	22.3346
239.145	21.2506
242.038	18.3625
244.93	15.8957
247.823	14.6424
250.716	13.9249
253.609	14.5813
256.501	14.7339
259.394	15.2711
262.287	15.972
265.179	16.2897
268.072	16.395
270.965	14.9543
273.858	13.8655
276.75	14.4882
279.643	14.3907
282.536	14.5927
285.428	13.2041
288.321	10.859
291.214	9.99904
294.106	10.9919
296.999	11.4941
299.892	11.7299
302.784	11.1441
305.677	8.86314
308.57	7.15339
311.463	5.8089
314.355	4.18178
317.248	2.75229
320.141	1.67712
323.033	0.956657
325.926	0.390072
328.819	0.331814
331.712	0.270023
334.604	0.329193
337.497	0.440565
340.39	0.184748
343.282	0.763491
346.175	0.248035
349.068	0.060503
351.96	0.0541
354.853	0.167625
357.746	0.078226
360.639	0.052086
363.531	1.38583
366.424	1.81514
369.317	2.74674
372.209	4.1104
375.102	4.48128
377.995	5.51113
380.887	5.95523
383.78	6.22057
386.673	5.83506
389.565	4.86452
392.458	3.98764
395.351	3.25285
398.244	1.59673
401.136	0.333241
404.029	0.330334
406.922	0.70504
409.814	0.829933
412.707	0.156384
415.6	0.172874
418.493	1.41736
421.385	2.08567
424.278	4.599
427.171	6.06893
430.063	8.38061
432.956	10.7535
435.849	14.2777
438.741	19.6842
441.634	24.8458
444.527	32.0605
447.42	42.428
450.312	56.3889
453.205	77.2567
456.098	109.345
458.99	144.464
461.883	177.891
464.776	209.36
467.668	243.388
470.561	274.196
473.454	288.742
476.346	264.073
479.239	199.085
482.132	136.091
485.024	96.5
487.917	73.949
490.81	59.3023
493.703	49.3058
496.595	43.4149
499.488	37.8539
502.381	32.6109
505.273	28.364
508.166	24.1283
511.059	19.1651
513.952	15.7234
516.844	11.9192
519.737	8.75736
522.63	6.57884
525.522	4.32609
528.415	3.25168
531.308	2.15456
534.2	1.89401
537.093	0.843988
539.986	0.394934
542.879	0.115641
545.771	0.342621
548.664	0.293146
551.557	0.147314
554.449	0.586241
557.342	0.982716
560.235	0.108116
563.127	0.053629
566.02	0.12398
568.913	0.218161
571.806	0.546387
574.698	0.800056
577.591	1.22585
580.484	1.97213
583.376	1.53975
586.269	1.45371
589.162	2.11667
592.054	2.05569
594.947	2.00224
597.84	2.35409
600.732	2.21544
603.625	2.69297
606.518	2.48945
609.411	2.35818
612.303	2.4164
615.196	1.82742
618.089	1.81841
620.981	0.954561
623.874	1.37946
626.767	1.24268
629.659	1.70733
632.552	1.46277
635.445	1.57587
638.338	1.63235
641.23	1.22502
644.123	1.05163
647.016	1.14941
649.908	1.29462
652.801	0.936449
655.694	1.18048
658.587	1.22699
661.479	1.23616
664.372	1.18
667.265	1.0566
670.157	0.966568
673.05	1.17798
675.943	1.01586
678.835	1.28952
681.728	1.55494
684.621	1.42544
687.514	0.910398
690.406	1.07551
693.299	1.24352
696.192	1.50001
699.084	1.2071
701.977	1.55033
704.87	0.645458
707.763	0.541708
710.655	0.607792
713.548	0.505842
716.441	0.545784
719.333	0.247917
722.226	0.454222
725.119	0.163458
728.011	0.27906
730.904	0.071484
733.797	0.240477
736.689	0.060047
739.582	0.181883
742.475	0.395422
745.368	0.072138
748.26	0.39167
751.153	0.068808
754.046	0.338467
756.938	0.166294
759.831	0.57748
762.724	0.324436
765.616	1.10159
768.509	1.93636
771.402	2.33579
774.295	3.67456
777.187	4.83074
780.08	5.91091
782.973	6.91462
785.865	7.00293
788.758	6.93768
791.651	5.81292
794.543	3.85267
797.436	2.95754
800.329	1.99069
803.222	1.10747
806.114	0.867743
809.007	0.389305
811.9	0.733517
814.792	1.23245
817.685	1.70911
820.578	2.74594
823.471	4.29598
826.363	5.4213
829.256	6.95628
832.149	9.18097
835.041	12.4155
837.934	15.0125
840.827	19.3711
843.719	23.4743
846.612	27.6317
849.505	33.2758
852.397	38.113
855.29	43.6505
858.183	48.1646
861.076	51.9971
863.968	55.1334
866.861	57.1265
869.754	58.8105
872.646	61.9225
875.539	63.4197
878.432	64.0197
881.324	60.4364
884.217	52.9111
887.11	42.2397
890.003	31.0812
892.895	22.5498
895.788	15.6533
898.681	10.1976
901.573	7.54386
904.466	4.81283
907.359	3.56984
910.251	1.97283
913.144	1.32593
916.037	0.640831
918.929	0.065762
921.822	0.385294
924.715	0.295574
927.608	0.373451
930.5	0.197627
933.393	0.363645
936.286	0.342713
939.178	0.208632
942.071	0.834
944.964	0.25697
947.856	0.186604
950.749	0.239158
953.642	1.01467
956.535	0.509166
959.427	0.795864
962.32	0.9295
965.213	0.83991
968.105	0.982672
970.998	1.61532
973.891	1.73055
976.784	1.65507
979.676	1.98833
982.569	1.86023
985.462	2.12574
988.354	2.22654
991.247	1.98534
994.14	1.79677
997.032	1.31398
999.925	1.66751
1002.82	1.4406
1005.71	1.63099
1008.6	1.58595
1011.5	1.29725
1014.39	1.12023
1017.28	1.40497
1020.17	0.900738
1023.07	1.34327
1025.96	0.889128
1028.85	1.43532
1031.74	1.41575
1034.64	0.992642
1037.53	1.06899
1040.42	1.12414
1043.32	0.697219
1046.21	0.795548
1049.1	0.628744
1051.99	0.88177
1054.89	0.406738
1057.78	0.514398
1060.67	0.407617
1063.57	0.268559
1066.46	0.250793
1069.35	0.341698
1072.24	0.421933
1075.13	0.10607
1078.03	0.222676
1080.92	0.183315
1083.81	0.410106
1086.71	0.153724
1089.6	0.020933
1092.49	0.133654
1095.38	0.317206
1098.28	0.151507
1101.17	0.315262
1104.06	0.162302
1106.95	0.209682
1109.85	0.260125
1112.74	0.139179
1115.63	0.120792
1118.53	0.111729
1121.42	0.141657
1124.31	0.033449
1127.2	0.008849
1130.1	0.083105
1132.99	0.149446
1135.88	0.013216
1138.78	0.103636
1141.67	0.350313
1144.56	0.114396
1147.45	0.30311
1150.35	0.104971
1153.24	0.224437
1156.13	0.102616
1159.02	0.290555
1161.92	0.214857
1164.81	0.024563
1167.7	0.540452
1170.59	0.374551
1173.49	0.123666
1176.38	0.369469
1179.27	0.201999
1182.16	0.334606
1185.06	0.539149
1187.95	0.503143
1190.84	0.548932
1193.74	0.316633
1196.63	0.423297
1199.52	0.030146
1202.41	0.065679
1205.31	0.108246
1208.2	0.227476
1211.09	0.400781
1213.98	0.320487
1216.88	0.26698
1219.77	0.398261
1222.66	0.011545
1225.56	0.299676
1228.45	0.453522
1231.34	0.270383
1234.23	0.305288
1237.13	0.442708
1240.02	0.185981
1242.91	0.378687
1245.81	0.150666
1248.7	0.051549
1251.59	0.225321
1254.48	0.301876
1257.38	0.181407
1260.27	0.191448
1263.16	0.441136
1266.05	0.282081
1268.95	0.088501
1271.84	0.239578
1274.73	0.071333
1277.62	0.321965
1280.52	0.329764
1283.41	0.231781
1286.3	0.056537
