Measurement: Raman, 532 nm, unoriented, Raman Data Processed
Mineral: Mapimite
Rruff sample: R080002
Ideal chemistry: Zn^2+^_2_Fe^3+^_3_(As^5+^O_4_)_3_(OH)_4_10H_2_O
Locality: Level 5 between Palomes Oriente and San Carlos, Ojuela mine, Mapimi, Durango, Mexico
Source: William W. Pinch, from M Romero
Description: Group of green tabular, rectangular crystals, from the original find
Raman shift (cm-1)	intensity
156.081	0
158.974	1.99547
161.867	3.50205
164.76	4.94044
167.652	6.94911
170.545	2.82181
173.438	0.038391
176.33	0.780739
179.223	0.072472
182.116	3.18655
185.008	8.59483
187.901	12.7468
190.794	15.4486
193.686	13.5126
196.579	7.54842
199.472	3.62363
202.365	1.54185
205.257	0.82061
208.15	3.0583
211.043	7.54702
213.935	13.8709
216.828	26.3217
219.721	40.8463
222.613	56.4676
225.506	73.8647
228.399	93.0213
231.292	114.733
234.184	135.036
237.077	145.781
239.97	133.959
242.862	106.556
245.755	82.6334
248.648	66.3727
251.541	55.7111
254.433	51.4702
257.326	48.3899
260.219	45.4998
263.111	41.6556
266.004	38.953
268.897	35.1852
271.789	31.7425
274.682	28.89
277.575	26.8639
280.467	28.3387
283.36	31.3464
286.253	31.9783
289.146	32.2076
292.038	36.6303
294.931	42.4043
297.824	49.1932
300.716	54.3386
303.609	51.0932
306.502	44.3103
309.394	34.4084
312.287	26.4806
315.18	21.4896
318.073	17.7105
320.965	13.2037
323.858	9.14959
326.751	6.95262
329.643	4.75293
332.536	3.43102
335.429	2.10184
338.322	0.286804
341.214	0.528824
344.107	1.13194
347	2.07882
349.892	2.1143
352.785	2.338
355.678	2.35445
358.57	1.90044
361.463	0.028809
364.356	3.3741
367.248	6.97537
370.141	11.7919
373.034	17.643
375.927	25.7603
378.819	35.4101
381.712	41.3012
384.605	46.1348
387.497	46.002
390.39	42.8617
393.283	35.9146
396.175	28.4457
399.068	22.4642
401.961	15.0466
404.853	9.86848
407.746	5.9677
410.639	2.81667
413.532	1.05275
416.424	0.931458
419.317	1.60089
422.21	5.78139
425.102	9.35178
427.995	13.5188
430.888	18.181
433.781	24.6376
436.673	31.1862
439.566	38.9442
442.459	49.0786
445.351	59.785
448.244	77.3214
451.137	102.401
454.029	134.673
456.922	182.78
459.815	241.133
462.708	301.308
465.6	372.156
468.493	456.362
471.386	554.465
474.278	613.126
477.171	556.02
480.064	409.246
482.957	287.235
485.849	216.732
488.742	172.36
491.635	145.211
494.527	125.302
497.42	109.117
500.313	96.5309
503.205	82.3027
506.098	70.0264
508.991	57.2989
511.884	44.6826
514.776	36.0675
517.669	26.5518
520.562	19.6436
523.454	13.6855
526.347	9.67571
529.24	6.23962
532.132	3.10826
535.025	1.40845
537.918	1.07668
540.81	0.003433
543.703	0.979202
546.596	1.00591
549.489	1.70486
552.381	1.43386
555.274	1.08505
558.167	0.94545
561.059	0.090332
563.952	1.12154
566.845	0.676945
569.737	1.14154
572.63	1.81495
575.523	2.6419
578.415	3.89113
581.308	4.60891
584.201	5.2503
587.094	6.52309
589.986	6.79055
592.879	7.05047
595.772	7.92099
598.664	8.84225
601.557	8.59121
604.45	8.96617
607.342	9.20135
610.235	8.87944
613.128	8.4907
616.021	8.13497
618.913	7.24141
621.806	6.65374
624.699	6.76968
627.591	6.77183
630.484	5.70228
633.377	6.117
636.269	6.12791
639.162	5.97467
642.055	5.30227
644.948	6.44289
647.84	5.4909
650.733	5.25637
653.626	5.33343
656.518	5.42478
659.411	5.24299
662.304	4.84555
665.197	4.51639
668.089	4.79085
670.982	5.31854
673.875	4.61485
676.767	4.85876
679.66	5.16531
682.553	4.81122
685.445	5.14529
688.338	4.82274
691.231	5.26881
694.124	4.62324
697.016	3.93185
699.909	3.50782
702.802	3.06084
705.694	3.2035
708.587	3.10386
711.48	1.8572
714.372	1.25533
717.265	1.32551
720.158	1.50426
723.051	1.21644
725.943	0.462406
728.836	0.908497
731.729	1.59676
734.621	1.40522
737.514	1.45596
740.407	1.38891
743.299	1.05557
746.192	0.336895
749.085	0.547333
751.977	0.86829
754.87	1.89366
757.763	2.39994
760.656	1.9753
763.548	2.06495
766.441	2.03152
769.334	3.45047
772.226	6.10321
775.119	10.3338
778.012	14.8971
780.904	20.9024
783.797	25.8877
786.69	27.8261
789.583	27.9134
792.475	23.208
795.368	18.4925
798.261	14.4298
801.153	13.7027
804.046	14.7456
806.939	13.1226
809.832	14.9131
812.724	14.1658
815.617	16.3504
818.51	17.3089
821.402	16.2955
824.295	18.312
827.188	21.3842
830.08	24.8376
832.973	29.5867
835.866	38.4459
838.759	47.8838
841.651	59.1671
844.544	73.3732
847.437	87.1625
850.329	104.159
853.222	121.66
856.115	139.138
859.007	155.35
861.9	164.759
864.793	164.896
867.686	158.445
870.578	147.417
873.471	139.719
876.364	135.56
879.256	131.98
882.149	125.456
885.042	109.364
887.934	90.0107
890.827	67.5805
893.72	49.0286
896.612	34.8893
899.505	23.7814
902.398	16.227
905.291	10.687
908.183	7.00633
911.076	4.87121
913.969	1.95236
916.861	0.196301
919.754	1.11942
922.647	0.890945
925.539	1.46946
928.432	1.37885
931.325	1.54613
934.218	0.670185
937.11	0.533169
940.003	0.348095
942.896	0.443237
945.788	1.22816
948.681	1.80427
951.574	2.42071
954.466	3.56434
957.359	3.37199
960.252	5.14862
963.144	5.33639
966.037	6.09083
968.93	7.34456
971.823	7.64611
974.715	8.4849
977.608	9.22024
980.501	8.89324
983.393	9.57013
986.286	9.46606
989.179	9.45665
992.072	8.70679
994.964	9.46465
997.857	9.01123
1000.75	8.59952
1003.64	8.64852
1006.53	8.51473
1009.43	8.52843
1012.32	8.30294
1015.21	8.37231
1018.11	8.35281
1021	8.73705
1023.89	8.49298
1026.78	8.50501
1029.68	8.05622
1032.57	7.63248
1035.46	7.01985
1038.36	7.32932
1041.25	6.58762
1044.14	6.4205
1047.03	6.23135
1049.93	5.56949
1052.82	5.04521
1055.71	5.04615
1058.6	4.81382
1061.5	3.76063
1064.39	3.15527
1067.28	3.17608
1070.17	2.17707
1073.07	1.95253
1075.96	1.93521
1078.85	1.85789
1081.74	1.16275
1084.64	0.667593
1087.53	0.842442
1090.42	0.807302
1093.32	0.587988
1096.21	0.356052
1099.1	0.779678
1101.99	0.547985
1104.89	0.109692
1107.78	0.06436
1110.67	0.147377
1113.57	0.080717
1116.46	0.096682
1119.35	0.003218
1122.24	0.292856
1125.14	0.121664
1128.03	0.326099
1130.92	0.201487
1133.81	0.086384
1136.71	0.060623
1139.6	0.489256
1142.49	0.199808
1145.38	0.320663
1148.28	0.051435
1151.17	0.568512
1154.06	0.302034
1156.95	0.142593
1159.85	0.210875
1162.74	0.638306
1165.63	0.051884
1168.53	0.86433
1171.42	0.335201
1174.31	0.627413
1177.2	0.751513
1180.1	0.635334
1182.99	0.842546
1185.88	0.916292
1188.78	1.05068
1191.67	0.60537
1194.56	0.909185
1197.45	0.449295
1200.35	0.074299
1203.24	0.622711
1206.13	0.672558
1209.02	0.794041
1211.92	0.406244
1214.81	0.640465
1217.7	0.439182
1220.6	0.481482
1223.49	0.83749
1226.38	0.449856
1229.27	0.734589
1232.17	0.377537
1235.06	0.564188
1237.95	0.445604
1240.84	0.401779
1243.74	0.584463
1246.63	1.01961
1249.52	0.441797
1252.41	0.481333
1255.31	0.650183
1258.2	0.320709
1261.09	0.423702
1263.98	0.191196
1266.88	0.69208
1269.77	0.543533
1272.66	0.663706
1275.56	0.648615
1278.45	0.697514
1281.34	0.804489
1284.23	0.679392
1287.13	0.262512
1290.02	0.228086
1292.91	0.60261
1295.81	0.480061
1298.7	0.293264
1301.59	0.587999
1304.48	0.402517
