Measurement: Raman, 785 nm, unoriented, Raman Data Processed
Mineral: Marcasite
Rruff sample: R060882
Ideal chemistry: FeS_2_
Locality: Ive's Quarry, Racine, Wisconsin, USA
Source: Bob Jenkins
Description: Brassy yellow prismatic crystals
Measured chemistry: Fe_1.00_S_2.00_
Raman shift (cm-1)	intensity
187.096	0
189.989	38.1309
192.881	3.3833
195.774	86.5132
198.667	67.3393
201.559	50.7473
204.452	62.6534
207.345	16.499
210.238	34.4998
213.13	20.9017
216.023	114.388
218.916	105.514
221.808	93.6288
224.701	94.1463
227.594	47.1646
230.486	55.3102
233.379	53.0242
236.272	30.2935
239.165	5.5589
242.057	13.5915
244.95	9.40332
247.843	7.37158
250.735	29.1802
253.628	31.8972
256.521	63.5791
259.413	66.148
262.306	67.0743
265.199	66.9771
268.091	43.8655
270.984	51.7057
273.877	7.76318
276.77	36.5104
279.662	67.0767
282.555	52.4135
285.448	52.9935
288.34	39.9059
291.233	73.2935
294.126	102.909
297.019	100.043
299.911	114.931
302.804	133.278
305.697	105.368
308.589	96.8375
311.482	99.5158
314.375	186.167
317.267	726.759
320.16	1359.08
323.053	2569.16
325.945	1296.2
328.838	136.683
331.731	77.1782
334.624	30.5051
337.516	57.4891
340.409	38.1273
343.302	59.1979
346.194	34.3225
349.087	0.375366
351.98	32.9548
354.872	1.71045
357.765	16.3032
360.658	5.86017
363.55	8.42718
366.443	7.82196
369.336	55.2888
372.229	74.8381
375.121	107.603
378.014	239.5
380.907	703.903
383.799	1161.25
386.692	2085.61
389.585	614.111
392.478	200.167
395.37	154.577
398.263	113.797
401.156	132.465
404.048	106.504
406.941	109.654
409.834	101.562
412.726	60.3043
415.619	76.7183
418.512	42.2266
421.404	35.1246
424.297	44.168
427.19	42.8959
430.083	22.8028
432.975	23.6619
435.868	26.8237
438.761	28.5102
441.653	13.4586
444.546	3.39874
447.439	18.9623
450.332	3.54456
453.224	23.4051
456.117	6.33429
459.01	11.1927
461.902	11.547
464.795	24.3041
467.688	30.9716
470.58	33.8199
473.473	28.8426
476.366	25.0707
479.259	37.6767
482.151	58.5628
485.044	8.38794
487.937	36.0254
490.829	34.0668
493.722	29.9526
496.615	19.7838
499.507	17.7927
502.4	16.4789
505.293	33.7566
508.185	18.6691
511.078	10.3854
513.971	9.91235
516.864	16.1296
519.756	38.5242
522.649	14.3732
525.542	15.2069
528.434	20.8496
531.327	11.965
534.22	5.10016
537.112	15.8515
540.005	21.379
542.898	27.3987
545.791	23.8624
548.683	13.7295
551.576	6.60748
554.469	35.6052
557.361	21.6934
560.254	7.8403
563.147	21.0495
566.039	25.5531
568.932	1.77121
571.825	17.5145
574.718	30.8271
577.61	28.8785
580.503	29.5855
583.396	4.2738
586.288	30.2147
589.181	37.6679
592.074	34.6634
594.966	25.1532
597.859	51.1404
600.752	37.5703
603.644	55.1218
606.537	60.1574
609.43	30.5408
612.323	47.1888
615.215	31.4314
618.108	29.9377
621.001	39.6116
623.893	28.3206
626.786	28.7006
629.679	4.31946
632.572	6.85916
635.464	19.654
638.357	18.6837
641.25	4.771
644.142	12.2436
647.035	3.66888
649.928	9.95007
652.82	5.11337
655.713	13.9436
658.606	18.103
661.499	4.14188
664.391	25.4544
667.284	18.4629
670.177	27.2499
673.069	7.1138
675.962	27.5767
678.855	29.4057
681.747	26.3797
684.64	13.1534
687.533	10.7067
690.426	17.467
693.318	13.7985
696.211	39.6668
699.104	3.66489
701.996	28.6953
704.889	21.2794
707.782	19.2261
710.674	27.1982
713.567	50.9943
716.46	18.7132
719.352	32.0967
722.245	22.2639
725.138	40.8982
728.031	30.9684
730.923	27.7748
733.816	34.6485
736.709	15.7745
739.601	20.8303
742.494	29.5598
745.387	2.98077
748.279	36.5579
751.172	37.1401
754.065	48.2116
756.958	41.6641
759.85	43.1296
762.743	45.8768
765.636	39.6547
768.528	10.7305
771.421	15.6206
774.314	21.7521
777.207	9.02563
780.099	45.6045
782.992	26.6231
785.885	39.1289
788.777	49.2743
791.67	22.179
794.563	13.3961
797.455	12.2548
800.348	19.0742
803.241	6.26279
806.134	8.86246
809.026	39.6338
811.919	16.9739
814.812	24.9584
817.704	0.761139
820.597	43.8734
823.49	58.4668
826.382	5.14438
829.275	17.3312
832.168	22.5071
835.061	17.7209
837.953	44.2815
840.846	4.51486
843.739	22.9813
846.631	32.301
849.524	51.7413
852.417	14.8328
855.309	32.2307
858.202	16.8529
861.095	4.71069
863.987	13.839
866.88	2.43146
869.773	21.4874
872.665	36.4927
875.558	30.0912
878.451	24.0225
881.344	43.7723
884.236	35.0917
887.129	7.33047
890.022	30.7026
892.914	14.2088
895.807	20.5587
898.7	25.9
901.592	26.9015
904.485	41.2042
907.378	13.3525
910.271	21.0204
913.163	28.8614
916.056	18.4506
918.949	53.1426
921.841	20.1773
924.734	28.7599
927.627	1.67837
930.519	11.3426
933.412	41.5777
936.305	20.3202
939.198	26.8776
942.09	58.2156
944.983	11.2986
947.876	24.0279
950.768	36.9181
953.661	25.2952
956.554	21.3829
959.447	42.0338
962.339	60.0863
965.232	44.9212
968.125	31.2968
971.017	24.4431
973.91	39.4212
976.803	46.9398
979.695	41.1597
982.588	35.5695
985.481	59.8256
988.374	44.3944
991.266	18.346
994.159	0.177673
997.052	37.3801
999.944	35.1356
1002.84	62.1482
1005.73	54.2953
1008.62	49.9595
1011.51	57.7963
1014.41	56.6182
1017.3	23.6312
1020.19	19.9164
1023.09	17.1955
1025.98	9.84564
1028.87	31.2993
1031.76	68.211
1034.66	30.2334
1037.55	43.7299
1040.44	50.7452
1043.34	63.2968
1046.23	43.2759
1049.12	58.8559
1052.01	49.7775
1054.91	26.121
1057.8	27.2301
1060.69	61.7271
1063.58	29.6479
1066.48	43.5594
1069.37	30.4169
1072.26	22.264
1075.15	19.8358
1078.05	17.6917
1080.94	7.57297
1083.83	41.7866
1086.72	25.0483
1089.62	6.0705
1092.51	34.5044
1095.4	17.7093
1098.3	35.7068
1101.19	25.5246
1104.08	27.5238
1106.97	13.906
1109.87	22.923
1112.76	21.9965
1115.65	15.8671
1118.55	33.5604
1121.44	4.11835
1124.33	6.46622
1127.22	38.161
1130.12	1.3085
1133.01	11.9479
1135.9	0.871521
1138.79	23.5167
1141.69	36.4472
1144.58	11.0033
1147.47	38.1085
1150.37	12.6717
1153.26	40.5359
1156.15	0.569824
1159.04	34.8621
1161.93	34.6082
1164.83	32.3105
1167.72	23.8168
1170.61	33.3928
1173.51	16.2223
1176.4	48.5876
1179.29	37.1871
1182.18	17.531
1185.08	63.7393
1187.97	64.2933
1190.86	62.8825
1193.76	40.5151
1196.65	45.1624
1199.54	44.8439
1202.43	22.9143
1205.33	28.4977
1208.22	28.9011
1211.11	37.4306
1214	66.1556
1216.9	50.1817
1219.79	41.8839
1222.68	69.8852
1225.58	34.3135
1228.47	43.7398
1231.36	18.3673
1234.25	3.50974
1237.15	2.40967
1240.04	55.9786
1242.93	57.4971
1245.82	60.4266
1248.72	67.5917
1251.61	59.451
1254.5	59.5063
1257.39	30.3613
1260.29	19.6606
