Measurement: Raman, 532 nm, unoriented, Raman Data Processed
Mineral: Marecottite
Rruff sample: R070057
Ideal chemistry: Mg_3_O_6_(UO_2_)_8_(SO_4_)_4_(OH)_2_28H_2_O
Locality: La Creusaz U prospect, Marecottes Village, Canton, Wallis, Switzerland
Source: Michael Scott
Description: Yellow granular coating
Raman shift (cm-1)	intensity
141.502	0
144.877	150.005
148.252	622.339
151.627	1029.52
155.002	1038.42
158.377	719.608
161.751	430.916
165.126	265.03
168.501	253.547
171.876	145.423
175.251	98.952
178.625	14.6464
182	42.5094
185.375	3.93982
188.75	38.2789
192.125	14.4528
195.5	4.06274
198.874	23.5214
202.249	22.7855
205.624	96.6212
208.999	155.337
212.374	162.166
215.749	212.234
219.123	234.936
222.498	218.549
225.873	200.676
229.248	141.748
232.623	50.7407
235.997	60.7057
239.372	31.6081
242.747	71.3008
246.122	87.6139
249.497	141.7
252.871	185.256
256.246	268.166
259.621	318.908
262.996	372.383
266.371	385.911
269.746	404.573
273.12	411.992
276.495	436.56
279.87	536.157
283.245	532.455
286.62	541.034
289.995	474.487
293.369	359.708
296.744	238.597
300.119	170.265
303.494	97.6539
306.869	36.3148
310.243	22.7931
313.618	12.1382
316.993	11.0236
320.368	3.91248
323.743	36.1989
327.118	34.8414
330.492	16.8396
333.867	19.1173
337.242	38.9522
340.617	40.0626
343.992	22.2317
347.366	21.4774
350.741	7.49463
354.116	27.1031
357.491	11.7165
360.866	17.9233
364.24	8.62439
367.615	35.8877
370.99	30.7693
374.365	13.7893
377.74	6.06506
381.115	22.9037
384.489	6.13098
387.864	28.1642
391.239	32.9473
394.614	90.8353
397.989	154.646
401.363	264.205
404.738	428.9
408.113	699.242
411.488	1057.12
414.863	1513.03
418.238	1968.42
421.613	2246.86
424.987	2113.98
428.362	1566
431.737	944.53
435.112	473.773
438.486	256.123
441.861	140.648
445.236	106.02
448.611	102.006
451.986	222.782
455.361	435.589
458.735	705.403
462.11	949.218
465.485	1056.59
468.86	909.496
472.235	788.865
475.61	814.069
478.984	885.442
482.359	1037.48
485.734	1089.71
489.109	1045.7
492.484	961.22
495.858	846.412
499.233	674.15
502.608	537.869
505.983	496.24
509.358	375.756
512.732	254.519
516.107	200.28
519.482	98.5
522.857	75.1706
526.232	8.93555
529.607	9.77954
532.981	9.97449
536.356	1.69849
539.731	33.1548
543.106	1.98486
546.481	18.1777
549.856	4.30908
553.23	1.11023
556.605	8.48389
559.98	8.25171
563.355	7.71777
566.73	14.3383
570.104	2.15808
573.479	23.8166
576.854	12.0038
580.229	5.54321
583.604	4.23169
586.979	10.4839
590.353	62.6168
593.728	38.0704
597.103	56.7756
600.478	51.0853
603.853	59.5194
607.227	46.7159
610.602	38.5741
613.977	62.3051
617.352	25.1674
620.727	31.5731
624.102	62.3739
627.476	53.3441
630.851	30.2686
634.226	49.1775
637.601	57.0331
640.976	31.4777
644.351	36.073
647.725	33.2812
651.1	36.8224
654.475	53.7457
657.85	58.3481
661.225	63.1633
664.599	69.0127
667.974	91.1013
671.349	60.5128
674.724	17.179
678.099	48.459
681.473	56.632
684.848	7.43872
688.223	41.0704
691.598	27.0226
694.973	29.5795
698.347	21.6429
701.722	0.007935
705.097	19.0935
708.472	8.88733
711.847	1.41919
715.222	23.056
718.596	3.98645
721.971	21.1674
725.346	5.10315
728.721	8.54627
732.096	5.48438
735.471	9.06885
738.845	0.573608
742.22	37.7964
745.595	34.1456
748.97	47.0038
752.345	50.4554
755.72	104.717
759.094	106.121
762.469	130.729
765.844	190.885
769.219	253.94
772.594	308.255
775.968	420.666
779.343	582.838
782.718	719.503
786.093	982.454
789.468	1307.99
792.842	1738.76
796.217	2375.66
799.592	3121.93
802.967	4037.7
806.342	4905.3
809.717	5361.26
813.091	5195.48
816.466	4658.97
819.841	3924.16
823.216	2988.21
826.591	2091.98
829.966	1430.69
833.34	982.541
836.715	690.395
840.09	559.683
843.465	413.321
846.84	304.339
850.214	206.517
853.589	170.551
856.964	126.233
860.339	67.3872
863.714	51.3555
867.088	61.8038
870.463	53.4221
873.838	20.4155
877.213	7.82935
880.588	13.4086
883.963	1.87891
887.337	8.30957
890.712	1.33057
894.087	7.8302
897.462	1.13025
900.837	0.961304
904.212	17.7936
907.586	0.940308
910.961	0.513062
914.336	10.0221
917.711	0.041016
921.086	29.012
924.46	38.0974
927.835	36.3417
931.21	23.5571
934.585	22.3069
937.96	19.4668
941.335	30.986
944.709	36.7957
948.084	52.5756
951.459	27.2584
954.834	43.3527
958.209	37.452
961.583	32.7421
964.958	14.9131
968.333	59.5891
971.708	13.1113
975.083	16.9056
978.457	18.1478
981.832	36.0798
985.207	44.7449
988.582	28.0624
991.957	37.9481
995.332	43.9496
998.706	88.9883
1002.08	120.836
1005.46	214.453
1008.83	414.609
1012.21	673.961
1015.58	867.269
1018.96	575.086
1022.33	247.794
1025.7	92.9635
1029.08	41.4188
1032.45	25.3011
1035.83	38.7549
1039.2	3.87671
1042.58	4.57788
1045.95	12.7117
1049.33	4.98315
1052.7	37.3777
1056.08	12.12
1059.45	38.9109
1062.83	54.8674
1066.2	17.4777
1069.58	36.6028
1072.95	84.7434
1076.33	171.403
1079.7	170.138
1083.08	315.784
1086.45	457.707
1089.83	557.488
1093.2	700.171
1096.58	734.576
1099.95	637.802
1103.33	478.912
1106.7	320.113
1110.08	205.476
1113.45	139.654
1116.83	116.098
1120.2	74.0216
1123.58	63.7007
1126.95	11.7487
1130.32	52.5756
1133.7	44.0896
1137.07	15.0724
1140.45	37.2659
1143.82	12.1088
1147.2	3.30591
1150.57	41.6313
1153.95	10.9462
1157.32	34.8624
1160.7	42.131
1164.07	3.83276
1167.45	15.1052
1170.82	35.8073
1174.2	19.5718
1177.57	23.1901
1180.95	9.21216
1184.32	17.0834
1187.7	10.4349
1191.07	39.5046
1194.45	3.85083
1197.82	32.8842
1201.19	24.2937
1204.57	27.01
1207.94	56.118
1211.32	58.1606
1214.69	34.3319
1218.07	46.3114
1221.44	23.4054
1224.82	10.2161
1228.19	28.1825
1231.57	7.79956
1234.94	19.1191
1238.32	11.5746
1241.69	36.905
1245.07	14.2848
1248.44	14.082
1251.82	41.2411
1255.19	33.7905
1258.57	9.63916
1261.94	64.6475
1265.32	29.2982
1268.69	46.1117
1272.07	11.0977
1275.44	25.3573
1278.82	21.4013
1282.19	26.0395
1285.57	42.593
1288.94	15.9202
1292.32	28.6144
1295.69	22.3546
1299.07	19.4984
1302.44	12.7524
1305.82	19.7186
1309.19	27.7847
1312.56	25.6757
1315.94	0.464722
