Measurement: Raman, 785 nm, unoriented, Raman Data Processed
Mineral: Marecottite
Rruff sample: R070057
Ideal chemistry: Mg_3_O_6_(UO_2_)_8_(SO_4_)_4_(OH)_2_28H_2_O
Locality: La Creusaz U prospect, Marecottes Village, Canton, Wallis, Switzerland
Source: Michael Scott
Description: Yellow granular coating
Raman shift (cm-1)	intensity
149.755	0
152.648	72.1315
155.54	102.97
158.433	58.2013
161.326	6.78394
164.218	0.197449
167.111	2.93927
170.004	19.4939
172.897	5.32214
175.789	29.1852
178.682	15.4144
181.575	45.9986
184.467	45.6728
187.36	60.0727
190.253	50.2695
193.145	66.662
196.038	89.1324
198.931	110.522
201.823	149.389
204.716	156.813
207.609	171.637
210.502	203.16
213.394	210.318
216.287	223.505
219.18	227.288
222.072	189.077
224.965	159.973
227.858	115.583
230.75	110.687
233.643	48.5854
236.536	28.1959
239.429	20.1859
242.321	42.33
245.214	21.4458
248.107	38.4891
250.999	83.9959
253.892	100.172
256.785	111.331
259.678	170.556
262.57	170.732
265.463	155.205
268.356	168.857
271.248	156.489
274.141	162.168
277.034	182.097
279.926	192.387
282.819	199.802
285.712	161.975
288.605	178.719
291.497	130.969
294.39	121.728
297.283	82.2391
300.175	9.1665
303.068	6.28979
305.961	19.7046
308.853	5.22553
311.746	15.0724
314.639	9.63171
317.531	4.98816
320.424	0.542114
323.317	10.7282
326.21	20.161
329.102	55.8807
331.995	13.7261
334.888	5.93628
337.78	29.0461
340.673	4.44678
343.566	0.332458
346.459	2.66852
349.351	8.14282
352.244	22.4336
355.137	36.3033
358.029	14.041
360.922	18.1026
363.815	10.043
366.707	31.7402
369.6	31.1823
372.493	3.75226
375.385	9.64093
378.278	3.69794
381.171	22.164
384.064	1.6731
386.956	6.09717
389.849	5.38415
392.742	40.7297
395.634	62.3578
398.527	95.7722
401.42	132.194
404.312	165.834
407.205	282.959
410.098	397.651
412.991	559.22
415.883	739.575
418.776	933.218
421.669	1115.98
424.561	1137.3
427.454	959.51
430.347	704.567
433.24	405.076
436.132	232.845
439.025	148.472
441.918	91.7017
444.81	51.4419
447.703	53.651
450.596	65.0482
453.488	125.768
456.381	190.504
459.274	252.323
462.166	358.946
465.059	408.132
467.952	361.99
470.845	345.486
473.737	322.73
476.63	366.637
479.523	414.559
482.415	498.313
485.308	514.472
488.201	561.275
491.094	554.1
493.986	494.606
496.879	386.616
499.772	323.361
502.664	264.047
505.557	215.905
508.45	188.416
511.342	135.444
514.235	111.431
517.128	56.2109
520.021	37.41
522.913	20.8824
525.806	6.76154
528.699	6.88135
531.591	0.71405
534.484	0.422791
537.377	9.96246
540.269	8.24469
543.162	1.43207
546.055	13.822
548.948	4.26422
551.84	1.64081
554.733	9.04755
557.626	1.72168
560.518	2.33148
563.411	10.1788
566.304	8.0918
569.196	32.8393
572.089	2.03345
574.982	28.4143
577.875	0.615417
580.767	29.9994
583.66	38.7694
586.553	29.2306
589.445	20.674
592.338	35.7578
595.231	29.0566
598.123	35.3851
601.016	31.0658
603.909	28.0397
606.802	31.9447
609.694	34.1949
612.587	42.8831
615.48	28.5435
618.372	35.3254
621.265	13.7264
624.158	24.8242
627.05	9.53253
629.943	12.0665
632.836	34.6757
635.729	28.905
638.621	7.07373
641.514	10.9099
644.407	33.3087
647.299	15.3411
650.192	4.27496
653.085	29.9742
655.977	17.603
658.87	32.516
661.763	25.3045
664.655	11.2485
667.548	20.202
670.441	41.0831
673.334	21.9358
676.226	30.0181
679.119	15.5245
682.012	12.6852
684.904	26.5403
687.797	24.0281
690.69	2.3197
693.582	6.47223
696.475	21.5842
699.368	30.2792
702.261	8.4104
705.153	7.7196
708.046	17.7299
710.939	13.9771
713.831	11.2712
716.724	16.8886
719.617	16.9531
722.51	12.9168
725.402	22.0353
728.295	12.4671
731.188	9.49219
734.08	10.6534
736.973	4.54132
739.866	20.4515
742.758	10.3027
745.651	11.8742
748.544	5.43182
751.437	1.76794
754.329	6.80444
757.222	18.3596
760.115	20.2685
763.007	18.2147
765.9	24.3922
768.793	38.016
771.685	33.8937
774.578	64.2475
777.471	101.647
780.364	118.913
783.256	150.502
786.149	199.118
789.042	267.753
791.934	330.92
794.827	452.697
797.72	567.249
800.612	714.316
803.505	915.915
806.398	1144.56
809.29	1356.93
812.183	1493.39
815.076	1532.61
817.969	1413.8
820.861	1187.14
823.754	954.584
826.647	712.159
829.539	502.754
832.432	323.618
835.325	271.817
838.217	180.838
841.11	137.894
844.003	120.288
846.896	100.288
849.788	64.7714
852.681	56.7338
855.574	42.4074
858.466	38.6977
861.359	28.3861
864.252	23.9487
867.144	22.8552
870.037	23.4517
872.93	16.8383
875.823	10.4048
878.715	2.62018
881.608	0.427612
884.501	2.34253
887.393	8.09625
890.286	24.337
893.179	9.76324
896.072	9.18683
898.964	3.2782
901.857	11.8533
904.75	4.31177
907.642	1.16675
910.535	11.4946
913.428	11.1316
916.32	30.1453
919.213	21.8703
922.106	1.60303
924.999	11.2104
927.891	23.3689
930.784	28.3955
933.677	25.5751
936.569	11.2131
939.462	19.6972
942.355	33.8143
945.247	16.6776
948.14	28.3924
951.033	25.3085
953.926	27.7854
956.818	24.3909
959.711	1.78455
962.604	26.7566
965.496	10.3329
968.389	4.32468
971.282	16.9598
974.174	7.57587
977.067	8.18247
979.96	9.12759
982.852	23.6338
985.745	6.15836
988.638	11.6246
991.531	11.7825
994.423	19.0894
997.316	37.1685
1000.21	42.031
1003.1	37.2144
1005.99	90.7126
1008.89	137.007
1011.78	291.424
1014.67	416.024
1017.57	395.107
1020.46	204.385
1023.35	77.0003
1026.24	36.3987
1029.14	38.143
1032.03	13.3043
1034.92	29.3637
1037.81	20.831
1040.71	18.8449
1043.6	13.3721
1046.49	9.55499
1049.38	12.1606
1052.28	13.1659
1055.17	10.4694
1058.06	14.8997
1060.95	7.95764
1063.85	23.5128
1066.74	13.9127
1069.63	21.7919
1072.53	25.92
1075.42	29.8553
1078.31	34.2295
1081.2	49.6575
1084.1	52.4244
1086.99	112.522
1089.88	144.151
1092.78	193.954
1095.67	222.785
1098.56	219.044
1101.45	208.999
1104.35	179.192
1107.24	113.829
1110.13	87.5323
1113.02	59.8784
1115.92	30.2589
1118.81	32.0668
1121.7	13.1268
1124.6	14.6389
1127.49	25.2577
1130.38	14.6403
1133.27	13.5529
1136.17	47.957
1139.06	16.9455
1141.95	24.6392
1144.84	11.8224
1147.74	22.2284
1150.63	14.8985
1153.52	12.282
1156.41	15.2005
1159.31	22.3992
1162.2	9.83878
1165.09	17.2876
1167.98	16.8306
1170.88	26.1299
1173.77	11.654
1176.66	13.3749
1179.56	16.6432
1182.45	24.0625
1185.34	13.4793
1188.23	25.3741
1191.13	6.00439
1194.02	11.8003
1196.91	29.2641
1199.81	14.8691
1202.7	43.2326
1205.59	20.1916
1208.48	34.7129
1211.38	20.09
1214.27	7.52249
1217.16	24.109
1220.05	20.1047
1222.95	18.9091
1225.84	45.4424
1228.73	16.6231
1231.62	15.0915
1234.52	32.3682
1237.41	26.7617
1240.3	13.028
1243.2	1.37784
