Measurement: Raman, 532 nm, unoriented, Raman Data Processed
Mineral: Margarosanite
Rruff sample: R120111
Ideal chemistry: Ca_2_PbSi_3_O_9_
Locality: Parker shaft, Franklin, New Jersey, USA
Source: Caltech
Description: Pearly, colorless cleavages
Raman shift (cm-1)	intensity
208.129	0
211.021	7.90564
213.914	4.97485
216.807	8.59705
219.699	1.8584
222.592	2.56384
225.485	2.73645
228.377	7.08423
231.27	4.09863
234.163	8.82898
237.056	6.88586
239.948	8.95923
242.841	10.6173
245.734	12.2423
248.626	17.6139
251.519	23.4922
254.412	34.7261
257.305	52.5671
260.197	76.1006
263.09	91.8971
265.983	95.1992
268.875	82.092
271.768	52.7957
274.661	48.4022
277.553	48.2815
280.446	62.0033
283.339	63.8301
286.232	88.2816
289.124	111.904
292.017	109.19
294.91	81.1221
297.802	87.3848
300.695	100.586
303.588	70.8787
306.481	40.4269
309.373	34.0826
312.266	44.1626
315.159	66.4946
318.051	84.0392
320.944	74.729
323.837	65.2481
326.729	61.0052
329.622	34.025
332.515	21.8212
335.408	16.0442
338.3	27.057
341.193	18.275
344.086	6.96301
346.978	1.11328
349.871	0.456909
352.764	4.49902
355.656	4.38171
358.549	4.94104
361.442	3.17896
364.334	7.72607
367.227	20.5925
370.12	37.2986
373.012	66.7587
375.905	73.668
378.798	85.6091
381.691	106.382
384.583	132.632
387.476	112.065
390.369	111.003
393.261	83.7217
396.154	66.5784
399.047	62.4391
401.94	69.0261
404.832	95.6526
407.725	130.054
410.618	104.397
413.51	29.7959
416.403	18.5713
419.296	11.7248
422.188	8.04578
425.081	9.12256
427.974	21.0604
430.866	31.0151
433.759	38.3325
436.652	43.7683
439.545	45.2918
442.437	51.7793
445.33	44.952
448.223	39.1837
451.115	42.7279
454.008	49.0519
456.901	67.769
459.793	91.7861
462.686	114.057
465.579	98.5519
468.472	82.2849
471.364	78.516
474.257	50.6392
477.15	41.1035
480.042	48.4486
482.935	68.4966
485.828	113.104
488.721	172.157
491.613	174.596
494.506	153.626
497.399	161.804
500.291	80.2894
503.184	29.2929
506.077	16.9151
508.969	12.3384
511.862	10.6865
514.755	12.3459
517.648	6.30499
520.54	0.724731
523.433	3.14832
526.326	0.035645
529.218	0.200378
532.111	0.577332
535.004	1.28162
537.896	2.6167
540.789	3.56775
543.682	1.68701
546.575	1.6745
549.467	2.13385
552.36	6.5354
555.253	9.36084
558.145	7.50305
561.038	9.46698
563.931	12.572
566.823	16.4044
569.716	22.2323
572.609	31.5637
575.502	49.1909
578.394	79.9802
581.287	95.1287
584.18	45.2272
587.072	19.6296
589.965	15.3475
592.858	14.5815
595.75	10.1353
598.643	6.83777
601.536	1.98596
604.428	0.854431
607.321	3.30627
610.214	6.39654
613.107	8.2619
615.999	6.54559
618.892	8.69519
621.785	9.95898
624.677	4.66394
627.57	1.17468
630.463	5.58966
633.356	9.3233
636.248	18.0663
639.141	28.8283
642.034	43.7517
644.926	75.0184
647.819	126.673
650.712	227.258
653.604	396.062
656.497	594.23
659.39	586.337
662.283	325.943
665.175	155.65
668.068	81.021
670.961	49.0546
673.853	32.3287
676.746	23.0263
679.639	13.4193
682.531	15.7051
685.424	11.5915
688.317	3.48938
691.21	5.17517
694.102	2.10657
696.995	3.7229
699.888	2.20026
702.78	2.46973
705.673	0.993652
708.566	3.94916
711.458	1.63489
714.351	3.08044
717.244	2.03894
720.136	2.70154
723.029	3.0274
725.922	5.21954
728.815	10.5977
731.707	18.9809
734.6	26.9473
737.493	26.4877
740.385	23.5561
743.278	20.2576
746.171	16.7443
749.063	15.2993
751.956	15.3232
754.849	14.7355
757.742	16.1846
760.634	16.5223
763.527	11.1318
766.42	10.7878
769.312	11.3062
772.205	7.85681
775.098	4.39984
777.99	3.59491
780.883	2.67743
783.776	3.32953
786.669	4.26379
789.561	1.31561
792.454	4.19006
795.347	2.37213
798.239	2.21741
801.132	3.23169
804.025	6.05548
806.918	5.48731
809.81	6.73566
812.703	8.86627
815.596	9.63409
818.488	16.6075
821.381	16.5383
824.274	19.1225
827.166	17.3245
830.059	17.5475
832.952	15.1323
835.845	12.2981
838.737	9.71692
841.63	12.997
844.523	12.6305
847.415	14.7197
850.308	11.6019
853.201	14.9648
856.093	10.8325
858.986	10.3712
861.879	7.37231
864.771	8.97546
867.664	1.69458
870.557	0.252441
873.45	1.87268
876.342	3.68408
879.235	4.38806
882.128	1.22998
885.02	0.854126
887.913	0.787354
890.806	0.789063
893.698	0.41748
896.591	0.947388
899.484	7.76831
902.377	24.3781
905.269	29.0148
908.162	27.3363
911.055	13.4302
913.947	3.20129
916.84	2.87158
919.733	3.42761
922.625	5.51306
925.518	9.67004
928.411	19.0151
931.304	24.8425
934.196	20.9242
937.089	12.6284
939.982	22.6459
942.875	23.3055
945.767	9.79248
948.66	0.536011
951.553	1.84827
954.445	15.1683
957.338	42.1061
960.231	92.3417
963.123	149.699
966.016	180.958
968.909	167.634
971.802	158.753
974.694	176.635
977.587	155.104
980.48	99.9182
983.372	51.3644
986.265	28.953
989.158	27.234
992.05	32.606
994.943	44.9093
997.836	68.8209
1000.73	121.638
1003.62	201.656
1006.51	285.397
1009.41	475.363
1012.3	725.222
1015.19	636.141
1018.09	339.356
1020.98	185.232
1023.87	106.083
1026.76	70.5603
1029.66	54.1183
1032.55	41.2413
1035.44	30.4947
1038.33	15.5071
1041.23	4.78064
1044.12	1.73462
1047.01	4.42212
1049.9	3.27673
1052.8	1.44311
1055.69	6.83801
1058.58	5.96314
1061.47	13.2714
1064.37	14.0234
1067.26	6.81189
1070.15	3.81726
1073.05	2.97107
1075.94	0.824341
1078.83	2.17688
1081.72	2.33984
1084.62	5.64746
1087.51	3.74048
1090.4	1.42932
1093.3	1.30456
1096.19	5.12317
1099.08	6.37268
1101.97	4.22314
1104.87	2.36682
1107.76	3.46948
1110.65	10.3927
1113.54	14.5609
1116.44	14.1472
1119.33	10.1699
1122.22	13.4799
1125.12	14.0521
1128.01	16.6698
1130.9	6.0481
1133.79	4.00207
1136.68	2.60095
1139.58	4.20569
1142.47	1.40955
1145.36	5.37939
1148.26	1.62939
1151.15	4.84192
1154.04	9.56921
1156.93	4.91492
1159.83	5.84448
1162.72	1.92078
1165.61	5.36389
1168.51	2.07458
1171.4	3.46802
1174.29	5.26135
1177.18	9.5885
1180.08	6.71045
1182.97	11.1593
1185.86	6.9646
1188.75	9.82715
1191.65	6.00598
1194.54	0.475342
1197.43	4.47546
1200.33	2.89795
1203.22	5.32678
1206.11	11.1429
1209	7.45874
1211.9	7.17542
1214.79	8.98498
1217.68	3.34668
1220.57	1.64319
1223.47	8.44019
1226.36	9.17358
1229.25	9.91467
1232.14	5.34436
1235.04	0.779541
1237.93	0.682007
1240.82	7.04517
1243.71	4.76013
1246.61	2.7019
1249.5	6.79004
1252.39	3.49683
1255.29	3.67712
1258.18	3.61121
1261.07	7.46875
1263.96	4.36926
1266.86	5.80847
1269.75	4.28821
1272.64	0.526245
1275.54	7.14966
1278.43	0.865356
1281.32	2.14758
1284.21	2.26721
1287.11	6.42139
1290	11.0983
1292.89	11.2596
1295.78	18.7054
1298.68	17.1426
1301.57	3.56616
