Measurement: Raman, 780 nm, unoriented, Raman Data Processed
Mineral: Margarosanite
Rruff sample: R120111
Ideal chemistry: Ca_2_PbSi_3_O_9_
Locality: Parker shaft, Franklin, New Jersey, USA
Source: Caltech
Description: Pearly, colorless cleavages
Raman shift (cm-1)	intensity
92.5678	0
95.9426	211.436
99.3174	100.368
102.692	8.63452
106.067	19.9646
109.442	108.362
112.817	381.064
116.192	784.309
119.566	565.471
122.941	566.854
126.316	974.358
129.691	691.426
133.066	358.374
136.44	291.404
139.815	105.793
143.19	49.5547
146.565	49.5864
149.94	13.1545
153.315	19.3081
156.689	9.81641
160.064	15.2405
163.439	68.6834
166.814	148.906
170.189	208.241
173.563	141.547
176.938	76.9458
180.313	65.8687
183.688	76.7549
187.063	68.0566
190.437	52.7908
193.812	58.2398
197.187	72.9531
200.562	99.25
203.937	134.409
207.311	145.908
210.686	83.9822
214.061	26.9036
217.436	10.2463
220.811	9.64087
224.186	14.4045
227.56	8.39233
230.935	24.3994
234.31	25.4294
237.685	27.7141
241.06	24.4419
244.435	24.5427
247.809	23.7039
251.184	16.8325
254.559	30.2546
257.934	51.2256
261.309	71.6975
264.683	101.085
268.058	89.4268
271.433	78.2197
274.808	72.0137
278.183	70.2822
281.558	74.8811
284.932	81.0388
288.307	87.908
291.682	95.6709
295.057	73.7808
298.432	74.1653
301.806	75.3435
305.181	37.1577
308.556	17.8088
311.931	10.7666
315.306	26.2366
318.68	31.5107
322.055	44.2197
325.43	37.5039
328.805	37.666
332.18	2.55713
335.555	0.678223
338.929	0.521729
342.304	5.12744
345.679	2.55933
349.054	6.07129
352.429	2.91968
355.803	5.07568
359.178	2.11328
362.553	13.4907
365.928	22.6848
369.303	55.5049
372.678	84.1646
376.052	106.753
379.427	120.142
382.802	127.13
386.177	137.884
389.552	144.169
392.926	99.5881
396.301	52.7927
399.676	22.2949
403.051	20.9294
406.426	15.2908
409.8	9.21606
413.175	3.9895
416.55	2.89868
419.925	7.05957
423.3	11.4551
426.675	10.5315
430.049	21.54
433.424	33.7798
436.799	37.1833
440.174	41.2632
443.549	52.3047
446.923	51.9319
450.298	49.0024
453.673	48.7849
457.048	58.7966
460.423	76.9985
463.798	88.2353
467.172	69.5505
470.547	64.9111
473.922	49.7458
477.297	29.2568
480.672	37.9509
484.046	61.5125
487.421	63.6887
490.796	90.9495
494.171	98.7437
497.546	145.297
500.921	48.6267
504.295	18.7356
507.67	2.5188
511.045	10.0996
514.42	28.3079
517.795	26.2979
521.169	4.70239
524.544	5.86572
527.919	4.01636
531.294	1.04297
534.669	2.03247
538.044	2.53442
541.418	5.40771
544.793	1.84253
548.168	2.50659
551.543	17.658
554.918	16.2717
558.293	28.1824
561.667	25.2546
565.042	29.6736
568.417	31.2331
571.792	37.2976
575.167	44.4885
578.541	89.2339
581.916	108.566
585.291	29.2793
588.666	16.9077
592.041	12.8027
595.415	16.7639
598.79	13.2002
602.165	11.5601
605.54	14.1931
608.915	10.7459
612.29	11.6499
615.664	11.302
619.039	15.2725
622.414	11.8901
625.789	8.49585
629.164	5.25317
632.538	19.9331
635.913	14.9297
639.288	28.6963
642.663	42.4331
646.038	71.239
649.413	124.431
652.787	278.573
656.162	573.811
659.537	624.447
662.912	284.828
666.287	116.342
669.661	56.9458
673.036	32.1018
676.411	24.356
679.786	14.4019
683.161	2.18652
686.535	3.40747
689.91	1.38965
693.285	1.0708
696.66	3.34741
700.035	5.31421
703.41	6.48267
706.784	9.42871
710.159	1.46582
713.534	6.36792
716.909	2.08179
720.284	10.877
723.659	7.08472
727.033	10.9841
730.408	19.2263
733.783	23.6768
737.158	34.4255
740.533	21.6394
743.907	25.6108
747.282	17.6384
750.657	21.1816
754.032	16.0796
757.407	17.1433
760.782	3.69409
764.156	5.00879
767.531	2.81763
770.906	0.593994
774.281	20.5857
777.656	6.79175
781.03	12.3249
784.405	6.63721
787.78	1.4939
791.155	2.11914
794.53	8.45508
797.904	0.365479
801.279	2.52246
804.654	3.91357
808.029	6.05127
811.404	4.25879
814.779	4.4856
818.153	11.6245
821.528	11.053
824.903	8.60986
828.278	13.3264
831.653	13.2981
835.028	8.57715
838.402	9.59546
841.777	5.60547
845.152	10.344
848.527	4.76856
851.902	12.3059
855.276	10.1851
858.651	14.9946
862.026	5.31055
865.401	0.768066
868.776	6.46216
872.15	4.63916
875.525	11.2952
878.9	2.25171
882.275	4.18774
885.65	11.8648
889.024	1.20898
892.399	7.07397
895.774	2.41065
899.149	5.55347
902.524	15.5898
905.899	23.8577
909.273	25.0698
912.648	7.81592
916.023	0.099121
919.398	0.687012
922.773	4.83423
926.148	3.95215
929.522	16.718
932.897	35.6416
936.272	21.4722
939.647	22.1814
943.022	25.5117
946.396	16.5
949.771	4.8147
953.146	12.7041
956.521	27.1279
959.896	60.8162
963.27	119.059
966.645	128.399
970.02	85.1028
973.395	68.9099
976.77	54.7742
980.145	26.6321
983.519	21.9226
986.894	3.26856
990.269	5.76001
993.644	4.04541
997.019	28.9858
1000.39	53.1348
1003.77	112.21
1007.14	176.779
1010.52	390.211
1013.89	519.632
1017.27	292.93
1020.64	130.297
1024.02	68.6357
1027.39	44.3848
1030.77	34.8332
1034.14	19.5559
1037.52	22.2231
1040.89	4.43359
1044.27	10.5332
1047.64	1.73633
1051.02	0.135742
1054.39	4.1355
1057.77	17.4507
1061.14	18.5664
1064.52	16.4216
1067.89	10.6953
1071.27	6.91406
1074.64	9.84521
1078.01	10.2634
1081.39	16.8657
1084.76	23.8069
1088.14	32.9363
1091.51	12.1768
1094.89	14.404
1098.26	10.0603
1101.64	6.83057
1105.01	0.024658
1108.39	10.7788
1111.76	3.0332
1115.14	4.91333
1118.51	2.89722
1121.89	0.177002
1125.26	8.88965
1128.64	21.4353
1132.01	21.48
1135.39	25.825
1138.76	39.4221
1142.14	66.4688
1145.51	94.8745
1148.88	136.933
1152.26	198.883
1155.63	256.168
1159.01	300.135
1162.38	332.724
1165.76	321.74
1169.13	319.483
1172.51	308.469
1175.88	320.666
1179.26	324.456
1182.63	321.032
1186.01	316.687
1189.38	303.57
1192.76	287.375
1196.13	257.017
1199.51	229.086
1202.88	208.818
1206.26	187.274
1209.63	157.757
1213.01	135.602
1216.38	120.566
1219.76	95.6694
1223.13	81.9209
1226.51	72.6794
1229.88	53.8149
1233.26	46.4446
1236.63	35.5798
1240.01	25.7749
1243.38	11.0173
1246.76	12.3491
1250.13	8.2771
1253.51	2.81274
1256.88	3.57446
1260.25	1.69116
1263.63	3.56421
1267	8.75073
1270.38	13.0974
1273.75	21.7124
1277.13	10.2705
1280.5	0.160645
1283.88	0.926025
