Measurement: Raman, 785 nm, unoriented, Raman Data Processed
Mineral: Margarite
Rruff sample: R060839
Ideal chemistry: CaAl_2_(Si_2_Al_2_)O_10_(OH)_2_
Locality: Old Emery mine, Chester, Massachusetts, USA
Source: Michael Scott
Description: Pale lilac mica associated with lilac colored axinite
Measured chemistry: (Ca_0.83_Na_0.17_)_Σ=1_(Al_1.97_Fe^3+^_0.02_Mg_0.01_)_Σ=2_(Si_2.18_Al_1.82_)O_10_(OH)_2_
Raman shift (cm-1)	intensity
179.863	0
182.756	35.0381
185.649	133.724
188.542	163.366
191.434	135.909
194.327	224.159
197.22	307.261
200.112	488.4
203.005	420.451
205.898	294.447
208.791	268.673
211.683	483.876
214.576	570.538
217.469	658.966
220.361	792.381
223.254	1042.13
226.147	920.849
229.04	516.072
231.932	312.413
234.825	242.324
237.718	160.731
240.61	112.773
243.503	105.445
246.396	33.6816
249.288	109.545
252.181	27.8945
255.074	128.685
257.966	144.283
260.859	485.969
263.752	707.85
266.645	922.822
269.537	826.006
272.43	491.506
275.323	21.668
278.215	50.4258
281.108	98.6309
284.001	8.08398
286.894	53.248
289.786	53.7754
292.679	261.299
295.572	421.383
298.464	847.904
301.357	1370.57
304.25	2085.53
307.142	2556.89
310.035	2960.33
312.928	2915.8
315.82	2245.32
318.713	1420.88
321.606	726.158
324.499	380.625
327.391	240.885
330.284	89.0625
333.177	52.6133
336.069	120.107
338.962	481.914
341.855	1105.48
344.748	1727.41
347.64	2017.88
350.533	1790.44
353.426	1065.08
356.318	451.953
359.211	129.422
362.104	2.97656
364.996	155.019
367.889	132.617
370.782	500.766
373.675	815.731
376.567	1240.03
379.46	1900.81
382.353	2758.08
385.245	3952.25
388.138	5166.43
391.031	6017.14
393.923	6166.38
396.816	5580.37
399.709	4348.38
402.601	3041.85
405.494	1794.55
408.387	1031.46
411.28	564.541
414.172	428.797
417.065	544.143
419.958	557.457
422.85	531.166
425.743	438.113
428.636	262.676
431.529	116.834
434.421	468.916
437.314	766.088
440.207	990.705
443.099	965.947
445.992	732.717
448.885	422.565
451.777	60.7441
454.67	1.16992
457.563	49.248
460.455	37.9434
463.348	54.5
466.241	50.0684
469.134	2.3457
472.026	70.8984
474.919	105.754
477.812	149.434
480.704	320.232
483.597	387.602
486.49	609.883
489.382	711.65
492.275	533.189
495.168	395.553
498.061	279.295
500.953	219.654
503.846	286.143
506.739	229.885
509.631	188.609
512.524	226.449
515.417	248.973
518.309	259.512
521.202	145.512
524.095	256.652
526.988	191.615
529.88	184.672
532.773	161.176
535.666	52.1582
538.558	259.744
541.451	313.445
544.344	217.027
547.236	164.457
550.129	102.068
553.022	127.988
555.915	57.5332
558.807	160.773
561.7	125.525
564.593	118.814
567.485	62.4297
570.378	71.3311
573.271	5.44727
576.163	37.0791
579.056	55.1455
581.949	3.29004
584.842	52.1523
587.734	26.7266
590.627	126.51
593.52	107.98
596.413	22.8555
599.305	147.654
602.198	130.284
605.091	169.685
607.983	242.336
610.876	274.305
613.769	300.265
616.661	203.903
619.554	266.088
622.447	361.747
625.34	319.585
628.232	240.93
631.125	242.151
634.018	325.531
636.91	371.242
639.803	487.555
642.696	540.423
645.588	597.048
648.481	678.314
651.374	598.214
654.266	742.299
657.159	737.052
660.052	860.044
662.945	1036.4
665.837	1147
668.73	1366.62
671.623	1543.44
674.515	1421.74
677.408	1356.76
680.301	1257.17
683.193	1128.57
686.086	999.881
688.979	900.444
691.872	863.981
694.764	952.142
697.657	955.864
700.55	1076.01
703.442	1283.23
706.335	1594.78
709.228	1995.38
712.12	2123.89
715.013	1779.41
717.906	1381.89
720.799	1064.21
723.691	726.686
726.584	513.122
729.477	335.734
732.369	270.093
735.262	214.526
738.155	119.321
741.048	71.6055
743.94	145.711
746.833	33.2676
749.726	16.4277
752.618	1.51465
755.511	58.0713
758.404	6.08496
761.296	7.94043
764.189	24.4834
767.082	22.4141
769.975	19.8613
772.867	119.428
775.76	105.081
778.653	2.38184
781.545	36.2285
784.438	119.008
787.331	214.978
790.223	199.628
793.116	160.808
796.009	199.348
798.902	165.245
801.794	153.188
804.687	292.481
807.58	337.866
810.472	424.658
813.365	483.382
816.258	468.824
819.15	516.058
822.043	309.397
824.936	297.307
827.828	284.209
830.721	283.368
833.614	249.925
836.507	194.789
839.399	210.606
842.292	122.902
845.185	123.386
848.077	125.803
850.97	218.273
853.863	79.4971
856.755	95.0977
859.648	102.365
862.541	64.2754
865.434	23.417
868.326	23.7441
871.219	4.70801
874.112	12.6152
877.004	78.3682
879.897	93.6045
882.79	243.893
885.683	266.368
888.575	258.912
891.468	507.873
894.361	667.66
897.253	890.933
900.146	1247.1
903.039	1517.83
905.931	1988.88
908.824	2440.54
911.717	2772.09
914.61	2918.53
917.502	2972.31
920.395	2866.35
923.288	2606.05
926.18	2376.23
929.073	2118.58
931.966	1874.44
934.859	1703.06
937.751	1462.5
940.644	1319.76
943.537	1101.78
946.429	959.533
949.322	842.546
952.215	770.579
955.107	705.903
958	589.379
960.893	504.615
963.785	412.813
966.678	315.822
969.571	302.054
972.464	206.565
975.356	253.898
978.249	134.869
981.142	182.232
984.034	80.6113
986.927	131.809
989.82	45.4228
992.712	63.2012
995.605	23.1035
998.498	158.55
1001.39	143.531
1004.28	168.726
1007.18	169.424
1010.07	94.5078
1012.96	108.578
1015.85	130.08
1018.75	185.353
1021.64	117.888
1024.53	65.0469
1027.42	137.844
1030.32	233.195
1033.21	142.186
1036.1	168.491
1039	275.946
1041.89	217.39
1044.78	190.153
1047.67	121.009
1050.57	52.9658
1053.46	107.358
1056.35	256.034
1059.24	41.8818
1062.14	7.21191
1065.03	8.43555
1067.92	49.8037
1070.82	15.1182
1073.71	6.38672
1076.6	117.652
1079.49	14.8145
1082.39	7.41699
1085.28	22.7012
1088.17	13.7207
1091.06	97.0859
1093.96	189.296
1096.85	74.2412
1099.74	56.6543
1102.63	132.316
1105.53	113.55
1108.42	169.683
1111.31	209.14
1114.21	282.269
1117.1	265.81
1119.99	234.816
1122.88	186.673
1125.78	347.209
1128.67	263.368
1131.56	248.689
1134.45	177.047
1137.35	280.385
1140.24	231.391
1143.13	137.899
1146.03	158.676
1148.92	199.399
1151.81	171.566
1154.7	184.441
1157.6	100.459
1160.49	247.738
1163.38	110.471
1166.28	100.038
1169.17	78.5293
1172.06	135.67
1174.95	26.168
1177.85	106.841
1180.74	101.205
1183.63	75.5303
1186.52	54.2148
1189.42	33.8467
1192.31	47.6245
1195.2	52.7969
1198.09	132.253
1200.99	159.595
1203.88	97.6919
1206.77	43.5928
1209.66	69.3428
1212.56	164.934
1215.45	181.885
1218.34	196.892
1221.24	142.575
1224.13	272.197
1227.02	230.84
1229.91	98.4512
1232.81	227.876
1235.7	109.555
1238.59	49.9961
1241.48	99.3584
1244.38	104.683
1247.27	104.418
1250.16	106.973
1253.06	143.384
1255.95	75.4653
1258.84	142.475
1261.73	73.374
1264.63	8.15234
1267.52	38.605
