Measurement: Raman, 514 nm, unoriented, Raman Data Processed
Mineral: Margarosanite
Rruff sample: R120111
Ideal chemistry: Ca_2_PbSi_3_O_9_
Locality: Parker shaft, Franklin, New Jersey, USA
Source: Caltech
Description: Pearly, colorless cleavages
Raman shift (cm-1)	intensity
70.8059	0
75.7379	48.1543
80.6669	962.305
85.5929	622.188
90.5158	3737.04
95.4358	1726.4
100.353	1168.15
105.267	2340.04
110.178	6412.46
115.086	18873.1
119.991	17601.1
124.893	17780.4
129.792	20635.6
134.688	12793.6
139.581	6502.82
144.472	4085.4
149.359	2130.1
154.099	467.928
158.98	981.553
163.858	3305.78
168.734	10860.5
173.606	12289.5
178.476	7018.83
183.343	6824.77
188.206	5103.57
193.067	1813.15
197.925	1796.18
202.78	6062.06
207.631	11938
212.48	5896.94
217.326	1057.61
222.17	77.1477
227.01	194.426
231.847	206.269
236.681	204.685
241.513	897.308
246.341	1044.61
251.167	1074.24
255.989	1927.39
260.809	4717.57
265.626	5009.84
270.44	2856.47
275.251	1146.08
280.059	1120.87
284.864	2058.44
289.666	3307.98
294.466	3406.46
299.262	4605.56
304.056	3548.17
308.847	906.833
313.635	1126.99
318.42	2355.26
323.202	3009.87
327.981	3612.97
332.757	1659.42
337.531	656.966
342.301	533.901
347.069	93.6631
351.834	164.81
356.596	334.495
361.355	232.483
366.111	22.9624
370.864	604.364
375.615	1302.07
380.362	1241.06
385.107	2370.37
389.849	4569.5
394.588	3186.73
399.325	1254.55
404.058	426.324
408.788	200.682
413.516	127.573
418.241	102.214
422.963	261.643
427.682	841.559
432.399	2454.76
437.112	3712.58
441.823	5292.04
446.531	3868.25
451.236	1783.25
455.938	1760.66
460.638	3728.38
465.334	4645.79
470.028	4207.49
474.719	2411.36
479.407	1519.04
484.093	2588.08
488.775	6966.65
493.455	10606
498.132	14239
502.806	5096.46
507.478	1433.82
512.146	1154.8
516.812	903.742
521.475	341.007
526.135	150.621
530.793	6.69067
535.447	5.05115
540.099	18.7722
544.748	33.4434
549.395	14.6265
554.038	4.4801
558.679	29.8285
563.317	31.2792
567.952	150.278
572.585	476.642
577.214	1883.5
581.841	2943.11
586.466	749.888
591.087	109.758
595.706	22.7974
600.322	28.1781
604.935	32.8119
609.545	19.4781
614.153	83.7037
618.758	117.067
623.36	217.333
627.959	291.954
632.556	543.074
637.15	898.292
641.741	1637.97
646.33	3475.94
650.915	10006.6
655.499	35375.1
660.079	49059.8
664.656	20204.4
669.231	6970.54
673.803	2919.95
678.373	1553.19
682.94	924.868
687.504	679.113
692.065	394.908
696.624	225.422
701.179	253.523
705.733	159.988
710.283	205.711
714.831	189.336
719.376	259.2
723.918	322.107
728.458	829.377
732.995	2880.72
737.529	4175.4
742.061	2358.11
746.59	1207.81
751.116	594.044
755.64	392.525
760.16	189.567
764.679	112.27
769.194	56.6296
773.707	73.595
778.217	67.9868
782.725	64.1755
787.23	24.3967
791.732	124.056
796.231	109.988
800.728	15.3994
805.222	73.9402
809.714	490.962
814.203	21.002
818.689	54.5557
823.173	30.4976
827.653	75.6438
832.132	41.8892
836.607	27.6235
841.08	36.2837
845.551	104.874
850.018	155.126
854.484	290.753
858.946	251.428
863.406	214.354
867.863	215.199
872.317	182.352
876.769	264.027
881.219	494.101
885.665	591.528
890.109	763.139
894.551	1745.56
898.99	3685.56
903.426	9032.55
907.859	14147.9
912.29	7899.76
916.719	3288.32
921.144	2318.67
925.568	2544.91
929.988	3441.03
934.406	3472.81
938.821	3429.85
943.234	4287.67
947.644	3750.79
952.052	4083.33
956.457	6701.44
960.859	15548.9
965.259	23890.8
969.656	18854
974.051	14441.4
978.443	10778.8
982.832	6400.73
987.219	4282.09
991.604	4106.8
995.985	4572.28
1000.36	6137.93
1004.74	11376
1009.11	29667.3
1013.49	45359.8
1017.86	25086.3
1022.22	10571.5
1026.59	6075.71
1030.95	5136.25
1035.31	5088.43
1039.66	3541.95
1044.01	1569.03
1048.37	979.868
1052.71	627.809
1057.06	546.112
1061.4	363.707
1065.74	204.593
1070.08	198.445
1074.42	124.665
1078.75	133.582
1083.08	90.7915
1087.41	67.5557
1091.74	61.1843
1096.06	31.137
1100.38	161.738
1104.7	57.5732
1109.01	70.5232
1113.33	108.994
1117.64	0.784668
1121.94	116.15
1126.25	50.7551
1130.55	44.2046
1134.85	104.332
1139.15	116.207
1143.45	92.4836
1147.74	248.055
1152.03	283.303
1156.32	409.09
1160.6	294.547
1164.89	198.281
1169.17	239.002
1173.44	137.64
1177.72	165.059
1181.99	279.315
1186.26	22.105
1190.53	12.6987
1194.8	255.089
1199.06	201.782
1203.32	159.872
1207.58	154.833
1211.83	236.979
1216.08	187.271
1220.34	150.078
1224.58	134.765
1228.83	117.572
1233.07	160.395
1237.31	70.8442
1241.55	93.6831
1245.79	203.009
1250.02	53.7554
1254.25	132.779
1258.48	211.232
1262.7	96.4185
1266.93	37.9224
1271.15	89.6055
1275.37	14.9067
1279.58	176.218
1283.8	150.898
1288.01	178.189
1292.22	240.711
1296.42	194.455
1300.63	3.11621
1304.83	192.735
1309.03	41.9697
1313.22	249.164
1317.42	58.1084
1321.61	212.944
1325.8	370.356
1329.98	211.837
1334.17	225.489
1338.35	162.181
1342.53	117.062
1346.71	168.942
1350.88	173.101
1355.05	69.5669
1359.22	65.5068
1363.39	244.134
1367.56	12.041
1371.72	148.494
1375.88	13.459
1380.04	91.7891
1384.19	33.3897
1388.35	63.9785
1392.5	271.089
1396.64	103.939
1400.79	227.31
1404.93	192.072
1409.07	212.917
1413.21	201.463
1417.35	187.434
1421.48	153.27
1425.61	270.306
1429.74	325.135
1433.87	156.231
1437.99	192.065
1442.12	308.315
1446.23	173.766
1450.35	26.2744
1454.47	214.963
1458.58	51.3047
1462.69	171.653
1466.8	295.96
1470.9	309.269
1475	245.784
1479.1	162.828
1483.2	200.272
1487.3	194.456
1491.39	287.842
1495.48	226.421
1499.57	10.0674
