Measurement: Raman, 785 nm, unoriented, Raman Data Processed
Mineral: Margaritasite
Rruff sample: R060461
Ideal chemistry: Cs_2_(UO_2_)_2_(VO_4_)_2_H_2_O
Locality: Margaritas Open Pit, Sierra Pena Blanca, Chihuahua, Mexico
Source: Michael Scott
Description: Yellow earthy, massive, sponge-like appearance
Raman shift (cm-1)	intensity
162.507	0
165.4	136.223
168.293	992.221
171.185	1433.9
174.078	1094.51
176.971	387.99
179.863	354.154
182.756	750.254
185.649	1510.58
188.542	2780.15
191.434	3760.57
194.327	3304.85
197.22	1564.14
200.112	399.82
203.005	215.136
205.898	448.171
208.79	971.331
211.683	1290.87
214.576	1466.02
217.469	1801.6
220.361	2652.36
223.254	3832.07
226.147	4372.62
229.039	3964.81
231.932	2389
234.825	992.103
237.717	568.776
240.61	935.538
243.503	1815.46
246.396	2951.8
249.288	3604.03
252.181	3927.77
255.074	3770.59
257.966	3551.02
260.859	3566.48
263.752	3977.03
266.645	4320.48
269.537	3762.47
272.43	2076.37
275.323	480.454
278.215	466.029
281.108	38.204
284.001	121.03
286.893	29.291
289.786	258.604
292.679	310.409
295.572	667.706
298.464	1862.35
301.357	3705.96
304.25	5858.56
307.142	8744.15
310.035	9739.27
312.928	9372.84
315.82	7121.45
318.713	3943.84
321.606	1949.77
324.499	518.416
327.391	207.53
330.284	430.004
333.177	1169.8
336.069	2065.67
338.962	3331.81
341.855	5052.65
344.747	7487.93
347.64	10189.8
350.533	12989.8
353.426	15631.7
356.318	18198.9
359.211	20820.6
362.104	23333.8
364.996	25394.9
367.889	25429.6
370.782	23084.2
373.674	18984.5
376.567	14474.2
379.46	10512.3
382.353	7741.93
385.245	6061.93
388.138	5185.48
391.031	5003.65
393.923	5477.13
396.816	6516.2
399.709	8009.67
402.601	9319.21
405.494	9698.15
408.387	8667.1
411.28	6300.82
414.172	3972.65
417.065	2158.45
419.958	1111.16
422.85	322.271
425.743	16.377
428.636	323.49
431.528	99.436
434.421	72.638
437.314	7.86
440.207	101.364
443.099	102.014
445.992	235.048
448.885	5.334
451.777	188.601
454.67	537.952
457.563	1004.08
460.455	1598.26
463.348	2628
466.241	3678.65
469.134	4844.37
472.026	5602.57
474.919	5912.39
477.812	5439.24
480.704	4579.1
483.597	3427.28
486.49	2408.62
489.382	1783.24
492.275	1286.33
495.168	962.873
498.06	727.555
500.953	352.484
503.846	83.77
506.739	4.969
509.631	147.029
512.524	510.347
515.417	1078.07
518.309	1882.16
521.202	2863.44
524.095	3958.78
526.987	4974.37
529.88	5965.64
532.773	6342.12
535.666	6148.31
538.558	5301.78
541.451	4141.84
544.344	2847.05
547.237	1929.51
550.129	1201.36
553.022	923.545
555.915	973.509
558.807	1292.2
561.7	1647
564.593	2173.49
567.485	2560.79
570.378	3020.41
573.271	3219.58
576.164	3341.43
579.056	3234.37
581.949	2850.71
584.842	2405.08
587.734	1798.5
590.627	1179.18
593.52	677.435
596.412	343.457
599.305	1.103
602.198	187.295
605.091	29.205
607.983	75.399
610.876	43.252
613.769	117.596
616.661	66.481
619.554	148.806
622.447	474.183
625.339	833.708
628.232	1379.62
631.125	1944.42
634.018	2255.85
636.91	2666.95
639.803	2836.7
642.696	2568.35
645.588	2021.89
648.481	1473.1
651.374	912.363
654.266	530.039
657.159	307.516
660.052	25.144
662.945	72.666
665.837	12.086
668.73	94.998
671.623	43.769
674.515	119.991
677.408	104.266
680.301	223.463
683.193	427.791
686.086	682.003
688.979	987.909
691.872	1500.28
694.764	2404.21
697.657	2988.59
700.55	4120.84
703.442	5410.04
706.335	7370.89
709.228	10135.5
712.12	13844.7
715.013	18554.4
717.906	24696.3
720.799	32027.1
723.691	39478.7
726.584	45524.9
729.477	47685.6
732.369	44748.2
735.262	38146.8
738.155	30400.3
741.047	23443.5
743.94	18017.2
746.833	13749.4
749.726	10729.1
752.618	8236.23
755.511	6355.56
758.404	4908.75
761.296	3998.41
764.189	3282.19
767.082	2679.02
769.974	1976.84
772.867	1345.69
775.76	747.141
778.653	264.357
781.545	32.511
784.438	72.604
787.331	66.442
790.223	60.668
793.116	112.678
796.009	18.817
798.901	354.569
801.794	764.349
804.687	1459.5
807.58	2438.81
810.472	3609.9
813.365	4595.6
816.258	5111.92
819.15	4781.4
822.043	3820.39
824.936	2863.16
827.828	2034.67
830.721	1643.01
833.614	1246.93
836.506	985.495
839.399	925.393
842.292	748.545
845.185	549.011
848.077	366.448
850.97	253.138
853.863	131.092
856.755	2.885
859.648	29.534
862.541	8.699
865.433	32.316
868.326	88.7
871.219	19.687
874.112	3.087
877.004	26.249
879.897	2.481
882.79	46.947
885.682	24.137
888.575	81.599
891.468	114.486
894.36	120.674
897.253	231.054
900.146	295.609
903.039	330.575
905.931	379.686
908.824	420.743
911.717	453.588
914.609	476.105
917.502	534.729
920.395	525.504
923.288	567.81
926.18	531.164
929.073	729.555
931.966	865.476
934.858	967.324
937.751	1205.7
940.644	1353.53
943.536	1556.91
946.429	2009.91
949.322	2608.35
952.215	3494.71
955.107	4855.17
958	6893.56
960.893	9910.58
963.785	13550.3
966.678	15559
969.571	12608.5
972.464	7107.06
975.356	3816.26
978.249	2297.83
981.142	1563.13
984.034	1038.68
986.927	741.057
989.82	540.688
992.712	350.747
995.605	154.311
998.498	107.097
1001.39	43.584
1004.28	0.596
1007.18	59.797
1010.07	7.883
1012.96	23.909
1015.85	4.507
1018.75	8.186
1021.64	2.263
1024.53	2.098
1027.42	5.88
1030.32	3.018
1033.21	16.567
1036.1	4.842
1039	16.56
1041.89	0.508
1044.78	59.88
1047.67	35.917
1050.57	30.997
1053.46	65.191
1056.35	87.748
1059.24	123.89
1062.14	88.21
1065.03	101.749
1067.92	43.556
1070.82	76.138
1073.71	84.307
1076.6	116.134
1079.49	121.322
1082.39	113.865
1085.28	174.458
1088.17	78.953
1091.06	110.219
1093.96	120.542
1096.85	126.919
1099.74	48.146
1102.63	60.708
1105.53	67.196
1108.42	81.491
1111.31	80.084
1114.21	78.821
1117.1	106.06
1119.99	38.206
1122.88	78.703
1125.78	51.286
1128.67	33.245
1131.56	36.3
1134.45	52.161
1137.35	32.71
1140.24	2.737
1143.13	20.134
1146.03	10.729
1148.92	2.669
1151.81	2.669
1154.7	15.299
1157.6	0.706
1160.49	4.07
1163.38	24.565
1166.27	80.976
1169.17	15.998
1172.06	17.313
1174.95	8.014
1177.85	29.388
1180.74	4.329
1183.63	56.685
1186.52	43.023
1189.42	29.362
1192.31	74.829
1195.2	97.741
1198.09	84.829
1200.99	76.428
1203.88	104.502
1206.77	76.849
1209.66	27.272
1212.56	64.878
1215.45	109.959
1218.34	90.338
1221.24	44.353
1224.13	25.707
1227.02	88.779
1229.91	36.671
1232.81	21.406
1235.7	11.227
1238.59	6.353
1241.48	21.969
1244.38	69.845
1247.27	30.562
1250.16	46.318
1253.06	21.674
1255.95	1.75
1258.84	36.678
1261.73	17.589
1264.63	63.718
1267.52	30.84
