Measurement: Raman, 532 nm, unoriented, Raman Data Processed
Mineral: Marialite
Rruff sample: R100167
Ideal chemistry: Na_4_Al_3_Si_9_O_24_Cl
Locality: Mapapwa, Dodoma, Tanzania
Source: Mineralogical Museum, Harvard University
Description: Loose yellow prismatic crystals, work is done on the upper yellow crystal
Raman shift (cm-1)	intensity
161.424	0
164.317	2.64209
167.21	138.772
170.102	326.523
172.995	354.279
175.888	301.448
178.78	220.08
181.673	167.8
184.566	165.051
187.459	202.078
190.351	232.079
193.244	219.444
196.137	148.607
199.029	129.025
201.922	105.168
204.815	104.469
207.708	91.9094
210.6	72.7971
213.493	63.5264
216.386	74.0554
219.278	90.3838
222.171	89.2769
225.064	85.988
227.956	70.9282
230.849	31.9875
233.742	1.16724
236.635	16.7188
239.527	15.3318
242.42	11.0908
245.313	13.6221
248.205	47.9443
251.098	98.9497
253.991	181.86
256.884	278.879
259.776	369.313
262.669	414.605
265.562	374.445
268.454	256.257
271.347	158.61
274.24	103.436
277.132	84.6501
280.025	94.7996
282.918	138.413
285.81	210.13
288.703	225.223
291.596	210.876
294.489	169.11
297.381	157.35
300.274	106.774
303.167	44.6477
306.059	10.3543
308.952	0.213135
311.845	9.09717
314.738	2.5835
317.63	32.9177
320.523	32.9441
323.416	56.29
326.308	73.6736
329.201	105.522
332.094	129.351
334.986	144.35
337.879	143.658
340.772	130.968
343.665	119.451
346.557	112.577
349.45	134.974
352.343	154.321
355.235	210.611
358.128	254.767
361.021	266.677
363.913	227.313
366.806	145.903
369.699	114.828
372.592	87.9177
375.484	81.9846
378.377	83.1235
381.27	69.1067
384.162	48.1384
387.055	30.0044
389.948	16.7673
392.841	13.5088
395.733	0.987061
398.626	11.9172
401.519	3.79858
404.411	6.48779
407.304	0.000732
410.197	1.94922
413.089	27.7105
415.982	51.0601
418.875	91.6052
421.767	107.573
424.66	87.2729
427.553	80.0549
430.446	102.693
433.338	146.584
436.231	227.118
439.124	352.734
442.017	501.061
444.909	674.29
447.802	964.181
450.695	1410.46
453.587	1895.28
456.48	2166.37
459.373	2151.3
462.265	1807.13
465.158	1331.7
468.051	902.405
470.943	601.762
473.836	403.541
476.729	272.313
479.622	183.089
482.514	115.423
485.407	69.9629
488.3	57.0942
491.192	36.854
494.085	41.4209
496.978	26.8355
499.87	21.3594
502.763	10.3633
505.656	11.2402
508.549	13.1099
511.441	6.87109
514.334	24.7095
517.227	36.4092
520.119	68.5147
523.012	122.809
525.905	198.587
528.798	316.418
531.69	477.077
534.583	713.226
537.476	804.38
540.368	623.455
543.261	362.508
546.154	205.591
549.047	115.729
551.939	68.1221
554.832	44.1934
557.725	27.2529
560.617	8.93408
563.51	1.88037
566.403	3.78027
569.295	8.91162
572.188	12.5078
575.081	0.197266
577.973	1.98975
580.866	4.55762
583.759	2.98779
586.652	13.3164
589.544	13.8887
592.437	13.2798
595.33	10.3481
598.222	14.6099
601.115	34.8867
604.008	34.1309
606.901	25.0903
609.793	16.6533
612.686	17.356
615.579	20.8794
618.471	1.29199
621.364	1.30859
624.257	2.36035
627.149	14.0093
630.042	3.45264
632.935	0.893555
635.828	12.5645
638.72	18.7158
641.613	36.2085
644.506	38.4736
647.398	21.1582
650.291	13.8901
653.184	20.1055
656.077	40.2607
658.969	70.5981
661.862	56.3481
664.755	46.8916
667.647	33.584
670.54	44.3833
673.433	43.4551
676.325	57.5171
679.218	57.7383
682.111	53.023
685.004	54.0068
687.896	57.041
690.789	52.6245
693.682	41.7334
696.574	27.2393
699.467	41.8472
702.36	47.0654
705.253	58.834
708.145	61.9341
711.038	57.5395
713.931	54.6123
716.823	34.73
719.716	25.855
722.609	16.9814
725.501	16.1963
728.394	5.85938
731.287	1.3501
734.179	2.91748
737.072	3.75195
739.965	9.604
742.858	2.69092
745.75	3.01367
748.643	18.0557
751.536	27.6411
754.428	53.0825
757.321	76.7876
760.214	120.741
763.107	164.306
765.999	198.017
768.892	235.455
771.785	252.574
774.677	253.943
777.57	202.805
780.463	153.859
783.356	97.3218
786.248	64.2246
789.141	25.0566
792.034	17.7651
794.926	14.9834
797.819	22.1406
800.712	36.8423
803.604	55.4727
806.497	64.2275
809.39	74.7417
812.283	45.6313
815.175	19.8906
818.068	3.86426
820.961	13.9062
823.853	0.03418
826.746	8.02246
829.639	1.59522
832.531	4.17481
835.424	24.4136
838.317	7.0625
841.21	5.12793
844.102	12.7271
846.995	12.1968
849.888	19.9595
852.78	24.5547
855.673	24.3716
858.566	20.8711
861.458	26.4321
864.351	35.8506
867.244	50.0723
870.136	72.3154
873.029	65.0527
875.922	54.5767
878.815	59.2065
881.707	62.231
884.6	63.8018
887.493	58.6157
890.385	59.4058
893.278	53.147
896.171	62.5889
899.064	61.1665
901.956	70.4394
904.849	76.0879
907.742	61.8467
910.634	74.2519
913.527	68.1577
916.42	66.1836
919.312	65.8657
922.205	62.0825
925.098	61.2602
927.991	63.4414
930.883	76.2402
933.776	62.186
936.669	53.6328
939.562	22.1567
942.454	20.4932
945.347	13.9858
948.24	3.70654
951.132	26.4443
954.025	37.4839
956.918	55.7983
959.81	66.5059
962.703	62.001
965.596	93.9829
968.489	107.851
971.381	91.5273
974.274	116.749
977.167	147.562
980.059	162.196
982.952	228.693
985.845	269.674
988.737	319.952
991.63	373.502
994.523	362.675
997.415	242.916
1000.31	128.058
1003.2	74.4522
1006.09	37.2524
1008.99	29.0503
1011.88	17.0024
1014.77	19.4619
1017.66	13.9956
1020.56	12.2383
1023.45	0.706055
1026.34	16.9605
1029.23	11.3369
1032.13	19.9277
1035.02	33.9937
1037.91	35.4355
1040.81	17.8301
1043.7	39.1079
1046.59	51.71
1049.48	38.3965
1052.38	37.436
1055.27	61.5376
1058.16	77.8262
1061.06	71.5606
1063.95	98.8472
1066.84	85.3174
1069.73	114.612
1072.63	131.501
1075.52	161.443
1078.41	140.031
1081.3	162.046
1084.2	171.106
1087.09	176.736
1089.98	203.56
1092.88	240.624
1095.77	266.542
1098.66	285.151
1101.55	267.37
1104.45	202.388
1107.34	191.14
1110.23	211.968
1113.12	239.8
1116.02	175.005
1118.91	72.231
1121.8	60.5815
1124.69	31.3701
1127.59	49.3272
1130.48	35.1562
1133.37	36.5088
1136.27	15.7988
1139.16	10.1245
1142.05	4.79102
1144.94	21.4273
1147.84	5.06738
1150.73	0.017578
1153.62	0.102539
1156.51	1.60449
1159.41	0.65332
1162.3	9.32422
1165.19	18.356
1168.09	24.3657
1170.98	14.6582
1173.87	11.5098
1176.76	48.502
1179.66	14.2139
1182.55	28.6475
1185.44	32.1045
1188.33	57.2534
1191.23	53.4219
1194.12	64.3096
1197.01	85.5835
1199.9	75.895
1202.8	63.2837
1205.69	69.397
1208.58	67.0083
1211.48	80.2554
1214.37	69.7212
1217.26	59.5713
1220.15	39.1875
1223.05	41.4111
1225.94	43.4658
1228.83	35.4971
1231.72	30.1758
1234.62	10.9912
1237.51	5.70898
1240.4	15.9434
1243.3	19.4092
1246.19	25.3037
1249.08	33.5342
1251.97	34.6621
1254.87	34.3174
1257.76	24.8916
1260.65	26.4072
1263.54	36.1367
1266.44	16.5264
1269.33	26.4551
1272.22	21.0713
1275.12	29.5693
1278.01	12.875
1280.9	3.99316
1283.79	10.6543
1286.69	25.6152
1289.58	12.9531
1292.47	17.958
1295.36	30.4248
1298.26	17.6338
1301.15	11.083
