Measurement: Raman, 532 nm, unoriented, Raman Data Processed
Mineral: Marialite
Rruff sample: R040113
Ideal chemistry: Na_4_Al_3_Si_9_O_24_Cl
Locality: Gouverneur, New York, USA
Source: University of Arizona Mineral Museum
Description: Green prismatic crystal
Measured chemistry: (Na_0.50_Ca_0.43_K_0.07_)_4_(Si_0.64_Al_0.36_)_12_O_24_(Cl_0.60_(CO_3_)_0.40_)
Raman shift (cm-1)	intensity
150.144	0
153.519	482.376
156.894	798.464
160.268	911.756
163.643	921.971
167.018	813.481
170.393	502.967
173.768	199.493
177.143	44.1777
180.517	17.4727
183.892	12.4277
187.267	221.449
190.642	291.455
194.017	365.769
197.391	348.898
200.766	351.391
204.141	329.316
207.516	418.438
210.891	422.764
214.266	306.461
217.64	425.13
221.015	429.097
224.39	389.516
227.765	353.973
231.14	235.602
234.514	113.192
237.889	57.0166
241.264	26.7148
244.639	148.683
248.014	261.207
251.388	629.157
254.763	1138.03
258.138	1786.07
261.513	2391.09
264.888	2261.49
268.263	1439.7
271.637	732.658
275.012	329.282
278.387	119.964
281.762	29.5166
285.137	76.6582
288.512	349.214
291.886	631.849
295.261	1055.69
298.636	1030
302.011	357.304
305.386	159.6
308.76	62.9736
312.135	35.8105
315.51	29.7803
318.885	18.7324
322.26	6.50293
325.635	36.6728
329.009	61.1065
332.384	27.918
335.759	60.7578
339.134	127.59
342.509	147.503
345.883	340.926
349.258	471.954
352.633	737.798
356.008	949.444
359.383	1045.02
362.757	1006.39
366.132	585.652
369.507	430.849
372.882	391.371
376.257	417.187
379.632	488.544
383.006	455.103
386.381	291.298
389.756	176.523
393.131	90.4707
396.506	7.19922
399.88	5.61426
403.255	21.4375
406.63	77.2978
410.005	190.763
413.38	482.632
416.755	752.926
420.129	1014
423.504	722.67
426.879	498.688
430.254	367.33
433.629	564.395
437.003	1008.15
440.378	1578.1
443.753	2609.08
447.128	3742.05
450.503	5645.25
453.878	7058.96
457.252	7027.51
460.627	6598.28
464.002	5148.86
467.377	3680.93
470.752	2417.38
474.127	1603.31
477.501	950.547
480.876	627.825
484.251	382.058
487.626	251.693
491.001	66.2422
494.375	31.9453
497.75	35.1973
501.125	7.39648
504.5	19.8564
507.875	55.7109
511.25	78.2119
514.624	162.192
517.999	442.653
521.374	836.931
524.749	1560.08
528.124	2538.49
531.498	3854.69
534.873	4600.74
538.248	3586.24
541.623	2170.49
544.998	1235.69
548.372	714.442
551.747	442.833
555.122	288.524
558.497	188.603
561.872	148.246
565.247	164.211
568.621	93.4853
571.996	55.3789
575.371	66.3906
578.746	37.4502
582.121	99.9023
585.495	89.6318
588.87	80.8408
592.245	66.2324
595.62	47.7773
598.995	0.396484
602.37	42.4853
605.744	81.9853
609.119	161.297
612.494	110.012
615.869	20.6465
619.244	74.8477
622.619	18.1035
625.993	37.9004
629.368	24.0938
632.743	57.8242
636.118	22.3203
639.493	35.4541
642.867	35.1787
646.242	48.4785
649.617	49.6182
652.992	133.798
656.367	63.2041
659.741	170.161
663.116	101.048
666.491	65.6191
669.866	43.7041
673.241	49.9043
676.616	101.177
679.99	54.1162
683.365	66.6406
686.74	69.3975
690.115	41.2022
693.49	60.9043
696.865	51.9912
700.239	150.774
703.614	131.777
706.989	159.86
710.364	163.967
713.739	159.406
717.113	152.015
720.488	124.208
723.863	90.1699
727.238	168.59
730.613	151.226
733.987	151.387
737.362	238.792
740.737	344.562
744.112	332.82
747.487	461.163
750.862	729.407
754.236	1094.76
757.611	1474.3
760.986	2010.79
764.361	2515.27
767.736	2798.09
771.111	2641.48
774.485	2172.67
777.86	1519.85
781.235	748.08
784.61	424.272
787.985	186.038
791.359	95.7647
794.734	111.037
798.109	54.9287
801.484	19.8496
804.859	41.3408
808.234	36.1895
811.608	46.334
814.983	29.0918
818.358	39.8281
821.733	21.2373
825.108	3.07324
828.482	34.1973
831.857	81.0615
835.232	78.5947
838.607	64.8213
841.982	13.75
845.356	104.724
848.731	31.4883
852.106	118.007
855.481	108.632
858.856	113.645
862.231	6.81934
865.605	131.439
868.98	143.949
872.355	109.093
875.73	39.2344
879.105	173.261
882.48	199.281
885.854	115.919
889.229	150.703
892.604	299.79
895.979	59.0303
899.354	73.1162
902.729	87.0801
906.103	121.932
909.478	98.8916
912.853	81.8662
916.228	95.6973
919.602	86.9443
922.977	97.4434
926.352	11.6631
929.727	17.085
933.102	82.1992
936.477	9.1543
939.851	14.3203
943.226	21.7676
946.601	82.8984
949.976	73.3867
953.351	166.766
956.726	153.805
960.1	70.7324
963.475	32.2129
966.85	95.2227
970.225	40.4531
973.6	8.53711
976.974	34.8613
980.349	60.8672
983.724	79.9785
987.099	39.6816
990.474	111.094
993.848	121.85
997.223	112.342
1000.6	48.7773
1003.97	131.514
1007.35	127.404
1010.72	36.4766
1014.1	2.33789
1017.47	75.4141
1020.85	54.1328
1024.22	64.3711
1027.6	84.9727
1030.97	155.133
1034.35	173.748
1037.72	45.0723
1041.1	229.797
1044.47	188.576
1047.85	263.414
1051.22	243.045
1054.6	285.35
1057.97	382.523
1061.35	386.283
1064.72	498.772
1068.09	712.481
1071.47	757.938
1074.84	999.326
1078.22	1100.38
1081.59	1238.13
1084.97	1697.45
1088.34	2047.05
1091.72	2359.99
1095.09	2426.64
1098.47	2383.42
1101.84	2125.26
1105.22	2227.32
1108.59	1974.71
1111.97	1406.03
1115.34	609.477
1118.72	285.975
1122.09	253.695
1125.47	161.853
1128.84	154.877
1132.22	55.4941
1135.59	89.8281
1138.97	31.2891
1142.34	0.119141
1145.71	57.7305
1149.09	69.2832
1152.46	39.0293
1155.84	5.7832
1159.21	93.7695
1162.59	3.25586
1165.96	120.137
1169.34	88.4219
1172.71	47.375
1176.09	35.4668
1179.46	178.084
1182.84	162.078
1186.21	191.469
1189.59	191.234
1192.96	187.967
1196.34	228.346
1199.71	161.103
1203.09	195.336
1206.46	222.74
1209.84	156.588
1213.21	73.4512
1216.59	174.481
1219.96	49.5176
1223.34	140.029
1226.71	111.186
1230.09	160.428
1233.46	134.316
1236.84	50.625
1240.21	149.414
1243.59	107.93
1246.96	8.02148
1250.34	175.215
1253.71	102.807
1257.08	158.691
1260.46	153.57
1263.83	171.256
1267.21	75.0996
1270.58	132.91
1273.96	88.7871
1277.33	225.59
1280.71	128.277
1284.08	154.736
1287.46	87.4219
1290.83	111.869
1294.21	15.1719
1297.58	113.684
1300.96	130.981
1304.33	105.217
1307.71	62.6836
1311.08	107.502
1314.46	0
