Measurement: Raman, 532 nm, unoriented, Raman Data Processed
Mineral: Maricopaite
Rruff sample: R120147
Ideal chemistry: Ca_2_Pb_7_(Si_36_Al_12_)O_99_n(H_2_O,OH)
Locality: Moon Anchor Mine (Aggravation Mine; East Vulture Mining Co. Mine), Hummingbird Spring,  Big Horn Mts, Maricopa Co., Arizona, USA
Source: Bob Jenkins and Ron Gibbs
Description: Spherical radial aggregates of white bladed crystals associated with yellow mimetite
Raman shift (cm-1)	intensity
202.659	0
205.552	0.435516
208.445	5.90024
211.337	12.644
214.23	12.7855
217.123	17.6761
220.015	9.67404
222.908	8.39185
225.801	8.55591
228.693	7.09271
231.586	9.51294
234.479	9.60837
237.371	12.3159
240.264	15.2746
243.157	17.9638
246.05	15.0997
248.942	13.0116
251.835	6.67468
254.728	7.57883
257.62	4.06436
260.513	0.121185
263.406	0.876862
266.298	1.87155
269.191	1.32947
272.084	0.289398
274.977	0.388977
277.869	1.92926
280.762	3.20981
283.655	6.62039
286.547	10.9571
289.44	15.7652
292.333	23.042
295.226	26.9362
298.118	30.5236
301.011	39.3019
303.904	42.4319
306.796	51.7915
309.689	59.9762
312.582	70.3097
315.474	78.5946
318.367	84.2748
321.26	78.8969
324.152	75.4192
327.045	65.2832
329.938	61.0845
332.831	58.1578
335.723	56.805
338.616	60.8674
341.509	61.4336
344.401	60.278
347.294	63.7923
350.187	56.8878
353.079	53.9954
355.972	46.7233
358.865	37.0423
361.758	29.9942
364.65	22.7442
367.543	19.5765
370.436	15.1242
373.328	11.6343
376.221	6.75455
379.114	1.95316
382.007	0.608307
384.899	3.05545
387.792	0.991608
390.685	2.61108
393.577	3.78235
396.47	3.60205
399.363	3.80051
402.255	2.9455
405.148	5.28665
408.041	4.26157
410.933	7.56714
413.826	8.48367
416.719	9.60083
419.612	9.81119
422.504	11.5274
425.397	10.0006
428.29	14.7945
431.182	17.901
434.075	18.0663
436.968	25.3646
439.861	33.3221
442.753	49.0977
445.646	61.2702
448.539	80.1706
451.431	94.8427
454.324	106.417
457.217	110.385
460.109	101.798
463.002	80.2996
465.895	54.4585
468.788	33.2898
471.68	17.8469
474.573	7.80801
477.466	3.52982
480.358	0.797302
483.251	0.067078
486.144	0.816681
489.036	1.57642
491.929	7.7272
494.822	11.5016
497.714	16.7138
500.607	20.1547
503.5	22.3223
506.393	18.4476
509.285	16.9629
512.178	18.3892
515.071	18.8313
517.963	17.9379
520.856	17.3031
523.749	11.2605
526.641	6.40653
529.534	2.64377
532.427	1.48746
535.32	0.984772
538.212	1.23013
541.105	1.27744
543.998	1.11594
546.89	3.62695
549.783	1.72226
552.676	7.5603
555.568	6.0239
558.461	6.5
561.354	5.57224
564.247	5.53925
567.139	4.71347
570.032	2.57233
572.925	2.36377
575.817	1.82629
578.71	0.121338
581.603	0.256622
584.495	1.39285
587.388	1.18365
590.281	1.20096
593.174	3.86215
596.066	2.5451
598.959	3.86353
601.852	2.90924
604.744	4.28915
607.637	5.77747
610.53	5.75388
613.423	5.91657
616.315	5.53641
619.208	7.51013
622.101	9.73025
624.993	5.20276
627.886	4.44156
630.779	2.81458
633.671	3.09174
636.564	4.5271
639.457	2.24316
642.35	1.6662
645.242	3.80304
648.135	4.46195
651.028	3.0556
653.92	3.69559
656.813	4.07022
659.706	4.52405
662.598	1.84027
665.491	3.63123
668.384	2.29919
671.277	1.57516
674.169	2.58911
677.062	1.15891
679.955	2.25385
682.847	2.09372
685.74	0.865143
688.633	2.42886
691.525	2.77942
694.418	1.46802
697.311	2.14975
700.203	0.085602
703.096	1.5257
705.989	0.884827
708.882	0.238281
711.774	0.150055
714.667	1.1247
717.56	0.937592
720.452	1.35379
723.345	2.57205
726.238	0.443268
729.13	1.92502
732.023	2.85486
734.916	1.46173
737.809	2.44693
740.701	2.146
743.594	3.10226
746.487	4.02743
749.379	5.47653
752.272	9.23489
755.165	11.5423
758.058	17.6016
760.95	25.7847
763.843	37.4847
766.736	47.0814
769.628	52.5822
772.521	56.9125
775.414	54.0359
778.306	52.5201
781.199	53.7573
784.092	54.2664
786.985	53.9027
789.877	52.0926
792.77	45.9202
795.663	41.13
798.555	39.934
801.448	48.1977
804.341	66.6088
807.233	103.117
810.126	155.484
813.019	223.97
815.912	303.041
818.804	343.815
821.697	326.091
824.59	251.162
827.482	168.988
830.375	108.655
833.268	71.7319
836.16	51.5319
839.053	42.4833
841.946	31.9828
844.838	27.6422
847.731	22.6262
850.624	19.632
853.517	16.3529
856.409	11.0158
859.302	7.14389
862.195	5.0661
865.087	2.50021
867.98	0.550934
870.873	0.279724
873.765	2.24545
876.658	2.77539
879.551	1.3497
882.444	2.19363
885.336	0.382385
888.229	1.34369
891.122	5.81351
894.014	5.88641
896.907	8.03574
899.8	9.05673
902.692	11.6709
905.585	13.811
908.478	17.0662
911.371	18.4577
914.263	20.1187
917.156	23.3469
920.049	27.227
922.941	28.9146
925.834	29.888
928.727	33.4902
931.62	27.8166
934.512	26.7855
937.405	26.6706
940.298	22.9104
943.19	18.28
946.083	17.1883
948.976	15.8058
951.868	13.6767
954.761	8.15393
957.654	6.81827
960.547	6.06772
963.439	5.65729
966.332	4.06149
969.225	4.04251
972.117	1.42273
975.01	0.016693
977.903	1.47549
980.795	1.96137
983.688	0.512817
986.581	0.16153
989.473	2.1405
992.366	1.32852
995.259	0.606873
998.152	0.726929
1001.04	0.259613
1003.94	0.104401
1006.83	0.035065
1009.72	1.48138
1012.62	2.88446
1015.51	3.78033
1018.4	4.62357
1021.29	4.76221
1024.19	2.81235
1027.08	3.50601
1029.97	4.30911
1032.86	4.75763
1035.76	4.40424
1038.65	4.31989
1041.54	3.10367
1044.43	2.918
1047.33	3.65466
1050.22	3.09051
1053.11	3.14676
1056.01	0.303833
1058.9	0.118103
1061.79	1.64606
1064.68	1.07391
1067.58	0.101685
1070.47	3.29938
1073.36	2.56186
1076.26	3.68631
1079.15	2.62006
1082.04	8.01508
1084.93	8.8353
1087.83	7.30682
1090.72	7.84479
1093.61	8.50964
1096.5	5.48645
1099.4	5.38132
1102.29	2.67148
1105.18	5.37012
1108.07	3.55023
1110.97	4.15079
1113.86	2.57935
1116.75	4.18591
1119.64	4.09091
1122.54	4.72031
1125.43	2.93289
1128.32	3.09192
1131.22	5.16324
1134.11	6.04269
1137	4.94308
1139.89	2.37897
1142.79	2.14053
1145.68	5.89084
1148.57	5.86545
1151.46	6.11365
1154.36	3.45132
1157.25	3.85706
1160.14	2.77411
1163.04	4.30002
1165.93	1.82873
1168.82	4.45111
1171.71	5.00006
1174.61	6.08209
1177.5	6.38489
1180.39	4.19769
1183.28	1.11389
1186.18	3.05322
1189.07	2.80603
1191.96	0.888794
1194.86	2.51379
1197.75	3.50351
1200.64	5.23169
1203.53	4.20331
1206.43	2.75745
1209.32	0.966248
1212.21	1.76062
1215.1	1.8977
1218	1.00153
1220.89	0.039154
1223.78	2.32819
1226.67	1.17148
1229.57	0.743622
1232.46	1.03699
1235.35	1.02722
1238.25	0.148438
1241.14	1.73206
1244.03	1.0517
1246.92	3.10461
1249.82	2.77002
1252.71	1.98883
1255.6	0.255615
1258.49	3.26135
1261.39	4.79419
1264.28	3.15772
1267.17	3.95551
1270.07	2.73431
1272.96	1.617
1275.85	2.10986
1278.74	3.51154
1281.64	3.28058
1284.53	4.30279
1287.42	4.68323
1290.31	0.38208
1293.21	3.39734
1296.1	2.65814
1298.99	1.04962
1301.88	0
