Measurement: Raman, 780 nm, unoriented, Raman Data Processed
Mineral: Marialite
Rruff sample: R060297
Ideal chemistry: Na_4_Al_3_Si_9_O_24_Cl
Locality: Morogoro District, Marasi, Tanzania
Source: Herb Obodda
Description: Pale yellow crystal fragment
Measured chemistry: (Na_0.66_Ca_0.29_K_0.06_)_4_(Si_0.68_Al_0.32_)_12_O_24_(Cl_0.70_(CO_3_)_0.30_)
Raman shift (cm-1)	intensity
137.043	0
139.936	1.76779
142.828	2.24638
145.721	1.81455
148.614	0.319824
151.506	3.4864
154.399	9.22391
157.292	18.3347
160.185	29.7707
163.077	29.9748
165.97	21.2587
168.863	13.0704
171.755	4.62335
174.648	0.23629
177.541	1.96488
180.433	0.701202
183.326	0.341995
186.219	5.48936
189.111	9.40306
192.004	12.4066
194.897	12.318
197.79	12.9906
200.682	12.4886
203.575	13.2057
206.468	13.8752
209.36	15.9421
212.253	17.7492
215.146	22.9871
218.038	26.2295
220.931	29.2947
223.824	31.6269
226.716	34.5929
229.609	30.5376
232.502	27.4746
235.395	22.3635
238.287	17.7699
241.18	16.8712
244.073	19.7398
246.965	25.3403
249.858	35.4169
252.751	52.2812
255.643	80.8098
258.536	121.678
261.429	161.799
264.322	167.201
267.214	127.749
270.107	84.1257
273	49.7387
275.892	31.6252
278.785	20.4488
281.678	14.4544
284.57	14.6325
287.463	17.9993
290.356	24.7111
293.249	40.8205
296.141	76.6768
299.034	76.4669
301.927	32.3351
304.819	11.1799
307.712	2.04484
310.605	0.239235
313.498	3.6117
316.39	2.51408
319.283	2.45757
322.175	0.61116
325.068	0.984444
327.961	0.606064
330.854	3.57372
333.746	6.07069
336.639	9.36076
339.532	12.5216
342.424	17.1929
345.317	21.8778
348.21	28.1008
351.103	38.2858
353.995	48.2714
356.888	63.4601
359.781	74.4
362.673	65.1246
365.566	47.8047
368.459	39.1701
371.351	38.8228
374.244	38.428
377.137	35.6419
380.029	30.6049
382.922	26.2051
385.815	20.7699
388.708	16.8442
391.6	13.9331
394.493	9.3335
397.386	8.29923
400.278	7.61498
403.171	8.38934
406.064	12.192
408.957	18.5132
411.849	29.435
414.742	46.844
417.635	62.4718
420.527	63.9143
423.42	42.5585
426.313	20.2113
429.205	12.2088
432.098	9.87357
434.991	15.4244
437.884	23.8851
440.776	31.9623
443.669	39.1235
446.562	58.1087
449.454	98.9988
452.347	157.11
455.24	186.561
458.132	191.838
461.025	179.782
463.918	141.874
466.81	100.315
469.703	69.876
472.596	47.3301
475.489	35.4232
478.381	25.2189
481.274	16.498
484.167	10.1734
487.059	4.48351
489.952	0.79174
492.845	0.538635
495.737	1.00507
498.63	1.89069
501.523	2.91738
504.416	2.07676
507.308	1.28383
510.201	0.743149
513.094	0.851906
515.986	3.81126
518.879	9.14564
521.772	17.4098
524.664	29.611
527.557	53.733
530.45	99.2233
533.342	170.169
536.235	225.2
539.128	190.457
542.021	115.324
544.913	69.945
547.806	44.6176
550.699	32.19
553.591	24.4123
556.484	19.7072
559.377	17.3319
562.269	16.2568
565.162	15.3681
568.055	14.4213
570.948	16.4676
573.84	16.1284
576.733	18.4576
579.626	19.0127
582.518	20.0358
585.411	20.3977
588.304	21.2909
591.197	21.4529
594.089	21.4315
596.982	21.4719
599.875	20.5309
602.767	21.6953
605.66	20.8435
608.553	20.1503
611.445	18.3153
614.338	17.5652
617.231	16.0182
620.124	14.2385
623.016	13.7292
625.909	13.1584
628.802	11.6002
631.694	10.3808
634.587	8.10354
637.48	6.49986
640.372	5.32291
643.265	3.47911
646.158	3.36159
649.05	1.30467
651.943	1.17365
654.836	0.422569
657.729	1.40521
660.621	1.34141
663.514	1.4249
666.407	0.181442
669.299	0.235725
672.192	0.393291
675.085	1.22906
677.977	1.02519
680.87	0.785419
683.763	0.567768
686.655	2.27632
689.548	1.94737
692.441	2.38215
695.334	3.7091
698.226	5.27437
701.119	6.97293
704.012	8.54649
706.904	11.2836
709.797	11.8996
712.69	12.5412
715.582	13.0208
718.475	12.0319
721.368	11.0506
724.261	10.6945
727.153	10.9361
730.046	10.1102
732.939	9.83702
735.831	9.55452
738.724	10.2168
741.617	10.7145
744.51	12.5179
747.402	16.7467
750.295	20.7265
753.188	27.2203
756.08	34.4113
758.973	44.7657
761.866	58.9963
764.758	73.6008
767.651	92.4711
770.544	104.029
773.437	103.78
776.329	88.0708
779.222	63.8927
782.115	43.0594
785.007	26.5181
787.9	18.6451
790.793	11.6523
793.685	8.79218
796.578	6.21257
799.471	4.87905
802.363	4.34853
805.256	3.27374
808.149	1.32402
811.042	0.985935
813.934	0.716484
816.827	0.046879
819.72	0.809696
822.612	0.013012
825.505	0.092144
828.398	0.259663
831.29	0.399849
834.183	0.03323
837.076	0.36734
839.968	0.778725
842.861	0.439785
845.754	0.339325
848.647	0.611752
851.539	0.812195
854.432	2.04734
857.325	1.97799
860.217	1.27491
863.11	1.78621
866.003	1.86338
868.895	2.92217
871.788	3.03792
874.681	2.41015
877.573	3.12364
880.466	1.94202
883.359	1.598
886.252	1.87469
889.144	1.16241
892.037	1.17503
894.93	1.97272
897.822	1.45355
900.715	1.3222
903.608	0.95088
906.5	1.37199
909.393	1.10431
912.286	0.814569
915.179	0.597235
918.071	0.560728
920.964	0.543556
923.857	0.286551
926.75	0.298975
929.642	0.385944
932.535	0.276342
935.428	0.413616
938.32	0.350958
941.213	0.176414
944.106	0.142258
946.998	0.044292
949.891	0.287159
952.784	0.162212
955.677	0.113152
958.569	0.965752
961.462	1.32088
964.355	0.699596
967.247	0.516953
970.14	0.146378
973.033	1.23312
975.925	2.4143
978.818	5.13931
981.711	11.4437
984.603	19.9481
987.496	29.0796
990.389	43.8579
993.282	46.6544
996.174	33.8174
999.067	15.873
1001.96	9.75092
1004.85	8.33898
1007.75	7.07102
1010.64	6.10237
1013.53	5.84001
1016.42	4.98057
1019.32	3.95677
1022.21	4.37547
1025.1	3.58154
1027.99	4.8351
1030.89	5.58199
1033.78	5.22926
1036.67	5.8337
1039.57	7.63917
1042.46	7.03234
1045.35	5.41488
1048.24	7.64695
1051.13	5.51299
1054.03	5.57168
1056.92	7.58154
1059.81	9.00322
1062.71	11.3335
1065.6	16.029
1068.49	18.6767
1071.38	23.626
1074.28	27.3594
1077.17	32.0831
1080.06	36.4203
1082.95	37.0207
1085.85	39.665
1088.74	40.0242
1091.63	41.9368
1094.53	42.2549
1097.42	40.2325
1100.31	33.5419
1103.2	22.067
1106.1	11.7933
1108.99	8.69336
1111.88	9.76249
1114.78	8.85803
1117.67	0.807877
1120.56	1.52123
1123.45	0.798233
1126.35	1.20164
1129.24	2.78194
1132.13	4.53664
1135.02	9.66312
1137.92	12.3414
1140.81	17.9239
1143.7	12.2113
1146.59	9.67508
1149.49	9.60365
1152.38	6.13138
1155.27	6.16658
1158.16	6.43864
1161.06	4.82318
1163.95	0.040497
