Measurement: Raman, 532 nm, unoriented, Raman Data Processed
Mineral: Marialite
Rruff sample: R060469
Ideal chemistry: Na_4_Al_3_Si_9_O_24_Cl
Locality: Mpwa-Mpwa mine, Umba Valley, near Arusha, Tanzania
Source: Michael Scott
Description: Yellow tetragonal prism with pronounced striations along the c-axis direction
Measured chemistry: (Na_0.66_Ca_0.27_K_0.07_)_4_(Si_0.68_Al_0.32_)_12_O_24_(Cl_0.75_(CO_3_)_0.25_)
Raman shift (cm-1)	intensity
133.571	0
136.946	0.582947
140.321	46.3702
143.696	131.053
147.071	204.698
150.446	273.28
153.82	329.741
157.195	362.008
160.57	387.589
163.945	359.77
167.32	271.306
170.694	178.237
174.069	106.615
177.444	72.7069
180.819	61.0204
184.194	67.192
187.569	78.398
190.943	72.3541
194.318	54.893
197.693	39.2961
201.068	32.7864
204.443	30.0917
207.817	22.1629
211.192	9.0864
214.567	4.2831
217.942	11.7726
221.317	20.0426
224.691	17.9227
228.066	15.0786
231.441	10.4583
234.816	7.3101
238.191	10.8646
241.566	5.4177
244.94	3.11902
248.315	24.4889
251.69	60.4459
255.065	110.803
258.44	175.195
261.815	230.878
265.189	215.714
268.564	142.821
271.939	77.6949
275.314	39.9473
278.688	28.8633
282.063	32.6325
285.438	34.9114
288.813	32.6491
292.188	41.4201
295.563	53.1705
298.937	67.8855
302.312	31.991
305.687	6.73884
309.062	7.92561
312.437	10.9693
315.812	9.21421
319.186	4.19902
322.561	8.0947
325.936	16.2341
329.311	18.2918
332.686	25.9495
336.06	29.6017
339.435	23.8591
342.81	24.7797
346.185	36.1096
349.56	50.2961
352.935	72.2629
356.309	102.516
359.684	131.369
363.059	118.989
366.434	77.6514
369.809	60.8091
373.183	50.9096
376.558	40.6024
379.933	34.9156
383.308	24.6283
386.683	16.7312
390.058	6.55541
393.432	0.181919
396.807	3.43942
400.182	4.29564
403.557	2.43172
406.932	5.30743
410.306	14.3162
413.681	32.5214
417.056	51.2148
420.431	61.1352
423.806	59.1575
427.18	46.2907
430.555	52.1413
433.93	64.1265
437.305	106.694
440.68	162.461
444.055	242.084
447.429	363.524
450.804	589.102
454.179	858.141
457.554	966.543
460.929	881.057
464.303	634.201
467.678	403.229
471.053	248.111
474.428	151.604
477.803	89.0979
481.178	57.4952
484.552	39.3665
487.927	23.653
491.302	6.13443
494.677	1.7493
498.052	0.750437
501.426	0.293886
504.801	0.867709
508.176	0.691025
511.551	1.53418
514.926	9.19521
518.301	16.2381
521.675	37.775
525.05	75.3114
528.425	140.026
531.8	245.453
535.175	382.38
538.549	392.757
541.924	234.26
545.299	124.603
548.674	69.6614
552.049	39.3581
555.423	23.5646
558.798	12.5432
562.173	2.12447
565.548	0.68964
568.923	0.19047
572.298	0.578934
575.672	0.365779
579.047	3.06747
582.422	1.67629
585.797	2.02552
589.172	7.30718
592.547	4.4054
595.921	6.7415
599.296	4.15911
602.671	6.97146
606.046	3.14683
609.421	1.5274
612.795	3.11969
616.17	2.65868
619.545	4.49847
622.92	2.96742
626.295	6.3315
629.669	0.681278
633.044	0.177097
636.419	0.226258
639.794	2.91598
643.169	4.87497
646.544	3.90116
649.918	5.4302
653.293	3.98197
656.668	5.15758
660.043	6.51671
663.418	2.58412
666.793	8.47887
670.167	7.08656
673.542	2.55754
676.917	1.24242
680.292	0.146843
683.667	3.58312
687.041	0.042748
690.416	2.83345
693.791	0.028888
697.166	1.11799
700.541	6.34294
703.915	2.83202
707.29	7.57429
710.665	8.72729
714.04	10.3511
717.415	4.97521
720.79	2.92206
724.164	4.91442
727.539	3.02379
730.914	2.90169
734.289	4.21499
737.664	1.09728
741.038	6.51792
744.413	8.03553
747.788	16.3137
751.163	23.7532
754.538	41.9245
757.913	62.7169
761.287	86.1088
764.662	112.528
768.037	142.68
771.412	163.358
774.787	160.515
778.161	141.23
781.536	102.051
784.911	65.8096
788.286	34.5026
791.661	17.2425
795.035	8.96628
798.41	3.92623
801.785	0.993114
805.16	4.77383
808.535	5.08956
811.91	0.0309
815.284	0.949785
818.659	0.820488
822.034	0.797176
825.409	4.81531
828.784	5.46812
832.159	4.28651
835.533	0.462179
838.908	5.78151
842.283	6.85128
845.658	0.589653
849.033	4.93183
852.407	2.57343
855.782	3.28539
859.157	0.018971
862.532	0.875878
865.907	3.38802
869.282	6.33193
872.656	6.8936
876.031	9.73985
879.406	4.96565
882.781	3.93935
886.156	3.67843
889.53	5.32876
892.905	0.394495
896.28	5.02464
899.655	6.61297
903.03	6.14105
906.404	5.71906
909.779	4.79876
913.154	0.46887
916.529	7.65571
919.904	5.81102
923.279	2.96245
926.653	0.801079
930.028	0.459588
933.403	1.00578
936.778	1.21274
940.153	1.33821
943.528	3.56329
946.902	3.89485
950.277	7.67656
953.652	7.15784
957.027	9.5906
960.402	15.9889
963.776	23.6401
967.151	28.091
970.526	32.9518
973.901	41.3853
977.276	51.4559
980.65	71.0174
984.025	92.1851
987.4	119.183
990.775	147.665
994.15	147.669
997.524	98.1796
1000.9	47.7766
1004.27	24.3315
1007.65	11.7495
1011.02	14.9607
1014.4	11.385
1017.77	7.74553
1021.15	1.47559
1024.52	2.82322
1027.9	2.03719
1031.27	3.8216
1034.65	0.286945
1038.02	8.96384
1041.4	5.25553
1044.77	3.637
1048.15	5.90674
1051.52	8.64487
1054.9	14.6106
1058.27	21.8331
1061.65	11.829
1065.02	32.2281
1068.4	29.25
1071.77	47.7568
1075.14	59.4271
1078.52	57.7758
1081.89	66.8841
1085.27	77.2535
1088.64	77.7408
1092.02	96.088
1095.39	116.076
1098.77	124.412
1102.14	103.348
1105.52	78.7274
1108.89	76.8097
1112.27	96.7471
1115.64	81.5266
1119.02	27.3323
1122.39	17.7505
1125.77	10.77
1129.14	9.41888
1132.52	7.01892
1135.89	5.85859
1139.27	2.09479
1142.64	5.7986
1146.02	0.91687
1149.39	2.84036
1152.77	2.06642
1156.14	2.42129
1159.52	2.85667
1162.89	0.109301
1166.27	2.65557
1169.64	1.49592
1173.02	0.574258
1176.39	7.68583
1179.77	4.59834
1183.14	2.17565
1186.51	2.45394
1189.89	12.605
1193.26	6.46905
1196.64	11.7052
1200.01	7.70229
1203.39	8.13895
1206.76	14.3125
1210.14	9.82249
1213.51	6.14227
1216.89	9.38444
1220.26	15.945
1223.64	10.7731
1227.01	16.7459
1230.39	1.95667
1233.76	4.19363
1237.14	2.07526
1240.51	0.569779
1243.89	4.8498
1247.26	9.10634
1250.64	3.11473
1254.01	0.102704
1257.38	1.52662
1260.76	0.396969
1264.13	12.5816
1267.51	4.44674
1270.88	16.0494
1274.26	17.3003
1277.63	1.19288
1281.01	2.36256
1284.38	0.050843
1287.76	6.56447
1291.13	14.3066
1294.51	5.8223
1297.88	2.2788
1301.26	8.18932
