Measurement: Raman, 532 nm, unoriented, Raman Data Processed
Mineral: Marialite
Rruff sample: R060526
Ideal chemistry: Na_4_Al_3_Si_9_O_24_Cl
Locality: Minas Gerais, Brazil
Source: Michael Scott
Description: Heavily striated pale yellow elongated prism
Measured chemistry: (Na_0.62_Ca_0.33_K_0.05_)_4_(Si_0.66_Al_0.34_)_12_O_24_(Cl_0.77_(CO_3_)_0.23_)
Raman shift (cm-1)	intensity
134.054	0
137.428	0.807007
140.803	51.1696
144.178	132.338
147.553	211.334
150.928	276.504
154.302	331.477
157.677	377.544
161.052	406.33
164.427	389.381
167.802	304.588
171.177	197.621
174.551	123.854
177.926	93.3623
181.301	84.5302
184.676	92.7181
188.051	112.478
191.425	121.89
194.8	114.718
198.175	109.327
201.55	109.059
204.925	115.237
208.299	99.1219
211.674	61.8836
215.049	45.2023
218.424	45.099
221.799	47.263
225.174	44.917
228.548	28.5317
231.923	13.8253
235.298	1.31799
238.673	9.09082
242.048	10.9136
245.423	3.88147
248.797	7.65888
252.172	21.1693
255.547	57.3006
258.922	89.9773
262.297	129.029
265.671	117.814
269.046	73.8032
272.421	43.2611
275.796	32.9136
279.171	37.5149
282.546	50.9594
285.92	78.8192
289.295	98.0236
292.67	72.5532
296.045	57.3798
299.42	51.0988
302.794	13.0053
306.169	0.826843
309.544	2.96344
312.919	1.89728
316.294	0.68335
319.668	13.2787
323.043	17.0455
326.418	36.457
329.793	54.9321
333.168	74.1307
336.543	78.9994
339.917	50.6037
343.292	34.727
346.667	30.4801
350.042	34.3055
353.417	42.8356
356.791	61.4896
360.166	81.3591
363.541	64.4731
366.916	28.9177
370.291	19.6162
373.666	19.4945
377.04	23.926
380.415	22.4174
383.79	17.4287
387.165	9.82507
390.54	5.05017
393.914	2.22131
397.289	3.73706
400.664	4.14056
404.039	0.503113
407.414	2.66748
410.788	8.74225
414.163	23.9842
417.538	37.1848
420.913	40.2687
424.288	40.3915
427.663	45.3944
431.037	61.5868
434.412	69.2482
437.787	106.684
441.162	147.138
444.537	216.211
447.911	333.502
451.286	529.602
454.661	722.973
458.036	766.549
461.411	698.418
464.786	512.913
468.16	328.035
471.535	194.998
474.91	120.059
478.285	72.7588
481.66	48.6836
485.034	28.8518
488.409	11.649
491.784	8.19257
495.159	4.78803
498.534	6.34454
501.909	5.72479
505.283	2.34961
508.658	2.31952
512.033	1.18134
515.408	4.33563
518.783	8.6994
522.158	24.6185
525.532	56.2952
528.907	101.471
532.282	170.038
535.657	244.629
539.032	222.732
542.406	134.654
545.781	73.4402
549.156	43.0162
552.531	30.4879
555.906	18.6364
559.28	11.0802
562.655	7.50867
566.03	4.76453
569.405	3.15491
572.78	2.81751
576.154	1.27869
579.529	1.20068
582.904	0.830566
586.279	5.34936
589.654	9.57861
593.029	6.57642
596.403	6.0011
599.778	3.70276
603.153	7.93591
606.528	10.1157
609.903	12.8084
613.278	15.046
616.652	12.1069
620.027	5.72974
623.402	2.89856
626.777	5.49097
630.152	5.59827
633.526	0.045166
636.901	0.766479
640.276	0.625366
643.651	3.35181
647.026	1.09729
650.4	7.09021
653.775	6.92932
657.15	9.86768
660.525	9.45068
663.9	5.047
667.275	3.86011
670.649	5.22156
674.024	6.29748
677.399	12.8091
680.774	5.56262
684.149	1.56775
687.524	2.04614
690.898	3.62549
694.273	4.78345
697.648	1.41284
701.023	7.18677
704.398	6.97363
707.772	2.03381
711.147	5.61011
714.522	5.61585
717.897	6.69556
721.272	3.78809
724.646	8.4729
728.021	2.08423
731.396	2.52576
734.771	6.76794
738.146	6.12524
741.521	3.73755
744.895	1.39429
748.27	6.00439
751.645	7.79688
755.02	18.7504
758.395	30.7739
761.769	41.0737
765.144	72.3774
768.519	85.5673
771.894	98.0542
775.269	105.488
778.644	89.5991
782.018	43.078
785.393	20.4878
788.768	9.96289
792.143	7.88794
795.518	11.2941
798.893	12.3589
802.267	15.8015
805.642	29.2894
809.017	39.802
812.392	19.0959
815.766	5.27918
819.141	3.32239
822.516	1.81982
825.891	0.677734
829.266	4.3407
832.641	8.28345
836.015	2.31714
839.39	5.31836
842.765	6.71118
846.14	3.21765
849.515	2.1029
852.889	0.99707
856.264	1.27698
859.639	2.58521
863.014	6.12451
866.389	1.20276
869.764	7.55957
873.138	8.28125
876.513	7.03613
879.888	4.91174
883.263	9.31958
886.638	2.19629
890.013	3.91968
893.387	0.671631
896.762	7.52539
900.137	15.3879
903.512	6.28735
906.887	10.2315
910.261	11.4441
913.636	7.1897
917.011	0.611816
920.386	12.3118
923.761	8.22876
927.135	4.37305
930.51	3.19263
933.885	1.4939
937.26	5.16602
940.635	1.36231
944.01	5.00879
947.384	0.00293
950.759	6.96436
954.134	14.1611
957.509	10.8415
960.884	13.1587
964.259	23.7217
967.633	12.1126
971.008	17.355
974.383	19.9802
977.758	27.1423
981.133	40.8931
984.507	30.304
987.882	31.9531
991.257	25.1804
994.632	16.0659
998.007	18.7127
1001.38	11.9204
1004.76	0.573975
1008.13	5.15332
1011.51	8.99023
1014.88	14.5581
1018.26	9.43384
1021.63	2.69165
1025.01	1.61011
1028.38	6.56445
1031.76	2.07446
1035.13	2.23975
1038.5	5.65625
1041.88	9.97534
1045.25	12.3699
1048.63	10.8384
1052	15.2668
1055.38	19.1704
1058.75	25.2507
1062.13	21.4844
1065.5	40.7251
1068.88	33.7798
1072.25	44.2556
1075.63	43.2869
1079	50.9153
1082.38	41.4731
1085.75	39.4175
1089.13	49.8992
1092.5	57.5537
1095.88	74.0056
1099.25	87.0864
1102.63	81.8894
1106	75.2576
1109.38	91.488
1112.75	140.697
1116.12	106.277
1119.5	22.0283
1122.88	12.9377
1126.25	5.71753
1129.62	11.6365
1133	3.01172
1136.37	2.4563
1139.75	0.641602
1143.12	6.20288
1146.5	14.4556
1149.87	6.25366
1153.25	3.62109
1156.62	10.2043
1160	5.89062
1163.37	7.72095
1166.75	6.83936
1170.12	2.20874
1173.5	4.02368
1176.87	9.1228
1180.25	13.5117
1183.62	10.7515
1187	8.80566
1190.37	13.0207
1193.75	22.9304
1197.12	26.8308
1200.5	20.4416
1203.87	20.1936
1207.24	18.7676
1210.62	10.5498
1213.99	12.1091
1217.37	3.92212
1220.74	7.93481
1224.12	22.4697
1227.49	24.3472
1230.87	16.4619
1234.24	12.1472
1237.62	8.32593
1240.99	4.13892
1244.37	22.873
1247.74	17.7415
1251.12	13.7913
1254.49	0.522949
1257.87	13.2405
1261.24	7.93066
1264.62	11.1133
1267.99	8.48999
1271.37	27.1741
1274.74	11.6758
1278.12	8.53589
1281.49	2.83301
1284.87	4.25635
1288.24	15.1519
1291.62	25.6081
1294.99	17.4231
1298.37	11.4929
1301.74	5.23731
