Measurement: Raman, 780 nm, unoriented, Raman Data Processed
Mineral: Marialite
Rruff sample: R070689
Ideal chemistry: Na_4_Al_3_Si_9_O_24_Cl
Locality: Itaguassu, Espirito Santo State, Brazil
Source: Michael Scott
Description: Pale yellow striated prism; bright orange-pink fluorescence under SW UV light
Measured chemistry: (Na_2.48_Ca_1.28_K_0.24_)_Σ=4_(Si_7.91_Al_4.09_)_Σ=12_O_24_(Cl_0.81_(CO_3_)_0.19_)_Σ=1_; CO_2_ estimated by difference and charge balance
Raman shift (cm-1)	intensity
103.436	0
106.328	56.8389
109.221	24.7031
112.114	356.363
115.006	911.442
117.899	1545.37
120.792	2348.4
123.684	2900.22
126.577	3117.39
129.47	2875.56
132.363	2173.74
135.255	1540.34
138.148	1091.83
141.041	883.198
143.933	628.624
146.826	354.998
149.719	256.59
152.611	275.177
155.504	474.996
158.397	656.374
161.29	625.417
164.182	779.798
167.075	363.312
169.968	100.134
172.86	54.5088
175.753	148.528
178.646	59.3579
181.538	67.5059
184.431	285.243
187.324	511.254
190.216	685.812
193.109	813.124
196.002	819.061
198.895	770.761
201.787	765.602
204.68	837.087
207.573	955.781
210.465	1109.1
213.358	1378.93
216.251	1617.45
219.143	1829.54
222.036	1806.46
224.929	1627.81
227.822	1484.99
230.714	1232.24
233.607	1002.79
236.5	703.814
239.393	599.551
242.285	706.965
245.178	953.179
248.071	1384.18
250.963	2027.28
253.856	2807.09
256.749	4014.1
259.641	5253.6
262.534	5678.31
265.427	4552.96
268.32	2982.67
271.212	1791.36
274.105	1121.87
276.998	722.207
279.89	580.735
282.783	649.224
285.676	761.014
288.568	1012.22
291.461	1412.46
294.354	2286.03
297.247	3106.69
300.139	1691.72
303.032	724.581
305.925	241.434
308.817	115.215
311.71	61.5923
314.603	86.7129
317.495	72.4898
320.388	63.5938
323.281	43.8945
326.173	30.0107
329.066	39.581
331.959	124.262
334.852	239.597
337.744	275.318
340.637	356.399
343.53	854.137
346.422	836.654
349.315	1076.39
352.208	1371.03
355.101	1674.06
357.993	2003.41
360.886	1970.31
363.779	1505.65
366.671	1195.06
369.564	1185.27
372.457	1311.82
375.349	1307.48
378.242	1315.06
381.135	1100.92
384.027	888.618
386.92	690.692
389.813	484.318
392.706	246.423
395.598	130.542
398.491	61.7476
401.384	64.8594
404.276	60.6636
407.169	169.375
410.062	448.699
412.954	776.92
415.847	1268.61
418.74	1722.9
421.633	1377.16
424.525	553.144
427.418	310.884
430.311	236.77
433.203	390.713
436.096	596.48
438.989	956.466
441.882	1232.23
444.774	1742.7
447.667	2707.8
450.56	4187.69
453.452	5281.51
456.345	5642.68
459.238	5479.35
462.13	4675.17
465.023	3650.4
467.916	2699.41
470.809	1910.16
473.701	1397.8
476.594	1006.67
479.487	781.566
482.379	477.367
485.272	262.788
488.165	120.738
491.058	68.4097
493.95	17.4546
496.843	55.373
499.736	4.73731
502.628	85.8262
505.521	41.0781
508.414	70.2519
511.306	4.59326
514.199	86.9917
517.092	231.385
519.985	600.921
522.877	1091.88
525.77	1907.44
528.663	3133.35
531.555	4950.33
534.448	6779.9
537.341	6319.73
540.233	4316.71
543.126	2596.95
546.019	1681.87
548.912	1119.45
551.804	899.54
554.697	727.361
557.59	630.99
560.482	529.923
563.375	532.681
566.268	521.869
569.16	533.575
572.053	539.369
574.946	534.068
577.838	577.055
580.731	662.973
583.624	670.968
586.517	648.595
589.409	661.152
592.302	629.054
595.195	630.741
598.087	660.489
600.98	601.062
603.873	548.789
606.765	507.75
609.658	466.09
612.551	489.89
615.444	351.477
618.336	314.709
621.229	274.554
624.122	244.721
627.014	185.301
629.907	158.879
632.8	94.9004
635.692	85.6255
638.585	44.7256
641.478	5.3064
644.371	19.4382
647.263	11.1973
650.156	8.63477
653.049	39.3569
655.941	14.0874
658.834	49.9873
661.727	33.5784
664.62	2.7771
667.512	11.8896
670.405	30.5967
673.298	17.3909
676.19	29.9429
679.083	53.7188
681.976	26.9016
684.869	88.4402
687.761	66.0085
690.654	136.724
693.547	162.059
696.439	189.94
699.332	271.557
702.225	343.482
705.117	399.82
708.01	430.152
710.903	436.903
713.795	407.111
716.688	379.737
719.581	359.905
722.474	369.209
725.366	366.994
728.259	332.117
731.152	271.788
734.044	274.402
736.937	263.459
739.83	320.263
742.722	372.977
745.615	447.67
748.508	593.977
751.401	778.895
754.293	1003.86
757.186	1254.74
760.079	1713.01
762.971	2239.16
765.864	2827.28
768.757	3329.74
771.649	3459.59
774.542	3042.79
777.435	2122.17
780.328	1291.38
783.22	815.296
786.113	496.878
789.006	316.568
791.898	240.19
794.791	201.531
797.684	141.986
800.577	143.074
803.469	102.341
806.362	145.502
809.255	49.0266
812.147	14.9748
815.04	50.0298
817.933	18.6611
820.825	27.5774
823.718	9.96997
826.611	18.4546
829.504	3.13623
832.396	11.3604
835.289	27.4243
838.182	53.8745
841.074	14.9199
843.967	38.7981
846.86	27.5237
849.752	27.0222
852.645	60.1204
855.538	59.0803
858.431	80.2288
861.323	71.7625
864.216	56.334
867.109	74.7356
870.001	53.4575
872.894	61.9734
875.787	60.1406
878.679	56.978
881.572	54.4956
884.465	51.3262
887.357	86.5691
890.25	50.8372
893.143	41.3582
896.036	56.2273
898.928	51.3174
901.821	86.4976
904.714	14.2932
907.606	41.3379
910.499	7.85864
913.392	15.281
916.284	69.1565
919.177	20.8791
922.07	14.4939
924.963	34.7432
927.855	29.5205
930.748	30.9949
933.641	35.3308
936.533	40.6067
939.426	36.7383
942.319	42.3638
945.212	74.8276
948.104	23.9453
950.997	71.803
953.89	53.7043
956.782	56.0178
959.675	62.6748
962.568	62.9453
965.46	42.9741
968.353	19.6502
971.246	44.2837
974.139	2.73999
977.031	22.9416
979.924	74.2678
982.817	55.4424
985.709	150.837
988.602	188.222
991.495	191.104
994.388	247.419
997.28	214.566
1000.17	243.95
1003.07	219.164
1005.96	218.588
1008.85	160.75
1011.74	139.587
1014.64	76.7422
1017.53	61.4243
1020.42	68.3328
1023.32	69.9126
1026.21	61.9934
1029.1	37.1736
1031.99	45.0486
1034.88	47.583
1037.78	91.1865
1040.67	62.0127
1043.56	47.6997
1046.46	42.5906
1049.35	2.39893
1052.24	16.4668
1055.13	4.52368
1058.03	57.3125
1060.92	87.5806
1063.81	196.367
1066.7	269.054
1069.6	364.549
1072.49	447.823
1075.38	527.056
1078.28	621.382
1081.17	721.465
1084.06	771.423
1086.95	844.158
1089.85	867.679
1092.74	964.9
1095.63	931.806
1098.53	817.207
1101.42	583.233
1104.31	363.108
1107.2	229.698
1110.1	266.804
1112.99	291.828
1115.88	23.8198
1118.77	10.4458
1121.67	32.2607
1124.56	97.7803
1127.45	181.353
1130.34	138.797
1133.24	62.5122
1136.13	0.237305
