Measurement: Raman, 780 nm, unoriented, Raman Data Processed
Mineral: Marialite
Rruff sample: R050123
Ideal chemistry: Na_4_Al_3_Si_9_O_24_Cl
Locality: Pakistan
Source: Syed Shah
Description: Purple fragment
Measured chemistry: (Na_0.88_Ca_0.07_K_0.05_)_4_Al_3.00_Si_9.00_O_24_Cl_0.97
Raman shift (cm-1)	intensity
122.545	0
125.438	0.531662
128.33	5.5712
131.223	13.6598
134.116	26.7372
137.008	42.2419
139.901	61.1746
142.794	81.4392
145.686	97.0643
148.579	111.193
151.472	121.557
154.364	132.075
157.257	136.248
160.15	127.664
163.043	106.149
165.935	81.478
168.828	64.4567
171.721	48.6999
174.613	40.1258
177.506	34.4028
180.399	28.4372
183.291	21.8149
186.184	15.2777
189.077	10.3672
191.97	4.28147
194.862	2.22706
197.755	2.05197
200.648	0.376503
203.54	0.481552
206.433	0.742195
209.326	1.40206
212.218	1.45502
215.111	0.172997
218.004	1.66805
220.897	3.81534
223.789	2.61826
226.682	3.00129
229.575	1.97733
232.467	5.43209
235.36	9.68874
238.253	16.7932
241.145	27.379
244.038	37.7952
246.931	49.3055
249.823	63.208
252.716	77.4978
255.609	91.2152
258.502	95.5315
261.394	84.1166
264.287	60.1398
267.18	38.8762
270.072	25.1237
272.965	19.3958
275.858	18.6653
278.75	18.158
281.643	19.6926
284.536	18.6353
287.429	17.8735
290.321	18.0965
293.214	18.9199
296.107	21.1072
298.999	16.1785
301.892	8.1615
304.785	2.53815
307.678	1.03902
310.57	0.815521
313.463	0.184715
316.356	0.66209
319.248	2.1332
322.141	3.60028
325.034	5.05016
327.926	6.9022
330.819	10.5975
333.712	12.5177
336.604	16.2657
339.497	20.4138
342.39	25.7147
345.283	29.6482
348.175	36.1739
351.068	43.704
353.961	49.8835
356.853	54.8193
359.746	53.5771
362.639	45.3581
365.531	36.7611
368.424	30.226
371.317	20.6479
374.209	15.3604
377.102	11.0553
379.995	7.75825
382.888	5.95384
385.78	3.52623
388.673	2.05721
391.566	0.611935
394.458	0.077187
397.351	0.669304
400.244	0.094826
403.137	0.723389
406.029	1.57639
408.922	3.34903
411.815	5.56034
414.707	7.14084
417.6	10.3812
420.493	13.3676
423.385	19.0058
426.278	23.883
429.171	30.9683
432.063	40.2911
434.956	60.7082
437.849	90.1388
440.742	125.276
443.634	158.195
446.527	192.886
449.42	234.202
452.312	287.058
455.205	322.64
458.098	297.411
460.99	209.694
463.883	131.587
466.776	84.2501
469.668	56.9848
472.561	38.2297
475.454	24.8735
478.347	16.9013
481.239	10.5724
484.132	6.69193
487.025	4.58985
489.917	2.9735
492.81	0.880394
495.703	0.981319
498.596	0.325541
501.488	0.685431
504.381	0.087538
507.274	0.491962
510.166	0.214939
513.059	2.2583
515.952	7.37263
518.844	17.6982
521.737	32.2031
524.63	41.2711
527.523	54.1475
530.415	69.8044
533.308	93.0214
536.201	112.336
539.093	90.4335
541.986	47.8284
544.879	23.4575
547.771	12.5073
550.664	6.4214
553.557	4.09265
556.449	2.04529
559.342	0.484241
562.235	0.995214
565.128	0.114794
568.02	0.388968
570.913	0.024347
573.806	0.539173
576.698	0.675573
579.591	1.11087
582.484	2.02187
585.376	3.11205
588.269	3.29781
591.162	3.34265
594.055	2.60444
596.947	3.0501
599.84	2.75428
602.733	3.29703
605.625	3.15475
608.518	2.91343
611.411	3.76816
614.303	3.95144
617.196	4.03588
620.089	4.68494
622.982	4.91974
625.874	4.68319
628.767	3.33241
631.66	0.833286
634.552	1.1406
637.445	1.31918
640.338	0.443554
643.23	1.06283
646.123	0.842701
649.016	0.3496
651.909	0.299488
654.801	0.234808
657.694	0.12097
660.587	0.568842
663.479	0.207502
666.372	0.227972
669.265	0.033535
672.157	0.027542
675.05	0.345869
677.943	0.211052
680.836	0.178738
683.728	0.01932
686.621	0.126013
689.514	0.634815
692.406	0.159433
695.299	0.120247
698.192	0.656282
701.084	0.906284
703.977	1.34589
706.87	1.24939
709.763	1.13377
712.655	1.08591
715.548	2.28926
718.441	1.40489
721.333	2.17198
724.226	1.40654
727.119	2.20315
730.011	2.76189
732.904	2.69746
735.797	4.35176
738.689	4.12366
741.582	4.64074
744.475	5.7528
747.368	8.36764
750.26	9.91361
753.153	11.5623
756.046	13.5546
758.938	14.8352
761.831	16.6315
764.724	19.3491
767.616	21.6609
770.509	23.0043
773.402	25.952
776.295	27.0494
779.187	29.19
782.08	29.5365
784.973	26.7342
787.865	22.7091
790.758	16.5166
793.651	10.0922
796.543	6.89156
799.436	4.84987
802.329	4.68868
805.221	4.67127
808.114	5.24586
811.007	6.61071
813.9	5.379
816.792	2.10906
819.685	1.50018
822.578	0.434654
825.47	0.521353
828.363	0.013943
831.256	0.060295
834.149	0.19821
837.041	0.253433
839.934	0.645422
842.827	0.228897
845.719	0.053859
848.612	0.451694
851.505	0.203045
854.397	0.387143
857.29	0.68996
860.183	0.954005
863.076	0.316173
865.968	0.572018
868.861	0.242876
871.754	0.760842
874.646	1.47241
877.539	0.188057
880.432	0.926058
883.324	0.460371
886.217	1.22104
889.11	1.09855
892.002	0.566236
894.895	0.615014
897.788	0.901096
900.681	0.620682
903.573	0.646479
906.466	1.04729
909.359	0.976719
912.251	0.581628
915.144	0.515059
918.037	0.704113
920.929	0.906435
923.822	0.786113
926.715	0.320883
929.607	0.007677
932.5	0.580771
935.393	0.018449
938.286	0.186456
941.178	0.105389
944.071	0.296399
946.964	0.499384
949.856	0.155166
952.749	0.267206
955.642	0.125059
958.534	0.55991
961.427	0.475725
964.32	0.067132
967.213	0.98814
970.105	1.41376
972.998	1.03304
975.891	2.51432
978.783	2.65645
981.676	3.80271
984.569	4.3909
987.462	5.57089
990.354	5.85433
993.247	5.77972
996.14	3.88775
999.032	2.56784
1001.92	2.12647
1004.82	1.58419
1007.71	0.770011
1010.6	0.676732
1013.5	0.888078
1016.39	0.571476
1019.28	0.215738
1022.17	0.098726
1025.07	0.265184
1027.96	0.32991
1030.85	0.603334
1033.74	0.362061
1036.64	0.787514
1039.53	0.253899
1042.42	0.140038
1045.32	0.846479
1048.21	1.07283
1051.1	0.418667
1053.99	0.386665
1056.89	1.1351
1059.78	0.92622
1062.67	1.32563
1065.56	1.67398
1068.46	2.79601
1071.35	3.44136
1074.24	5.3697
1077.13	6.72378
1080.03	8.4114
1082.92	10.7041
1085.81	12.4845
1088.71	14.55
1091.6	16.1897
1094.49	16.4483
1097.38	15.0674
1100.28	13.6748
1103.17	11.8703
1106.06	10.027
1108.95	8.38431
1111.85	8.03584
1114.74	5.84759
1117.63	4.80564
1120.53	3.52636
1123.42	2.70101
1126.31	1.36216
1129.2	0.492296
1132.1	0.571058
1134.99	0.197212
1137.88	0.197102
1140.78	0.468929
1143.67	0.20204
1146.56	0.400984
1149.45	0.081381
1152.35	0.869967
1155.24	1.7321
1158.13	3.70579
1161.02	3.798
1163.92	6.33467
1166.81	7.76879
1169.7	10.677
1172.59	12.0025
1175.49	15.171
1178.38	17.3799
1181.27	19.7564
1184.16	22.3767
1187.06	25.6818
1189.95	28.793
1192.84	29.4817
1195.74	31.5143
1198.63	32.6979
1201.52	32.6234
1204.41	33.4668
1207.31	33.7568
1210.2	32.6713
1213.09	32.3637
1215.98	30.6495
1218.88	28.6499
1221.77	25.7809
1224.66	25.466
1227.56	22.5998
1230.45	21.1568
1233.34	20.7511
1236.23	17.7685
1239.13	16.427
1242.02	14.9229
1244.91	12.2878
1247.8	10.0363
1250.7	7.42815
1253.59	6.31538
1256.48	4.24978
1259.38	3.29676
1262.27	1.83802
1265.16	0.950775
1268.05	0.660809
1270.95	0.527275
1273.84	0.460442
