Measurement: Raman, 532 nm, unoriented, Raman Data Processed
Mineral: Marialite
Rruff sample: R040043
Ideal chemistry: Na_4_Al_3_Si_9_O_24_Cl
Locality: Gouverneur, New York, USA
Source: University of Arizona Mineral Museum
Description: White prismatic crystals
Measured chemistry: (Na_.493_Ca_.446_K_.061_)_4_(Si_.634_Al_.366_)_12_O_24_((CO_3_)_.581_Cl_.419_)
Raman shift (cm-1)	intensity
125.379	0
128.754	610.633
132.129	355.38
135.504	11.9854
138.878	461.269
142.253	1096.84
145.628	1778.97
149.003	2070.58
152.378	2380.26
155.752	3113.04
159.127	3820.12
162.502	4021.43
165.877	3319.87
169.252	2097.92
172.626	1266.93
176.001	907.92
179.376	815.036
182.751	771.739
186.126	1165.82
189.5	1180.14
192.875	1045.87
196.25	960.965
199.625	889.327
203	918.531
206.375	1038.94
209.749	947.491
213.124	915.627
216.499	1092.69
219.874	1227.26
223.249	912.425
226.624	643.227
229.998	477.021
233.373	199.035
236.748	3.38672
240.123	153.08
243.498	118.436
246.872	132.133
250.247	459.92
253.622	1169.05
256.997	2283.85
260.372	3561.99
263.747	4206.8
267.121	3102.71
270.496	1579.85
273.871	585.451
277.246	229.592
280.62	68.6016
283.995	53.9805
287.37	152.652
290.745	672.893
294.12	1284.14
297.495	2094.55
300.869	1165.2
304.244	410.533
307.619	244.223
310.994	67.6231
314.369	67.5957
317.743	104.312
321.118	1.82227
324.493	73.3359
327.868	94.0977
331.243	95.666
334.618	153.117
337.992	164.807
341.367	276.947
344.742	372.094
348.117	644.055
351.492	1034.89
354.866	1401.48
358.241	1755.95
361.616	1829.53
364.991	1210.19
368.366	708.064
371.74	701.754
375.115	893.301
378.49	972.205
381.865	999.502
385.24	959.748
388.615	649.117
391.989	378.555
395.364	48.7402
398.739	87.0547
402.114	42.7422
405.489	39.1035
408.863	277.746
412.238	574.139
415.613	1113.96
418.988	1600.86
422.363	1485.74
425.738	806.1
429.112	681.035
432.487	813.457
435.862	1064.21
439.237	1836.64
442.612	2829.1
445.986	4365.8
449.361	6798.01
452.736	9901.34
456.111	10863.9
459.486	10769.5
462.861	9324.55
466.235	6802.03
469.61	4740.14
472.985	3175.84
476.36	2018.69
479.735	1396.81
483.109	948.34
486.484	707.061
489.859	277.9
493.234	128.385
496.609	14.4648
499.983	90.2852
503.358	7.7207
506.733	34.8477
510.108	80.1602
513.483	18.1445
516.857	234.867
520.232	697.496
523.607	1524.53
526.982	2597.4
530.357	4302.65
533.732	6373.58
537.106	6927.51
540.481	4780.39
543.856	2761.55
547.231	1579.31
550.606	978.746
553.981	691.016
557.355	542.543
560.73	407.154
564.105	495.441
567.48	505.904
570.855	430.26
574.229	344.82
577.604	357.078
580.979	509.068
584.354	632.777
587.729	596.035
591.104	502.283
594.478	606.879
597.853	734.871
601.228	826.764
604.603	1061.71
607.977	1285.98
611.352	1387.89
614.727	1269.68
618.102	1539.35
621.477	1807.29
624.852	1721.05
628.226	1719.97
631.601	1626.24
634.976	1483.42
638.351	916.383
641.726	607.441
645.101	354.736
648.475	370.82
651.85	210.275
655.225	181.08
658.6	133.994
661.975	107.889
665.349	8.11523
668.724	18.7988
672.099	11.1113
675.474	120.18
678.849	50.5273
682.223	43.9316
685.598	8.27734
688.973	195.941
692.348	180.951
695.723	201.826
699.097	275.18
702.472	309.6
705.847	310.438
709.222	460.033
712.597	304.822
715.972	249.408
719.346	194.746
722.721	288.185
726.096	237.373
729.471	86.8301
732.846	101.691
736.221	44.4043
739.595	6.82812
742.97	51.7637
746.345	321.502
749.72	314.762
753.095	632.391
756.469	1053.02
759.844	1435.02
763.219	2143.59
766.594	2943.85
769.969	3512.67
773.343	3290.94
776.718	2435.25
780.093	1380.73
783.468	491.529
786.843	115.123
790.217	20.957
793.592	103.295
796.967	83.8828
800.342	12.3027
803.717	148.326
807.092	140.082
810.466	352.623
813.841	722.523
817.216	1045.47
820.591	1496.19
823.966	1660.44
827.341	1810.91
830.715	1718.31
834.09	1466.34
837.465	1370.99
840.84	1190.65
844.215	1130
847.589	972.408
850.964	797.322
854.339	653.15
857.714	492.193
861.089	494.871
864.463	496.994
867.838	328.299
871.213	420.211
874.588	332.92
877.963	331.676
881.337	312.875
884.712	263.098
888.087	420.684
891.462	441.578
894.837	442.225
898.212	322.582
901.586	277.102
904.961	45.8965
908.336	126.902
911.711	7.04102
915.086	28.4473
918.46	61.0312
921.835	41.0156
925.21	158.549
928.585	243.994
931.96	142.67
935.335	29.3418
938.709	1.42773
942.084	27.3359
945.459	24.3945
948.834	29.9727
952.209	39.7246
955.583	7.80859
958.958	157.17
962.333	37.9707
965.708	37.0684
969.083	45.6328
972.457	8.13867
975.832	4.88477
979.207	175.74
982.582	22.2148
985.957	104.951
989.332	111.66
992.706	278.668
996.081	383.299
999.456	244.143
1002.83	166.176
1006.21	128.932
1009.58	123.266
1012.96	67.4082
1016.33	41.5996
1019.71	36.5547
1023.08	96.5938
1026.45	185.66
1029.83	18.3652
1033.2	45.4082
1036.58	123.055
1039.95	224.055
1043.33	173.287
1046.7	174.572
1050.08	203.932
1053.45	470.445
1056.83	643.391
1060.2	614.686
1063.58	736.387
1066.95	947.129
1070.33	1072.95
1073.7	1499.8
1077.08	1479.34
1080.45	1527.3
1083.83	2096.56
1087.2	2502.15
1090.58	2751.58
1093.95	3265.87
1097.33	3400.75
1100.7	3089.48
1104.08	2385.76
1107.45	2267.47
1110.83	2405.78
1114.2	1823.94
1117.57	563.533
1120.95	272.967
1124.32	311.025
1127.7	426.549
1131.07	394.666
1134.45	315.467
1137.82	207.438
1141.2	37.1855
1144.57	6.5918
1147.95	4.24609
1151.32	18.0957
1154.7	171.211
1158.07	52.1172
1161.45	182.568
1164.82	107.406
1168.2	33.6562
1171.57	154.303
1174.95	217.301
1178.32	258.35
1181.7	368.084
1185.07	220.603
1188.45	263.291
1191.82	177.986
1195.19	75.6504
1198.57	247.225
1201.94	264.641
1205.32	289.894
1208.69	284.943
1212.07	374.234
1215.44	333.316
1218.82	390.588
1222.19	174.231
1225.57	186.705
1228.94	195.807
1232.32	270.449
1235.69	324.141
1239.07	174.238
1242.44	240.025
1245.82	478.381
1249.19	366.959
1252.57	276.435
1255.94	305.525
1259.32	153.959
1262.69	121.283
1266.07	27.3418
1269.44	264.742
1272.82	348.627
1276.19	343.383
1279.57	259.842
1282.94	175.143
1286.32	219.977
1289.69	82.3086
1293.07	125.016
1296.44	51.7734
