Measurement: Raman, 532 nm, unoriented, Raman Data Processed
Mineral: Marialite
Rruff sample: R100112
Ideal chemistry: Na_4_Al_3_Si_9_O_24_Cl
Locality: Sar-e-Sang District,  Koksha Valley,  Badakhshan Province,  Afghanistan
Source: Robert Woodside
Description: Colorless crystal fragment
Raman shift (cm-1)	intensity
128.579	0
131.954	8.22974
135.329	2.76593
138.704	17.1577
142.079	73.5179
145.453	138.01
148.828	198.363
152.203	323.826
155.578	497.037
158.953	598.044
162.328	622.279
165.702	585.888
169.077	500.196
172.452	421.269
175.827	350.017
179.202	312.898
182.577	293.199
185.951	298.64
189.326	289.006
192.701	256.666
196.076	224.273
199.451	199.267
202.825	182.224
206.2	178.046
209.575	149.835
212.95	121.409
216.325	114.397
219.699	107.184
223.074	94.968
226.449	79.7807
229.824	53.4779
233.199	30.0566
236.573	13.38
239.948	9.23279
243.323	18.1443
246.698	36.4354
250.073	81.4138
253.448	131.755
256.822	199.336
260.197	239.483
263.572	226.837
266.947	154.127
270.322	79.656
273.697	34.503
277.071	18.337
280.446	20.3877
283.821	31.6301
287.196	44.6857
290.571	42.2342
293.945	41.8816
297.32	48.8416
300.695	36.3865
304.07	1.23558
307.445	12.1068
310.82	10.8099
314.194	11.4166
317.569	2.09863
320.944	3.34189
324.319	12.8076
327.694	25.9945
331.068	35.2238
334.443	43.307
337.818	49.2308
341.193	46.0132
344.568	54.7599
347.942	68.2761
351.317	90.4523
354.692	117.688
358.067	148.938
361.442	154.48
364.817	118.39
368.191	76.6936
371.566	60.6543
374.941	54.13
378.316	46.8619
381.691	35.5243
385.065	26.83
388.44	15.5729
391.815	9.7067
395.19	2.18703
398.565	2.00354
401.94	1.2525
405.314	6.76857
408.689	16.1529
412.064	31.0316
415.439	47.5568
418.814	61.3124
422.188	65.1226
425.563	55.8149
428.938	55.9843
432.313	77.2872
435.688	122.579
439.062	204.738
442.437	307.657
445.812	453.391
449.187	667.88
452.562	950.779
455.937	1155.03
459.311	1134.51
462.686	903.571
466.061	606.621
469.436	374.749
472.811	226.784
476.185	137.171
479.56	88.2695
482.935	54.4947
486.31	31.4215
489.685	17.7359
493.06	8.16
496.434	3.2439
499.809	0.104889
503.184	3.20784
506.559	4.60292
509.934	2.30029
513.308	3.16591
516.683	14.7582
520.058	43.0436
523.433	87.7618
526.808	153.57
530.183	244.127
533.557	372.162
536.932	454.077
540.307	350.801
543.682	187.004
547.057	97.1041
550.432	52.882
553.806	25.101
557.181	15.1529
560.556	8.54797
563.931	4.70615
567.306	1.80214
570.68	1.3412
574.055	2.76381
577.43	2.55965
580.805	1.7041
584.18	7.17407
587.554	7.2516
590.929	6.35605
594.304	4.25816
597.679	3.90399
601.054	6.07491
604.428	5.50304
607.803	2.6872
611.178	0.895279
614.553	0.465897
617.928	1.48515
621.303	0.356628
624.677	0.177963
628.052	0.988358
631.427	1.2778
634.802	1.27202
638.177	0.349548
641.552	1.56299
644.926	2.71864
648.301	1.3577
651.676	2.44019
655.051	4.06548
658.426	6.39465
661.8	8.39574
665.175	7.00999
668.55	6.59952
671.925	2.88538
675.3	3.61197
678.674	2.16347
682.049	1.50474
685.424	1.18471
688.799	1.22319
692.174	2.82783
695.549	2.91447
698.923	3.48952
702.298	5.21635
705.673	5.22494
709.048	10.8758
712.423	8.27588
715.798	8.22679
719.172	5.09091
722.547	4.21101
725.922	2.70364
729.297	0.440018
732.672	2.31068
736.046	0.457397
739.421	1.92867
742.796	4.78348
746.171	12.849
749.546	21.1148
752.92	36.5783
756.295	56.3554
759.67	78.7413
763.045	112.445
766.42	143.066
769.795	173.45
773.169	185.147
776.544	169.476
779.919	130.595
783.294	81.332
786.669	46.6953
790.043	26.9947
793.418	14.956
796.793	13.0358
800.168	14.1906
803.543	21.3275
806.918	25.3273
810.292	29.7024
813.667	20.3894
817.042	7.18535
820.417	3.88872
823.792	0.564606
827.166	0.407974
830.541	1.4588
833.916	0.213058
837.291	0.134613
840.666	0.689255
844.04	1.46851
847.415	0.711121
850.79	1.82132
854.165	3.5325
857.54	0.03009
860.915	2.39702
864.289	1.87955
867.664	4.4695
871.039	3.14807
874.414	4.51302
877.789	5.71509
881.163	3.84251
884.538	5.53351
887.913	4.99156
891.288	8.25005
894.663	7.49489
898.038	8.13414
901.412	4.643
904.787	6.27698
908.162	4.73418
911.537	3.21494
914.912	1.75577
918.287	5.04353
921.661	0.282959
925.036	1.96387
928.411	1.24335
931.786	1.78442
935.161	0.185852
938.535	0.576767
941.91	1.39571
945.285	0.315536
948.66	0.346252
952.035	3.94031
955.409	4.06247
958.784	6.06981
962.159	3.3483
965.534	4.81737
968.909	4.97568
972.284	7.69595
975.658	15.4187
979.033	26.6397
982.408	44.805
985.783	66.0193
989.158	85.5729
992.533	99.166
995.907	80.0457
999.282	36.7405
1002.66	14.7781
1006.03	9.7793
1009.41	3.91638
1012.78	4.82205
1016.16	0.78302
1019.53	2.3125
1022.91	1.78235
1026.28	2.77563
1029.66	1.92642
1033.03	3.37613
1036.4	6.11209
1039.78	6.13092
1043.15	5.83685
1046.53	8.14313
1049.9	9.60693
1053.28	18.7905
1056.65	28.2443
1060.03	33.0647
1063.4	43.7079
1066.78	56.4148
1070.15	64.9283
1073.53	73.4126
1076.9	81.0341
1080.28	85.7294
1083.65	93.1678
1087.03	101.596
1090.4	122.032
1093.78	139.531
1097.15	149.505
1100.53	141.855
1103.9	115.132
1107.28	97.2996
1110.65	108.064
1114.03	115.285
1117.4	59.3244
1120.78	25.3986
1124.15	17.9471
1127.53	16.8086
1130.9	10.2491
1134.28	8.50784
1137.65	6.07483
1141.02	4.58597
1144.4	0.638824
1147.77	0.610046
1151.15	0.48468
1154.52	1.19092
1157.9	0.429504
1161.27	0.060028
1164.65	0.62796
1168.02	0.156311
1171.4	2.81476
1174.77	0.796021
1178.15	3.31354
1181.52	5.2869
1184.9	8.1615
1188.27	8.82828
1191.65	11.102
1195.02	11.0749
1198.4	15.5199
1201.77	17.1042
1205.15	15.9743
1208.52	17.117
1211.9	14.0787
1215.27	11.5078
1218.64	8.97202
1222.02	7.34128
1225.39	7.23163
1228.77	4.68124
1232.14	3.34033
1235.52	3.48489
1238.89	2.21661
1242.27	1.62183
1245.64	2.27862
1249.02	0.541809
1252.39	1.88556
1255.77	1.41739
1259.14	4.93127
1262.52	4.12534
1265.89	2.13632
1269.27	2.14865
1272.64	2.38687
1276.02	4.15198
1279.39	0.793671
1282.77	1.14938
1286.14	0.784058
1289.52	0.81366
1292.89	4.06897
1296.27	2.73187
1299.64	2.13345
1303.02	0
