Measurement: Raman, 780 nm, unoriented, Raman Data Processed
Mineral: Marialite
Rruff sample: R060469
Ideal chemistry: Na_4_Al_3_Si_9_O_24_Cl
Locality: Mpwa-Mpwa mine, Umba Valley, near Arusha, Tanzania
Source: Michael Scott
Description: Yellow tetragonal prism with pronounced striations along the c-axis direction
Measured chemistry: (Na_0.66_Ca_0.27_K_0.07_)_4_(Si_0.68_Al_0.32_)_12_O_24_(Cl_0.75_(CO_3_)_0.25_)
Raman shift (cm-1)	intensity
98.9557	0
101.848	1.26643
104.741	4.98496
107.634	14.2139
110.526	13.037
113.419	5.31145
116.312	0.442383
119.205	1.01994
122.097	6.18028
124.99	7.27069
127.883	5.21873
130.775	3.57585
133.668	0.504059
136.561	1.03999
139.453	2.97845
142.346	4.28088
145.239	13.7934
148.131	24.1972
151.024	38.9211
153.917	53.1958
156.81	63.3433
159.702	72.1841
162.595	68.1678
165.488	53.9094
168.38	34.9679
171.273	19.6738
174.166	7.64813
177.059	5.73918
179.951	5.13856
182.844	6.45897
185.737	8.017
188.629	9.75677
191.522	6.85323
194.415	5.74603
197.307	3.71999
200.2	4.77904
203.093	4.94955
205.986	7.37352
208.878	7.37105
211.771	8.76442
214.664	10.4881
217.556	14.4235
220.449	14.68
223.342	13.1283
226.234	10.4835
229.127	7.29708
232.02	3.04555
234.912	0.316475
237.805	0.998306
240.698	0.098099
243.591	2.48816
246.483	4.06437
249.376	10.9854
252.269	17.1085
255.161	28.6894
258.054	41.7415
260.947	49.8169
263.839	47.6164
266.732	33.7245
269.625	19.4258
272.518	11.0405
275.41	4.50967
278.303	3.4118
281.196	2.31533
284.088	4.55939
286.981	4.52867
289.874	6.50866
292.766	8.443
295.659	11.4459
298.552	14.7318
301.445	6.47987
304.337	1.03658
307.23	1.60678
310.123	3.73412
313.015	2.26756
315.908	1.52839
318.801	0.147583
321.693	3.06867
324.586	5.14714
327.479	6.49989
330.372	10.227
333.264	12.4829
336.157	13.4851
339.05	16.8582
341.942	16.8761
344.835	17.9811
347.728	21.0992
350.62	25.1868
353.513	31.0418
356.406	37.7867
359.298	44.5245
362.191	42.2511
365.084	33.1786
367.977	27.4756
370.869	24.7538
373.762	23.705
376.655	22.9159
379.547	21.7968
382.44	21.5709
385.333	18.8674
388.226	13.6203
391.118	13.0689
394.011	10.6462
396.904	9.22031
399.796	7.05243
402.689	6.92193
405.582	6.59212
408.474	6.62089
411.367	7.89578
414.26	9.76442
417.152	13.1218
420.045	13.3548
422.938	14.9291
425.831	12.4679
428.723	12.9612
431.616	14.9786
434.509	21.0297
437.401	32.1046
440.294	44.225
443.187	60.0151
446.079	83.1704
448.972	123.873
451.865	183.245
454.757	231.039
457.65	241.328
460.543	218.593
463.436	165.722
466.328	114
469.221	76.3447
472.114	49.0561
475.006	32.9288
477.899	20.0435
480.792	12.9325
483.685	7.83787
486.577	2.55839
489.47	2.24226
492.363	0.046257
495.255	1.4998
498.148	1.11922
501.041	2.09509
503.933	1.13517
506.826	1.49721
509.719	1.66819
512.611	0.432617
515.504	3.84843
518.397	7.43309
521.29	11.4526
524.182	17.362
527.075	28.4493
529.968	45.3137
532.86	74.1297
535.753	98.2129
538.646	85.8621
541.538	55.56
544.431	35.3916
547.324	26.2421
550.217	20.5643
553.109	17.2099
556.002	17.3324
558.895	17.3181
561.787	17.2534
564.68	15.945
567.573	17.9854
570.466	18.9392
573.358	19.6312
576.251	22.5524
579.144	23.3232
582.036	24.5294
584.929	23.3596
587.822	26.3305
590.714	27.7497
593.607	25.9642
596.5	26.4098
599.393	25.7834
602.285	25.6784
605.178	25.2035
608.071	23.2579
610.963	23.2636
613.856	22.3041
616.749	22.2719
619.641	18.4061
622.534	17.0542
625.427	14.1389
628.319	13.1944
631.212	10.5551
634.105	9.47237
636.997	7.30479
639.89	5.84543
642.783	4.77393
645.676	3.29029
648.568	1.9114
651.461	0.833443
654.354	0.215157
657.246	1.00298
660.139	0.729279
663.032	1.32537
665.924	1.24676
668.817	1.27712
671.71	0.626068
674.603	0.482262
677.495	0.378677
680.388	0.033981
683.281	0.336266
686.173	1.75121
689.066	1.39491
691.959	2.55585
694.851	3.85565
697.744	3.09649
700.637	4.7971
703.53	4.49635
706.422	7.32024
709.315	7.12012
712.208	8.4861
715.1	9.34695
717.993	9.57867
720.886	9.37672
723.778	9.5682
726.671	10.1258
729.564	9.06083
732.457	8.5366
735.349	8.68174
738.242	10.0769
741.135	9.81878
744.027	9.87788
746.92	11.4102
749.813	12.4723
752.705	15.9744
755.598	19.1804
758.491	21.2141
761.384	25.2826
764.276	30.9002
767.169	36.8632
770.062	39.5818
772.954	40.5029
775.847	37.8608
778.74	32.2172
781.632	23.0453
784.525	16.2278
787.418	10.6656
790.311	6.29094
793.203	4.55562
796.096	4.18514
798.989	4.29333
801.881	2.89492
804.774	2.12831
807.667	2.28448
810.559	2.03516
813.452	1.66721
816.345	0.739426
819.237	0.289375
822.13	1.28686
825.023	0.131927
827.916	1.60928
830.808	0.292923
833.701	0.037544
836.594	1.31655
839.486	0.722195
842.379	0.121243
845.272	1.15194
848.164	1.762
851.057	1.167
853.95	2.61117
856.843	1.99205
859.735	1.97385
862.628	1.64681
865.521	1.85981
868.413	2.02193
871.306	2.94629
874.199	2.00163
877.091	2.18602
879.984	3.92524
882.877	3.06994
885.769	1.13491
888.662	1.09246
891.555	0.954346
894.448	0.971355
897.34	1.83963
900.233	1.53817
903.126	1.62138
906.018	0.982494
908.911	1.5951
911.804	0.473724
914.697	1.00513
917.589	0.473045
920.482	0.815338
923.375	0.516918
926.267	0.390484
929.16	1.7065
932.053	0.011589
934.945	0.065166
937.838	0.30587
940.731	0.668224
943.624	0.114017
946.516	0.434856
949.409	0.286568
952.302	0.886059
955.194	0.43354
958.087	0.989887
960.98	1.37712
963.872	0.614292
966.765	0.621159
969.658	0.767212
972.551	2.41098
975.443	2.70784
978.336	4.96428
981.229	7.39991
984.121	12.3939
987.014	15.6157
989.907	21.7123
992.799	24.4241
995.692	18.8753
998.585	10.4114
1001.48	5.29559
1004.37	4.1916
1007.26	4.09461
1010.16	4.92464
1013.05	6.15614
1015.94	4.75937
1018.83	4.91238
1021.73	4.50766
1024.62	4.68938
1027.51	4.73192
1030.4	5.67546
1033.3	5.9737
1036.19	7.91335
1039.08	7.11914
1041.97	7.1231
1044.87	8.67125
1047.76	8.18682
1050.65	8.91948
1053.55	9.76585
1056.44	10.5354
1059.33	11.2901
1062.22	13.8335
1065.12	16.7893
1068.01	19.6899
1070.9	22.4991
1073.8	23.7822
1076.69	26.0985
1079.58	25.4173
1082.47	25.8297
1085.37	27.8654
1088.26	28.3253
1091.15	30.6114
1094.04	32.44
1096.94	32.8619
1099.83	30.6464
1102.72	22.2147
1105.62	12.9205
1108.51	10.0093
1111.4	12.3996
1114.29	15.4195
1117.18	4.23115
1120.08	2.32451
1122.97	1.66402
1125.86	0.386414
1128.76	1.7782
1131.65	4.96025
1134.54	7.36746
1137.43	10.5208
1140.33	14.8285
1143.22	19.9272
1146.11	13.8007
1149.01	13.0743
1151.9	9.88733
1154.79	10.0497
1157.68	7.84204
1160.58	3.94272
1163.47	0.806183
1166.36	0.494965
