Measurement: Raman, 532 nm, unoriented, Raman Data Processed
Mineral: Marialite
Rruff sample: R070689
Ideal chemistry: Na_4_Al_3_Si_9_O_24_Cl
Locality: Itaguassu, Espirito Santo State, Brazil
Source: Michael Scott
Description: Pale yellow striated prism; bright orange-pink fluorescence under SW UV light
Measured chemistry: (Na_2.48_Ca_1.28_K_0.24_)_Σ=4_(Si_7.91_Al_4.09_)_Σ=12_O_24_(Cl_0.81_(CO_3_)_0.19_)_Σ=1_; CO_2_ estimated by difference and charge balance
Raman shift (cm-1)	intensity
120.112	0
123.487	1121.77
126.862	1657.15
130.236	2241.52
133.611	1298.9
136.986	710.818
140.361	325.324
143.736	143.92
147.11	420.574
150.485	917.769
153.86	1476.37
157.235	2391.14
160.61	2983.65
163.984	3122.75
167.359	2325.49
170.734	1171.76
174.109	196.309
177.484	135.577
180.859	107.795
184.233	69.7158
187.608	367.287
190.983	616.844
194.358	455.442
197.733	336.173
201.107	211.807
204.482	331.537
207.857	187.377
211.232	331.593
214.607	384.94
217.982	617.465
221.356	716.379
224.731	739.268
228.106	507.149
231.481	228.499
234.856	8.91895
238.23	88.3154
241.605	32.8887
244.98	185.117
248.355	589.613
251.73	979.516
255.105	1646.81
258.479	2608.03
261.854	3391.86
265.229	3353.22
268.604	2291.5
271.979	1282.97
275.353	827.321
278.728	676.031
282.103	702.943
285.478	1113.25
288.853	1255
292.227	1407.32
295.602	1538.77
298.977	1884.79
302.352	695.584
305.727	126.178
309.101	122.447
312.476	120.515
315.851	1.39941
319.226	113.004
322.601	201.356
325.976	401.555
329.35	470.254
332.725	863.17
336.1	715.948
339.475	642.921
342.85	481.759
346.224	489.812
349.599	657.369
352.974	846.637
356.349	1194.42
359.724	1566.14
363.099	1360.94
366.473	797.76
369.848	563.283
373.223	621.229
376.598	571.75
379.973	680.676
383.348	640.664
386.722	444.541
390.097	137.285
393.472	15.6035
396.847	15.2324
400.222	23.3359
403.596	33.5723
406.971	77.4043
410.346	179.057
413.721	392.238
417.096	772.289
420.471	996.219
423.845	779.668
427.22	585.184
430.595	524.348
433.97	843.502
437.344	1217.55
440.719	2039.82
444.094	2881.07
447.469	4294.25
450.844	6739.85
454.219	9488.05
457.593	10504.4
460.968	9840.94
464.343	7811.31
467.718	5223.55
471.093	3263.42
474.467	2193.71
477.842	1344.24
481.217	778.977
484.592	668.689
487.967	484.859
491.342	291.324
494.716	272.424
498.091	48.2305
501.466	137.291
504.841	70.1602
508.216	34.5
511.591	181.394
514.965	164.559
518.34	372.641
521.715	652.269
525.09	1244.81
528.465	2118.11
531.839	3514.5
535.214	5258.67
538.589	5154.04
541.964	3201.22
545.339	1747.86
548.713	1006.74
552.088	719.277
555.463	477.734
558.838	130.258
562.213	75.5703
565.587	101.246
568.962	209.068
572.337	95.4414
575.712	28.7715
579.087	30.2539
582.462	169.643
585.836	135.998
589.211	240.422
592.586	177.096
595.961	200.75
599.336	192.353
602.711	85.2598
606.085	198.193
609.46	161.568
612.835	222.674
616.21	202.275
619.585	244.125
622.959	137.102
626.334	54.6211
629.709	34.793
633.084	5.81055
636.459	37.3105
639.833	48.7207
643.208	57.6641
646.583	62.6133
649.958	96.3281
653.333	197.662
656.708	53.7461
660.082	69.3769
663.457	236.99
666.832	174.918
670.207	168.787
673.582	142.699
676.956	131.699
680.331	226.291
683.706	40.7246
687.081	42.0039
690.456	53.7852
693.831	6.98828
697.205	181.769
700.58	300.662
703.955	310.607
707.33	229.678
710.705	201.623
714.079	272.248
717.454	296.076
720.829	284.565
724.204	126.215
727.579	104.135
730.953	160.133
734.328	252.539
737.703	36.2285
741.078	198.129
744.453	251.768
747.828	164.883
751.202	347.498
754.577	656.924
757.952	1017.47
761.327	1305.46
764.702	1634.81
768.077	2311.32
771.451	2564.63
774.826	2371.37
778.201	1700.54
781.576	1044.01
784.951	458.535
788.325	253.353
791.7	257.168
795.075	72.9004
798.45	128.088
801.825	198.019
805.199	80.2324
808.574	189.019
811.949	242.981
815.324	70.4336
818.699	78.791
822.073	31.5957
825.448	75.7012
828.823	163.42
832.198	227.652
835.573	68.0762
838.948	185.285
842.322	78.1367
845.697	54.3359
849.072	130.006
852.447	227.424
855.822	144.916
859.197	7.62695
862.571	126.037
865.946	37.0273
869.321	106.617
872.696	76.2988
876.071	94.041
879.445	54.9102
882.82	4.86133
886.195	7.31641
889.57	123.678
892.945	191.44
896.319	106.158
899.694	123.238
903.069	136.832
906.444	159.734
909.819	233.607
913.193	111.07
916.568	26.5156
919.943	30.2754
923.318	135.139
926.693	128.549
930.068	121.328
933.442	101.295
936.817	102.688
940.192	32.8594
943.567	23.957
946.942	39.2109
950.317	181.598
953.691	2.41016
957.066	120.582
960.441	19.6602
963.816	65.7109
967.191	211.894
970.565	125.344
973.94	259.644
977.315	439.477
980.69	391.148
984.065	451.824
987.439	497.723
990.814	493.16
994.189	447.316
997.564	553.68
1000.94	407.656
1004.31	515.766
1007.69	473.805
1011.06	197.875
1014.44	30.1914
1017.81	135.965
1021.19	212.363
1024.56	148.777
1027.94	96.0664
1031.31	166.445
1034.69	258.961
1038.06	262.188
1041.44	216.738
1044.81	292.156
1048.19	387.609
1051.56	417.144
1054.94	565.273
1058.31	605.195
1061.68	597.211
1065.06	674.125
1068.43	909.199
1071.81	979.094
1075.18	1190.95
1078.56	1431.42
1081.93	1265.77
1085.31	1205.6
1088.68	1279.16
1092.06	1595.22
1095.43	1680.14
1098.81	1724.69
1102.18	1685.68
1105.56	1351.88
1108.93	1311.75
1112.31	1742.71
1115.68	1431.69
1119.06	488.438
1122.43	453.996
1125.81	94.5859
1129.18	170.082
1132.56	325.07
1135.93	115.844
1139.31	96.8281
1142.68	97.3828
1146.06	90.3555
1149.43	43.332
1152.81	84.9688
1156.18	140.707
1159.56	126.574
1162.93	9.91797
1166.31	156.723
1169.68	85.0234
1173.05	62.7031
1176.43	222.57
1179.8	161.25
1183.18	1.05859
1186.55	270.68
1189.93	430.617
1193.3	499.387
1196.68	339.262
1200.05	331.481
1203.43	355.004
1206.8	366.062
1210.18	147.035
1213.55	383.328
1216.93	291.902
1220.3	86.7656
1223.68	141.914
1227.05	110.356
1230.43	135.043
1233.8	8.34766
1237.18	131.019
1240.55	303.824
1243.92	466.691
1247.3	456.039
1250.67	431.406
1254.05	229.356
1257.42	168.332
1260.8	210.945
1264.17	407.375
1267.55	187.914
1270.92	173.703
1274.3	7.80859
1277.67	6.82812
