Measurement: Raman, 532 nm, unoriented, Raman Data Processed
Mineral: Maricite
Rruff sample: R070273
Ideal chemistry: NaFe^2+^PO_4_
Locality: Locality 16, Big Fish River, Richardson Mountains, Dawson Mining District, Yukon Territory, Canada
Source: Mark Mauthner
Description: Compact radiating aggregate of gray prismatic crystals (with bluish to brownish sections) in phosphate nodule.
Measured chemistry: Na_1.00_(Fe^2+^_0.90_Mn_0.06_Mg_0.03_Ca_0.01_)_Î£=1_P_1.00_O_4_
Raman shift (cm-1)	intensity
192.088	0
194.981	28.7461
197.874	74.8164
200.766	211.652
203.659	358.277
206.552	460.684
209.444	597.781
212.337	804.754
215.23	921.066
218.122	1469.11
221.015	1697.02
223.908	1534.93
226.8	1286.13
229.693	1169.59
232.586	738.555
235.479	735.551
238.371	765.606
241.264	1019.41
244.157	1043.36
247.049	1408.12
249.942	1925.04
252.835	2436.47
255.727	2618.98
258.62	2060.78
261.513	1226.26
264.406	618.918
267.298	590.266
270.191	244.555
273.084	450.387
275.976	362.805
278.869	266.156
281.762	309.856
284.655	63.9766
287.547	21.7969
290.44	77.332
293.333	119.82
296.225	223.731
299.118	67.5352
302.011	137.191
304.904	7.64062
307.796	220.043
310.689	296.328
313.582	166.547
316.474	367.863
319.367	606.504
322.26	869.234
325.152	826.383
328.045	1018.05
330.938	1444.2
333.83	1163.77
336.723	964.144
339.616	763.453
342.509	628.391
345.401	317.25
348.294	183.844
351.187	139.453
354.079	379.875
356.972	174.727
359.865	3.96875
362.757	68.7891
365.65	37.7422
368.543	23.5938
371.436	121.766
374.328	46.4688
377.221	53.9844
380.114	13.3203
383.006	277.398
385.899	241.266
388.792	202.297
391.685	293.852
394.577	205.781
397.47	497.578
400.363	506.172
403.255	836.938
406.148	896.062
409.041	1165.58
411.933	1970.78
414.826	2432.94
417.719	3066.57
420.611	4292.61
423.504	6058.17
426.397	8740.62
429.29	12196.3
432.182	16100.6
435.075	19752.1
437.968	21744.5
440.86	20652.6
443.753	17855.8
446.646	15714.6
449.538	13169.9
452.431	9372.12
455.324	7174.56
458.217	6413.64
461.109	6674.36
464.002	6797.25
466.895	6340.93
469.787	4208.36
472.68	2740.45
475.573	1935.84
478.466	1227.15
481.358	685.852
484.251	601.094
487.144	293.242
490.036	277.281
492.929	137.195
495.822	431
498.714	15.1328
501.607	91.1484
504.5	38
507.393	60.8984
510.285	28.4453
513.178	48.8203
516.071	22.5469
518.963	61.3359
521.856	78.1172
524.749	26.6016
527.641	115.57
530.534	96.7891
533.427	245.695
536.32	118.336
539.212	148.227
542.105	711.609
544.998	1128.19
547.89	1944.5
550.783	3559.77
553.676	5625.5
556.568	5395.71
559.461	5933.41
562.354	8442.81
565.247	12392
568.139	17144.8
571.032	12274.2
573.925	5229.38
576.817	2222.48
579.71	1128.9
582.603	477.703
585.495	473.492
588.388	337.625
591.281	504.586
594.174	780.594
597.066	1297.26
599.959	2373.2
602.852	3859.6
605.744	5868.34
608.637	6934.61
611.53	5456.44
614.423	4679.52
617.315	5302.61
620.208	6403.01
623.101	4787.64
625.993	2472.38
628.886	1357.67
631.779	843.258
634.671	671.781
637.564	302.438
640.457	449.523
643.35	264.32
646.242	179.391
649.135	367.719
652.028	248.898
654.92	160.484
657.813	342.5
660.706	262.938
663.598	136.008
666.491	14.9141
669.384	248.305
672.277	144.68
675.169	131.719
678.062	138.586
680.955	92.8594
683.847	160.922
686.74	64.8516
689.633	121.617
692.525	103.484
695.418	285.406
698.311	17.2969
701.204	8.03906
704.096	7.39062
706.989	130.32
709.882	83.9141
712.774	105.703
715.667	50.7734
718.56	37.4609
721.452	2.33594
724.345	230.906
727.238	151.203
730.131	83.5703
733.023	129.031
735.916	128.844
738.809	145.141
741.701	264.961
744.594	83.8203
747.487	2.32031
750.38	50.25
753.272	114.383
756.165	151.352
759.058	170.047
761.95	262.836
764.843	267.18
767.736	244.07
770.628	244.086
773.521	29.2188
776.414	181.93
779.307	201.039
782.199	215.008
785.092	231.164
787.985	330.18
790.877	80.2812
793.77	252.461
796.663	398.602
799.555	530.555
802.448	333.984
805.341	229.672
808.234	208.133
811.126	414.914
814.019	250.156
816.912	450.398
819.804	10.6484
822.697	301.367
825.59	158.602
828.482	133.609
831.375	68.2422
834.268	458.875
837.16	278.602
840.053	170.617
842.946	443.398
845.839	386.898
848.731	327.117
851.624	165.391
854.517	472.055
857.409	252.266
860.302	165.828
863.195	175.133
866.087	248.023
868.98	344.992
871.873	345.859
874.766	184.953
877.658	214.547
880.551	97.9062
883.444	87.1016
886.337	113.734
889.229	4.30469
892.122	39.6719
895.015	62.3438
897.907	94.5547
900.8	199.203
903.693	64.1016
906.585	9.71875
909.478	252.609
912.371	260.086
915.264	52.1875
918.156	39.3984
921.049	241.375
923.942	412.516
926.834	604.305
929.727	886.875
932.62	1874.34
935.512	3036.01
938.405	5703.68
941.298	11652.9
944.191	24969.2
947.083	48760.2
949.976	83494.8
952.869	126324
955.761	104952
958.654	45274.5
961.547	21098.6
964.439	13202.4
967.332	10964.2
970.225	11598.2
973.117	15219.6
976.01	23906
978.903	37232.1
981.796	38996.1
984.688	16367.4
987.581	6181.8
990.474	3130.7
993.366	2169.53
996.259	1585.68
999.152	1979.73
1002.04	2253.73
1004.94	3625.6
1007.83	5446.39
1010.72	9501.95
1013.62	17828.8
1016.51	32656.5
1019.4	53368
1022.29	62271.9
1025.19	33286
1028.08	11771.3
1030.97	4698.57
1033.86	1714.76
1036.76	477.133
1039.65	94.6953
1042.54	226.508
1045.43	313.742
1048.33	34.6328
1051.22	119.227
1054.11	812.352
1057.01	2704.61
1059.9	6508.83
1062.79	12578
1065.68	19923.6
1068.58	20749.9
1071.47	12567.8
1074.36	6604.02
1077.26	4072.68
1080.15	3329.88
1083.04	3933.82
1085.93	5961.43
1088.83	8555.36
1091.72	10783
1094.61	9914.29
1097.5	6828.65
1100.4	4291.8
1103.29	2505.82
1106.18	1645.19
1109.07	851.234
1111.97	418.648
1114.86	223.812
1117.75	122.305
1120.64	43.1484
1123.54	73.5078
1126.43	40.5859
1129.32	87.0078
1132.22	106.844
1135.11	47.0938
1138	194.398
1140.89	279.461
1143.79	211.266
1146.68	364.594
1149.57	213.039
1152.46	104.281
1155.36	34.9062
1158.25	233.312
1161.14	21.9766
1164.04	389.328
1166.93	187.219
1169.82	179.859
1172.71	56.1484
1175.61	265.906
1178.5	59.2812
1181.39	77.5234
1184.29	89.7578
1187.18	237.188
1190.07	414.469
1192.96	187.406
1195.86	12.5078
1198.75	260.703
1201.64	51.6797
1204.53	193.547
1207.43	196.203
1210.32	290.289
1213.21	257.141
1216.1	288.188
1219	315.719
1221.89	227.961
1224.78	153.211
1227.67	338.516
1230.57	284.406
1233.46	346.695
1236.35	513.773
1239.25	463.641
1242.14	370.289
1245.03	387.75
1247.92	333.836
1250.82	437
1253.71	593
1256.6	566.625
1259.49	413.078
1262.39	483.188
1265.28	477.164
1268.17	538.219
1271.07	532.164
1273.96	446.125
1276.85	363.562
1279.74	321.492
1282.64	388.047
1285.53	319.562
1288.42	281.18
1291.32	210.062
1294.21	125.547
1297.1	137.125
1299.99	254.359
1302.88	77.4141
1305.78	40.2422
1308.67	85.8516
1311.56	161.18
1314.46	129.508
