Measurement: Raman, 780 nm, unoriented, Raman Data Processed
Mineral: Marialite
Rruff sample: R100112
Ideal chemistry: Na_4_Al_3_Si_9_O_24_Cl
Locality: Sar-e-Sang District,  Koksha Valley,  Badakhshan Province,  Afghanistan
Source: Robert Woodside
Description: Colorless crystal fragment
Raman shift (cm-1)	intensity
95.8722	0
99.2471	44.4725
102.622	56.8732
105.997	110.654
109.371	167.204
112.746	90.3508
116.121	23.9984
119.496	43.1934
122.871	59.5515
126.246	62.2407
129.62	51.0784
132.995	26.0416
136.37	4.11923
139.745	12.904
143.12	11.0062
146.494	19.3684
149.869	63.9093
153.244	132.161
156.619	235.288
159.994	325.64
163.369	360.783
166.743	306.684
170.118	204.947
173.493	137.2
176.868	95.5298
180.243	81.2231
183.618	83.9764
186.992	99.2011
190.367	106.486
193.742	94.6834
197.117	73.54
200.492	57.248
203.866	51.6144
207.241	63.6698
210.616	56.8831
213.991	46.5979
217.366	60.6249
220.74	73.4886
224.115	63.8454
227.49	50.9911
230.865	34.4835
234.24	13.3804
237.615	1.51186
240.989	3.61441
244.364	4.66617
247.739	15.9773
251.114	39.9361
254.489	81.6434
257.863	146.996
261.238	200.548
264.613	197.03
267.988	131.705
271.363	74.5223
274.738	34.9398
278.112	27.7635
281.487	28.5225
284.862	39.5993
288.237	50.5256
291.612	45.3542
294.986	41.6705
298.361	54.5215
301.736	35.8533
305.111	8.68594
308.486	0.022873
311.861	2.92754
315.235	7.19448
318.61	1.46953
321.985	4.60351
325.36	12.0301
328.735	22.4022
332.109	34.1955
335.484	42.3088
338.859	46.1395
342.234	36.7274
345.609	39.9738
348.984	43.6863
352.358	60.5731
355.733	88.1963
359.108	119.565
362.483	129.715
365.858	97.0121
369.233	62.6146
372.607	55.3833
375.982	52.4956
379.357	51.9613
382.732	39.7912
386.106	38.4462
389.481	22.2822
392.856	15.4722
396.231	5.59863
399.606	1.25633
402.981	3.05907
406.355	1.24164
409.73	5.726
413.105	14.6627
416.48	28.5522
419.855	39.776
423.229	44.1242
426.604	34.918
429.979	34.1272
433.354	45.731
436.729	74.3568
440.104	124.087
443.478	170.022
446.853	255.827
450.228	425.08
453.603	724.923
456.978	975.527
460.353	1009.92
463.727	803.185
467.102	529.04
470.477	328.943
473.852	201.62
477.227	124.032
480.601	78.2077
483.976	50.3793
487.351	26.5332
490.726	18.345
494.101	8.94453
497.476	5.46286
500.85	0.042252
504.225	0.336792
507.6	2.30354
510.975	0.204384
514.35	2.45536
517.724	6.86455
521.099	16.9137
524.474	34.9693
527.849	67.1475
531.224	138.487
534.598	262.818
537.973	368.845
541.348	275.015
544.723	146.546
548.098	78.1955
551.472	43.025
554.847	24.2692
558.222	20.0658
561.597	11.4709
564.972	9.89536
568.347	6.3091
571.721	6.53648
575.096	3.67136
578.471	4.91225
581.846	7.81819
585.221	7.70755
588.596	10.5377
591.97	11.6674
595.345	12.0928
598.72	12.7713
602.095	13.2121
605.47	9.47989
608.845	7.75925
612.219	7.04148
615.594	5.70185
618.969	5.16317
622.344	4.55407
625.719	2.64961
629.093	3.05677
632.468	0.405457
635.843	0.690849
639.218	2.58952
642.593	3.55668
645.967	0.220734
649.342	2.88368
652.717	0.187706
656.092	0.129074
659.467	3.31433
662.842	3.71801
666.216	3.53896
669.591	2.40394
672.966	2.68476
676.341	0.765045
679.716	0.76902
683.091	1.19097
686.465	0.33522
689.84	2.25063
693.215	2.16974
696.59	2.28585
699.965	1.85462
703.339	3.66191
706.714	6.5965
710.089	8.30321
713.464	9.97514
716.839	11.3518
720.213	7.26603
723.588	6.18382
726.963	5.4707
730.338	0.164268
733.713	3.85873
737.087	3.03204
740.462	3.37181
743.837	5.61807
747.212	5.4496
750.587	12.1246
753.962	22.5865
757.336	31.0336
760.711	46.2448
764.086	65.3986
767.461	84.5727
770.836	104.89
774.211	119.011
777.585	117.611
780.96	92.6553
784.335	56.1224
787.71	32.8179
791.085	16.3684
794.459	6.77125
797.834	6.1997
801.209	6.98071
804.584	12.1821
807.959	20.6858
811.333	25.6409
814.708	14.3572
818.083	4.64809
821.458	0.607635
824.833	1.09177
828.208	0.470592
831.582	0.687641
834.957	0.690605
838.332	0.970573
841.707	0.832989
845.082	0.418671
848.457	4.51978
851.831	0.147533
855.206	2.21363
858.581	3.40791
861.956	4.98834
865.331	2.63356
868.705	3.48881
872.08	4.64042
875.455	2.66793
878.83	3.99155
882.205	5.25423
885.58	6.39918
888.954	3.75279
892.329	4.2281
895.704	2.55044
899.079	5.666
902.454	1.98946
905.828	0.749588
909.203	2.66288
912.578	5.78163
915.953	1.27425
919.328	1.71097
922.702	2.4039
926.077	0.864983
929.452	0.232941
932.827	1.81096
936.202	1.19904
939.577	0.820778
942.951	0.543186
946.326	1.198
949.701	2.78825
953.076	4.50874
956.451	6.07437
959.825	2.90412
963.2	4.0277
966.575	4.12899
969.95	1.40619
973.325	5.37133
976.699	5.89514
980.074	13.6263
983.449	24.0402
986.824	37.5656
990.199	54.8293
993.574	73.4132
996.948	59.5521
1000.32	23.0976
1003.7	10.5647
1007.07	3.78467
1010.45	5.02225
1013.82	0.88036
1017.2	2.06353
1020.57	3.76321
1023.95	0.963627
1027.32	1.74566
1030.7	0.565769
1034.07	2.30812
1037.45	2.88555
1040.82	1.44598
1044.2	5.08137
1047.57	1.90133
1050.94	4.69875
1054.32	9.65218
1057.69	12.469
1061.07	14.9404
1064.44	21.2938
1067.82	28.8752
1071.19	35.9532
1074.57	45.2891
1077.94	45.9932
1081.32	47.2069
1084.69	51.8923
1088.07	56.8833
1091.44	67.8514
1094.82	81.9854
1098.19	96.2407
1101.57	86.2485
1104.94	62.1608
1108.32	47.4209
1111.69	60.9639
1115.07	79.6905
1118.44	26.0428
1121.82	1.57787
1125.19	0.920319
1128.57	0.447868
1131.94	2.1552
1135.32	2.08728
1138.69	1.3309
1142.07	0.867973
1145.44	2.98241
1148.82	2.39442
1152.19	5.93162
1155.57	12.9358
1158.94	21.5847
1162.31	29.4191
1165.69	44.2109
1169.06	55.5464
1172.44	71.3109
1175.81	79.6937
1179.19	99.235
1182.56	115.577
1185.94	132.725
1189.31	148.352
1192.69	160.586
1196.06	172.586
1199.44	180.657
1202.81	185.789
1206.19	184.817
1209.56	180.468
1212.94	177.733
1216.31	170.053
1219.69	163.677
1223.06	155.962
1226.44	147.028
1229.81	139.473
1233.19	125.769
1236.56	112.963
1239.93	99.4568
1243.31	86.2012
1246.68	73.595
1250.06	58.7573
1253.43	48.7286
1256.81	35.6338
1260.18	30.1289
1263.56	21.5266
1266.93	15.0653
1270.31	7.92563
1273.68	5.00711
1277.06	1.70178
1280.43	0.297668
1283.81	0.823822
