Measurement: Raman, 532 nm, unoriented, Raman Data Processed
Mineral: Marinellite
Rruff sample: R070078
Ideal chemistry: Na_42_Ca_6_Al_36_Si_36_O_144_(SO_4_)_8_Cl_2_6H_2_O
Locality: Monte Cavalluccio, Sacrofano, Campagnano di Roma, Italy
Source: Michael Scott
Description: Colorless to pale bluish-gray anhedral crystals
Raman shift (cm-1)	intensity
137.163	0
140.538	5.19971
143.913	138.276
147.288	471.134
150.663	642.412
154.038	740.595
157.412	774.003
160.787	827.976
164.162	1020.99
167.537	1097.44
170.912	1158.93
174.286	1166.92
177.661	1149.98
181.036	1115.27
184.411	1063.96
187.786	1004.51
191.161	884.824
194.535	815.948
197.91	761.11
201.285	612.646
204.66	508.13
208.035	381.981
211.41	351.437
214.784	210.481
218.159	155.398
221.534	85.7139
224.909	68.1436
228.284	108.049
231.658	11.2002
235.033	19.0942
238.408	39.3633
241.783	5.18555
245.158	24.5317
248.532	17.3052
251.907	49.2114
255.282	14.9194
258.657	6.01221
262.032	51.9248
265.407	81.0254
268.781	95.1069
272.156	113.726
275.531	194.647
278.906	54.229
282.281	68.6704
285.656	58.3364
289.03	27.3232
292.405	35.3955
295.78	31.5933
299.155	37.0386
302.53	14.105
305.904	41.0166
309.279	15.4668
312.654	39.541
316.029	82.0913
319.404	112.621
322.779	118.496
326.153	224.968
329.528	234.66
332.903	255.703
336.278	297.066
339.653	279.861
343.027	278.674
346.402	234.929
349.777	164.714
353.152	164.132
356.527	82.9746
359.901	15.7817
363.276	59.3565
366.651	31.9917
370.026	43.5225
373.401	67.5293
376.776	50.4731
380.15	0.119141
383.525	68.0127
386.9	93.8223
390.275	142.467
393.65	123.443
397.024	161.49
400.399	200.367
403.774	327.88
407.149	447.129
410.524	600.878
413.899	857.422
417.273	1150.24
420.648	1491.72
424.023	1888.97
427.398	2271.38
430.773	2481.36
434.147	2709.5
437.522	2895.77
440.897	3139.11
444.272	3491.12
447.647	3698.39
451.022	3999.33
454.396	4034.01
457.771	3982.52
461.146	3763.05
464.521	3401.6
467.896	2996.83
471.271	2566.88
474.645	2081.91
478.02	1667.82
481.395	1378.74
484.77	1070.25
488.145	933.898
491.519	808.113
494.894	727.888
498.269	683.047
501.644	593.398
505.019	486.289
508.394	336.454
511.768	195.106
515.143	47.4644
518.518	50.4258
521.893	21.1157
525.268	48.0767
528.642	61.5698
532.017	30.8359
535.392	40.4067
538.767	24.7856
542.142	16.457
545.516	3.86914
548.891	95.0176
552.266	54.3921
555.641	76.2363
559.016	100.824
562.391	35.6465
565.765	110.305
569.14	22.667
572.515	7.60156
575.89	52.3145
579.265	121.699
582.639	92.5332
586.014	74.8486
589.389	209.574
592.764	295.792
596.139	335.729
599.514	503.183
602.888	699.9
606.263	1034.7
609.638	1418.39
613.013	1766.63
616.388	1995
619.763	2148.52
623.137	2252.14
626.512	2240.67
629.887	1892.45
633.262	1383.05
636.637	1041.26
640.011	891.293
643.386	922.124
646.761	915.027
650.136	895.394
653.511	748.755
656.885	440.453
660.26	308.332
663.635	225.716
667.01	250.802
670.385	243.328
673.76	257.579
677.134	194.773
680.509	232.541
683.884	138.833
687.259	145.685
690.634	5.1543
694.009	28.376
697.383	80.1475
700.758	44.2275
704.133	31.8535
707.508	83.4375
710.883	34.7978
714.257	21.2666
717.632	4.57031
721.007	104.228
724.382	75.8418
727.757	152.435
731.131	122.861
734.506	143.578
737.881	205.904
741.256	226.67
744.631	220.05
748.006	248.966
751.38	212.787
754.755	347.785
758.13	237.352
761.505	115.277
764.88	146.79
768.255	65.7832
771.629	6.50098
775.004	11.04
778.379	83.9385
781.754	47.7041
785.129	24.6846
788.503	105.053
791.878	18.9102
795.253	48.7803
798.628	15.8613
802.003	150.797
805.378	70.9531
808.752	129.804
812.127	71.8633
815.502	5.41016
818.877	105.049
822.252	64.6045
825.626	29.1328
829.001	51.1123
832.376	21.0635
835.751	35.3398
839.126	68.7617
842.5	62.3496
845.875	69.1318
849.25	130.433
852.625	42.5176
856	140.353
859.375	28.8232
862.749	105.811
866.124	102.82
869.499	65.1904
872.874	91.8799
876.249	153.554
879.624	85.1924
882.998	34.7549
886.373	148.634
889.748	126.973
893.123	35.0674
896.498	31.1768
899.872	10.126
903.247	63.8584
906.622	148.853
909.997	29.6777
913.372	55.5
916.746	53.0869
920.121	70.0439
923.496	87.2129
926.871	18.4453
930.246	45.3262
933.621	13.915
936.995	0.432617
940.37	18.9951
943.745	14.0879
947.12	11.9922
950.495	64.918
953.87	135.849
957.244	223.817
960.619	344.012
963.994	609.302
967.369	1198.88
970.744	1836.76
974.118	2490.3
977.493	3352.76
980.868	4797.37
984.243	7047.84
987.618	9232.24
990.992	11124.9
994.367	10746
997.742	7735.16
1001.12	4446.9
1004.49	3187.28
1007.87	2632.08
1011.24	2008.36
1014.62	1334.33
1017.99	691.383
1021.37	544.75
1024.74	575.418
1028.12	716.901
1031.49	651.819
1034.87	717.352
1038.24	646.632
1041.62	469.79
1044.99	320.106
1048.36	190.321
1051.74	138.485
1055.11	70.0205
1058.49	191.131
1061.86	119.452
1065.24	8.22559
1068.61	65.668
1071.99	17.6562
1075.36	39.9971
1078.74	26.3223
1082.11	38.4805
1085.49	101.808
1088.86	162.358
1092.24	95.7246
1095.61	229.996
1098.99	218.775
1102.36	119.328
1105.74	93.1143
1109.11	246.223
1112.49	216.128
1115.86	75.5762
1119.24	186.82
1122.61	327.787
1125.98	423.857
1129.36	512.133
1132.73	486
1136.11	597.305
1139.48	561.508
1142.86	673.406
1146.23	796.379
1149.61	726.084
1152.98	690.898
1156.36	700.602
1159.73	619.064
1163.11	645.674
1166.48	622.207
1169.86	544.674
1173.23	441.625
1176.61	275.34
1179.98	317.06
1183.36	241.539
1186.73	231.117
1190.11	202.705
1193.48	166.568
1196.86	23.3594
1200.23	72.0586
1203.61	24.0039
1206.98	120.352
1210.36	42.7324
1213.73	31.0137
1217.11	61.834
1220.48	18.8691
1223.86	40.0859
1227.23	166.074
1230.61	167.488
1233.98	98.1797
1237.35	49.6992
1240.73	97.4766
1244.1	138.391
1247.48	78.916
1250.85	95.4434
1254.23	125.17
1257.6	100.369
1260.98	7.54688
1264.35	135.324
1267.73	122.123
1271.1	85.9473
1274.48	248.193
1277.85	53.7656
1281.23	42.3184
1284.6	117.732
1287.98	169.1
1291.35	34.2129
1294.73	87.1699
1298.1	105.26
1301.48	76.7656
1304.85	131.914
1308.22	3.66992
1311.6	37.0039
