Measurement: Raman, 780 nm, unoriented, Raman Data Processed
Mineral: Marialite
Rruff sample: R060526
Ideal chemistry: Na_4_Al_3_Si_9_O_24_Cl
Locality: Minas Gerais, Brazil
Source: Michael Scott
Description: Heavily striated pale yellow elongated prism
Measured chemistry: (Na_0.62_Ca_0.33_K_0.05_)_4_(Si_0.66_Al_0.34_)_12_O_24_(Cl_0.77_(CO_3_)_0.23_)
Raman shift (cm-1)	intensity
112.455	0
115.348	3.45877
118.24	0.914978
121.133	0.749619
124.026	2.57852
126.918	5.27977
129.811	4.92044
132.704	3.59175
135.596	3.52193
138.489	10.5772
141.382	22.6458
144.275	39.7129
147.167	63.1551
150.06	91.3947
152.953	119.91
155.845	136.325
158.738	147.856
161.631	147.972
164.524	128.122
167.416	97.057
170.309	62.6963
173.202	36.6141
176.094	22.0637
178.987	17.5278
181.88	17.2776
184.772	25.175
187.665	28.0428
190.558	31.4547
193.451	34.492
196.343	31.1925
199.236	32.015
202.129	34.6088
205.021	38.9386
207.914	34.8407
210.807	24.3716
213.699	19.9886
216.592	22.0641
219.485	19.4831
222.377	21.9048
225.27	20.442
228.163	14.5357
231.056	7.07692
233.948	3.2476
236.841	0.207748
239.734	1.85762
242.626	0.880737
245.519	2.37213
248.412	6.12369
251.304	12.8764
254.197	22.6863
257.09	35.7638
259.983	46.5165
262.875	50.1726
265.768	41.9943
268.661	26.7548
271.553	19.5515
274.446	13.1876
277.339	15.5879
280.231	19.2405
283.124	25.694
286.017	38.7732
288.909	44.476
291.802	33.2255
294.695	23.8162
297.588	25.2809
300.48	10.5625
303.373	1.1074
306.266	0.539993
309.158	2.43928
312.051	2.19002
314.944	0.151428
317.837	3.08276
320.729	7.35019
323.622	11.8443
326.515	18.6349
329.407	25.2927
332.3	34.9438
335.193	36.605
338.085	29.17
340.978	22.2579
343.871	17.7216
346.764	15.7022
349.656	17.7998
352.549	22.0873
355.442	26.9721
358.334	35.3328
361.227	37.2539
364.12	25.7845
367.012	17.4867
369.905	14.2241
372.798	12.2601
375.69	13.8946
378.583	13.6635
381.476	10.5045
384.369	9.14489
387.261	6.3806
390.154	4.55607
393.047	0.878334
395.939	1.3982
398.832	0.729645
401.725	0.11026
404.617	0.268127
407.51	1.61152
410.403	5.43346
413.296	7.50715
416.188	11.6014
419.081	15.2711
421.974	16.7714
424.866	17.785
427.759	22.8027
430.652	29.796
433.544	32.9647
436.437	46.8171
439.33	62.0716
442.223	79.3161
445.115	105.441
448.008	148.847
450.901	215.762
453.793	274.406
456.686	294.908
459.579	282.444
462.471	234.778
465.364	170.633
468.257	114.652
471.149	74.2684
474.042	47.6764
476.935	32.005
479.828	21.3635
482.72	14.7771
485.613	8.31377
488.506	5.21927
491.398	3.43468
494.291	0.850662
497.184	0.73156
500.077	0.272007
502.969	0.883427
505.862	1.6102
508.755	0.974285
511.647	0.099857
514.54	2.46135
517.433	6.83418
520.325	12.259
523.218	17.9862
526.111	27.5726
529.004	42.2047
531.896	65.3752
534.789	90.6295
537.682	88.9764
540.574	60.3293
543.467	36.4663
546.36	22.6332
549.252	14.6941
552.145	10.4165
555.038	6.88665
557.93	5.5349
560.823	4.70534
563.716	2.6757
566.609	2.77774
569.501	2.76719
572.394	2.24114
575.287	3.43422
578.179	3.45853
581.072	4.88547
583.965	5.88964
586.857	6.39239
589.75	7.06394
592.643	6.60073
595.535	6.9857
598.428	7.75782
601.321	8.689
604.214	9.104
607.106	10.9111
609.999	11.9023
612.892	12.2193
615.784	8.84871
618.677	4.80856
621.57	2.69053
624.462	2.81733
627.355	1.50427
630.248	1.67657
633.141	0.210083
636.033	0.263725
638.926	0.659222
641.819	0.102924
644.711	0.555862
647.604	0.2957
650.497	0.526985
653.389	0.748009
656.282	1.03311
659.175	1.60038
662.068	2.90128
664.96	3.31299
667.853	1.23395
670.746	2.47015
673.638	2.66716
676.531	4.84322
679.424	5.12336
682.317	3.2662
685.209	2.50129
688.102	1.79805
690.995	2.74221
693.887	1.5106
696.78	2.16554
699.673	3.10771
702.565	3.66811
705.458	3.87969
708.351	4.64786
711.243	5.332
714.136	5.64419
717.029	5.13087
719.922	5.95266
722.814	6.93266
725.707	7.30084
728.6	7.6004
731.492	8.43551
734.385	7.03384
737.278	5.81435
740.17	5.77785
743.063	7.30626
745.956	7.9192
748.848	9.88069
751.741	11.7499
754.634	14.6142
757.527	16.2773
760.419	20.0414
763.312	26.6108
766.205	31.282
769.097	36.8491
771.99	39.1166
774.883	39.3268
777.775	33.5338
780.668	22.6822
783.561	11.2391
786.454	6.92122
789.346	4.25135
792.239	3.38187
795.132	3.11793
798.024	3.91155
800.917	4.92501
803.81	7.08601
806.702	10.091
809.595	8.83017
812.488	4.56519
815.381	1.02567
818.273	0.88616
821.166	0.188442
824.059	0.193302
826.951	0.541849
829.844	0.455503
832.737	0.421377
835.63	0.148418
838.522	0.179136
841.415	0.32852
844.308	0.419619
847.2	0.798613
850.093	0.147987
852.986	1.07415
855.878	0.382895
858.771	0.868902
861.664	0.91317
864.557	0.483904
867.449	1.88343
870.342	1.0575
873.235	1.24005
876.127	1.82249
879.02	1.90778
881.913	2.14803
884.805	1.74625
887.698	1.66945
890.591	1.63375
893.483	2.68422
896.376	1.76035
899.269	2.38478
902.162	1.52662
905.054	2.09082
907.947	0.403709
910.84	0.597792
913.732	1.73723
916.625	0.998108
919.518	0.491409
922.41	0.185444
925.303	0.57572
928.196	0.175161
931.088	0.279631
933.981	0.477221
936.874	0.643061
939.767	0.65082
942.659	0.234097
945.552	0.866282
948.445	0.202158
951.337	0.310408
954.23	1.18458
957.123	1.48913
960.015	0.892918
962.908	0.430349
965.801	1.72675
968.693	0.617519
971.586	1.39427
974.479	2.21087
977.372	3.7151
980.264	3.80985
983.157	5.27842
986.05	4.70531
988.942	3.61367
991.835	3.56221
994.728	3.56131
997.62	1.99177
1000.51	1.5021
1003.41	1.57105
1006.3	0.804621
1009.19	1.898
1012.08	1.71561
1014.98	1.53448
1017.87	2.09083
1020.76	1.73673
1023.65	1.70611
1026.55	1.96956
1029.44	2.61558
1032.33	2.85778
1035.23	3.75261
1038.12	4.75555
1041.01	4.31765
1043.9	4.56911
1046.8	4.4798
1049.69	4.52601
1052.58	4.81036
1055.47	6.55742
1058.37	7.50289
1061.26	9.8075
1064.15	12.5028
1067.05	16.0328
1069.94	16.4768
1072.83	18.4245
1075.72	16.8456
1078.62	15.854
1081.51	14.073
1084.4	13.2153
1087.29	13.4028
1090.19	16.2853
1093.08	15.7279
1095.97	17.0233
1098.87	17.9925
1101.76	15.0193
1104.65	11.3226
1107.54	14.2641
1110.44	26.858
1113.33	42.1509
1116.22	17.3858
1119.11	1.04523
1122.01	2.02714
1124.9	1.12623
1127.79	4.40309
1130.68	9.11018
1133.58	15.4634
1136.47	22.3037
1139.36	16.5577
1142.26	12.7503
1145.15	11.3111
1148.04	7.55183
1150.93	5.14012
1153.83	0.108704
