Measurement: Raman, 785 nm, unoriented, Raman Data Processed
Mineral: Marialite
Rruff sample: R040113
Ideal chemistry: Na_4_Al_3_Si_9_O_24_Cl
Locality: Gouverneur, New York, USA
Source: University of Arizona Mineral Museum
Description: Green prismatic crystal
Measured chemistry: (Na_0.50_Ca_0.43_K_0.07_)_4_(Si_0.64_Al_0.36_)_12_O_24_(Cl_0.60_(CO_3_)_0.40_)
Raman shift (cm-1)	intensity
148.982	0
151.875	324.31
154.768	624.277
157.66	761.462
160.553	857.11
163.446	1050.76
166.338	1110.73
169.231	935.655
172.124	523.811
175.017	239.251
177.909	39.6645
180.802	18.2612
183.695	28.4346
186.587	195.838
189.48	309.392
192.373	410.724
195.265	503.702
198.158	503.006
201.051	510.198
203.944	556.516
206.836	610.622
209.729	541.092
212.622	370.554
215.514	393.465
218.407	395.778
221.3	422.267
224.192	360.315
227.085	333.228
229.978	186.645
232.87	124.548
235.763	15.1943
238.656	60.4717
241.549	68.6128
244.441	19.0112
247.334	18.8311
250.227	170.373
253.119	341.86
256.012	602.743
258.905	965.941
261.798	1273.92
264.69	1249.79
267.583	910.311
270.476	516.504
273.368	197.67
276.261	114.388
279.154	18.0903
282.046	8.86865
284.939	2.10352
287.832	85.7285
290.724	186.114
293.617	294.678
296.51	469.931
299.403	365.827
302.295	170.245
305.188	81.4033
308.081	7.58691
310.973	56.2312
313.866	50.1853
316.759	27.6399
319.651	3.74609
322.544	59.2122
325.437	90.4465
328.33	97.574
331.222	148.262
334.115	168.502
337.008	156.704
339.9	81.4751
342.793	60.2522
345.686	94.8423
348.579	207.891
351.471	279.398
354.364	478.093
357.257	636.788
360.149	730.888
363.042	630.116
365.935	431.176
368.827	231.717
371.72	207.198
374.613	228.083
377.505	299.445
380.398	300.445
383.291	318.397
386.184	235.756
389.076	189.238
391.969	92.1038
394.862	30.8735
397.754	14.7358
400.647	38.7126
403.54	32.7815
406.433	20.1211
409.325	39.2778
412.218	119.781
415.111	264.254
418.003	423.033
420.896	479.277
423.789	453.081
426.681	447.555
429.574	474.285
432.467	586.639
435.36	819.328
438.252	1219.81
441.145	1775.17
444.038	2650.36
446.93	3960.96
449.823	5632.15
452.716	7435.2
455.608	8139.27
458.501	8111.65
461.394	7376.22
464.286	6150.24
467.179	4502.73
470.072	3124.95
472.965	2146.87
475.857	1432.66
478.75	938.689
481.643	655.758
484.535	435.131
487.428	281.108
490.321	190.481
493.214	150.235
496.106	73.9299
498.999	31.8523
501.892	46.2437
504.784	46.0161
507.677	23.0029
510.57	8.73438
513.462	40.012
516.355	110.682
519.248	229.173
522.14	400.691
525.033	741.498
527.926	1220.2
530.819	1900.77
533.711	2494.66
536.604	2536.67
539.497	1920.51
542.389	1179.97
545.282	724.974
548.175	458.796
551.067	295.778
553.96	157.302
556.853	111.355
559.745	106.976
562.638	67.7051
565.531	72.4085
568.424	38.8174
571.316	1.42944
574.209	18.6419
577.102	23.8301
579.994	6.83765
582.887	38.6619
585.78	40.596
588.673	45.6875
591.565	81.968
594.458	0.483398
597.351	57.1409
600.243	59.2451
603.136	50.0249
606.029	96.1306
608.921	67.6592
611.814	77.5627
614.707	46.9543
617.6	24.8845
620.492	12.6821
623.385	7.03784
626.278	1.25293
629.17	0.684814
632.063	45.6821
634.956	7.98779
637.848	50.2954
640.741	37.9727
643.634	29.0015
646.527	56.2546
649.419	9.50879
652.312	37.7568
655.205	53.8865
658.097	65.105
660.99	72.8125
663.883	47.4026
666.775	82.8472
669.668	38.9248
672.561	82.4712
675.454	114.516
678.346	104.654
681.239	53.0125
684.132	40.6746
687.024	4.37476
689.917	30.7195
692.81	3.08106
695.702	6.70972
698.595	36.6318
701.488	82.6719
704.381	49.3218
707.273	135.695
710.166	66.1397
713.059	53.0361
715.951	28.5676
718.844	37.5642
721.737	20.4338
724.63	40.9504
727.522	55.4304
730.415	6.76514
733.308	91.3625
736.2	28.9495
739.093	96.5957
741.986	108.237
744.878	140.47
747.771	184.859
750.664	239.085
753.557	331.452
756.449	416.566
759.342	587.874
762.235	760.395
765.127	1021
768.02	1201.36
770.913	1299.67
773.805	1182.88
776.698	956.977
779.591	642.478
782.484	342.602
785.376	188.54
788.269	96.4924
791.162	51.5134
794.054	40.0767
796.947	27.7285
799.84	20.5652
802.732	9.81348
805.625	4.33276
808.518	8.98511
811.41	49.3264
814.303	3.35791
817.196	11.8635
820.089	1.49072
822.981	20.7476
825.874	33.8252
828.767	10.9893
831.659	22.5537
834.552	19.1543
837.445	35.2964
840.337	9.54126
843.23	35.4985
846.123	60.7703
849.016	4.80469
851.908	34.7146
854.801	52.9919
857.694	51.0769
860.586	58.9941
863.479	25.8242
866.372	57.1777
869.264	97.9998
872.157	56.4268
875.05	43.8623
877.943	76.5251
880.835	54.1621
883.728	61.2258
886.621	55.9898
889.513	23.2778
892.406	82.2288
895.299	46.4636
898.192	33.8914
901.084	24.5603
903.977	30.2568
906.87	33.3718
909.762	43.4919
912.655	62.5857
915.548	15.294
918.44	23.5227
921.333	8.54346
924.226	9.20703
927.119	13.1802
930.011	12.0134
932.904	22.6897
935.797	30.8105
938.689	38.6406
941.582	43.031
944.475	64.8892
947.367	55.0632
950.26	65.4282
953.153	78.2615
956.045	73.7519
958.938	94.5232
961.831	84.9956
964.724	92.8948
967.616	65.5952
970.509	71.9131
973.402	116.382
976.294	120.892
979.187	107.7
982.08	119.635
984.972	121.818
987.865	86.9116
990.758	66.5254
993.651	77.5706
996.543	30.4292
999.436	30.0557
1002.33	18.4456
1005.22	25.198
1008.11	17.291
1011.01	12.8506
1013.9	3.00977
1016.79	10.9929
1019.68	6.54394
1022.58	15.3127
1025.47	46.7727
1028.36	15.5925
1031.26	4.03198
1034.15	40.322
1037.04	18.9656
1039.93	29.6113
1042.83	30.981
1045.72	97.5618
1048.61	73.0681
1051.51	107.858
1054.4	142.112
1057.29	148.026
1060.18	157.924
1063.08	244.149
1065.97	288.263
1068.86	356.952
1071.75	394.565
1074.65	408.52
1077.54	457.132
1080.43	531.134
1083.32	668.793
1086.22	896.483
1089.11	1230.97
1092	1479.51
1094.89	1687.19
1097.79	1737.95
1100.68	1704.39
1103.57	1682.88
1106.47	1907.38
1109.36	1823.72
1112.25	1403.46
1115.14	709.558
1118.04	296.693
1120.93	128.85
1123.82	159.287
1126.71	90.7539
1129.61	83.8137
1132.5	70.1787
1135.39	58.6052
1138.29	55.8347
1141.18	29.9793
1144.07	16.5154
1146.96	1.11304
1149.86	3.21387
1152.75	46.5586
1155.64	5.1084
1158.53	24.8377
1161.43	22.196
1164.32	41.6687
1167.21	35.0879
1170.11	143.147
1173	78.4482
1175.89	137.669
1178.78	190.341
1181.68	164.527
1184.57	249.618
1187.46	236.969
1190.35	255.649
1193.25	263.005
1196.14	233.611
1199.03	218.244
1201.92	195.752
1204.82	233.112
1207.71	208.534
1210.6	220.911
1213.5	161.176
1216.39	171.563
1219.28	87.4512
1222.17	83.6362
1225.07	110.368
1227.96	96.8274
1230.85	20.7019
1233.74	47.8677
1236.64	31.5166
1239.53	57.8223
1242.42	10.6904
