Measurement: Raman, 532 nm, unoriented, Raman Data Processed
Mineral: Marialite
Rruff sample: R060458
Ideal chemistry: Na_4_Al_3_Si_9_O_24_Cl
Locality: Dading, Nepal
Source: Michael Scott
Description: Colorless elongated prism
Measured chemistry: (Na_0.52_Ca_0.47_K_0.01_)_4_(Al_0.36_Si_0.64_)_12_O_24_(Cl_0.44_(CO_3_)_0.56_)
Raman shift (cm-1)	intensity
126.34	0
129.714	28.0752
133.089	51.9576
136.464	50.9765
139.839	64.6064
143.214	91.9775
146.589	96.9007
149.963	86.3539
153.338	75.5632
156.713	78.6411
160.088	80.5578
163.463	75.4256
166.838	60.8849
170.212	37.5457
173.587	15.3637
176.962	0.889832
180.337	2.53799
183.712	5.78227
187.086	1.14581
190.461	4.31273
193.836	4.54259
197.211	5.01857
200.586	2.13213
203.96	1.50682
207.335	0.960602
210.71	1.8235
214.085	9.72607
217.46	18.8837
220.834	19.7967
224.209	20.6806
227.584	23.4938
230.959	18.3468
234.334	14.5464
237.709	9.10635
241.083	10.5373
244.458	16.4882
247.833	29.9853
251.208	50.7581
254.583	81.3933
257.957	120.943
261.332	153.114
264.707	145.867
268.082	98.7589
271.457	54.9926
274.832	28.4606
278.206	20.0461
281.581	18.5212
284.956	20.8375
288.331	33.3858
291.706	47.6671
295.08	72.3274
298.455	73.1166
301.83	32.297
305.205	12.7949
308.58	6.02063
311.955	2.01775
315.329	1.41397
318.704	0.740875
322.079	1.69455
325.454	0.282135
328.829	2.66527
332.204	5.65808
335.578	7.31221
338.953	15.1721
342.328	15.3598
345.703	19.2861
349.077	40.4065
352.452	38.9703
355.827	56.2743
359.202	62.1645
362.577	62.7544
365.952	42.0365
369.326	29.3112
372.701	22.9245
376.076	22.2578
379.451	25.5958
382.826	22.4438
386.2	19.0513
389.575	14.9001
392.95	4.9686
396.325	0.838898
399.7	0.703094
403.075	1.73215
406.449	2.62845
409.824	8.39896
413.199	19.5163
416.574	32.9
419.949	53.0574
423.324	53.5797
426.698	31.1733
430.073	20.8284
433.448	20.632
436.823	34.5167
440.198	58.6924
443.572	96.6975
446.947	150.844
450.322	225.333
453.697	306.708
457.072	315.335
460.447	299.058
463.821	260.632
467.196	192.377
470.571	124.362
473.946	78.7319
477.321	49.3143
480.695	32.3747
484.07	20.1045
487.445	12.1178
490.82	4.99799
494.195	0.64801
497.57	0.97464
500.944	0.601563
504.319	1.74026
507.694	0.544586
511.069	1.2496
514.444	7.15793
517.818	17.2988
521.193	36.8727
524.568	64.5869
527.943	110.751
531.318	174.815
534.692	237.617
538.067	206.345
541.442	122.939
544.817	66.3205
548.192	40.0606
551.567	25.0658
554.941	16.0613
558.316	12.3209
561.691	8.87442
565.066	5.53998
568.441	6.17908
571.816	3.20935
575.19	3.43701
578.565	3.13565
581.94	6.15082
585.315	5.33606
588.689	7.42596
592.064	8.37592
595.439	6.62305
598.814	7.18524
602.189	3.48517
605.564	3.72583
608.938	7.19287
612.313	4.14209
615.688	0.34433
619.063	2.72244
622.438	1.75913
625.812	0.354919
629.187	0.305267
632.562	1.22144
635.937	1.59125
639.312	1.69861
642.687	1.26837
646.061	0.544128
649.436	1.83908
652.811	0.57074
656.186	5.5459
659.561	4.48727
662.936	1.93979
666.31	0.99646
669.685	0.503479
673.06	5.16907
676.435	6.62656
679.81	0.060028
683.184	1.15686
686.559	0.81604
689.934	0.626526
693.309	1.39807
696.684	1.47256
700.058	3.32401
703.433	4.50049
706.808	3.88437
710.183	8.82507
713.558	7.41647
716.933	7.66919
720.307	9.31613
723.682	3.28574
727.057	7.59744
730.432	6.7337
733.807	9.57715
737.182	12.1974
740.556	15.6729
743.931	19.7456
747.306	24.3684
750.681	34.9635
754.056	44.7286
757.43	61.1458
760.805	80.4672
764.18	105.46
767.555	122.919
770.93	121.698
774.304	102.695
777.679	69.6204
781.054	38.6142
784.429	21.8267
787.804	11.6115
791.178	6.28433
794.553	2.39795
797.928	4.09009
801.303	3.22168
804.678	5.85019
808.053	4.24731
811.427	0.939606
814.802	2.54794
818.177	0.945374
821.552	0.485229
824.927	2.14807
828.302	2.7019
831.676	0.337463
835.051	2.26837
838.426	0.878845
841.801	1.02399
845.176	2.33337
848.55	0.172363
851.925	5.10632
855.3	3.17035
858.675	3.12189
862.05	3.57196
865.424	1.48859
868.799	5.95178
872.174	6.88947
875.549	6.93756
878.924	3.72217
882.299	6.61646
885.673	3.76276
889.048	2.7724
892.423	1.39398
895.798	3.63776
899.173	6.48206
902.548	3.19525
905.922	0.597046
909.297	2.29083
912.672	1.49048
916.047	1.48352
919.422	3.7547
922.796	0.947388
926.171	0.592834
929.546	1.7757
932.921	1.37402
936.296	0.704407
939.67	0.985596
943.045	1.76996
946.42	1.57446
949.795	2.90015
953.17	4.2027
956.545	1.29224
959.919	3.88684
963.294	3.87048
966.669	4.31073
970.044	3.38086
973.419	2.6087
976.793	8.13879
980.168	9.17889
983.543	5.53131
986.918	10.6182
990.293	7.64972
993.668	9.38806
997.042	6.37964
1000.42	6.21967
1003.79	1.42993
1007.17	0.862366
1010.54	3.25378
1013.92	0.770996
1017.29	0.951904
1020.67	0.454895
1024.04	0.972534
1027.42	3.62915
1030.79	6.48785
1034.16	6.51062
1037.54	10.6636
1040.91	5.81012
1044.29	9.53223
1047.66	7.44952
1051.04	10.2652
1054.41	13.0463
1057.79	15.476
1061.16	15.8366
1064.54	22.6216
1067.91	27.1108
1071.29	33.3238
1074.66	35.9776
1078.04	41.8991
1081.41	49.5801
1084.79	61.6349
1088.16	79.747
1091.54	95.3469
1094.91	107.485
1098.29	99.7266
1101.66	85.8437
1105.04	71.3582
1108.41	65.3297
1111.79	41.9376
1115.16	20.317
1118.54	7.4447
1121.91	6.85046
1125.29	8.43921
1128.66	4.68243
1132.04	2.0238
1135.41	2.6557
1138.79	0.156311
1142.16	1.66339
1145.53	2.49927
1148.91	0.802856
1152.28	0.759583
1155.66	0.602234
1159.03	5.70367
1162.41	1.01562
1165.78	3.65332
1169.16	1.13397
1172.53	5.02411
1175.91	4.9223
1179.28	9.5755
1182.66	12.9108
1186.03	9.0672
1189.41	8.31256
1192.78	10.847
1196.16	11.691
1199.53	11.6968
1202.91	10.9413
1206.28	11.5263
1209.66	7.39221
1213.03	7.3493
1216.4	6.3996
1219.78	0.888794
1223.15	8.96442
1226.53	4.74731
1229.9	0.943787
1233.28	4.26666
1236.65	2.46509
1240.03	2.22784
1243.4	4.04956
1246.78	7.33337
1250.15	5.39685
1253.53	4.02283
1256.9	1.41553
1260.28	4.58337
1263.65	5.66614
1267.03	3.62439
1270.4	6.70911
1273.78	2.87146
1277.15	5.61719
1280.53	2.97266
1283.9	0.459473
1287.28	3.89771
1290.65	1.03882
1294.03	6.74316
1297.4	0.755249
1300.78	4.80408
1304.15	2.81812
