Measurement: Raman, 785 nm, unoriented, Raman Data Processed
Mineral: Marinellite
Rruff sample: R070078
Ideal chemistry: Na_42_Ca_6_Al_36_Si_36_O_144_(SO_4_)_8_Cl_2_6H_2_O
Locality: Monte Cavalluccio, Sacrofano, Campagnano di Roma, Italy
Source: Michael Scott
Description: Colorless to pale bluish-gray anhedral crystals
Raman shift (cm-1)	intensity
159.397	0
162.29	50.9785
165.183	214.521
168.075	435.778
170.968	580.292
173.861	677.735
176.754	620.352
179.646	716.351
182.539	665.446
185.432	668.721
188.324	672.883
191.217	647.555
194.11	634.887
197.002	647.983
199.895	614.215
202.788	569.533
205.68	478.271
208.573	439.346
211.466	373.238
214.359	334.281
217.251	344.218
220.144	280.336
223.037	215.954
225.929	200.273
228.822	103.499
231.715	64.3096
234.607	86.1773
237.5	30.4756
240.393	55.6235
243.286	127.942
246.178	71.7978
249.071	15.3296
251.964	11.9688
254.856	4.49805
257.749	0.748535
260.642	29.3779
263.534	37.2012
266.427	62.8857
269.32	131.192
272.213	63.8535
275.105	138.251
277.998	142.7
280.891	136.942
283.783	162.598
286.676	162.226
289.569	190.181
292.462	132.398
295.354	107.939
298.247	150.943
301.14	54.898
304.032	90.6812
306.925	53.2964
309.818	43.3662
312.71	48.0039
315.603	31.6133
318.496	12.1104
321.389	8.63818
324.281	34.7812
327.174	16.751
330.067	10.6826
332.959	19.4956
335.852	1.86621
338.745	22.6279
341.637	15.2881
344.53	30.9878
347.423	37.7637
350.315	31.8916
353.208	27.1152
356.101	18.2866
358.994	5.88477
361.886	2.84326
364.779	18.9785
367.672	5.95459
370.564	89.5879
373.457	44.6519
376.35	49.4273
379.243	113.089
382.135	92.1953
385.028	15.6885
387.921	50.2725
390.813	116.459
393.706	101.374
396.599	65.5273
399.491	100.129
402.384	129.056
405.277	135.673
408.17	230.524
411.062	296.557
413.955	467.994
416.848	640.832
419.74	788.07
422.633	956.345
425.526	1134.27
428.418	1286.8
431.311	1517.05
434.204	1645.35
437.096	1774.7
439.989	2018.99
442.882	2193.22
445.775	2388.34
448.667	2438.35
451.56	2514.35
454.453	2533.45
457.345	2339.58
460.238	2262.14
463.131	2227.22
466.024	2035.85
468.916	1819.72
471.809	1593.75
474.702	1309.31
477.594	1086.24
480.487	892.186
483.38	757.254
486.272	586.627
489.165	563.675
492.058	515.231
494.95	522.759
497.843	518.611
500.736	409.627
503.629	352.571
506.521	314.61
509.414	183.404
512.307	126.807
515.199	51.9727
518.092	39.6431
520.985	16.5308
523.878	10.4941
526.77	35.6445
529.663	51.8687
532.556	18.5776
535.448	25.2393
538.341	6.20117
541.234	34.6582
544.126	31.9111
547.019	52.3267
549.912	19.6206
552.804	5.53467
555.697	0.439941
558.59	13.0269
561.482	65.2353
564.375	77.3423
567.268	8.59668
570.161	53.0478
573.053	18.458
575.946	63.9424
578.839	87.2544
581.731	115.606
584.624	168.079
587.517	90.5518
590.409	138.095
593.302	156.149
596.195	229.578
599.088	243.076
601.98	405.293
604.873	467.839
607.766	638.574
610.658	775.314
613.551	829.326
616.444	863.116
619.337	941.894
622.229	992.929
625.122	979.071
628.015	926.803
630.907	872.71
633.8	595.258
636.693	436.651
639.585	376.992
642.478	378.677
645.371	368.727
648.264	335.788
651.156	364.972
654.049	325.068
656.942	249.069
659.834	154.327
662.727	126.311
665.62	128.43
668.513	171.719
671.405	225.495
674.298	249.413
677.191	241.438
680.083	231.533
682.976	155.875
685.869	53.4287
688.761	42.0147
691.654	32.9785
694.547	33.7471
697.439	25.8799
700.332	61.2812
703.225	27.5938
706.118	6.64062
709.01	11.0874
711.903	12.8394
714.796	39.4863
717.688	49.5024
720.581	58.1773
723.474	80.2334
726.366	85.291
729.259	47.7153
732.152	69.9082
735.045	114.049
737.937	90.5835
740.83	163.856
743.723	202.532
746.615	226.25
749.508	234.551
752.401	254.151
755.293	236.397
758.186	230.78
761.079	155.59
763.972	130.646
766.864	79.2661
769.757	83.2647
772.65	48.5923
775.542	48.2398
778.435	3.85644
781.328	10.2539
784.221	38.6885
787.113	21.5693
790.006	27.5718
792.899	62.2559
795.791	29.0669
798.684	49.9966
801.577	23.9639
804.469	17.0957
807.362	14.0083
810.255	47.3257
813.148	71.6934
816.04	50.8325
818.933	99.9526
821.826	45.8682
824.718	76.2529
827.611	55.6558
830.504	106.445
833.396	57.2124
836.289	89.8062
839.182	79.2041
842.074	105.215
844.967	118.712
847.86	85.0054
850.753	80.0889
853.645	114.82
856.538	72.5542
859.431	109.51
862.323	91.5166
865.216	61.5747
868.109	159.948
871.001	106.738
873.894	129.785
876.787	59.4541
879.68	38.9722
882.572	75.9253
885.465	48.5762
888.358	58.0874
891.25	69.375
894.143	90.6997
897.036	57.1416
899.928	51.9761
902.821	62.4517
905.714	74.9492
908.607	56.8247
911.499	26.4707
914.392	60.1113
917.285	0.204102
920.177	13.856
923.07	21.2178
925.963	24.8652
928.856	4.58008
931.748	24.3037
934.641	11.7227
937.534	11.585
940.426	15.0132
943.319	18.1611
946.212	15.6084
949.104	34.9326
951.997	49.2529
954.89	60.501
957.783	175.509
960.675	302.521
963.568	453.737
966.461	666.581
969.353	977.066
972.246	1460.54
975.139	1848.85
978.031	2317.41
980.924	3295.98
983.817	4707.75
986.71	6031.51
989.602	7384.71
992.495	8144.55
995.388	7471.93
998.28	5292.12
1001.17	3315.67
1004.07	2398.08
1006.96	2043.98
1009.85	1717.26
1012.74	1427.4
1015.64	1000.42
1018.53	675.566
1021.42	610.593
1024.32	600.562
1027.21	593.194
1030.1	668.437
1032.99	701.81
1035.88	761.102
1038.78	607.461
1041.67	565.159
1044.56	528.694
1047.46	502.19
1050.35	437.52
1053.24	444.263
1056.13	456.736
1059.03	412.941
1061.92	320.946
1064.81	309.206
1067.7	255.394
1070.6	197.637
1073.49	117.642
1076.38	126.083
1079.28	115.862
1082.17	115.314
1085.06	57.9902
1087.95	47.7373
1090.85	40.0078
1093.74	36.083
1096.63	26.7354
1099.53	86.4658
1102.42	1.00586
1105.31	17.3711
1108.2	96.9971
1111.1	29.0078
1113.99	50.4219
1116.88	294.628
1119.77	307.415
1122.67	457.452
1125.56	592.665
1128.45	661.207
1131.34	793.896
1134.24	887.192
1137.13	880.559
1140.02	743.442
1142.91	682.204
1145.81	479.342
1148.7	378.603
1151.59	281.583
1154.49	151.961
1157.38	114.16
1160.27	79.1191
1163.16	77.3672
1166.06	122.686
1168.95	145.926
1171.84	108.207
1174.73	58.248
1177.63	44.793
1180.52	72.918
1183.41	12.8887
