Measurement: Raman, 780 nm, unoriented, Raman Data Processed
Mineral: Marialite
Rruff sample: R100167
Ideal chemistry: Na_4_Al_3_Si_9_O_24_Cl
Locality: Mapapwa, Dodoma, Tanzania
Source: Mineralogical Museum, Harvard University
Description: Loose yellow prismatic crystals, work is done on the upper yellow crystal
Raman shift (cm-1)	intensity
161.959	0
164.851	19.0621
167.744	28.5841
170.637	28.7819
173.53	15.277
176.422	1.69751
179.315	6.78803
182.208	4.28564
185.1	12.7214
187.993	23.8538
190.886	21.7493
193.778	21.4899
196.671	12.9019
199.564	10.2995
202.457	9.8562
205.349	12.7379
208.242	16.2775
211.135	21.1537
214.027	29.186
216.92	51.3607
219.813	64.6873
222.705	65.3494
225.598	60.2317
228.491	48.238
231.383	35.8923
234.276	22.3973
237.169	17.6057
240.061	9.95966
242.954	11.8016
245.847	23.5518
248.74	36.0727
251.632	62.1992
254.525	105.532
257.418	166.726
260.31	228.583
263.203	250.577
266.096	213.293
268.988	144.868
271.881	88.5734
274.774	59.6292
277.667	48.7385
280.559	47.6848
283.452	64.5487
286.345	82.3221
289.237	86.3676
292.13	79.0113
295.023	82.5618
297.916	101.172
300.808	61.6428
303.701	15.545
306.594	1.13129
309.486	9.83801
312.379	13.553
315.272	13.438
318.164	2.41095
321.057	12.1232
323.95	21.4522
326.842	36.9847
329.735	56.1617
332.628	74.5747
335.521	90.4423
338.413	95.9644
341.306	103.175
344.199	104.776
347.091	114.106
349.984	125.543
352.877	142.355
355.769	168.914
358.662	195.3
361.555	195.108
364.447	164.789
367.34	138.397
370.233	123.299
373.126	111.096
376.018	108.308
378.911	102.705
381.804	96.3365
384.696	86.3531
387.589	71.2298
390.482	62.8611
393.375	48.3431
396.267	44.5395
399.16	36.7323
402.053	32.9518
404.945	31.2342
407.838	32.819
410.731	38.7635
413.623	50.3022
416.516	65.8898
419.409	73.927
422.301	64.2735
425.194	38.6741
428.087	27.1089
430.98	26.7197
433.872	41.3123
436.765	65.7853
439.658	99.4745
442.55	137.92
445.443	196.821
448.336	317.146
451.228	520.604
454.121	731.335
457.014	831.468
459.907	808.23
462.799	654.909
465.692	475.35
468.585	327.597
471.477	215.894
474.37	143.865
477.263	92.0088
480.156	59.5633
483.048	39.6103
485.941	23.7682
488.834	10.0887
491.726	4.17694
494.619	6.43884
497.512	3.34808
500.404	6.06445
503.297	10.3397
506.19	7.35525
509.082	7.43768
511.975	3.52988
514.868	3.89319
517.761	15.8409
520.653	31.1533
523.546	53.0481
526.439	90.7084
529.331	158.625
532.224	274.29
535.117	418.731
538.01	435.552
540.902	311.43
543.795	200.518
546.688	140.746
549.58	113.709
552.473	99.2139
555.366	90.9201
558.258	88.5233
561.151	88.5266
564.044	89.1324
566.936	95.2059
569.829	95.4789
572.722	103.788
575.615	110.968
578.507	116.301
581.4	121.948
584.293	125.05
587.185	127.777
590.078	130.143
592.971	136.542
595.863	134.338
598.756	143.373
601.649	139.416
604.542	133.831
607.434	126.176
610.327	118.925
613.22	115.56
616.112	104.968
619.005	95.186
621.898	84.6514
624.79	79.0651
627.683	67.5874
630.576	56.8961
633.468	43.1948
636.361	36.2748
639.254	34.284
642.146	24.7218
645.039	20.0141
647.932	13.559
650.825	5.73416
653.717	2.90192
656.61	4.24045
659.503	1.48486
662.395	1.39941
665.288	4.61975
668.181	4.76016
671.073	5.00037
673.966	4.54688
676.859	1.61618
679.752	0.816895
682.644	1.59845
685.537	1.12381
688.43	3.25565
691.322	7.05133
694.215	14.6572
697.108	16.1849
700	19.3581
702.893	26.9842
705.786	35.3969
708.679	37.9245
711.571	39.8899
714.464	43.6811
717.357	42.8469
720.249	45.9029
723.142	46.0718
726.035	42.3541
728.928	40.2209
731.82	39.5038
734.713	39.1459
737.606	41.965
740.498	39.7874
743.391	43.8136
746.284	48.962
749.176	57.2543
752.069	66.4238
754.962	76.7557
757.855	87.7502
760.747	105.979
763.64	129.172
766.533	155.176
769.425	181.121
772.318	189.294
775.211	178.951
778.103	149.349
780.996	110.675
783.889	78.9568
786.782	49.5511
789.674	35.552
792.567	24.0986
795.46	19.717
798.352	16.9355
801.245	18.5044
804.138	22.2655
807.03	28.2258
809.923	26.4095
812.816	17.0982
815.708	4.90595
818.601	0.538696
821.494	2.64621
824.386	1.08525
827.279	1.00093
830.172	0.10083
833.065	0.173508
835.957	0.739883
838.85	0.669144
841.743	4.12503
844.635	5.51288
847.528	5.99268
850.421	6.88741
853.313	6.73998
856.206	10.2455
859.099	12.0724
861.992	8.81276
864.884	10.8493
867.777	10.654
870.67	10.154
873.562	12.2793
876.455	10.9818
879.348	9.90016
882.24	7.1536
885.133	4.20961
888.026	4.49113
890.919	4.05612
893.811	2.61961
896.704	2.1192
899.597	3.26117
902.489	1.55057
905.382	1.36401
908.275	0.320374
911.168	2.99921
914.06	2.08846
916.953	1.12973
919.846	1.52255
922.738	2.01851
925.631	1.91803
928.524	0.06842
931.416	0.547867
934.309	1.65561
937.202	2.03462
940.095	0.915115
942.987	1.67441
945.88	0.411133
948.773	2.01474
951.665	2.47629
954.558	1.62157
957.451	2.75378
960.343	1.61438
963.236	3.36504
966.129	2.15973
969.021	1.82248
971.914	0.877899
974.807	6.09601
977.699	11.8742
980.592	30.4536
983.485	51.7081
986.378	76.5909
989.27	111.611
992.163	146.566
995.056	132.41
997.948	73.0772
1000.84	30.8081
1003.73	21.0978
1006.63	17.7761
1009.52	11.8099
1012.41	13.2889
1015.3	8.38484
1018.2	5.76123
1021.09	7.92891
1023.98	5.70805
1026.88	7.84193
1029.77	5.84268
1032.66	3.62073
1035.55	4.58255
1038.45	5.87482
1041.34	1.93579
1044.23	4.0827
1047.12	1.02408
1050.02	1.08414
1052.91	0.258606
1055.8	0.050629
1058.69	1.01614
1061.59	3.24112
1064.48	7.82877
1067.37	12.8058
1070.27	17.1417
1073.16	22.6749
1076.05	18.6187
1078.94	19.057
1081.84	17.8931
1084.73	18.8673
1087.62	29.2205
1090.52	37.3142
1093.41	53.1152
1096.3	61.3507
1099.19	61.5266
1102.09	42.6065
1104.98	19.163
1107.87	17.1705
1110.76	32.6135
1113.66	55.8798
1116.55	18.1083
1119.44	0.547485
1122.33	2.23853
1125.23	9.87115
1128.12	29.8765
1131.01	18.6305
1133.9	8.78534
1136.8	2.63226
