Measurement: Raman, 514 nm, unoriented, Raman Data Processed
Mineral: Marialite
Rruff sample: R040043
Ideal chemistry: Na_4_Al_3_Si_9_O_24_Cl
Locality: Gouverneur, New York, USA
Source: University of Arizona Mineral Museum
Description: White prismatic crystals
Measured chemistry: (Na_.493_Ca_.446_K_.061_)_4_(Si_.634_Al_.366_)_12_O_24_((CO_3_)_.581_Cl_.419_)
Raman shift (cm-1)	intensity
182.114	0
186.251	128
190.387	185.493
194.52	443.799
198.652	518.564
202.782	435.418
206.909	418.795
211.035	346.015
215.159	262.786
219.281	471.748
223.4	830.592
227.518	935.593
231.634	771.569
235.748	553.631
239.86	454.646
243.97	566.535
248.079	941.622
252.185	1964.11
256.289	4252.54
260.391	6676.81
264.492	8102.64
268.59	4976.11
272.687	2702.62
276.781	1202.11
280.874	524.412
284.964	695.38
289.053	1054.84
293.14	2632.58
297.225	4063.9
301.308	2412
305.389	688.025
309.468	205.979
313.545	21.201
317.62	61.587
321.693	92.593
325.765	77.299
329.834	193.883
333.902	51.009
337.967	123.313
342.031	290.214
346.093	663.018
350.153	1027.91
354.21	1951.01
358.267	2594.75
362.321	2408.71
366.373	1741.63
370.423	1295.29
374.471	1100.6
378.518	1119.55
382.563	872.998
386.605	741.7
390.646	531.696
394.685	246.096
398.722	524.969
402.757	352.376
406.79	522.734
410.821	901.757
414.851	1810.08
418.878	3248.21
422.904	3186.89
426.927	1681.4
430.949	877.312
434.969	1315.1
438.987	1566.01
443.003	2065.59
447.018	3375.85
451.03	5897
455.041	8404.98
459.049	8122.35
463.056	7224.75
467.061	5018.52
471.064	3347.05
475.065	2607.1
479.064	1731.36
483.062	1249.67
487.057	883.154
491.051	591.621
495.043	381.312
499.032	218.326
503.02	273.645
507.007	317.674
510.991	284.484
514.973	353.832
518.954	909.816
522.933	1358.96
526.91	2917.42
530.885	6373.86
534.858	10586
538.829	10520.1
542.799	6102.92
546.766	3181.53
550.732	1629.93
554.696	992.465
558.658	670.926
562.618	429.984
566.576	193.297
570.533	251.6
574.488	98.654
578.44	219.49
582.391	330.146
586.341	152.67
590.288	212.936
594.233	147.025
598.177	338.508
602.119	275.773
606.059	51.768
609.997	43.52
613.933	11.967
617.868	210.215
621.801	61.145
625.731	39.23
629.66	257.959
633.588	268.553
637.513	0.094
641.437	120.289
645.358	268.67
649.278	238.355
653.196	8.889
657.113	353.602
661.027	587.369
664.94	293.264
668.851	208.893
672.76	219.93
676.667	181.727
680.572	167.867
684.476	375.621
688.378	243.75
692.278	481.76
696.176	688.393
700.072	405.953
703.967	745.873
707.86	1010.5
711.751	1099.52
715.64	773.166
719.527	606.285
723.413	669.309
727.297	517.656
731.179	739.273
735.059	512.215
738.937	821.543
742.814	648.365
746.689	1221.34
750.562	1280.06
754.433	1890.1
758.303	2718.48
762.17	4249.53
766.036	5995.84
769.901	7482.17
773.763	7461.35
777.624	5373.97
781.482	2946.96
785.339	1554.12
789.195	894.041
793.048	616.299
796.9	477.768
800.75	136.629
804.598	128.904
808.445	357.578
812.289	88.301
816.132	216.312
819.973	91.105
823.813	111.771
827.65	129.691
831.486	356.439
835.32	186.758
839.152	114.678
842.983	285.059
846.812	271.297
850.639	30.822
854.464	0.078
858.288	172.57
862.11	229.207
865.93	142.729
869.748	325.07
873.564	136.355
877.379	141.686
881.192	222.061
885.004	43.465
888.813	90.023
892.621	156.295
896.427	225.57
900.232	18.664
904.034	34.311
907.835	200.842
911.634	60.551
915.432	41.068
919.227	46.727
923.021	173.451
926.813	259.268
930.604	141.127
934.393	18.102
938.18	97.244
941.965	152.695
945.749	38.225
949.53	368.848
953.311	469.527
957.089	284.221
960.866	152.275
964.641	154.973
968.414	204.074
972.185	271.246
975.955	269.41
979.723	329.924
983.49	507.648
987.254	1027.03
991.017	871.65
994.779	931.908
998.538	1099.69
1002.3	1571.66
1006.05	978.938
1009.81	1146.84
1013.56	1112.57
1017.31	1185.45
1021.06	1035.19
1024.81	1040.71
1028.55	1397.43
1032.3	1431.68
1036.04	1719.51
1039.78	1780.92
1043.52	1610.23
1047.26	1699.91
1050.99	2000.31
1054.73	1814.32
1058.46	1616.65
1062.19	1942.14
1065.92	1999.83
1069.65	2585.64
1073.37	2822.48
1077.1	3235.52
1080.82	3850.2
1084.54	3753.95
1088.26	4242.46
1091.97	4378.51
1095.69	4582.42
1099.4	4424.33
1103.12	3130.25
1106.83	2857.25
1110.54	2267.17
1114.24	2094.42
1117.95	1310.58
1121.65	1396.33
1125.35	1361.01
1129.06	904.576
1132.75	952.559
1136.45	551.969
1140.15	546.289
1143.84	214.096
1147.53	316.271
1151.22	139.527
1154.91	245.525
1158.6	59.189
1162.28	152.387
1165.97	172.186
1169.65	127.051
1173.33	27.865
1177.01	287.455
1180.69	141.07
1184.36	261.527
1188.04	231.027
1191.71	268.449
1195.38	173.686
1199.05	397.283
1202.71	261.139
1206.38	423.088
1210.04	52.941
1213.71	368.811
1217.37	433.492
1221.03	303.736
1224.68	442.9
1228.34	301.896
1231.99	235.088
1235.65	426.6
1239.3	537.521
1242.95	390.609
1246.59	277.18
1250.24	338.225
1253.88	218.307
1257.53	19.346
1261.17	101.92
1264.81	313.736
1268.45	46.98
1272.08	2.711
1275.72	112.609
1279.35	29.559
1282.98	177.594
1286.61	183.75
1290.24	45.035
1293.87	117.93
1297.49	39.105
1301.11	226.703
1304.73	171.578
1308.36	212.41
1311.97	217.945
1315.59	76.164
1319.2	358.246
1322.82	142.914
1326.43	43.191
1330.04	46.949
1333.65	423.676
1337.26	350.285
1340.86	415.156
1344.47	327.086
1348.07	341.008
1351.67	355.824
1355.27	618.863
1358.87	570.863
1362.46	561.547
1366.06	564.758
1369.65	626.039
1373.24	544.312
1376.83	546.945
1380.42	361.16
1384	403.582
1387.59	471.75
1391.17	348.07
1394.75	59.289
1398.33	265.535
1401.91	289.004
1405.49	178.707
1409.06	153.188
1412.64	55.578
1416.21	359.211
1419.78	65.359
1423.35	232.387
1426.91	354.203
1430.48	301.863
1434.05	167.867
1437.61	0.117
