Measurement: Raman, 785 nm, unoriented, Raman Data Processed
Mineral: Maricite
Rruff sample: R070273
Ideal chemistry: NaFe^2+^PO_4_
Locality: Locality 16, Big Fish River, Richardson Mountains, Dawson Mining District, Yukon Territory, Canada
Source: Mark Mauthner
Description: Compact radiating aggregate of gray prismatic crystals (with bluish to brownish sections) in phosphate nodule.
Measured chemistry: Na_1.00_(Fe^2+^_0.90_Mn_0.06_Mg_0.03_Ca_0.01_)_Î£=1_P_1.00_O_4_
Raman shift (cm-1)	intensity
160.071	0
162.964	9.86816
165.856	209.595
168.749	351.57
171.642	522.252
174.534	690.791
177.427	935.663
180.32	1539.19
183.212	2248.02
186.105	1254.44
188.998	483.956
191.891	236.723
194.783	128.885
197.676	102.409
200.569	99.6238
203.461	91.2971
206.354	81.9265
209.247	85.8281
212.139	141.184
215.032	123.541
217.925	183.623
220.818	230.026
223.71	123.914
226.603	102.345
229.496	3.62207
232.388	12.3274
235.281	31.1934
238.174	42.8577
241.066	25.783
243.959	110.675
246.852	149.573
249.745	265.557
252.637	387.186
255.53	481.561
258.423	405.019
261.315	266.633
264.208	132.887
267.101	91.6081
269.993	29.8909
272.886	104.82
275.779	69.2253
278.672	34.6321
281.564	45.3821
284.457	39.9951
287.35	61.2014
290.242	31.5864
293.135	26.9099
296.028	23.6875
298.921	1.79932
301.813	8.14966
304.706	2.68262
307.599	10.6233
310.491	42.6052
313.384	26.7173
316.277	3.49243
319.169	99.2271
322.062	89.5928
324.955	160.244
327.847	227.026
330.74	228.99
333.633	216.706
336.526	179.167
339.418	116.981
342.311	114.209
345.204	67.6829
348.096	65.1709
350.989	128.622
353.882	73.3791
356.774	64.0039
359.667	33.3123
362.56	30.0576
365.452	13.624
368.345	9.81812
371.238	15.4097
374.131	15.3435
377.023	25.8477
379.916	11.2031
382.809	23.0718
385.701	0.734863
388.594	28.728
391.487	60.3772
394.38	28.8208
397.272	61.2454
400.165	113.68
403.058	135.144
405.95	141.853
408.843	209.227
411.736	314.113
414.628	370.425
417.521	608.12
420.414	835.649
423.307	1124.18
426.199	1671.13
429.092	2255.11
431.985	2980.64
434.877	3680.9
437.77	3879.55
440.663	3459.6
443.555	2901.81
446.448	2558.05
449.341	2089.41
452.234	1471.11
455.126	1077.57
458.019	899.747
460.912	936.376
463.804	897.616
466.697	800.528
469.59	569.566
472.483	404.292
475.375	219.433
478.268	171.579
481.161	123.188
484.053	53.4514
486.946	15.3308
489.839	9.65015
492.731	42.384
495.624	20.0332
498.517	7.90698
501.409	5.17017
504.302	26.7373
507.195	10.3577
510.088	11.1834
512.98	0.071777
515.873	32.3762
518.766	10.4426
521.658	10.1116
524.551	15.0269
527.444	0.394775
530.337	18.9644
533.229	6.73731
536.122	26.4709
539.015	31.5378
541.907	60.5735
544.8	133.664
547.693	260.817
550.585	420.323
553.478	666.337
556.371	789.059
559.263	994.17
562.156	1547.92
565.049	2457.13
567.942	3493.14
570.834	2742.36
573.727	1330.88
576.62	581.373
579.512	322.839
582.405	219.987
585.298	118.371
588.19	114.918
591.083	124.834
593.976	134.927
596.869	221.388
599.761	340.407
602.654	475.905
605.547	768.64
608.439	833.292
611.332	696.352
614.225	638.4
617.117	620.935
620.01	726.858
622.903	556.551
625.795	323.153
628.688	137.224
631.581	124.449
634.474	57.8866
637.366	80.9042
640.259	24.3411
643.152	35.9827
646.044	23.0286
648.937	5.16431
651.83	14.9404
654.722	0.026855
657.615	8.57776
660.508	7.8584
663.401	12.9249
666.293	20.0873
669.186	7.60913
672.079	4.38318
674.971	21.9974
677.864	29.6829
680.757	9.151
683.649	7.35315
686.542	16
689.435	25.4539
692.328	26.9761
695.22	23.9965
698.113	13.4033
701.006	24.4199
703.898	51.7505
706.791	24.1859
709.684	7.82349
712.577	43.7978
715.469	28.8528
718.362	29.2687
721.255	64.007
724.147	33.7158
727.04	27.894
729.933	13.235
732.825	43.1013
735.718	2.1781
738.611	30.6238
741.504	10.5419
744.396	62.0697
747.289	50.553
750.182	7.75134
753.074	19.8384
755.967	41.996
758.86	29.7971
761.752	62.9221
764.645	31.9861
767.538	27.9503
770.431	9.15955
773.323	47.662
776.216	33.7142
779.109	38.5911
782.001	0.522583
784.894	43.2189
787.787	33.8171
790.679	25.2148
793.572	13.5414
796.465	4.19934
799.357	10.4103
802.25	23.7521
805.143	5.28906
808.036	15.3911
810.928	5.63098
813.821	18.2111
816.714	48.2194
819.606	23.4213
822.499	39.5024
825.392	0.574341
828.284	23.844
831.177	16.3109
834.07	25.0347
836.963	4.63208
839.855	16.7583
842.748	12.729
845.641	27.0211
848.533	56.978
851.426	57.7866
854.319	47.2418
857.212	43.5929
860.104	55.9238
862.997	85.6141
865.89	62.2053
868.782	55.3852
871.675	35.0399
874.568	35.0724
877.46	12.1588
880.353	44.0617
883.246	26.1088
886.139	29.8795
889.031	30.8768
891.924	16.9571
894.817	43.1508
897.709	8.97705
900.602	16.1617
903.495	1.77295
906.388	29.4684
909.28	4.4928
912.173	37.6575
915.066	38.0581
917.958	19.3658
920.851	34.0134
923.744	50.5523
926.636	111.212
929.529	189.25
932.422	248.016
935.314	437.747
938.207	740.763
941.1	1442.24
943.993	3006.29
946.885	5669.38
949.778	9817.27
952.671	15196.5
955.563	12792.4
958.456	6254.76
961.349	3032.16
964.241	1837.24
967.134	1530.19
970.027	1512.81
972.92	1954.9
975.812	2839.98
978.705	4625.34
981.598	4730.69
984.49	2276.24
987.383	892.299
990.276	480.222
993.168	316.111
996.061	245.092
998.954	215.928
1001.85	292.132
1004.74	429.322
1007.63	639.709
1010.52	1096.89
1013.42	2088.75
1016.31	3599.19
1019.2	5982.27
1022.1	6216.05
1024.99	3455.16
1027.88	1317.41
1030.77	565.666
1033.67	211.346
1036.56	97.0403
1039.45	27.723
1042.34	16.9642
1045.24	76.783
1048.13	28.8076
1051.02	27.1735
1053.91	70.9274
1056.81	199.883
1059.7	518.588
1062.59	964.242
1065.49	1582.5
1068.38	1543.37
1071.27	970.658
1074.16	554.798
1077.06	338.636
1079.95	237.712
1082.84	258.14
1085.73	378.326
1088.63	553.185
1091.52	673.359
1094.41	600.632
1097.31	447.045
1100.2	299.898
1103.09	161.901
1105.98	71.4989
1108.88	59.5739
1111.77	54.8776
1114.66	20.5225
1117.56	9.04382
1120.45	31.7279
1123.34	18.399
1126.23	28.9459
1129.12	32.1052
1132.02	10.8928
1134.91	28.2698
1137.8	16.4751
1140.7	17.9197
1143.59	49.1232
1146.48	48.9362
1149.37	61.2107
1152.27	17.4385
1155.16	41.8059
1158.05	29.6383
1160.94	32.1885
1163.84	15.794
1166.73	22.0034
1169.62	8.12598
1172.52	19.7325
1175.41	33.2634
1178.3	4.45105
1181.19	17.302
1184.09	39.2792
1186.98	18.3279
1189.87	4.83423
1192.77	14.1573
1195.66	8.47949
1198.55	19.3943
1201.44	22.2205
1204.34	2.94397
1207.23	26.4791
1210.12	49.1354
1213.01	25.0298
1215.91	33.7692
1218.8	43.8094
1221.69	3.33704
1224.58	4.21521
1227.48	5.28027
1230.37	32.1639
1233.26	31.8114
1236.15	36.0643
1239.05	24.8086
1241.94	0.170044
