Measurement: Raman, 532 nm, unoriented, Raman Data Processed
Mineral: Marialite
Rruff sample: R050123
Ideal chemistry: Na_4_Al_3_Si_9_O_24_Cl
Locality: Pakistan
Source: Syed Shah
Description: Purple fragment
Measured chemistry: (Na_0.88_Ca_0.07_K_0.05_)_4_Al_3.00_Si_9.00_O_24_Cl_0.97
Raman shift (cm-1)	intensity
125.646	0
129.021	5.64658
132.396	32.1559
135.771	53.9372
139.145	83.0894
142.52	118.535
145.895	155.35
149.27	191.695
152.645	222.533
156.019	247.256
159.394	250.646
162.769	224.602
166.144	176.923
169.519	130.425
172.894	99.0697
176.268	82.5058
179.643	70.7472
183.018	61.2853
186.393	46.7806
189.768	34.1815
193.143	21.09
196.517	13.1001
199.892	8.77559
203.267	9.56633
206.642	8.29262
210.017	3.82887
213.391	2.77324
216.766	3.81162
220.141	1.46263
223.516	1.68066
226.891	0.724228
230.265	0.708206
233.64	0.100479
237.015	2.22107
240.39	10.5091
243.765	20.3206
247.139	35.1733
250.514	56.8187
253.889	82.5929
257.264	112.222
260.639	127.12
264.014	102.474
267.388	64.6229
270.763	39.1735
274.138	28.8622
277.513	25.0035
280.888	29.6597
284.262	30.7494
287.637	27.8937
291.012	29.4116
294.387	34.1839
297.762	40.6063
301.137	27.6785
304.511	10.0291
307.886	1.60948
311.261	1.3713
314.636	0.634285
318.011	1.41482
321.385	3.80594
324.76	5.00653
328.135	8.26811
331.51	11.9179
334.885	15.9372
338.26	17.4887
341.634	23.2537
345.009	29.3871
348.384	38.1084
351.759	49.6108
355.134	64.7012
358.508	76.1955
361.883	71.3939
365.258	59.4591
368.633	46.4104
372.008	33.9716
375.382	20.348
378.757	15.2728
382.132	10.4859
385.507	6.69247
388.882	2.32099
392.257	1.94646
395.631	0.843643
399.006	1.24793
402.381	1.31962
405.756	1.1227
409.131	1.97841
412.505	4.62149
415.88	9.54169
419.255	13.3237
422.63	19.3999
426.005	27.438
429.38	37.0632
432.754	47.2909
436.129	69.4778
439.504	110.158
442.879	172.375
446.254	242.552
449.628	335.062
453.003	462.053
456.378	587.404
459.753	553.115
463.128	364.389
466.502	212.353
469.877	129.845
473.252	77.8839
476.627	50.4256
480.002	31.0238
483.377	19.6943
486.751	11.2709
490.126	8.34751
493.501	4.80474
496.876	1.06329
500.251	2.27549
503.625	1.04232
507	1.27456
510.375	0.592552
513.75	0.304298
517.125	3.21642
520.5	14.7995
523.874	33.5378
527.249	50.2101
530.624	87.6324
533.999	136.444
537.374	186.797
540.748	153.204
544.123	70.6378
547.498	31.4992
550.873	16.1841
554.248	9.62572
557.622	4.34373
560.997	1.74747
564.372	1.6284
567.747	1.31611
571.122	0.695824
574.497	0.956375
577.871	0.005486
581.246	2.29988
584.621	4.09238
587.996	5.58068
591.371	4.66358
594.745	5.07787
598.12	5.96584
601.495	5.72614
604.87	5.11952
608.245	5.6401
611.62	6.03277
614.994	8.40106
618.369	7.81894
621.744	9.62813
625.119	11.1241
628.494	8.12299
631.868	6.3436
635.243	3.85317
638.618	1.10494
641.993	1.85332
645.368	1.66782
648.742	1.82862
652.117	2.77681
655.492	1.80238
658.867	3.004
662.242	1.44801
665.617	0.575249
668.991	0.611008
672.366	0.246048
675.741	0.227623
679.116	0.786514
682.491	0.163536
685.865	0.020004
689.24	1.06457
692.615	0.24057
695.99	0.126625
699.365	0.322632
702.74	0.322243
706.114	0.880783
709.489	1.38349
712.864	1.4117
716.239	1.60461
719.614	1.19019
722.988	1.74238
726.363	0.772568
729.738	2.07771
733.113	3.45745
736.488	4.90927
739.862	5.54343
743.237	6.35112
746.612	9.81749
749.987	11.7835
753.362	14.2744
756.737	18.3484
760.111	21.7547
763.486	24.5926
766.861	27.6161
770.236	31.2442
773.611	34.9383
776.986	39.4292
780.36	40.71
783.735	42.1534
787.11	40.2739
790.485	31.9837
793.86	20.4755
797.234	12.7799
800.609	8.98399
803.984	9.543
807.359	10.8252
810.734	13.6094
814.108	14.2146
817.483	9.01408
820.858	2.51221
824.233	0.716316
827.608	0.548325
830.982	0.116219
834.357	0.41404
837.732	0.586281
841.107	1.36033
844.482	0.950378
847.857	1.23592
851.231	0.951538
854.606	0.111084
857.981	1.03294
861.356	0.676971
864.731	1.50479
868.106	0.918747
871.48	0.820137
874.855	0.019455
878.23	2.3031
881.605	2.02682
884.98	1.92304
888.354	1.21628
891.729	1.06003
895.104	2.3727
898.479	3.30924
901.854	3.46756
905.229	2.43204
908.603	3.18485
911.978	3.41257
915.353	3.65107
918.728	2.53901
922.102	2.58859
925.477	2.41038
928.852	2.36394
932.227	1.24426
935.602	0.745407
938.977	1.26801
942.351	0.596191
945.726	1.11823
949.101	0.094376
952.476	0.262947
955.851	0.495796
959.226	0.128815
962.6	1.2155
965.975	0.685471
969.35	0.084846
972.725	0.524437
976.1	1.51629
979.474	4.66554
982.849	5.2765
986.224	8.05527
989.599	12.4389
992.974	11.9123
996.348	10.0148
999.723	5.2264
1003.1	2.16634
1006.47	1.13715
1009.85	1.69231
1013.22	1.08101
1016.6	0.894669
1019.97	1.59041
1023.35	0.927185
1026.72	0.888672
1030.1	1.62959
1033.47	3.22144
1036.85	0.903015
1040.22	2.49011
1043.6	2.87941
1046.97	4.2448
1050.35	4.75099
1053.72	4.16737
1057.1	4.13408
1060.47	4.73952
1063.85	6.4798
1067.22	5.30022
1070.59	8.34598
1073.97	10.0547
1077.34	16.3702
1080.72	17.7249
1084.09	22.2657
1087.47	26.5568
1090.84	31.3342
1094.22	34.1587
1097.59	36.3032
1100.97	32.6807
1104.34	30.0749
1107.72	27.6179
1111.09	21.0877
1114.47	17.9642
1117.84	15.5165
1121.22	14.3719
1124.59	10.7099
1127.97	7.27933
1131.34	7.03642
1134.72	5.02344
1138.09	4.89066
1141.46	3.23514
1144.84	2.55772
1148.21	1.61146
1151.59	1.12729
1154.96	1.22377
1158.34	0.715881
1161.71	0.422394
1165.09	0.088547
1168.46	0.02507
1171.84	0.492599
1175.21	0.670975
1178.59	1.77338
1181.96	1.5358
1185.34	2.50787
1188.71	4.14906
1192.09	5.34694
1195.46	6.41652
1198.84	7.95436
1202.21	9.04666
1205.59	8.79132
1208.96	11.112
1212.34	8.85506
1215.71	7.39891
1219.09	6.40799
1222.46	3.91428
1225.84	3.30188
1229.21	2.52229
1232.59	1.97676
1235.96	0.242599
1239.34	0.758896
1242.71	1.82266
1246.09	0.049683
1249.46	0.379715
1252.83	0.715851
1256.21	0.41832
1259.58	0.009354
1262.96	2.51515
1266.33	1.59778
1269.71	1.63223
1273.08	2.16812
1276.46	1.24559
1279.83	0.339874
1283.21	0.829773
1286.58	0.617508
1289.96	0.475998
