Measurement: Raman, 514 nm, unoriented, Raman Data Processed
Mineral: Marialite
Rruff sample: R050123
Ideal chemistry: Na_4_Al_3_Si_9_O_24_Cl
Locality: Pakistan
Source: Syed Shah
Description: Purple fragment
Measured chemistry: (Na_0.88_Ca_0.07_K_0.05_)_4_Al_3.00_Si_9.00_O_24_Cl_0.97
Raman shift (cm-1)	intensity
137.857	0
142.016	175.738
146.172	81.514
150.327	818.732
154.48	2229.05
158.63	2924.04
162.779	2526.66
166.926	1758.98
171.07	939.822
175.213	993.521
179.354	1248.61
183.493	972.695
187.63	951.082
191.765	806.84
195.898	362.744
200.029	477.82
204.158	434.775
208.285	249.455
212.41	7.941
216.533	388.082
220.654	908.26
224.773	1184.6
228.891	1402.82
233.006	1367.44
237.119	1573.06
241.231	2328.2
245.34	4340.18
249.448	8572.31
253.553	14697.9
257.657	20112.6
261.758	17874
265.858	10632.3
269.956	5892.29
274.052	3733.16
278.146	2863.15
282.237	2294.31
286.327	1736.52
290.416	1393.56
294.502	737.062
298.586	191.818
302.668	266.969
306.749	315.369
310.827	383.424
314.903	131.516
318.978	103.656
323.051	268.986
327.121	559.848
331.19	997.562
335.257	1568.62
339.322	1837.69
343.385	2536.73
347.446	4173.66
351.505	7557.81
355.563	11300
359.618	12005.3
363.672	10284.1
367.723	8255.69
371.773	6545.6
375.821	5322.86
379.866	4105.2
383.91	3434.01
387.952	3229.38
391.992	2626.21
396.031	2206.84
400.067	2381.72
404.101	2396.06
408.134	2472.1
412.165	2980.3
416.193	3607.37
420.22	4545.93
424.245	5355.84
428.268	5279.72
432.289	4347.32
436.309	4715.48
440.326	6159.43
444.342	9568.97
448.355	16713.1
452.367	30897.3
456.377	40987.6
460.385	30033.3
464.391	17449.1
468.395	10794.8
472.398	7312
476.398	5206.23
480.397	3385.59
484.394	2414.52
488.389	1866.79
492.382	1555.64
496.373	1305.11
500.362	1217.61
504.349	1169.1
508.335	900.08
512.319	905.656
516.3	1008.1
520.28	1508.05
524.259	3171.04
528.235	7313.99
532.209	19320.5
536.182	34527.3
540.152	21561.3
544.121	8433.84
548.088	3988.83
552.053	2230.4
556.017	1303.59
559.978	761.34
563.938	422.6
567.895	176.307
571.851	264.436
575.805	218.002
579.758	233.578
583.708	470.697
587.657	566.848
591.603	502.615
595.548	468.977
599.491	318.576
603.432	92.354
607.372	60.258
611.309	95.436
615.245	21.627
619.179	12.74
623.111	478.352
627.041	272.061
630.97	230.973
634.896	25.701
638.821	134.258
642.744	88.99
646.665	159.029
650.584	153.82
654.502	42.197
658.418	69.145
662.331	35.283
666.244	246.438
670.154	53.396
674.062	344.072
677.969	133.773
681.874	97.131
685.777	315.184
689.678	260.904
693.577	466.117
697.475	648.807
701.371	889.668
705.265	1005.52
709.157	776.305
713.047	1153.29
716.936	1371.4
720.823	1375.11
724.708	1376.03
728.591	1169.96
732.472	1994.96
736.352	2708.92
740.23	2524.55
744.106	2727.19
747.98	2949.2
751.853	4067.17
755.723	4565.78
759.592	5681.78
763.459	7393.01
767.325	8716.37
771.188	9990.62
775.05	11357.7
778.91	14311.8
782.768	16847.5
786.625	17397.2
790.479	12884.4
794.332	6739.24
798.183	3731.16
802.033	2353.05
805.88	1290.05
809.726	1170.25
813.57	809.967
817.413	368.879
821.253	254.357
825.092	270.096
828.929	324.971
832.764	392.408
836.598	202.002
840.429	202.973
844.259	269.629
848.088	471.961
851.914	332.293
855.739	384.535
859.562	149.256
863.383	64.252
867.203	113.672
871.02	64.633
874.836	123.65
878.65	185.748
882.463	29.02
886.274	99.723
890.083	171.525
893.89	4.48
897.695	182.379
901.499	20.477
905.301	94.551
909.102	4.334
912.9	208.307
916.697	83.379
920.492	196.549
924.285	294.938
928.077	7.484
931.867	321.361
935.655	195.5
939.442	99.016
943.226	201.705
947.009	266.75
950.791	218.041
954.57	81.465
958.348	372.123
962.124	272.031
965.899	196.498
969.671	196.404
973.442	472.598
977.211	573.131
980.979	831.824
984.745	964.68
988.509	2067.7
992.271	2871.87
996.032	2945.24
999.791	1403.68
1003.55	1606.18
1007.3	1618.11
1011.06	1272.76
1014.81	1246.38
1018.56	1448.43
1022.31	1518.42
1026.06	1376.82
1029.8	1984.29
1033.55	1607.54
1037.29	1917.59
1041.03	2816.22
1044.77	2695.55
1048.5	2452.72
1052.24	3180.18
1055.97	2855.3
1059.7	3255.39
1063.43	3405.57
1067.16	3787.87
1070.89	4452.6
1074.61	5269.35
1078.34	6073.02
1082.06	7429.77
1085.78	8414.6
1089.5	9960.44
1093.21	10483.9
1096.93	10813.8
1100.64	11195.8
1104.35	10085.9
1108.06	9780.48
1111.77	8754.74
1115.48	7634.18
1119.18	6821.83
1122.89	5987.57
1126.59	4923.05
1130.29	4562.6
1133.99	3225.86
1137.68	2612.81
1141.38	2210.99
1145.07	1708.52
1148.76	1474.42
1152.45	1169.46
1156.14	1090.83
1159.83	685.621
1163.51	590.254
1167.19	16.762
1170.88	473.812
1174.56	207.809
1178.23	82.629
1181.91	239.781
1185.59	471.039
1189.26	427.859
1192.93	529.668
1196.6	816.09
1200.27	865.098
1203.94	278.945
1207.6	975.68
1211.27	677.129
1214.93	630.328
1218.59	667.965
1222.25	213.266
1225.9	445.66
1229.56	449.828
1233.21	68.844
1236.86	106.527
1240.51	186.465
1244.16	35.238
1247.81	214.336
1251.45	252.695
1255.1	112.793
1258.74	185.574
1262.38	26.156
1266.02	28.883
1269.66	115.539
1273.29	150.793
1276.93	191.348
1280.56	239.211
1284.19	143.977
1287.82	191.531
1291.45	549.207
1295.07	185.824
1298.7	219.137
1302.32	437.195
1305.94	250.516
1309.56	216.125
1313.18	524.848
1316.8	148.812
1320.41	565.992
1324.02	406.844
1327.63	339.359
1331.24	288.055
1334.85	134.086
1338.46	385.578
1342.06	209.699
1345.67	512.789
1349.27	416.41
1352.87	468.027
1356.47	174.152
1360.07	283.715
1363.66	478.473
1367.25	53.641
1370.85	13.867
1374.44	249.832
1378.03	237.852
1381.61	4.375
1385.2	0
