Measurement: Raman, 785 nm, unoriented, Raman Data Processed
Mineral: Marialite
Rruff sample: R040043
Ideal chemistry: Na_4_Al_3_Si_9_O_24_Cl
Locality: Gouverneur, New York, USA
Source: University of Arizona Mineral Museum
Description: White prismatic crystals
Measured chemistry: (Na_.493_Ca_.446_K_.061_)_4_(Si_.634_Al_.366_)_12_O_24_((CO_3_)_.581_Cl_.419_)
Raman shift (cm-1)	intensity
112.85	0
115.743	380.736
118.635	441.397
121.528	54.0093
124.421	472.601
127.314	1629.53
130.206	3028.78
133.099	4235.69
135.992	1908.72
138.884	1389.18
141.777	2042.42
144.67	3448.2
147.562	5452.78
150.455	6325.73
153.348	6084.27
156.24	6046.02
159.133	6237.96
162.026	6661.61
164.919	6417.87
167.811	5694.69
170.704	4695.54
173.597	3675.32
176.489	2922.26
179.382	2499.24
182.275	2379.83
185.167	2404.11
188.06	2549.44
190.953	2430.03
193.846	2337.01
196.738	2189.16
199.631	2031.4
202.524	1944.24
205.416	1903.73
208.309	1693.09
211.202	1380.9
214.095	1277.65
216.987	1311.65
219.88	1369
222.773	1253.58
225.665	1083.46
228.558	900.915
231.451	539.869
234.343	318.256
237.236	105.132
240.129	26.5215
243.022	84.8354
245.914	72.2769
248.807	101.687
251.7	401.177
254.592	911.904
257.485	1795.77
260.378	2804.64
263.27	3299.17
266.163	2669.9
269.056	1558.98
271.949	762.717
274.841	295.957
277.734	62.668
280.627	44.6675
283.519	121.739
286.412	70.9746
289.305	81.9387
292.197	521.213
295.09	1053.77
297.983	1507.19
300.875	813.57
303.768	329.999
306.661	167.439
309.554	85.9751
312.446	19.6211
315.339	35.7644
318.232	64.4836
321.124	13.5032
324.017	83.0041
326.91	129.373
329.803	153.998
332.695	187.75
335.588	169.31
338.481	191.034
341.373	126.198
344.266	148.76
347.159	309.853
350.051	498.772
352.944	764.346
355.837	1067.65
358.729	1427.43
361.622	1401.33
364.515	980.915
367.408	572.546
370.3	449.275
373.193	499.977
376.086	553.584
378.978	628.469
381.871	607.144
384.764	572.991
387.656	436.839
390.549	233.89
393.442	137.188
396.335	44.3872
399.227	8.70508
402.12	16.6338
405.013	43.0586
407.905	39.6482
410.798	206.807
413.691	496.268
416.584	802.039
419.476	1126.39
422.369	1021.89
425.262	697.711
428.154	614.058
431.047	642.912
433.94	777.893
436.832	1104.83
439.725	1554.04
442.618	2254.97
445.51	3445.01
448.403	5467.57
451.296	8505.61
454.189	10809
457.081	11392.9
459.974	11249.1
462.867	9765.07
465.759	7457.62
468.652	5217.51
471.545	3540.28
474.438	2408.36
477.33	1745.23
480.223	1265.21
483.116	934.971
486.008	705.523
488.901	419.513
491.794	327.074
494.686	204.462
497.579	88.3525
500.472	27.1067
503.365	44.5984
506.257	41.7139
509.15	6.54883
512.043	24.0276
514.935	58.3064
517.828	155.081
520.721	330.542
523.613	653.136
526.506	1303.1
529.399	2534.4
532.292	3893.39
535.184	5391.54
538.077	5067.54
540.97	3331.79
543.862	2020.93
546.755	1157.81
549.648	705.589
552.54	439.515
555.433	255.575
558.326	205.096
561.218	132.251
564.111	66.1956
567.004	45.8816
569.897	5.90015
572.789	17.5286
575.682	0.334229
578.575	1.36011
581.467	47.9238
584.36	41.6879
587.253	41.6528
590.145	72.0172
593.038	80.7228
595.931	55.9747
598.824	45.0324
601.716	53.3291
604.609	52.9315
607.502	119.754
610.394	113.318
613.287	105.326
616.18	45.3502
619.072	11.7111
621.965	1.15784
624.858	2.54761
627.751	17.6291
630.643	13.4543
633.536	12.1467
636.429	4.28174
639.321	6.87878
642.214	6.86462
645.107	8.71716
648	10.6124
650.892	32.8415
653.785	32.2943
656.678	75.153
659.57	104.017
662.463	109.427
665.356	86.9257
668.248	56.1294
671.141	44.2268
674.034	27.9226
676.927	77.6647
679.819	99.843
682.712	9.04614
685.605	18.4446
688.497	13.6515
691.39	7.54138
694.283	30.2778
697.175	32.5012
700.068	109.209
702.961	129.043
705.854	176.784
708.746	183.834
711.639	170.594
714.532	125.824
717.424	131.31
720.317	89.9685
723.21	72.6254
726.102	80.1294
728.995	64.8469
731.888	23.3506
734.78	74.5287
737.673	43.6852
740.566	26.0127
743.459	81.9796
746.351	145.23
749.244	248.489
752.137	416.817
755.029	561.94
757.922	829.635
760.815	1169.6
763.707	1579.2
766.6	2024.34
769.493	2441.93
772.386	2570.03
775.278	2329.04
778.171	1659.97
781.064	944.401
783.956	477.225
786.849	251.794
789.742	123.19
792.635	65.1113
795.527	47.1871
798.42	1.98999
801.313	6.10681
804.205	14.1215
807.098	19.9804
809.991	29.9554
812.883	9.41272
815.776	1.07483
818.669	14.9824
821.562	12.1019
824.454	6.77307
827.347	11.3345
830.24	10.8093
833.132	2.33386
836.025	7.99133
838.918	21.2667
841.81	3.50427
844.703	30.0792
847.596	11.0692
850.489	2.67004
853.381	4.00366
856.274	42.0997
859.167	9.89746
862.059	16.3013
864.952	35.714
867.845	20.6078
870.737	25.0361
873.63	47.1875
876.523	73.6049
879.415	53.6514
882.308	35.1155
885.201	56.2306
888.094	57.9785
890.986	30.3751
893.879	36.0223
896.772	66.6377
899.664	55.346
902.557	59.1575
905.45	63.8306
908.342	46.1398
911.235	35.169
914.128	1.96753
917.021	43.7528
919.913	14.0546
922.806	20.8818
925.699	3.88269
928.591	6.74695
931.484	11.6909
934.377	15.7146
937.269	14.3697
940.162	48.4738
943.055	48.1589
945.948	40.9377
948.84	82.7884
951.733	102.992
954.626	133.644
957.518	142.649
960.411	95.6591
963.304	91.5738
966.197	91.0476
969.089	83.3307
971.982	86.2327
974.875	85.4594
977.767	127.661
980.66	129.065
983.553	154.367
986.445	151.24
989.338	118.851
992.231	106.513
995.124	132.722
998.016	133.725
1000.91	119.056
1003.8	89.6052
1006.69	82.6821
1009.59	77.755
1012.48	42.5533
1015.37	44.658
1018.26	20.8494
1021.16	14.3514
1024.05	23.8882
1026.94	41.3789
1029.84	11.8623
1032.73	10.6288
1035.62	30.9857
1038.51	43.7898
1041.41	50.8235
1044.3	31.2953
1047.19	34.2935
1050.09	64.3579
1052.98	89.2139
1055.87	118.036
1058.76	190.593
1061.66	270.517
1064.55	340.657
1067.44	429.043
1070.33	536.384
1073.23	629.243
1076.12	631.384
1079.01	747.418
1081.9	781.607
1084.8	897.439
1087.69	1169.13
1090.58	1414.93
1093.47	1769.64
1096.37	1988.1
1099.26	1905.19
1102.15	1607.64
1105.05	1371.26
1107.94	1566.14
1110.83	1845.77
1113.72	1577.12
1116.62	623.588
1119.51	244.65
1122.4	242.744
1125.3	237.856
1128.19	203.721
1131.08	216.633
1133.97	171.559
1136.87	123.501
1139.76	76.5283
1142.65	73.5483
1145.54	38.3408
1148.44	20.7234
1151.33	7.71411
1154.22	9.45654
1157.12	17.249
1160.01	8.22974
1162.9	37.0049
1165.79	44.1045
1168.68	56.1726
1171.58	32.8906
1174.47	43.9141
1177.36	49.5207
1180.26	82.8391
1183.15	70.2695
1186.04	87.8784
1188.93	170.018
1191.83	173.599
1194.72	207.209
1197.61	224.227
1200.51	257.174
1203.4	206.775
1206.29	200.57
1209.18	244.411
1212.08	169.813
1214.97	199.238
1217.86	191.84
1220.75	200.181
1223.65	193.042
1226.54	226.219
1229.43	121.861
1232.33	150.677
1235.22	139.795
1238.11	84.1753
1241	78.7329
1243.9	41.0972
1246.79	35.5532
1249.68	12.3892
1252.57	8.67188
1255.47	61.2373
1258.36	26.9834
1261.25	19.0645
1264.14	32.1255
1267.04	43.5718
