Measurement: Raman, 780 nm, unoriented, Raman Data Processed
Mineral: Marialite
Rruff sample: R060458
Ideal chemistry: Na_4_Al_3_Si_9_O_24_Cl
Locality: Dading, Nepal
Source: Michael Scott
Description: Colorless elongated prism
Measured chemistry: (Na_0.52_Ca_0.47_K_0.01_)_4_(Al_0.36_Si_0.64_)_12_O_24_(Cl_0.44_(CO_3_)_0.56_)
Raman shift (cm-1)	intensity
125.954	0
128.847	5.70493
131.74	10.2319
134.632	8.92351
137.525	9.48555
140.418	12.0885
143.31	11.8647
146.203	10.1186
149.096	9.09387
151.988	16.7602
154.881	23.4487
157.774	27.5396
160.667	27.3213
163.559	25.9397
166.452	17.5102
169.345	11.8366
172.237	5.37026
175.13	1.14407
178.023	2.22187
180.916	2.62353
183.808	1.20254
186.701	5.59369
189.594	10.8836
192.486	17.0517
195.379	19.9357
198.272	21.9818
201.164	26.5098
204.057	25.2497
206.95	29.3758
209.842	32.0008
212.735	37.9263
215.628	43.8771
218.52	47.0861
221.413	46.5275
224.306	45.3885
227.199	45.6058
230.091	43.5173
232.984	38.4771
235.877	35.7375
238.769	31.2349
241.662	30.3382
244.555	35.2732
247.447	39.7947
250.34	46.6674
253.233	59.8005
256.126	76.003
259.018	92.3215
261.911	102.457
264.804	90.7418
267.696	65.6167
270.589	44.1512
273.482	27.9353
276.375	22.6086
279.267	17.976
282.16	16.114
285.053	16.5464
287.945	20.8427
290.838	26.8217
293.731	39.0327
296.623	48.0677
299.516	29.3115
302.409	13.9273
305.301	7.01377
308.194	3.04627
311.087	1.0545
313.98	0.724304
316.872	1.57293
319.765	1.36432
322.658	1.96349
325.55	0.380768
328.443	0.414093
331.336	1.03989
334.228	3.57101
337.121	5.44167
340.014	6.71339
342.907	8.89137
345.799	12.1953
348.692	16.2463
351.585	22.0696
354.477	27.3083
357.37	34.3762
360.263	40.2739
363.155	32.7512
366.048	22.9023
368.941	18.5119
371.834	15.3415
374.726	15.9331
377.619	16.9647
380.512	16.7583
383.404	15.6759
386.297	12.9551
389.19	10.014
392.082	6.37169
394.975	1.57671
397.868	0.296783
400.76	0.615646
403.653	0.706253
406.546	0.722801
409.439	4.81351
412.331	7.56779
415.224	16.4358
418.117	25.5602
421.009	35.1178
423.902	27.8281
426.795	14.7016
429.688	9.12282
432.58	9.74021
435.473	14.6203
438.366	23.6876
441.258	36.6176
444.151	50.3409
447.044	70.3402
449.936	100.385
452.829	132.077
455.722	140.34
458.615	136.532
461.507	130.447
464.4	110.059
467.293	82.8215
470.185	58.5116
473.078	40.455
475.971	27.0326
478.863	18.4292
481.756	13.1929
484.649	7.55698
487.541	3.86591
490.434	2.19767
493.327	1.09262
496.219	0.044952
499.112	0.288033
502.005	1.29866
504.898	1.56389
507.79	0.209461
510.683	0.635426
513.576	4.32577
516.468	9.17836
519.361	16.0831
522.254	25.5939
525.146	39.8336
528.039	63.8046
530.932	98.6152
533.825	132.941
536.717	126.571
539.61	86.6594
542.503	53.1392
545.395	33.6261
548.288	22.577
551.181	16.3006
554.073	13.9059
556.966	9.02666
559.859	8.74778
562.752	8.7685
565.644	6.49885
568.537	7.21576
571.43	7.70673
574.322	5.36051
577.215	8.16313
580.108	6.71402
583	7.40693
585.893	6.74723
588.786	7.30228
591.679	7.53212
594.571	6.79972
597.464	7.35471
600.357	7.09109
603.249	6.40261
606.142	5.82921
609.035	4.31554
611.928	4.64844
614.82	3.62188
617.713	2.60167
620.606	1.64054
623.498	1.41504
626.391	1.22398
629.284	0.583881
632.176	0.344894
635.069	0.091084
637.962	0.541351
640.854	0.09008
643.747	1.36445
646.64	0.275085
649.533	0.443794
652.425	0.41869
655.318	0.745766
658.211	0.268501
661.103	1.20814
663.996	1.7748
666.889	0.228027
669.781	0.752773
672.674	1.20307
675.567	0.833309
678.46	0.701736
681.352	0.742584
684.245	0.542526
687.138	0.323235
690.03	0.999329
692.923	0.964596
695.816	1.79459
698.708	2.97404
701.601	4.00263
704.494	3.49153
707.386	4.62674
710.279	5.74386
713.172	5.76746
716.065	4.69766
718.957	5.20374
721.85	5.85579
724.743	5.60309
727.635	6.21669
730.528	6.92717
733.421	6.38356
736.313	8.07093
739.206	10.4945
742.099	12.2992
744.992	15.5095
747.884	18.8574
750.777	25.2292
753.67	30.7133
756.562	37.1489
759.455	45.7958
762.348	56.134
765.24	66.5694
768.133	73.4688
771.026	72.9386
773.919	61.3742
776.811	43.6992
779.704	26.8558
782.597	16.7776
785.489	10.1189
788.382	6.41134
791.275	4.00749
794.167	2.96858
797.06	1.61334
799.953	3.17907
802.846	2.31278
805.738	0.986942
808.631	0.816963
811.524	0.046265
814.416	0.228924
817.309	0.245937
820.202	0.503784
823.094	0.194504
825.987	0.49704
828.88	0.836334
831.773	0.669655
834.665	0.464054
837.558	0.30341
840.451	0.789783
843.343	0.330948
846.236	0.008801
849.129	0.233639
852.021	1.70498
854.914	0.623245
857.807	1.28064
860.699	1.30523
863.592	0.53574
866.485	1.46559
869.378	1.88826
872.27	2.38368
875.163	2.36417
878.056	2.32134
880.948	2.64116
883.841	1.84462
886.734	1.18494
889.626	1.10999
892.519	1.03052
895.412	2.34641
898.305	0.968145
901.197	0.894747
904.09	0.687271
906.983	0.755844
909.875	1.20852
912.768	0.643791
915.661	0.283737
918.553	0.579157
921.446	0.581661
924.339	0.33086
927.232	1.05255
930.124	0.187729
933.017	1.20913
935.91	0.438778
938.802	0.050278
941.695	0.127151
944.588	0.793182
947.481	0.357719
950.373	0.055756
953.266	1.58951
956.159	1.42565
959.051	0.80405
961.944	0.904591
964.837	0.27129
967.729	0.149395
970.622	0.182484
973.515	1.3088
976.407	0.267872
979.3	0.720043
982.193	1.52687
985.086	1.45656
987.978	1.14895
990.871	2.562
993.764	3.25204
996.656	3.63179
999.549	3.97161
1002.44	4.54617
1005.33	3.81834
1008.23	3.9007
1011.12	2.77027
1014.01	3.33783
1016.9	3.98687
1019.8	3.10528
1022.69	4.20909
1025.58	5.58316
1028.48	6.58846
1031.37	5.9193
1034.26	6.81195
1037.15	6.3412
1040.05	7.59249
1042.94	5.51778
1045.83	5.68076
1048.72	5.97408
1051.62	6.0022
1054.51	6.14799
1057.4	7.36696
1060.3	9.8553
1063.19	13.2152
1066.08	15.5926
1068.97	17.7198
1071.87	21.1392
1074.76	22.6775
1077.65	25.2082
1080.55	25.9324
1083.44	29.6714
1086.33	32.4503
1089.22	35.4184
1092.12	39.762
1095.01	38.52
1097.9	33.2274
1100.79	24.8521
1103.69	18.5682
1106.58	14.8434
1109.47	11.994
1112.36	5.71645
1115.26	0.595001
1118.15	2.00474
1121.04	0.810539
1123.93	1.22068
1126.83	3.82141
1129.72	6.95637
1132.61	8.24555
1135.51	12.7853
1138.4	15.3683
1141.29	10.9735
1144.18	8.55307
1147.08	9.13417
1149.97	6.39934
1152.86	5.03346
1155.76	1.74971
1158.65	1.73576
1161.54	0
