Measurement: Raman, 532 nm, unoriented, Raman Data Processed
Mineral: Marialite
Rruff sample: R060297
Ideal chemistry: Na_4_Al_3_Si_9_O_24_Cl
Locality: Morogoro District, Marasi, Tanzania
Source: Herb Obodda
Description: Pale yellow crystal fragment
Measured chemistry: (Na_0.66_Ca_0.29_K_0.06_)_4_(Si_0.68_Al_0.32_)_12_O_24_(Cl_0.70_(CO_3_)_0.30_)
Raman shift (cm-1)	intensity
138.875	0
142.25	16.5406
145.624	47.4376
148.999	73.7528
152.374	100.213
155.749	136.337
159.124	159.85
162.498	175.827
165.873	144.607
169.248	94.9772
172.623	43.5204
175.998	11.9417
179.373	3.56598
182.747	1.22455
186.122	11.4766
189.497	20.8503
192.872	26.2086
196.247	20.684
199.621	14.4757
202.996	13.2251
206.371	13.8271
209.746	13.4818
213.121	8.46448
216.495	13.9766
219.87	23.5803
223.245	24.515
226.62	20.7716
229.995	13.566
233.37	6.09488
236.744	2.0994
240.119	6.56576
243.494	6.26254
246.869	1.3992
250.244	16.1515
253.619	36.3161
256.993	69.409
260.368	115.228
263.743	143.741
267.118	118.881
270.493	68.7937
273.867	30.9459
277.242	14.1072
280.617	4.84552
283.992	3.26877
287.367	8.08746
290.741	14.3528
294.116	29.0042
297.491	55.9466
300.866	41.7812
304.241	13.8802
307.615	3.7164
310.99	0.499725
314.365	0.4729
317.74	0.18042
321.115	3.51361
324.49	6.53049
327.864	8.46558
331.239	12.7465
334.614	16.4818
337.989	14.2511
341.364	13.0292
344.738	12.1584
348.113	14.4896
351.488	25.6352
354.863	36.7948
358.238	59.1079
361.613	69.5143
364.987	49.3272
368.362	25.6843
371.737	20.1722
375.112	25.8806
378.487	24.1862
381.861	25.7196
385.236	21.8009
388.611	16.5295
391.986	5.96643
395.361	0.599976
398.736	0.58728
402.11	1.65207
405.485	0.007751
408.86	5.33069
412.235	16.9024
415.61	30.2439
418.985	42.5703
422.359	41.9351
425.734	30.6829
429.109	27.9851
432.484	30.9109
435.859	42.3937
439.233	68.6481
442.608	97.945
445.983	144.82
449.358	250.719
452.733	420.427
456.108	527.48
459.482	546.507
462.857	472.762
466.232	339.666
469.607	217.093
472.982	133.247
476.356	82.092
479.731	53.3335
483.106	31.3939
486.481	19.2422
489.856	8.76715
493.231	4.37457
496.605	3.02396
499.98	1.95648
503.355	0.697296
506.73	1.11755
510.105	0.860748
513.479	2.67688
516.854	8.0068
520.229	14.0677
523.604	26.3445
526.979	48.875
530.354	94.4148
533.728	173.904
537.103	247.419
540.478	189.876
543.853	101.231
547.227	53.5247
550.602	32.9711
553.977	17.1918
557.352	10.3834
560.727	8.88022
564.102	4.66678
567.476	3.11233
570.851	0.943298
574.226	1.18674
577.601	4.38507
580.976	0.377747
584.351	0.758301
587.725	0.386627
591.1	4.08533
594.475	2.67465
597.85	0.465668
601.225	4.143
604.599	4.65198
607.974	5.37451
611.349	2.31534
614.724	1.1218
618.099	0.303589
621.473	1.00101
624.848	0.221863
628.223	3.61856
631.598	1.72104
634.973	0.255463
638.348	2.64533
641.722	3.13678
645.097	7.608
648.472	1.56854
651.847	3.44867
655.222	6.2366
658.596	6.85535
661.971	3.08283
665.346	5.26654
668.721	3.64005
672.096	1.20425
675.471	2.66669
678.845	1.17419
682.22	2.02869
685.595	1.8064
688.97	0.470581
692.345	1.05139
695.72	0.53833
699.094	1.80368
702.469	3.3186
705.844	5.258
709.219	8.62378
712.594	8.63678
715.968	9.57941
719.343	6.31744
722.718	5.99142
726.093	0.944641
729.468	1.17154
732.842	3.88946
736.217	6.60242
739.592	2.22906
742.967	1.77686
746.342	9.17432
749.717	6.87061
753.091	17.9099
756.466	25.061
759.841	38.0582
763.216	56.4406
766.591	74.2232
769.966	94.2031
773.34	101.219
776.715	89.7649
780.09	68.2352
783.465	36.3965
786.84	19.4506
790.214	9.95898
793.589	8.15015
796.964	3.02722
800.339	2.82019
803.714	2.38672
807.088	6.07782
810.463	2.73334
813.838	2.37909
817.213	0.920105
820.588	0.44519
823.962	0.458313
827.337	3.26227
830.712	3.58551
834.087	2.57745
837.462	1.65271
840.837	3.08044
844.211	0.029236
847.586	0.454224
850.961	3.64728
854.336	2.69556
857.711	0.591431
861.086	3.59985
864.46	3.90625
867.835	1.31635
871.21	5.68756
874.585	6.86169
877.96	2.54858
881.334	1.25464
884.709	2.83954
888.084	5.00476
891.459	1.39661
894.834	2.21631
898.208	1.60089
901.583	1.87189
904.958	3.23462
908.333	0.13855
911.708	2.97089
915.083	1.08417
918.457	0.038879
921.832	2.03857
925.207	1.7356
928.582	4.51581
931.957	2.15387
935.332	0.325317
938.706	0.237122
942.081	0.560303
945.456	1.18652
948.831	6.79962
952.206	5.41406
955.58	6.51917
958.955	10.1155
962.33	12.0274
965.705	10.6649
969.08	9.94952
972.455	15.5223
975.829	22.1343
979.204	29.0739
982.579	44.6179
985.954	67.4565
989.329	87.0182
992.703	109.09
996.078	90.9391
999.453	40.8453
1002.83	17.0699
1006.2	12.5624
1009.58	5.57343
1012.95	10.3169
1016.33	4.58826
1019.7	3.0639
1023.08	2.03204
1026.45	0.245178
1029.83	3.01764
1033.2	0.820923
1036.58	5.97156
1039.95	4.62097
1043.33	9.90601
1046.7	0.501038
1050.08	5.07697
1053.45	5.797
1056.83	13.2104
1060.2	10.8968
1063.57	13.7551
1066.95	21.2253
1070.32	27.4171
1073.7	33.133
1077.07	36.6805
1080.45	37.8835
1083.82	41.3557
1087.2	49.3935
1090.57	56.4286
1093.95	71.0066
1097.32	79.0881
1100.7	73.7274
1104.07	56.303
1107.45	45.3761
1110.82	51.9304
1114.2	72.3645
1117.57	26.7267
1120.95	9.10028
1124.32	14.6984
1127.7	6.81195
1131.07	3.65179
1134.45	5.38605
1137.82	3.2995
1141.19	1.04944
1144.57	2.40338
1147.94	5.88184
1151.32	0.786255
1154.69	4.45752
1158.07	4.66193
1161.44	0.928528
1164.82	1.95196
1168.19	1.31952
1171.57	3.01825
1174.94	2.33276
1178.32	4.78589
1181.69	5.01111
1185.07	1.49658
1188.44	5.65967
1191.82	4.75159
1195.19	10.1779
1198.57	6.96741
1201.94	11.5101
1205.32	8.94665
1208.69	6.52991
1212.07	3.93774
1215.44	4.96155
1218.82	11.9861
1222.19	6.40234
1225.57	10.7483
1228.94	9.1189
1232.32	7.94019
1235.69	5.37952
1239.07	3.71326
1242.44	4.7063
1245.82	5.16724
1249.19	6.31946
1252.56	6.00122
1255.94	0.730469
1259.31	3.76746
1262.69	2.36243
1266.06	0.18396
1269.44	5.12048
1272.81	7.44226
1276.19	7.15125
1279.56	5.33716
1282.94	2.41907
1286.31	2.76025
1289.69	3.63184
1293.06	2.74524
1296.44	2.98804
1299.81	5.08997
1303.19	1.854
