Measurement: Raman, 532 nm, unoriented, Raman Data Processed
Mineral: Markascherite
Rruff sample: R100030
Ideal chemistry: Cu_3_MoO_4_(OH)_4_
Locality: Childs Aldwinkle mine, Bunker Hill District, Copper Creek, Pinal County, Arizona, USA
Source: Mark Ascher
Description: Green bladed crystals on quartz. This is the type specimen
Measured chemistry: Cu_2.91_Mo_1.029_O_4_(OH)_4_; the lighter shade was probed
Raman shift (cm-1)	intensity
90.0101	0
93.3849	1.24043
96.7597	2.6184
100.135	5.30689
103.509	7.06392
106.884	9.07399
110.259	11.513
113.634	11.3068
117.009	10.038
120.383	8.68162
123.758	1.49263
127.133	1.31544
130.508	2.92094
133.883	1.38388
137.257	13.3391
140.632	37.0525
144.007	45.566
147.382	67.8606
150.757	109.341
154.132	153.281
157.506	166.474
160.881	142.184
164.256	119.044
167.631	99.4169
171.006	82.9334
174.381	80.2532
177.755	76.3436
181.13	71.7506
184.505	61.2571
187.88	58.5735
191.255	49.6365
194.629	32.5014
198.004	19.1624
201.379	8.64735
204.754	4.31062
208.129	5.61533
211.504	0.89534
214.878	2.07296
218.253	5.99876
221.628	3.91624
225.003	6.09382
228.377	2.18173
231.752	3.08186
235.127	9.55303
238.502	23.6349
241.877	32.8866
245.252	47.7313
248.626	60.712
252.001	76.5997
255.376	85.2119
258.751	82.2352
262.126	69.7512
265.5	67.3931
268.875	80.4074
272.25	104.849
275.625	133.839
279	152.899
282.375	148.552
285.75	128.283
289.124	114.475
292.499	123.769
295.874	143.127
299.249	165.109
302.623	195.457
305.998	243.874
309.373	342
312.748	481.793
316.123	599.545
319.498	794.205
322.872	1148.75
326.247	1681.9
329.622	1851.48
332.997	1221.48
336.372	929.082
339.747	689.062
343.121	397.167
346.496	216.834
349.871	121.595
353.246	67.6333
356.621	41.6304
359.995	21.7462
363.37	9.70924
366.745	0.034851
370.12	2.12877
373.495	7.79967
376.87	7.5178
380.244	5.6084
383.619	2.18014
386.994	2.63942
390.369	13.7945
393.744	24.7095
397.118	43.206
400.493	63.2005
403.868	67.0742
407.243	72.3647
410.618	83.9899
413.993	106.669
417.367	147.611
420.742	203.117
424.117	245.736
427.492	215.517
430.866	143.774
434.241	100.019
437.616	79.9652
440.991	78.268
444.366	91.5881
447.741	96.4168
451.115	87.0772
454.49	64.131
457.865	51.8125
461.24	44.5677
464.615	40.2702
467.99	35.1474
471.364	28.9827
474.739	25.3917
478.114	27.151
481.489	26.6245
484.864	30.7145
488.238	33.8412
491.613	31.4349
494.988	25.8522
498.363	15.9307
501.738	10.486
505.113	8.16162
508.487	2.97815
511.862	2.53831
515.237	0.110542
518.612	1.2973
521.987	3.30743
525.361	0.779556
528.736	1.74662
532.111	1.7403
535.486	0.699646
538.861	1.73135
542.236	0.512611
545.61	1.12721
548.985	0.182236
552.36	1.23256
555.735	2.75491
559.11	2.41926
562.484	3.8738
565.859	6.38177
569.234	2.62833
572.609	2.47566
575.984	3.92535
579.359	4.00938
582.733	5.10846
586.108	3.3687
589.483	5.82457
592.858	3.95805
596.232	6.36802
599.607	7.3947
602.982	9.69806
606.357	10.9858
609.732	10.8163
613.107	14.3753
616.481	18.4694
619.856	21.1989
623.231	23.8492
626.606	21.0268
629.981	19.7007
633.356	14.8098
636.73	13.0426
640.105	6.77021
643.48	5.52868
646.855	7.2231
650.23	2.01045
653.604	2.61103
656.979	1.91695
660.354	1.01398
663.729	1.55372
667.104	0.047009
670.479	0.636368
673.853	2.57071
677.228	2.7765
680.603	2.02478
683.978	3.95247
687.353	4.89492
690.727	6.23156
694.102	9.35112
697.477	10.5223
700.852	13.2202
704.227	16.5036
707.601	20.7297
710.976	20.4977
714.351	21.6745
717.726	23.7359
721.101	22.5257
724.476	28.3551
727.85	26.7918
731.225	30.825
734.6	32.2745
737.975	32.2406
741.35	30.5538
744.725	30.6027
748.099	25.6128
751.474	16.5014
754.849	10.7848
758.224	6.73832
761.599	4.25105
764.973	2.07866
768.348	0.168259
771.723	0.522186
775.098	3.15787
778.473	1.87449
781.847	2.94304
785.222	1.32417
788.597	2.53459
791.972	7.5643
795.347	13.261
798.722	15.3742
802.096	13.5426
805.471	8.20112
808.846	13.41
812.221	19.9347
815.596	27.6291
818.971	34.2098
822.345	35.8799
825.72	27.4502
829.095	13.7413
832.47	3.74171
835.845	2.78303
839.219	2.59817
842.594	8.42331
845.969	27.106
849.344	60.1671
852.719	103.582
856.093	145.99
859.468	201.815
862.843	249.626
866.218	246.445
869.593	224.457
872.967	227.48
876.342	258.615
879.717	313.626
883.092	371.793
886.467	399.449
889.842	414.357
893.216	461.036
896.591	636.317
899.966	1046.79
903.341	1545.23
906.716	2515.3
910.091	3803.36
913.465	2857.39
916.84	1222.6
920.215	736.765
923.59	438.18
926.965	231.885
930.339	128.5
933.714	73.4452
937.089	42.0973
940.464	27.7337
943.839	13.6946
947.213	10.984
950.588	3.11447
953.963	0.359901
957.338	1.95692
960.713	2.55109
964.088	4.06421
967.462	1.12455
970.837	0.500607
974.212	1.80273
977.587	0.014599
980.962	2.53701
984.337	3.17365
987.711	3.86181
991.086	4.68596
994.461	7.60683
997.836	6.64559
1001.21	9.20815
1004.59	9.9849
1007.96	10.2067
1011.34	10.9878
1014.71	10.8656
1018.09	11.5189
1021.46	10.2379
1024.83	9.24021
1028.21	9.05471
1031.58	9.15311
1034.96	7.45274
1038.33	8.42059
1041.71	7.32429
1045.08	7.0633
1048.46	6.48837
1051.83	3.89147
1055.21	6.21438
1058.58	3.62832
1061.96	2.94379
1065.33	3.88688
1068.71	5.50829
1072.08	4.7262
1075.46	3.16427
1078.83	5.29974
1082.21	2.28213
1085.58	4.85896
1088.96	2.62291
1092.33	3.4322
1095.7	1.89521
1099.08	5.27771
1102.45	1.92364
1105.83	2.65415
1109.2	1.97785
1112.58	3.52554
1115.95	1.66705
1119.33	0.560745
1122.7	0.928558
1126.08	2.27478
1129.45	2.49301
1132.83	1.12526
1136.2	0.130711
1139.58	4.00312
1142.95	1.00232
1146.33	1.97381
1149.7	2.24412
1153.08	2.838
1156.45	1.38385
1159.83	3.0474
1163.2	1.4205
1166.58	0.848042
1169.95	1.42697
1173.33	2.70797
1176.7	2.41009
1180.08	1.83197
1183.45	1.82136
1186.83	0.619066
1190.2	2.93634
1193.58	0.413469
1196.95	0.205912
1200.33	1.58562
1203.7	2.44053
1207.07	1.26847
1210.45	1.8275
1213.82	0.89176
1217.2	3.61726
1220.57	1.97051
1223.95	3.36156
1227.32	3.26286
1230.7	3.05948
1234.07	3.32195
1237.45	4.12992
1240.82	1.92375
1244.2	2.56161
1247.57	4.306
1250.95	0.376501
1254.32	3.46593
1257.7	2.89976
1261.07	4.57522
1264.45	2.81811
1267.82	3.93159
1271.2	3.35161
1274.57	0.120689
1277.95	1.10634
1281.32	4.03875
1284.69	3.12542
1288.07	3.93227
1291.44	4.28463
1294.82	0.054955
1298.19	2.26101
1301.57	0.368612
