Measurement: Raman, 785 nm, unoriented, Raman Data Processed
Mineral: Marokite
Rruff sample: R070275
Ideal chemistry: CaMn^3+^_2_O_4_
Locality: Synthetic
Source: Hexiong Yang
Description: Unconsolidated black crystals
Measured chemistry: Ca_1.00_(Mn^3+^_1.99_Al_0.01_)_Î£=2_O_4_
Raman shift (cm-1)	intensity
121.019	0
123.912	32.3744
126.805	11.2691
129.697	82.0742
132.59	164.014
135.483	79.5372
138.376	17.4076
141.268	14.9276
144.161	3.74658
147.054	73.1622
149.946	176.191
152.839	272.993
155.732	347.074
158.625	413.283
161.517	706.677
164.41	1272.58
167.303	2041.34
170.195	3098.76
173.088	5117.12
175.981	9329.76
178.873	8954.31
181.766	3009.84
184.659	1276.88
187.552	1005.38
190.444	1328.43
193.337	1615.52
196.23	1024.06
199.122	866.886
202.015	1247.24
204.908	1992.17
207.8	1335.38
210.693	327.571
213.586	72.4557
216.478	59.8098
219.371	151.778
222.264	154.803
225.157	21.1224
228.049	78.3245
230.942	219.173
233.835	506.082
236.727	1047.61
239.62	1416.12
242.513	1012.18
245.405	305.672
248.298	2.71747
251.191	45.7657
254.084	46.1528
256.976	18.3844
259.869	140.608
262.762	339.474
265.654	626.095
268.547	992.094
271.44	1218.94
274.332	1319.27
277.225	1657.06
280.118	2336.57
283.011	3052.41
285.903	3631.57
288.796	4474.54
291.689	6106.05
294.581	8479.53
297.474	9807.68
300.367	7587.06
303.26	4289.5
306.152	2278.09
309.045	1330.83
311.938	766.927
314.83	490.19
317.723	246.144
320.616	137.183
323.508	28.5603
326.401	13.7048
329.294	46.2229
332.187	20.2469
335.079	50.4552
337.972	239.783
340.865	438.693
343.757	806.261
346.65	1360.27
349.543	1365.91
352.435	698.456
355.328	455.652
358.221	571.165
361.113	1108.13
364.006	2169.17
366.899	3699.82
369.792	6234.72
372.684	10813.5
375.577	14371.9
378.47	9121.73
381.362	3834.25
384.255	2602.99
387.148	2927.57
390.041	4163.92
392.933	6287.18
395.826	6704.02
398.719	4226.35
401.611	1975.15
404.504	1065.11
407.397	628.506
410.289	390.339
413.182	227.527
416.075	133.082
418.967	75.2994
421.86	41.1898
424.753	11.571
427.646	12.73
430.538	15.1555
433.431	25.915
436.324	20.0931
439.216	6.39886
442.109	7.8999
445.002	34.1502
447.894	90.7654
450.787	135.073
453.68	197.213
456.573	245.301
459.465	271.995
462.358	384.409
465.251	601.222
468.143	940.321
471.036	1273.76
473.929	1243.79
476.822	806.579
479.714	417.746
482.607	217.791
485.5	124.484
488.392	81.1624
491.285	93.6721
494.178	132.843
497.07	93.3502
499.963	88.5981
502.856	106.634
505.748	168.826
508.641	255.143
511.534	394.079
514.427	497.413
517.319	457.388
520.212	290.392
523.105	172.646
525.997	231.978
528.89	419.579
531.783	619.77
534.676	630.018
537.568	302.234
540.461	55.1266
543.354	49.1351
546.246	83.2699
549.139	92.6496
552.032	67.4498
554.924	22.7108
557.817	47.8744
560.71	165.053
563.602	355.41
566.495	646.432
569.388	1043.74
572.281	1442.03
575.173	1634.21
578.066	1426.67
580.959	1047.88
583.851	810.146
586.744	796.019
589.637	994.338
592.529	1354.05
595.422	2076.04
598.315	3342.88
601.208	5205.02
604.1	7866.51
606.993	11185.8
609.886	14221.7
612.778	15025.4
615.671	12903.2
618.564	10157.5
621.457	9077.89
624.349	10030.8
627.242	12187
630.135	13887.3
633.027	12412.3
635.92	8388.39
638.813	5081.62
641.705	3062.91
644.598	2069.21
647.491	1392.49
650.384	1018.39
653.276	773.953
656.169	598.176
659.062	445.167
661.954	456.018
664.847	567.512
667.74	839.598
670.632	1229.65
673.525	1657.57
676.418	1779.97
679.311	1340.59
682.203	653.289
685.096	268.868
687.989	69.058
690.881	19.1565
693.774	58.8056
696.667	65.7275
699.559	66.9397
702.452	34.7437
705.345	81.6822
708.237	225.492
711.13	446.67
714.023	656.179
716.916	680.467
719.808	489.799
722.701	268.658
725.594	128.082
728.486	65.134
731.379	31.3856
734.272	17.4476
737.164	9.89093
740.057	10.7984
742.95	20.8643
745.843	8.4209
748.735	27.7529
751.628	12.9576
754.521	33.8849
757.413	6.44186
760.306	11.9003
763.199	1.23849
766.091	3.06271
768.984	41.4827
771.877	32.4898
774.77	41.3183
777.662	67.5533
780.555	59.5442
783.448	84.2533
786.34	71.4373
789.233	90.1657
792.126	104.092
795.019	100.071
797.911	80.8956
800.804	82.2383
803.697	80.4561
806.589	65.1094
809.482	65.589
812.375	51.6502
815.267	62.9611
818.16	54.456
821.053	60.3186
823.946	37.0652
826.838	20.4618
829.731	22.8714
832.624	18.9447
835.516	52.3595
838.409	32.5636
841.302	37.4589
844.194	7.68906
847.087	23.1503
849.98	5.76483
852.872	3.70499
855.765	5.81683
858.658	4.15375
861.551	31.8583
864.443	7.86188
867.336	9.801
870.229	7.96115
873.121	0.041901
876.014	11.0655
878.907	6.42596
881.799	15.659
884.692	4.44104
887.585	14.6576
890.478	5.1506
893.37	2.02109
896.263	1.20773
899.156	20.4083
902.048	15.3351
904.941	16.7508
907.834	5.86267
910.726	24.0179
913.619	0.92395
916.512	14.4991
919.405	8.09488
922.297	7.68515
925.19	5.53009
928.083	6.19455
930.975	22.7302
933.868	7.82138
936.761	17.0656
939.654	13.2484
942.546	2.01111
945.439	22.8526
948.332	11.7849
951.224	16.5192
954.117	17.369
957.01	37.2132
959.902	9.57956
962.795	34.1583
965.688	29.3342
968.581	19.8222
971.473	33.8091
974.366	20.7754
977.259	18.9075
980.151	23.5139
983.044	40.2623
985.937	34.9534
988.829	30.5243
991.722	27.5414
994.615	21.8895
997.508	23.831
1000.4	31.1362
1003.29	34.3914
1006.19	28.5998
1009.08	1.00778
1011.97	6.3602
1014.86	18.3608
1017.76	9.43405
1020.65	20.9545
1023.54	4.9661
1026.43	8.40137
1029.33	1.86072
1032.22	1.50684
1035.11	0.7677
1038.01	21.3681
1040.9	7.22281
1043.79	10.9947
1046.68	21.8009
1049.58	9.66623
1052.47	19.4795
1055.36	19.2855
1058.25	16.0464
1061.15	30.0628
1064.04	33.9869
1066.93	6.76474
1069.83	16.5821
1072.72	17.0581
1075.61	7.67569
1078.5	17.0702
1081.4	31.811
1084.29	20.8693
1087.18	11.5443
1090.07	32.2262
1092.97	30.3402
1095.86	31.1111
1098.75	27.4689
1101.64	41.0503
1104.54	36.1199
1107.43	21.3237
1110.32	17.0362
1113.21	17.4361
1116.11	25.2017
1119	13.6439
1121.89	6.11289
1124.79	7.96075
1127.68	31.8964
1130.57	46.4943
1133.46	24.8726
1136.36	24.8969
1139.25	20.7504
1142.14	17.8764
1145.04	31.6244
1147.93	10.7661
1150.82	3.62985
1153.71	16.9747
1156.61	27.9137
1159.5	6.70334
1162.39	24.6157
1165.28	6.78201
1168.18	16.4135
1171.07	13.2964
1173.96	8.22913
1176.86	16.0898
1179.75	21.3646
1182.64	16.859
1185.53	3.60391
1188.43	25.4282
1191.32	11.7925
1194.21	19.4041
1197.1	33.8918
1200	30.0673
1202.89	45.4332
1205.78	41.2416
1208.67	37.1369
1211.57	40.3037
1214.46	31.2046
1217.35	19.5964
1220.24	36.9965
1223.14	26.2036
1226.03	11.8088
1228.92	0.432007
1231.82	17.526
1234.71	7.06241
1237.6	14.5935
1240.49	12.7665
