Measurement: Raman, 532 nm, unoriented, Raman Data Processed
Mineral: Marokite
Rruff sample: R070275
Ideal chemistry: CaMn^3+^_2_O_4_
Locality: Synthetic
Source: Hexiong Yang
Description: Unconsolidated black crystals
Measured chemistry: Ca_1.00_(Mn^3+^_1.99_Al_0.01_)_Î£=2_O_4_
Raman shift (cm-1)	intensity
157.858	0
161.233	45.4609
164.607	0.04834
167.982	29.6523
171.357	176.715
174.732	254.715
178.107	361.317
181.482	132.593
184.856	132.025
188.231	302.888
191.606	524.136
194.981	457.869
198.356	334.028
201.731	488.201
205.105	745.375
208.48	296.246
211.855	41.0329
215.23	33.3189
218.605	7.50256
221.979	5.60498
225.354	20.8843
228.729	30.9069
232.104	44.1319
235.479	77.1339
238.853	163.166
242.228	177.376
245.603	92.2597
248.978	41.3219
252.353	69.0048
255.727	95.6536
259.102	190.423
262.477	255.675
265.852	419.012
269.227	542.701
272.602	464.776
275.976	315.919
279.351	262.918
282.726	332.909
286.101	393.64
289.476	553.888
292.851	829.294
296.225	974.842
299.6	767.327
302.975	441.212
306.35	313.506
309.725	355.638
313.099	490.983
316.474	664.095
319.849	593.484
323.224	197.546
326.599	40.1912
329.974	1.01849
333.348	6.94757
336.723	20.0112
340.098	36.1146
343.473	48.7594
346.848	84.5362
350.223	19.2582
353.597	14.5452
356.972	23.0432
360.347	99.9302
363.722	293.444
367.097	566.636
370.471	982.371
373.846	1536.93
377.221	1358.74
380.596	1031.13
383.971	491.755
387.346	267.159
390.72	283.527
394.095	202.562
397.47	141.341
400.845	79.0383
404.219	35.0876
407.594	5.56262
410.969	1.93311
414.344	18.6601
417.719	20.2399
421.094	9.80829
424.469	0.770325
427.843	22.0388
431.218	9.47809
434.593	4.96509
437.968	22.7539
441.343	16.666
444.717	32.9579
448.092	67.5947
451.467	77.0149
454.842	155.921
458.217	183.361
461.591	186.044
464.966	279.584
468.341	284.264
471.716	338.138
475.091	206.537
478.466	161.607
481.84	88.172
485.215	83.8735
488.59	73.9209
491.965	40.7452
495.34	50.9551
498.714	63.4866
502.089	17.9199
505.464	52.1024
508.839	10.4481
512.214	69.7198
515.589	52.1585
518.963	5.52454
522.338	47.1001
525.713	81.1092
529.088	103.918
532.463	160.152
535.837	120.105
539.212	32.5063
542.587	4.19891
545.962	4.59198
549.337	34.5576
552.712	16.0378
556.086	19.6905
559.461	42.5868
562.836	54.0566
566.211	95.5839
569.586	191.67
572.96	262.186
576.335	221.452
579.71	169.236
583.085	67.965
586.46	25.6107
589.835	67.4355
593.209	79.0912
596.584	162.942
599.959	271.658
603.334	412.734
606.709	591.092
610.083	675.808
613.458	674.069
616.833	529.501
620.208	477.149
623.583	548.368
626.958	659.654
630.332	714.377
633.707	503.714
637.082	281.593
640.457	150.999
643.832	50.0399
647.207	27.7463
650.581	25.2222
653.956	6.57629
657.331	31.4862
660.706	72.2368
664.081	158.919
667.455	279.719
670.83	379.079
674.205	456.159
677.58	320.722
680.955	188.952
684.33	80.5474
687.704	35.3559
691.079	24.4509
694.454	14.4703
697.829	1.92035
701.204	43.8516
704.578	178.552
707.953	229.164
711.328	311.329
714.703	338.269
718.078	278.393
721.452	170.741
724.827	91.439
728.202	70.3304
731.577	37.3177
734.952	33.4439
738.327	6.16785
741.701	50.0343
745.076	7.02344
748.451	21.0937
751.826	29.9911
755.201	12.0532
758.576	47.7847
761.95	34.479
765.325	20.0745
768.7	64.566
772.075	30.3243
775.45	39.4117
778.824	48.33
782.199	26.6254
785.574	51.2462
788.949	81.4255
792.324	69.4851
795.698	45.7888
799.073	70.4001
802.448	70.1258
805.823	38.9594
809.198	1.22345
812.573	3.19391
815.947	4.28455
819.322	11.1193
822.697	37.3019
826.072	18.6835
829.447	7.72559
832.822	28.921
836.196	63.7618
839.571	2.56342
842.946	48.427
846.321	68.5335
849.696	65.3654
853.07	22.6904
856.445	79.1539
859.82	32.705
863.195	0.865784
866.57	28.3986
869.944	10.944
873.319	14.6738
876.694	21.9485
880.069	84.4629
883.444	33.6509
886.819	36.7146
890.193	58.5824
893.568	66.3267
896.943	46.3339
900.318	31.1757
903.693	11.7649
907.067	17.3992
910.442	30.3878
913.817	0.25061
917.192	74.1039
920.567	18.915
923.942	62.1866
927.316	37.0564
930.691	23.3866
934.066	48.0662
937.441	46.6486
940.816	42.0168
944.191	38.8932
947.565	23.358
950.94	41.0458
954.315	15.4987
957.69	37.7145
961.065	13.8446
964.439	70.9383
967.814	43.6238
971.189	59.3141
974.564	1.34827
977.939	24.6459
981.313	16.6934
984.688	14.1808
988.063	19.9173
991.438	30.4119
994.813	28.4344
998.188	36.4579
1001.56	45.6215
1004.94	6.45856
1008.31	41.0609
1011.69	19.5764
1015.06	25.6567
1018.44	24.3314
1021.81	6.40436
1025.19	2.12128
1028.56	20.5385
1031.94	18.4544
1035.31	44.4821
1038.68	30.9618
1042.06	31.3843
1045.43	34.1867
1048.81	6.39148
1052.18	0.930542
1055.56	26.5917
1058.93	16.381
1062.31	30.8863
1065.68	80.4414
1069.06	43.8508
1072.43	34.4853
1075.81	10.359
1079.18	84.1148
1082.56	66.8401
1085.93	41.6415
1089.31	15.2403
1092.68	25.0557
1096.06	52.6054
1099.43	28.6672
1102.81	19.9957
1106.18	17.0173
1109.56	36.8179
1112.93	68.1163
1116.31	27.391
1119.68	68.8262
1123.06	8.67194
1126.43	28.4382
1129.81	44.0316
1133.18	34.4856
1136.56	5.44586
1139.93	30.5523
1143.31	23.3258
1146.68	3.62299
1150.05	25.6359
1153.43	7.52435
1156.8	58.1428
1160.18	67.6622
1163.55	50.1
1166.93	39.126
1170.3	48.8992
1173.68	13.0209
1177.05	25.723
1180.43	16.981
1183.8	16.2878
1187.18	9.64716
1190.55	4.0119
1193.93	8.427
1197.3	25.1022
1200.68	51.5363
1204.05	77.2344
1207.43	3.50244
1210.8	59.9051
1214.18	62.0109
1217.55	24.4102
1220.93	40.5813
1224.3	6.23364
1227.67	48.6368
1231.05	46.733
1234.42	29.3342
1237.8	59.6166
1241.17	55.6882
1244.55	15.4679
1247.92	45.9855
1251.3	26.7943
1254.67	22.3013
1258.05	5.18408
1261.42	15.777
1264.8	35.5402
1268.17	71.8097
1271.55	31.4576
1274.92	61.3956
1278.3	69.6616
1281.67	64.4502
1285.05	53.5551
1288.42	38.363
1291.8	44.119
1295.17	45.4581
1298.55	36.188
1301.92	32.3005
1305.3	38.4409
1308.67	24.3581
1312.05	40.9465
