Measurement: Raman, 532 nm, unoriented, Raman Data Processed
Mineral: Marokite
Rruff sample: R060829
Ideal chemistry: CaMn^3+^_2_O_4_
Locality: Tachguagalt, Morocco
Source: Michael Scott
Description: Black with carmine-red internal reflections, massive
Measured chemistry: Ca_1.00_Mn^3+^_2.00_O_4_
Raman shift (cm-1)	intensity
114.291	0
117.666	27.5979
121.041	182.233
124.416	232.873
127.79	60.3993
131.165	40.5633
134.54	19.2326
137.915	19.836
141.29	57.2123
144.665	75.9901
148.039	170.462
151.414	294.21
154.789	421.79
158.164	440.942
161.539	164.711
164.913	95.4934
168.288	43.761
171.663	114.406
175.038	247.552
178.413	388.116
181.788	36.8737
185.162	39.0841
188.537	49.3286
191.912	134.851
195.287	128.046
198.662	149.92
202.036	165.471
205.411	297.479
208.786	114.178
212.161	28.8865
215.536	22.126
218.911	8.60458
222.285	20.3948
225.66	15.6209
229.035	6.43826
232.41	63.9253
235.785	146.645
239.159	239.8
242.534	296.454
245.909	81.7303
249.284	34.2965
252.659	4.05624
256.033	2.92255
259.408	65.9824
262.783	129.624
266.158	217.009
269.533	320.62
272.908	215.733
276.282	155.934
279.657	142.99
283.032	139.95
286.407	120.347
289.782	95.7551
293.156	113.972
296.531	145.763
299.906	112.689
303.281	110.949
306.656	167.47
310.031	375.39
313.405	623.188
316.78	960.861
320.155	995.111
323.53	360.188
326.904	123.099
330.279	43.2494
333.654	9.71274
337.029	16.8071
340.404	63.7883
343.779	81.0574
347.153	103.457
350.528	88.9511
353.903	32.9904
357.278	12.9028
360.653	1.65274
364.027	21.1259
367.402	95.3054
370.777	161.174
374.152	254.744
377.527	284.202
380.902	215.844
384.276	152.057
387.651	98.1859
391.026	142.793
394.401	166.256
397.776	60.4547
401.151	40.8174
404.525	18.6949
407.9	19.4052
411.275	23.4861
414.65	22.5672
418.024	2.1442
421.399	22.8789
424.774	19.8243
428.149	3.97391
431.524	1.1644
434.899	3.85117
438.273	2.41571
441.648	8.36566
445.023	13.1444
448.398	8.15341
451.773	42.7375
455.147	57.0396
458.522	30.5053
461.897	52.3717
465.272	50.7597
468.647	84.314
472.022	121.434
475.396	101.959
478.771	71.3291
482.146	54.9119
485.521	61.8472
488.896	30.4087
492.27	52.2531
495.645	11.4899
499.02	10.0922
502.395	10.313
505.77	12.8099
509.144	23.4691
512.519	43.4449
515.894	63.8548
519.269	22.4193
522.644	24.3835
526.019	39.3326
529.393	56.241
532.768	63.8622
536.143	66.1934
539.518	14.4512
542.893	0.454651
546.268	9.72369
549.642	1.47308
553.017	14.4722
556.392	6.57178
559.767	17.801
563.141	32.8598
566.516	71.7698
569.891	105.285
573.266	177.349
576.641	206.8
580.016	152.599
583.39	125.922
586.765	100.883
590.14	106.473
593.515	182.771
596.89	281.073
600.264	510.276
603.639	772.621
607.014	1133.69
610.389	1374.38
613.764	1300.79
617.139	857.942
620.513	507.919
623.888	412.215
627.263	375.004
630.638	394.933
634.013	257.61
637.387	160.539
640.762	109.155
644.137	40.908
647.512	47.1417
650.887	43.4567
654.261	38.9372
657.636	13.1913
661.011	32.047
664.386	9.30551
667.761	7.52969
671.135	45.5162
674.51	62.5083
677.885	63.4869
681.26	36.7967
684.635	23.1127
688.01	0.914307
691.384	21.8751
694.759	3.31235
698.134	42.5068
701.509	74.9084
704.884	139.836
708.259	250.561
711.633	409.228
715.008	574.171
718.383	566.767
721.758	289.789
725.133	183.845
728.507	114.105
731.882	59.2987
735.257	42.8042
738.632	10.389
742.007	4.798
745.381	12.583
748.756	9.80322
752.131	14.3854
755.506	11.2597
758.881	5.71549
762.255	19.9642
765.63	2.62604
769.005	10.1986
772.38	0.453522
775.755	1.57773
779.13	7.58273
782.504	8.26559
785.879	37.7243
789.254	6.67072
792.629	8.17136
796.004	30.747
799.378	17.0708
802.753	10.9884
806.128	6.608
809.503	20.904
812.878	29.3487
816.253	14.253
819.627	17.3072
823.002	1.10272
826.377	22.8096
829.752	24.9385
833.127	19.2872
836.501	17.4399
839.876	29.2707
843.251	22.1604
846.626	14.4518
850.001	23.5183
853.375	32.2082
856.75	18.4452
860.125	15.771
863.5	11.9424
866.875	20.2537
870.25	15.3506
873.624	32.1079
876.999	28.0231
880.374	1.80441
883.749	11.5199
887.124	38.1139
890.498	36.8527
893.873	29.5666
897.248	22.8145
900.623	15.1666
903.998	16.5308
907.372	29.8101
910.747	21.5445
914.122	14.929
917.497	28.5713
920.872	18.9514
924.246	36.1864
927.621	31.7942
930.996	34.2132
934.371	26.5564
937.746	21.2783
941.121	3.32037
944.495	45.1574
947.87	43.7375
951.245	41.3402
954.62	6.57553
957.995	5.98144
961.37	10.1344
964.744	33.7001
968.119	34.6487
971.494	2.91904
974.869	28.72
978.244	1.58725
981.618	11.5553
984.993	25.5776
988.368	15.6549
991.743	35.0554
995.118	17.2435
998.492	24.9627
1001.87	14.0287
1005.24	30.1322
1008.62	0.213837
1011.99	7.30112
1015.37	35.6764
1018.74	49.2188
1022.12	8.53476
1025.49	25.8668
1028.87	37.5595
1032.24	24.7878
1035.62	30.8495
1038.99	8.50626
1042.37	1.99707
1045.74	20.1339
1049.12	28.2513
1052.49	22.6549
1055.86	50.2378
1059.24	34.7169
1062.61	4.13638
1065.99	26.709
1069.36	41.5085
1072.74	44.6127
1076.11	44.9703
1079.49	20.4662
1082.86	36.8806
1086.24	40.1042
1089.61	42.508
1092.99	13.3346
1096.36	18.4591
1099.74	29.7334
1103.11	48.9293
1106.49	41.9884
1109.86	17.3257
1113.24	24.2363
1116.61	20.5887
1119.99	4.1712
1123.36	34.9253
1126.73	27.4566
1130.11	13.9925
1133.48	0.393097
1136.86	16.5178
1140.23	2.32013
1143.61	3.6637
1146.98	9.2345
1150.36	20.1128
1153.73	10.2501
1157.11	31.2146
1160.48	18.4477
1163.86	5.71014
1167.23	39.3124
1170.61	6.16095
1173.98	9.08719
1177.36	11.9651
1180.73	17.3896
1184.11	29.1837
1187.48	22.9038
1190.86	16.4645
1194.23	20.7841
1197.61	5.97537
1200.98	25.223
1204.36	20.7804
1207.73	24.373
1211.11	25.2224
1214.48	16.7964
1217.86	1.5361
1221.23	17.5972
1224.61	27.5785
1227.98	13.59
1231.36	19.6265
1234.73	31.9208
1238.1	27.8567
1241.48	28.9841
1244.85	20.4684
1248.23	31.4097
1251.6	38.3037
1254.98	11.2773
1258.35	8.28311
1261.73	10.6415
1265.1	34.0723
1268.48	11.7432
1271.85	35.2001
1275.23	10.1612
1278.6	9.86972
1281.98	31.9378
1285.35	9.75629
1288.73	0
