Measurement: Raman, 785 nm, unoriented, Raman Data Processed
Mineral: Marokite
Rruff sample: R060829
Ideal chemistry: CaMn^3+^_2_O_4_
Locality: Tachguagalt, Morocco
Source: Michael Scott
Description: Black with carmine-red internal reflections, massive
Measured chemistry: Ca_1.00_Mn^3+^_2.00_O_4_
Raman shift (cm-1)	intensity
117.671	0
120.564	96.1467
123.456	321.498
126.349	291.737
129.242	395.796
132.134	546.486
135.027	215.651
137.92	41.9899
140.812	37.9847
143.705	39.1235
146.598	242.058
149.49	433.136
152.383	621.805
155.276	717.96
158.169	619.867
161.061	558.115
163.954	780.988
166.847	1588.33
169.739	3760.95
172.632	7387.45
175.525	13221.4
178.417	14413.4
181.31	2834.6
184.203	798.657
187.096	531.905
189.988	693.212
192.881	866.004
195.774	511.322
198.666	1072.38
201.559	2321.96
204.452	4424.32
207.345	3667.81
210.237	568.922
213.13	177.418
216.023	291.412
218.915	623.027
221.808	752.446
224.701	34.4926
227.593	67.4945
230.486	177.77
233.379	827.788
236.272	1938.23
239.164	3213.25
242.057	3203.49
244.95	914.845
247.842	169.367
250.735	5.5332
253.628	11.1481
256.52	97.9386
259.413	378.678
262.306	1055.16
265.199	1970.11
268.091	3003.19
270.984	2654.96
273.877	1262.75
276.769	1055.67
279.662	1375.26
282.555	1775.43
285.447	1934.84
288.34	2192.62
291.233	2645.73
294.125	3286.2
297.018	3930.47
299.911	3180.78
302.804	1676.21
305.696	842.872
308.589	476.716
311.482	274.679
314.374	200.394
317.267	117.882
320.16	58.025
323.053	1.37048
325.945	27.6916
328.838	28.6216
331.731	19.8771
334.623	8.70081
337.516	75.8007
340.409	291.669
343.301	690.57
346.194	1103.77
349.087	1304.79
351.979	556.225
354.872	222.684
357.765	169.953
360.658	197.321
363.55	374.963
366.443	757.446
369.336	1738.34
372.228	2985.6
375.121	4575.41
378.014	3356.74
380.906	1678.14
383.799	1769.68
386.692	3247.6
389.585	6465.84
392.477	10592.3
395.37	13702.2
398.263	8953.9
401.155	3595.03
404.048	1799.62
406.941	1085.79
409.834	619.687
412.726	330.606
415.619	201.812
418.512	134.815
421.404	73.6693
424.297	22.9291
427.19	18.1616
430.082	13.8048
432.975	46.5806
435.868	21.3498
438.76	0.104065
441.653	2.60529
444.546	35.4269
447.439	105.828
450.331	115.379
453.224	178.713
456.117	190.564
459.009	183.077
461.902	227.064
464.795	340.408
467.687	510.351
470.58	710.442
473.473	746.374
476.365	488.137
479.258	242.223
482.151	115.021
485.044	94.0128
487.936	97.956
490.829	117.693
493.722	104.791
496.614	53.1497
499.507	31.4135
502.4	29.756
505.293	69.9653
508.185	126.393
511.078	242.934
513.971	335.307
516.863	354.97
519.756	205.851
522.649	165.649
525.541	265.305
528.434	532.134
531.327	914.428
534.22	1154.83
537.112	636.278
540.005	164.733
542.898	19.278
545.79	85.8378
548.683	114.974
551.576	103.957
554.468	54.0288
557.361	3.18799
560.254	84.4243
563.146	297.157
566.039	601.875
568.932	1012.07
571.825	1561.04
574.717	2039.71
577.61	1990.77
580.503	1496.51
583.395	1079.2
586.288	976.216
589.181	993.72
592.073	1208.24
594.966	1621.78
597.859	2330.8
600.752	3530.12
603.644	5423.44
606.537	8052.83
609.43	10969
612.322	12773.4
615.215	13229.2
618.108	14057.3
621	17012
623.893	25640.2
626.786	38062.5
629.679	48717.4
632.571	45589.5
635.464	29160.8
638.357	16607.1
641.25	9932.43
644.142	6463.08
647.035	4489.44
649.928	3287.3
652.82	2521.82
655.713	1907.43
658.606	1449.72
661.498	1086.47
664.391	849.572
667.284	773.788
670.177	906.978
673.069	1136.85
675.962	1294.04
678.855	984.778
681.747	458.59
684.64	133.422
687.533	10.8025
690.425	83.2177
693.318	115.407
696.211	105.298
699.104	43.7897
701.996	47.0933
704.889	196.532
707.782	550.286
710.674	1109.77
713.567	1832.47
716.46	2300.35
719.352	1886.88
722.245	1149.05
725.138	579.484
728.03	357.873
730.923	206.558
733.816	115.753
736.709	58.43
739.601	63.5215
742.494	39.505
745.387	19.0267
748.279	42.5364
751.172	14.7258
754.065	1.21655
756.957	11.3839
759.85	3.20984
762.743	5.77625
765.636	9.3783
768.528	1.70502
771.421	31.5102
774.314	41.8688
777.206	45.0273
780.099	43.4653
782.992	89.049
785.885	83.9782
788.777	112.015
791.67	102.043
794.563	108.696
797.455	118.918
800.348	105.235
803.241	105.932
806.133	108.406
809.026	128.197
811.919	128.381
814.812	259.975
817.704	91.1632
820.597	97.7288
823.49	61.1954
826.382	53.7071
829.275	59.7762
832.168	49.7793
835.06	35.3706
837.953	51.4283
840.846	51.3167
843.738	39.1245
846.631	36.1063
849.524	19.6129
852.417	21.0085
855.309	17.0659
858.202	6.7085
861.095	9.41907
863.987	11.7123
866.88	11.6593
869.773	14.9962
872.665	9.47827
875.558	6.88471
878.451	20.7363
881.343	18.4303
884.236	23.8341
887.129	18.5102
890.022	8.44348
892.914	1.65857
895.807	17.569
898.7	12.8529
901.592	25.9063
904.485	11.5747
907.378	4.93536
910.27	3.79272
913.163	7.4787
916.056	2.12714
918.949	4.25836
921.841	5.16739
924.734	14.545
927.627	0.972748
930.519	4.48242
933.412	9.99823
936.305	0.437378
939.197	13.245
942.09	15.9229
944.983	13.6429
947.876	15.5749
950.768	12.239
953.661	28.6242
956.554	6.78665
959.446	28.9785
962.339	24.2971
965.232	51.4741
968.125	48.2903
971.017	61.5866
973.91	40.7184
976.803	39.523
979.695	50.5165
982.588	52.4763
985.481	18.7859
988.373	18.9548
991.266	37.6839
994.159	6.33273
997.052	39.8641
999.944	33.2657
1002.84	52.2557
1005.73	21.3218
1008.62	32.7906
1011.51	32.9198
1014.41	39.1024
1017.3	30.0273
1020.19	30.9671
1023.09	14.2951
1025.98	9.3114
1028.87	10.6097
1031.76	18.8204
1034.66	29.9749
1037.55	21.5759
1040.44	16.6545
1043.34	15.9478
1046.23	36.6501
1049.12	25.0272
1052.01	8.05026
1054.91	27.8428
1057.8	18.8933
1060.69	27.0096
1063.58	23.9077
1066.48	22.7269
1069.37	19.8351
1072.26	15.9055
1075.15	21.3491
1078.05	16.0667
1080.94	29.4674
1083.83	38.4217
1086.72	26.1701
1089.62	30.7685
1092.51	16.549
1095.4	28.7111
1098.3	9.00131
1101.19	18.9723
1104.08	3.1088
1106.97	20.1361
1109.87	2.20728
1112.76	3.8208
1115.65	8.49454
1118.55	9.96283
1121.44	6.98828
1124.33	28.0406
1127.22	4.90894
1130.12	11.0309
1133.01	6.06476
1135.9	24.1726
1138.79	1.24594
1141.69	6.18799
1144.58	11.1804
1147.47	0.16449
1150.37	7.60397
1153.26	9.47321
1156.15	8.88541
1159.04	6.46048
1161.93	21.7244
1164.83	242.579
1167.72	3.81671
1170.61	5.59305
1173.51	0.08847
1176.4	25.3778
1179.29	20.037
1182.18	20.2942
1185.08	22.329
1187.97	28.6295
1190.86	33.8244
1193.76	28.6197
1196.65	44.628
1199.54	38.9226
1202.43	28.6177
1205.33	8.28354
1208.22	22.0803
1211.11	40.0227
1214	126.496
1216.9	31.745
1219.79	30.3554
1222.68	20.2957
1225.58	43.6043
1228.47	26.7666
1231.36	26.006
1234.25	12.6727
1237.15	18.9227
1240.04	19.8829
1242.93	18.2075
1245.82	16.5038
1248.72	19.587
1251.61	0.870422
1254.5	8.87524
1257.39	16.929
1260.29	24.6209
1263.18	0.372192
