Measurement: Raman, 780 nm, unoriented, Raman Data Processed
Mineral: Marsturite
Rruff sample: R141210
Ideal chemistry: NaCaMn^2+^_3_Si_5_O_14_(OH)
Locality: Wessels mine, Kalahari Manganese Field, Northern Cape Province, South Africa
Source: Jaco and Tania Janse van Nieuwenhuizen
Description: Colorless granular crystals in a vein. The matrix is a mixture of quartz and bixbyite, associated with marshallsussmanite.
Measured chemistry: (Na_0.80_Ca_0.13_)_Σ=0.93_Ca_1.00_(Mn^2+^_2.81_Mg_0.12_Fe^2+^_0.01_)_Σ=2.94_Si_5.00_O_14_(OH)
Raman shift (cm-1)	intensity
100.72	0
104.095	3.76031
107.47	10.586
110.845	14.3297
114.219	29.452
117.594	19.8173
120.969	2.42474
124.344	5.39841
127.719	9.619
131.094	6.43803
134.468	2.52638
137.843	15.5433
141.218	36.8571
144.593	14.7458
147.968	1.72168
151.342	0.849838
154.717	10.2351
158.092	20.2131
161.467	19.1764
164.842	11.7292
168.216	8.62026
171.591	8.80745
174.966	8.59358
178.341	7.75575
181.716	12.2586
185.09	14.1703
188.465	3.96692
191.84	0.392426
195.215	1.38628
198.59	0.154922
201.965	0.005463
205.339	1.21816
208.714	0.667465
212.089	4.00879
215.464	10.7847
218.839	12.09
222.214	12.811
225.588	15.5886
228.963	14.1189
232.338	11.6253
235.713	10.1166
239.088	8.1351
242.462	8.21472
245.837	8.9742
249.212	7.91176
252.587	9.13057
255.962	13.7862
259.336	22.5999
262.711	36.255
266.086	41.7278
269.461	35.8405
272.836	25.1189
276.211	13.7388
279.585	9.13875
282.96	6.13463
286.335	5.54669
289.71	7.73524
293.085	11.905
296.459	18.459
299.834	22.3294
303.209	31.2049
306.584	45.8008
309.959	60.7485
313.334	63.5516
316.708	53.0401
320.083	44.1963
323.458	37.8633
326.833	29.5242
330.207	17.4268
333.582	10.0076
336.957	6.90282
340.332	5.12308
343.707	4.20929
347.082	0.944656
350.456	1.55528
353.831	0.761734
357.206	1.66658
360.581	0.807907
363.956	2.36127
367.33	4.19045
370.705	6.89748
374.08	6.57642
377.455	6.5145
380.83	4.93854
384.205	4.6647
387.579	0.362564
390.954	1.5455
394.329	1.02574
397.704	1.22463
401.079	2.61073
404.453	6.51002
407.828	11.2916
411.203	10.5909
414.578	14.5544
417.953	15.2921
421.327	11.0231
424.702	7.33115
428.077	7.92065
431.452	10.1581
434.827	8.81639
438.202	7.92743
441.576	5.79993
444.951	6.60089
448.326	1.53805
451.701	1.88861
455.076	0.920273
458.45	1.88214
461.825	0.178406
465.2	1.12759
468.575	0.816666
471.95	0.250931
475.325	0.845413
478.699	0.129395
482.074	0.004166
485.449	1.2439
488.824	2.35721
492.199	2.62085
495.573	3.15497
498.948	2.92151
502.323	5.38945
505.698	5.63945
509.073	6.5282
512.447	8.08583
515.822	8.20364
519.197	7.55827
522.572	8.71693
525.947	6.94965
529.322	5.05454
532.696	4.31299
536.071	6.34715
539.446	6.58318
542.821	7.40457
546.196	5.07065
549.57	3.67248
552.945	3.01453
556.32	2.80449
559.695	2.69195
563.07	3.08036
566.444	1.52069
569.819	2.97872
573.194	0.225456
576.569	0.447983
579.944	0.136353
583.319	0.029518
586.693	1.2873
590.068	0.679832
593.443	0.018547
596.818	0.043762
600.193	0.399597
603.567	1.65483
606.942	0.768707
610.317	1.57902
613.692	1.61896
617.067	1.23167
620.442	3.73534
623.816	4.32873
627.191	5.93237
630.566	8.04758
633.941	14.3829
637.316	26.41
640.69	41.6954
644.065	40.567
647.44	49.5101
650.815	76.2281
654.19	130.078
657.564	238.143
660.939	361.38
664.314	339.953
667.689	212.063
671.064	129.309
674.439	95.0884
677.813	82.0782
681.188	70.2831
684.563	54.7268
687.938	34.3375
691.313	22.7397
694.688	17.3074
698.062	17.6089
701.437	21.2981
704.812	22.1637
708.187	15.8731
711.562	8.59528
714.936	3.19925
718.311	1.58995
721.686	1.36957
725.061	0.259521
728.436	2.24283
731.81	2.68396
735.185	3.86436
738.56	3.70474
741.935	0.276749
745.31	0.403824
748.684	0.563202
752.059	0.416672
755.434	0.217331
758.809	1.9758
762.184	1.2126
765.559	0.041214
768.933	0.290482
772.308	0.108688
775.683	0.468964
779.058	0.431488
782.433	0.076675
785.808	2.38322
789.182	0.237854
792.557	2.15352
795.932	3.63081
799.307	4.98109
802.682	7.63419
806.056	11.4445
809.431	18.5551
812.806	20.5773
816.181	27.9087
819.556	32.9061
822.93	33.0074
826.305	29.054
829.68	24.5567
833.055	21.2252
836.43	20.0262
839.804	19.1774
843.179	16.3592
846.554	11.737
849.929	9.94316
853.304	11.94
856.679	7.2497
860.053	8.20477
863.428	6.15489
866.803	3.83994
870.178	2.95543
873.553	4.4191
876.927	7.38173
880.302	6.35107
883.677	6.27661
887.052	5.96883
890.427	5.12882
893.802	4.35481
897.176	5.18809
900.551	3.48828
903.926	1.96464
907.301	2.2166
910.676	1.68483
914.05	1.77699
917.425	4.00751
920.8	0.729202
924.175	0.270401
927.55	0.252823
930.924	1.56297
934.299	2.8627
937.674	0.454834
941.049	1.15781
944.424	0.96814
947.799	0.916016
951.173	0.852203
954.548	0.397415
957.923	3.28813
961.298	6.74199
964.673	7.14262
968.047	11.9131
971.422	18.1845
974.797	28.5303
978.172	42.1903
981.547	59.2103
984.922	66.9416
988.296	66.9765
991.671	58.543
995.046	52.1328
998.421	50.5868
1001.8	59.5799
1005.17	70.473
1008.54	95.7159
1011.92	133.236
1015.29	136.547
1018.67	95.588
1022.04	54.8305
1025.42	32.8911
1028.79	20.18
1032.17	13.6853
1035.54	10.72
1038.92	5.93645
1042.29	7.02364
1045.67	4.10338
1049.04	3.29535
1052.42	0.161621
1055.79	1.08847
1059.17	0.11026
1062.54	0.555359
1065.92	0.067841
1069.29	1.01099
1072.67	0.65239
1076.04	0.974594
1079.42	1.34572
1082.79	1.23158
1086.17	3.65355
1089.54	4.67313
1092.92	3.04553
1096.29	3.3141
1099.66	4.50812
1103.04	5.78876
1106.41	11.4239
1109.79	19.6857
1113.16	25.1493
1116.54	21.5217
1119.91	10.3221
1123.29	5.40813
1126.66	2.78329
1130.04	0.122894
1133.41	1.46556
1136.79	0.508011
1140.16	2.07867
1143.54	0.856293
1146.91	2.09732
1150.29	2.47304
1153.66	0.973969
1157.04	0.491013
1160.41	0.094879
1163.79	0.480087
1167.16	1.02336
1170.54	0.551773
1173.91	2.07146
1177.29	5.12219
1180.66	9.44302
1184.04	14.0511
1187.41	14.4163
1190.79	8.42647
1194.16	2.72441
1197.54	0.373352
1200.91	0.801758
1204.28	1.84465
1207.66	0.409653
1211.03	0.078323
1214.41	1.67355
1217.78	2.10922
1221.16	3.254
1224.53	6.90567
1227.91	6.58966
1231.28	8.63238
1234.66	4.95598
1238.03	4.43011
1241.41	3.48152
1244.78	3.53845
1248.16	2.58627
1251.53	1.24155
1254.91	1.5975
1258.28	0.807281
1261.66	0.442627
1265.03	2.4207
1268.41	2.60095
1271.78	0.461121
1275.16	1.77553
1278.53	0.0504
1281.9	1.12026
