Measurement: Raman, 780 nm, unoriented, Raman Data Processed
Mineral: Marsturite
Rruff sample: R141122
Ideal chemistry: NaCaMn^2+^_3_Si_5_O_14_(OH)
Locality: Joaquina 1<sup>a</sup> mine, Bellmunt del Priorat, Tarragona, Catalonia, Spain
Source: Joan Abella i Creus
Description: Massive aggregate of elongated or bladed grey to grey-brownish crystals
Measured chemistry: (Na_0.91_Ca_0.09_)(Ca_0.97_Mn^2+^_0.03_)(Mn^2+^_2.98_Mg_0.03_Fe^2+^_0.01_)_Σ=3.02_(Si_4.95_V^3+^_0.02_)_Σ=4.97_O_14_(OH)
Raman shift (cm-1)	intensity
100.72	0
104.095	2.93166
107.47	10.2461
110.845	27.9847
114.219	66.2946
117.594	47.4888
120.969	13.0995
124.344	8.25664
127.719	10.8035
131.094	12.2011
134.468	15.0867
137.843	28.1383
141.218	71.3699
144.593	29.8298
147.968	3.45132
151.342	1.66016
154.717	0.115822
158.092	4.12611
161.467	10.74
164.842	18.9389
168.216	30.7375
171.591	48.2177
174.966	46.9918
178.341	28.5084
181.716	19.7682
185.09	25.8268
188.465	35.1038
191.84	34.0774
195.215	16.4476
198.59	5.42391
201.965	0.124359
205.339	0.551334
208.714	1.96153
212.089	10.5735
215.464	22.0468
218.839	17.8705
222.214	15.5104
225.588	18.5424
228.963	16.798
232.338	10.8639
235.713	5.09386
239.088	5.55908
242.462	6.18034
245.837	3.02999
249.212	0.340046
252.587	3.95226
255.962	3.41939
259.336	1.1604
262.711	14.4452
266.086	32.0831
269.461	46.3983
272.836	49.1587
276.211	51.4055
279.585	42.301
282.96	39.3772
286.335	40.2928
289.71	42.7016
293.085	45.5921
296.459	45.454
299.834	47.9963
303.209	57.7756
306.584	70.0105
309.959	72.394
313.334	55.2024
316.708	30.713
320.083	17.468
323.458	15.6663
326.833	11.3999
330.207	8.12908
333.582	13.605
336.957	27.148
340.332	44.2227
343.707	43.766
347.082	28.5377
350.456	14.539
353.831	10.2177
357.206	13.4623
360.581	20.6431
363.956	31.4335
367.33	47.7445
370.705	67.3385
374.08	68.5943
377.455	59.2123
380.83	55.9558
384.205	48.8982
387.579	31.828
390.954	20.0222
394.329	12.5337
397.704	8.59834
401.079	9.91574
404.453	11.3691
407.828	11.7548
411.203	9.50008
414.578	10.4205
417.953	6.25448
421.327	0.499645
424.702	2.44754
428.077	2.90366
431.452	0.014484
434.827	0.256954
438.202	0.023235
441.576	0.140533
444.951	0.536114
448.326	1.39576
451.701	0.145458
455.076	0.765501
458.45	2.45908
461.825	4.14535
465.2	6.10102
468.575	7.15784
471.95	9.25113
475.325	12.6909
478.699	15.7395
482.074	20.4278
485.449	25.7219
488.824	40.0204
492.199	50.3928
495.573	49.4825
498.948	45.0913
502.323	39.0046
505.698	33.3668
509.073	26.5129
512.447	18.7581
515.822	13.1767
519.197	9.13615
522.572	8.97988
525.947	11.4543
529.322	16.5991
532.696	23.2879
536.071	26.2188
539.446	20.448
542.821	14.0394
546.196	8.18032
549.57	5.33659
552.945	4.22201
556.32	3.99698
559.695	6.38807
563.07	7.80397
566.444	7.10209
569.819	6.0384
573.194	3.16036
576.569	1.68955
579.944	0.976019
583.319	0.435221
586.693	0.24754
590.068	0.858065
593.443	1.14096
596.818	1.32543
600.193	0.223202
603.567	0.78883
606.942	1.85397
610.317	1.69199
613.692	4.13068
617.067	4.32709
620.442	5.40476
623.816	6.24833
627.191	8.07477
630.566	11.1917
633.941	14.4426
637.316	19.9113
640.69	27.3656
644.065	38.8539
647.44	61.6215
650.815	100.955
654.19	176.447
657.564	327.314
660.939	489.585
664.314	402.054
667.689	228.341
671.064	130.887
674.439	91.8254
677.813	76.6398
681.188	67.4284
684.563	51.095
687.938	33.7608
691.313	22.5589
694.688	18.5064
698.062	19.1241
701.437	19.9889
704.812	20.3573
708.187	17.9478
711.562	12.5444
714.936	8.67612
718.311	7.12448
721.686	7.48654
725.061	6.03815
728.436	4.63471
731.81	2.45331
735.185	0.355879
738.56	0.282532
741.935	1.05572
745.31	0.868847
748.684	0.701876
752.059	0.103226
755.434	0.338388
758.809	0.038925
762.184	0.41839
765.559	0.086439
768.933	0.375074
772.308	1.82494
775.683	2.46791
779.058	4.03891
782.433	4.40862
785.808	5.41837
789.182	5.65213
792.557	5.78388
795.932	5.13725
799.307	4.55823
802.682	3.28151
806.056	2.24526
809.431	0.887026
812.806	0.292208
816.181	1.13069
819.556	2.261
822.93	2.88444
826.305	3.69322
829.68	4.0801
833.055	4.83484
836.43	6.88037
839.804	8.67764
843.179	9.93898
846.554	12.1001
849.929	12.5199
853.304	11.3642
856.679	9.69714
860.053	6.97858
863.428	5.55272
866.803	3.80205
870.178	0.362534
873.553	0.658283
876.927	0.675535
880.302	1.12895
883.677	0.145967
887.052	1.73673
890.427	2.66379
893.802	4.86056
897.176	5.89306
900.551	6.49054
903.926	6.71746
907.301	7.02794
910.676	7.64942
914.05	6.12267
917.425	4.54676
920.8	2.69986
924.175	1.41349
927.55	0.519661
930.924	0.739079
934.299	0.636101
937.674	0.797863
941.049	1.79424
944.424	2.36562
947.799	3.25292
951.173	3.90507
954.548	5.98376
957.923	9.65132
961.298	11.5275
964.673	17.6213
968.047	28.901
971.422	47.537
974.797	77.237
978.172	120.814
981.547	164.502
984.922	178.941
988.296	168.703
991.671	148.542
995.046	124.211
998.421	107.686
1001.8	105.254
1005.17	120.403
1008.54	154.083
1011.92	174.071
1015.29	147.005
1018.67	95.572
1022.04	61.0989
1025.42	45.8543
1028.79	40.6885
1032.17	36.8665
1035.54	35.3375
1038.92	33.6639
1042.29	32.6883
1045.67	25.4743
1049.04	14.4279
1052.42	5.64062
1055.79	1.91368
1059.17	0.600645
1062.54	1.10049
1065.92	0.803617
1069.29	0.822971
1072.67	0.589701
1076.04	0.957417
1079.42	0.108484
1082.79	0.634771
1086.17	0.561523
1089.54	0.45203
1092.92	2.1906
1096.29	1.80417
1099.66	1.19332
1103.04	2.08001
1106.41	2.67521
1109.79	1.95455
1113.16	1.99758
1116.54	1.74716
1119.91	1.58263
1123.29	1.14072
1126.66	0.954033
1130.04	0.672667
1133.41	0.388977
1136.79	0.514317
1140.16	0.78022
1143.54	0.597225
1146.91	0.807653
1150.29	0.079985
1153.66	0.439404
1157.04	0.747803
1160.41	0.88176
1163.79	0.049026
1167.16	0.489361
1170.54	0.721811
1173.91	0.605057
1177.29	0.575499
1180.66	0.834631
1184.04	0.826965
1187.41	1.35284
1190.79	0.823908
1194.16	0.871376
1197.54	0.507303
1200.91	0.706038
1204.28	0.465363
1207.66	0.576561
1211.03	0.406221
1214.41	0.22349
1217.78	0.513435
1221.16	0.777706
1224.53	0.777336
1227.91	1.85826
1231.28	0.635597
1234.66	1.00518
1238.03	0.177019
1241.41	0.009174
1244.78	0.393993
1248.16	0.570831
1251.53	0.368868
1254.91	0.271158
1258.28	0.713364
1261.66	0.364614
1265.03	0.731646
1268.41	0.654732
1271.78	0.289621
1275.16	0.634714
1278.53	0.60626
1281.9	0.325562
