Measurement: Raman, 532 nm, unoriented, Raman Data Processed
Mineral: Marsturite
Rruff sample: R141122
Ideal chemistry: NaCaMn^2+^_3_Si_5_O_14_(OH)
Locality: Joaquina 1<sup>a</sup> mine, Bellmunt del Priorat, Tarragona, Catalonia, Spain
Source: Joan Abella i Creus
Description: Massive aggregate of elongated or bladed grey to grey-brownish crystals
Measured chemistry: (Na_0.91_Ca_0.09_)(Ca_0.97_Mn^2+^_0.03_)(Mn^2+^_2.98_Mg_0.03_Fe^2+^_0.01_)_Σ=3.02_(Si_4.95_V^3+^_0.02_)_Σ=4.97_O_14_(OH)
Raman shift (cm-1)	intensity
95.0865	0
98.4613	2.0403
101.836	0.377502
105.211	22.3149
108.586	70.7025
111.961	179.476
115.335	360.229
118.71	240.712
122.085	112.684
125.46	94.1323
128.835	94.4808
132.209	100.624
135.584	137.546
138.959	261.803
142.334	409.898
145.709	133.827
149.084	44.7792
152.458	25.9345
155.833	24.5172
159.208	39.6937
162.583	61.9896
165.958	95.0847
169.333	133.938
172.707	175.486
176.082	144.216
179.457	82.2196
182.832	69.8845
186.207	90.4514
189.581	114.706
192.956	91.3049
196.331	36.1979
199.706	6.18428
203.081	4.22369
206.455	2.79411
209.83	13.6377
213.205	53.1256
216.58	76.3734
219.955	67.3411
223.329	80.3025
226.704	94.8591
230.079	78.361
233.454	40.2463
236.829	13.3928
240.204	7.13767
243.578	5.24713
246.953	1.45096
250.328	15.3117
253.703	20.1711
257.078	3.46558
260.452	34.3244
263.827	111.54
267.202	208.481
270.577	247.083
273.952	242.758
277.327	213.108
280.701	166.483
284.076	144.049
287.451	147.673
290.826	156.943
294.201	174.151
297.575	199.452
300.95	245.424
304.325	318.787
307.7	391.68
311.075	365.39
314.45	236.779
317.824	120.816
321.199	70.1684
324.574	64.8425
327.949	53.3202
331.324	53.9679
334.699	95.5354
338.073	167.957
341.448	225.255
344.823	199.934
348.198	133.575
351.573	86.4615
354.947	66.4851
358.322	81.7322
361.697	123.869
365.072	189.954
368.447	286.105
371.822	344.929
375.196	303.493
378.571	230.869
381.946	188.687
385.321	147.693
388.696	100.042
392.07	63.3146
395.445	41.798
398.82	33.9917
402.195	31.9476
405.57	37.7933
408.945	41.3606
412.319	48.2268
415.694	47.9929
419.069	26.9982
422.444	5.94334
425.818	5.74031
429.193	7.52339
432.568	7.35216
435.943	6.53166
439.318	4.65894
442.693	3.48883
446.067	0.356979
449.442	2.89052
452.817	9.87068
456.192	18.7936
459.567	27.7595
462.942	38.9327
466.316	40.3491
469.691	48.5348
473.066	65.2617
476.441	87.7786
479.816	104.445
483.19	125.217
486.565	161.912
489.94	226.584
493.315	260.578
496.69	257.68
500.065	245.91
503.439	217.809
506.814	185.766
510.189	150.464
513.564	107.321
516.939	73.2868
520.313	60.3913
523.688	68.6417
527.063	101.074
530.438	149.097
533.813	195.462
537.188	185.596
540.562	123.974
543.937	73.0161
547.312	42.3131
550.687	27.0981
554.062	21.2395
557.436	23.2214
560.811	30.8043
564.186	35.6778
567.561	31.8287
570.936	21.4372
574.311	12.3424
577.685	6.41119
581.06	1.90212
584.435	2.05399
587.81	2.24387
591.185	5.06404
594.559	5.20622
597.934	3.75577
601.309	2.61673
604.684	2.34579
608.059	8.4774
611.433	14.9804
614.808	21.9504
618.183	27.4384
621.558	31.4569
624.933	39.7945
628.308	53.9142
631.682	72.1708
635.057	95.3086
638.432	131.892
641.807	186.351
645.182	284.028
648.557	452.036
651.931	761.962
655.306	1333.57
658.681	2321.16
662.056	2969.34
665.431	2123.93
668.805	1205.68
672.18	751.377
675.555	561.894
678.93	476.57
682.305	408.258
685.679	293.495
689.054	192.782
692.429	142.187
695.804	136.092
699.179	152.326
702.553	171.479
705.928	174.908
709.303	146.544
712.678	94.75
716.053	66.5126
719.428	62.0361
722.802	61.6542
726.177	49.7599
729.552	28.9256
732.927	12.6752
736.302	4.05649
739.677	0.583755
743.051	4.0266
746.426	3.55304
749.801	3.79346
753.176	2.68387
756.551	1.48769
759.925	2.02554
763.3	5.09018
766.675	6.40587
770.05	9.73099
773.425	15.6482
776.799	20.9464
780.174	27.5868
783.549	33.3129
786.924	34.9605
790.299	34.8016
793.674	34.6016
797.048	30.9214
800.423	23.7533
803.798	15.5879
807.173	10.253
810.548	4.7885
813.923	2.33208
817.297	2.35425
820.672	6.64862
824.047	10.8766
827.422	16.0146
830.797	20.5028
834.171	27.218
837.546	36.442
840.921	46.6943
844.296	61.6381
847.671	73.0404
851.045	71.286
854.42	59.2784
857.795	43.4153
861.17	31.492
864.545	20.0028
867.92	7.98076
871.294	0.624725
874.669	4.9158
878.044	2.84537
881.419	0.448395
884.794	7.51389
888.168	26.537
891.543	52.5862
894.918	75.5057
898.293	81.3674
901.668	81.5417
905.043	81.8484
908.417	82.5668
911.792	74.8308
915.167	61.4138
918.542	49.978
921.917	23.0126
925.291	8.34265
928.666	0.809937
932.041	4.48987
935.416	6.18378
938.791	0.145477
942.165	7.61392
945.54	5.40601
948.915	4.44998
952.29	21.9031
955.665	46.6467
959.04	69.4518
962.414	99.9435
965.789	151.791
969.164	243.647
972.539	391.419
975.914	623.273
979.288	915.567
982.663	1170.43
986.038	1263.39
989.413	1231.05
992.788	1103.44
996.163	936.965
999.537	840.394
1002.91	852.025
1006.29	1002.67
1009.66	1224.92
1013.04	1307.17
1016.41	1014.62
1019.79	658.312
1023.16	446.756
1026.54	353.251
1029.91	319.483
1033.29	306.814
1036.66	299.922
1040.04	304.062
1043.41	292.993
1046.79	215.72
1050.16	118.903
1053.53	54.3227
1056.91	19.3053
1060.28	1.81607
1063.66	1.46201
1067.03	4.7594
1070.41	5.50732
1073.78	3.92374
1077.16	1.61307
1080.53	0.515869
1083.91	2.74579
1087.28	5.4868
1090.66	6.74324
1094.03	9.83186
1097.41	9.96725
1100.78	11.4823
1104.16	12.9938
1107.53	15.9475
1110.91	15.5645
1114.28	14.8762
1117.66	14.5064
1121.03	12.5269
1124.41	10.2907
1127.78	5.41342
1131.15	3.2216
1134.53	4.21887
1137.9	0.806488
1141.28	3.59773
1144.65	0.706406
1148.03	1.64035
1151.4	2.69342
1154.78	5.02618
1158.15	2.75027
1161.53	2.40048
1164.9	2.77469
1168.28	3.63327
1171.65	2.56407
1175.03	3.21025
1178.4	3.08305
1181.78	4.0499
1185.15	4.89235
1188.53	4.66814
1191.9	3.67412
1195.28	2.94092
1198.65	3.90179
1202.03	3.145
1205.4	3.28308
1208.78	2.31618
1212.15	2.81465
1215.53	2.60648
1218.9	3.35403
1222.28	2.23441
1225.65	2.51913
1229.03	0.200592
1232.4	0.826324
1235.78	0.472198
1239.15	0.799438
1242.52	0.460052
1245.9	0.422607
1249.27	0.385834
1252.65	0.648987
1256.02	0.832489
1259.4	4.96954
1262.77	2.04105
1266.15	1.2309
1269.52	0.290009
1272.9	0.212524
1276.27	0.258698
1279.65	0.652069
1283.02	1.68326
1286.4	0.007294
1289.77	0.460602
1293.15	0.689941
1296.52	1.55109
1299.9	0.868683
