Measurement: Raman, 532 nm, unoriented, Raman Data Processed
Mineral: Marsturite
Rruff sample: R141119
Ideal chemistry: NaCaMn^2+^_3_Si_5_O_14_(OH)
Locality: Gozaisho mine, Fukushima Prefecture, Japan
Source: Marcus Origlieri
Description: Massive aggregate of parallel prismatic or bladed yellowish orange crystals
Measured chemistry: (Na_0.89_Ca_0.11_)_Σ=1_Ca_1.00_(Mn^2+^_2.85_Ca_0.12_Mg_0.03_Fe^2+^_0.01_)_Σ=3.01_(Si_4.95_V^3+^_0.02_)_Σ=4.97_O_14_(OH)
Raman shift (cm-1)	intensity
106.657	0
110.032	28.7012
113.407	134.09
116.782	98.2551
120.157	11.018
123.531	50.3483
126.906	96.0633
130.281	101.251
133.656	104.858
137.031	180.782
140.405	310.833
143.78	210.296
147.155	117.709
150.53	149.646
153.905	252.007
157.28	350.431
160.654	356.566
164.029	312.298
167.404	302.101
170.779	337.834
174.154	303.79
177.528	186.764
180.903	110.258
184.278	67.2904
187.653	29.539
191.028	9.88425
194.403	1.21152
197.777	8.34094
201.152	10.6254
204.527	5.69867
207.902	3.16617
211.277	11.3991
214.651	26.2531
218.026	41.1723
221.401	55.9894
224.776	56.1187
228.151	46.325
231.525	26.5716
234.9	15.1997
238.275	26.6888
241.65	40.6534
245.025	52.2344
248.4	56.3269
251.774	67.4106
255.149	90.438
258.524	135.909
261.899	186.441
265.274	221.833
268.649	214.322
272.023	184.107
275.398	167.296
278.773	169.541
282.148	198.377
285.523	239.518
288.897	309.492
292.272	395.23
295.647	473.843
299.022	521.788
302.397	562.741
305.772	640.913
309.146	701.944
312.521	619.288
315.896	412.559
319.271	243.613
322.646	133.232
326.02	54.6593
329.395	2.88464
332.77	13.6548
336.145	6.82758
339.52	4.35089
342.894	9.73846
346.269	14.2328
349.644	15.5357
353.019	29.5485
356.394	49.2711
359.769	59.1356
363.143	61.8812
366.518	72.2883
369.893	88.7404
373.268	90.8104
376.643	96.7872
380.017	108.364
383.392	104.989
386.767	81.5701
390.142	71.0404
393.517	81.067
396.892	111.592
400.266	147.924
403.641	180.162
407.016	193.213
410.391	187.11
413.766	180.852
417.14	170.905
420.515	155.124
423.89	139.365
427.265	137.242
430.64	139.632
434.014	121.221
437.389	82.2133
440.764	50.6246
444.139	23.2668
447.514	2.60361
450.889	4.26376
454.263	4.14624
457.638	2.14456
461.013	0.779694
464.388	0.926453
467.763	1.61179
471.137	1.12079
474.512	7.59549
477.887	12.8957
481.262	20.6261
484.637	30.1423
488.012	40.1667
491.386	48.4215
494.761	43.8719
498.136	37.8576
501.511	39.5496
504.886	47.2238
508.26	56.7454
511.635	59.7441
515.01	60.3217
518.385	66.4523
521.76	76.1589
525.135	92.7968
528.509	115.446
531.884	148.661
535.259	172.987
538.634	170.519
542.009	139.885
545.384	98.2833
548.758	71.1497
552.133	57.1348
555.508	53.3916
558.883	52.7122
562.258	45.7203
565.632	36.5571
569.007	20.3132
572.382	10.195
575.757	1.5434
579.132	5.20441
582.506	10.8765
585.881	8.43173
589.256	8.43552
592.631	4.83286
596.006	3.24927
599.381	16.0091
602.755	34.5395
606.13	55.6849
609.505	80.4203
612.88	98.1156
616.255	101.979
619.63	100.886
623.004	104.59
626.379	123.764
629.754	159.975
633.129	210.639
636.504	290.046
639.878	423.475
643.253	669.029
646.628	1102.6
650.003	1758.6
653.378	2663.25
656.752	3742.84
660.127	4443.61
663.502	3747.6
666.877	2375.77
670.252	1494.52
673.626	1056.27
677.001	831.344
680.376	677.169
683.751	496.325
687.126	331.155
690.501	224.377
693.875	177.914
697.25	161.192
700.625	156.447
704	151.278
707.375	133.952
710.75	111.795
714.124	96.4777
717.499	82.8231
720.874	80.9798
724.249	75.3731
727.624	54.2685
730.998	30.4142
734.373	13.7169
737.748	4.4154
741.123	3.42938
744.498	5.55359
747.872	7.44928
751.247	9.57983
754.622	9.87427
757.997	0.845154
761.372	2.50678
764.747	4.82898
768.121	11.7798
771.496	21.8147
774.871	35.891
778.246	54.6669
781.621	69.7706
784.995	86.5079
788.37	94.111
791.745	96.9946
795.12	93.3392
798.495	79.0443
801.87	57.789
805.244	35.1663
808.619	10.3596
811.994	5.30267
815.369	15.0804
818.744	2.02081
822.119	23.5533
825.493	52.8445
828.868	89.8354
832.243	146.922
835.618	235.818
838.993	340.004
842.367	453.297
845.742	537.747
849.117	567.567
852.492	542.225
855.867	456.468
859.241	374.606
862.616	306.769
865.991	223.478
869.366	124.758
872.741	60.234
876.115	41.011
879.49	40.4462
882.865	48.0566
886.24	62.9951
889.615	98.4847
892.99	133.997
896.364	149.999
899.739	148.878
903.114	138.958
906.489	119.478
909.864	96.9711
913.239	86.5099
916.613	82.5696
919.988	97.0449
923.363	107.41
926.738	110.549
930.113	90.2911
933.487	44.5395
936.862	1.47766
940.237	20.0682
943.612	15.2946
946.987	7.15735
950.361	31.1202
953.736	47.7173
957.111	52.1591
960.486	58.8878
963.861	87.2434
967.236	163.849
970.61	292.622
973.985	488.287
977.36	737.979
980.735	970.056
984.11	1116.52
987.485	1159.68
990.859	1137.41
994.234	1107.72
997.609	1168.64
1000.98	1348.5
1004.36	1653.43
1007.73	1980.26
1011.11	2122.23
1014.48	1844.98
1017.86	1248.03
1021.23	756.035
1024.61	449.161
1027.98	284.668
1031.36	183.477
1034.73	126.879
1038.11	85.796
1041.48	59.271
1044.86	36.0922
1048.23	15.3727
1051.61	1.34045
1054.98	5.27051
1058.36	7.13562
1061.73	6.8866
1065.11	1.79504
1068.48	5.75623
1071.86	6.24329
1075.23	20.313
1078.6	35.8601
1081.98	59.564
1085.35	98.4752
1088.73	128.238
1092.1	70.0276
1095.48	58.5034
1098.85	60.1797
1102.23	69.7582
1105.6	65.2887
1108.98	61.7771
1112.35	52.0321
1115.73	38.1213
1119.1	34.692
1122.48	19.6847
1125.85	8.46497
1129.23	5.12537
1132.6	0.369385
1135.98	1.99512
1139.35	3.41638
1142.73	3.97717
1146.1	3.80505
1149.48	5.12036
1152.85	7.75574
1156.22	11.6904
1159.6	5.07519
1162.97	6.6283
1166.35	6.13599
1169.72	2.27905
1173.1	2.89478
1176.47	6.76502
1179.85	5.39978
1183.22	5.59851
1186.6	9.0802
1189.97	12.4885
1193.35	6.69348
1196.72	5.28979
1200.1	2.47852
1203.47	4.73462
1206.85	3.4126
1210.22	4.44226
1213.6	6.29138
1216.97	2.99695
1220.35	3.95203
1223.72	3.86926
1227.1	0.559326
1230.47	1.0321
1233.85	0.572998
1237.22	1.44531
1240.6	3.12353
1243.97	4.65039
1247.35	5.96436
1250.72	8.87402
1254.1	5.26733
1257.47	12.7954
1260.85	8.78931
1264.22	11.8069
1267.59	8.38464
1270.97	5.95984
1274.34	10.1523
1277.72	11.6206
1281.09	12.5643
1284.47	5.0426
1287.84	5.50598
1291.22	5.51135
1294.59	6.61462
1297.97	8.7904
1301.34	0.926514
