Measurement: Raman, 532 nm, unoriented, Raman Data Processed
Mineral: Marsturite
Rruff sample: R141210
Ideal chemistry: NaCaMn^2+^_3_Si_5_O_14_(OH)
Locality: Wessels mine, Kalahari Manganese Field, Northern Cape Province, South Africa
Source: Jaco and Tania Janse van Nieuwenhuizen
Description: Colorless granular crystals in a vein. The matrix is a mixture of quartz and bixbyite, associated with marshallsussmanite.
Measured chemistry: (Na_0.80_Ca_0.13_)_Σ=0.93_Ca_1.00_(Mn^2+^_2.81_Mg_0.12_Fe^2+^_0.01_)_Σ=2.94_Si_5.00_O_14_(OH)
Raman shift (cm-1)	intensity
93.6401	0
97.0149	7.6496
100.39	2.70648
103.765	2.17615
107.139	9.29199
110.514	48.3203
113.889	92.2773
117.264	100.542
120.639	67.0009
124.013	54.6693
127.388	54.1961
130.763	45.5151
134.138	37.3604
137.513	38.7141
140.888	76.8187
144.262	70.0568
147.637	24.2415
151.012	22.0779
154.387	42.1428
157.762	57.7562
161.137	55.1182
164.511	38.0338
167.886	24.8165
171.261	24.7674
174.636	25.051
178.011	17.6739
181.385	15.4911
184.76	18.6956
188.135	5.52441
191.51	3.28531
194.885	1.13989
198.26	0.197388
201.634	0.654053
205.009	0.591705
208.384	4.44498
211.759	7.07825
215.133	16.734
218.508	25.784
221.883	23.3834
225.258	24.2982
228.633	25.7344
232.008	21.2765
235.382	18.8176
238.757	20.1359
242.132	22.6332
245.507	27.1851
248.882	24.0276
252.256	19.457
255.631	24.614
259.006	30.395
262.381	49.0471
265.756	59.33
269.131	58.7987
272.505	46.2466
275.88	28.2341
279.255	20.1295
282.63	16.7175
286.005	17.0318
289.38	21.9326
292.754	33.4132
296.129	46.5066
299.504	60.2784
302.879	77.1639
306.254	106.597
309.628	143.431
313.003	152.538
316.378	127.742
319.753	92.1466
323.128	75.1229
326.502	55.6107
329.877	35.8731
333.252	24.2849
336.627	17.7268
340.002	14.8168
343.377	8.19287
346.751	1.17578
350.126	3.78363
353.501	1.35394
356.876	2.92481
360.251	0.043518
363.625	1.02643
367	7.17481
370.375	9.12561
373.75	5.99542
377.125	7.98096
380.5	3.80609
383.874	3.89752
387.249	1.00928
390.624	0.356323
393.999	3.66894
397.374	6.11011
400.748	12.2825
404.123	17.3592
407.498	23.499
410.873	26.4783
414.248	23.9908
417.623	22.5723
420.997	19.0977
424.372	13.1263
427.747	8.99933
431.122	12.2133
434.497	11.8213
437.872	10.0768
441.246	8.435
444.621	8.69513
447.996	1.54468
451.371	0.31781
454.745	0.573853
458.12	3.05359
461.495	2.36621
464.87	1.73578
468.245	2.71411
471.62	3.6062
474.994	3.51221
478.369	3.2309
481.744	6.37958
485.119	9.04407
488.494	9.17181
491.868	11.8366
495.243	11.4978
498.618	13.0245
501.993	15.0548
505.368	21.498
508.743	25.0287
512.117	23.6572
515.492	18.7896
518.867	16.5088
522.242	17.0025
525.617	15.7258
528.991	9.59955
532.366	11.2958
535.741	15.0572
539.116	18.3044
542.491	18.4269
545.866	16.2853
549.24	14.6639
552.615	12.089
555.99	9.79919
559.365	12.5593
562.74	11.4029
566.115	10.4314
569.489	6.76935
572.864	4.74817
576.239	3.82019
579.614	4.21429
582.989	2.79095
586.363	2.01691
589.738	2.10272
593.113	1.01575
596.488	1.44721
599.863	4.90808
603.237	1.51593
606.612	0.497131
609.987	0.076477
613.362	1.70526
616.737	1.68958
620.112	2.01794
623.486	7.74939
626.861	11.6313
630.236	23.5636
633.611	36.2368
636.986	63.5165
640.361	119.418
643.735	119.234
647.11	136.623
650.485	196.079
653.86	312.555
657.235	495.363
660.609	728.022
663.984	759.306
667.359	513.035
670.734	312.42
674.109	219.821
677.484	182.818
680.858	163.49
684.233	124.142
687.608	82.9651
690.983	55.5789
694.357	40.7289
697.732	35.3658
701.107	41.3601
704.482	42.9768
707.857	34.0013
711.232	18.3417
714.606	9.43677
717.981	5.56152
721.356	5.83319
724.731	13.6501
728.106	14.7252
731.481	14.8455
734.855	15.9017
738.23	23.6268
741.605	9.65656
744.98	4.62769
748.355	2.94629
751.729	5.20093
755.104	3.95905
758.479	4.30157
761.854	2.44458
765.229	1.69897
768.604	0.389648
771.978	1.65717
775.353	0.947815
778.728	2.05389
782.103	5.53186
785.478	2.79614
788.852	1.49744
792.227	1.44537
795.602	2.48004
798.977	10.6591
802.352	19.6894
805.726	34.7778
809.101	51.9054
812.476	60.6859
815.851	77.2756
819.226	88.2637
822.601	88.9733
825.975	80.5058
829.35	73.8263
832.725	60.7457
836.1	60.2616
839.475	54.9356
842.85	48.4745
846.224	44.2097
849.599	29.2627
852.974	26.9048
856.349	25.626
859.724	20.1478
863.098	14.8944
866.473	11.2494
869.848	14.0031
873.223	17.3694
876.598	16.3838
879.972	19.464
883.347	15.8496
886.722	10.1445
890.097	12.1228
893.472	12.9456
896.847	14.9189
900.221	9.7254
903.596	5.04401
906.971	1.77246
910.346	7.20569
913.721	6.4378
917.096	12.7651
920.47	11.5895
923.845	6.09973
927.22	6.01764
930.595	5.16132
933.97	8.45843
937.344	7.18738
940.719	5.45233
944.094	0.013977
947.469	3.7323
950.844	4.14569
954.218	0.886658
957.593	1.79962
960.968	12.7927
964.343	21.0466
967.718	36.0487
971.092	52.5791
974.467	79.3062
977.842	116.436
981.217	152.145
984.592	187.352
987.967	195.906
991.341	181.718
994.716	164.495
998.091	163.896
1001.47	196.093
1004.84	242.914
1008.22	308.321
1011.59	404.721
1014.97	449.317
1018.34	337.153
1021.72	199.113
1025.09	117.909
1028.46	75.8303
1031.84	52.0313
1035.21	37.0892
1038.59	30.4101
1041.96	27.299
1045.34	24.6487
1048.71	15.2458
1052.09	8.08142
1055.46	2.26788
1058.84	1.63342
1062.21	1.7569
1065.59	1.5011
1068.96	2.00116
1072.34	0.569214
1075.71	1.4444
1079.09	1.62994
1082.46	9.77387
1085.84	12.34
1089.21	13.3517
1092.59	10.5574
1095.96	11.6971
1099.34	14.5717
1102.71	20.3967
1106.09	37.2987
1109.46	61.5685
1112.84	89.1855
1116.21	84.7974
1119.58	51.3313
1122.96	28.9092
1126.33	15.6831
1129.71	6.24554
1133.08	0.847412
1136.46	0.741333
1139.83	0.807739
1143.21	0.065796
1146.58	5.73828
1149.96	5.99615
1153.33	5.92609
1156.71	6.36487
1160.08	0.227783
1163.46	0.861084
1166.83	0.575012
1170.21	0.240723
1173.58	3.93127
1176.96	12.1899
1180.33	29.6155
1183.71	46.751
1187.08	51.3118
1190.46	38.0207
1193.83	18.0821
1197.2	6.97064
1200.58	0.981567
1203.95	2.59979
1207.33	0.438843
1210.7	1.63147
1214.08	7.3645
1217.45	14.5595
1220.83	16.2023
1224.2	21.5909
1227.58	24.2393
1230.95	27.409
1234.33	26.4484
1237.7	20.4426
1241.08	17.7659
1244.45	16.8189
1247.83	21.0152
1251.2	20.963
1254.58	20.4713
1257.95	17.6493
1261.33	11.5472
1264.7	7.56372
1268.08	9.41083
1271.45	4.06958
1274.83	5.06903
1278.2	4.45361
1281.58	0.368469
1284.95	2.61511
1288.33	5.54877
1291.7	5.40796
1295.08	6.19061
1298.45	6.68646
1301.83	0
