Measurement: Raman, 780 nm, unoriented, Raman Data Processed
Mineral: Marshite
Rruff sample: R100001
Ideal chemistry: CuI
Locality: Rubtsovskiy, Altai Kray, Russia
Source: Marcus Origlieri
Description: Pale yellow vitreous tetrahedra associated with colorless cerussite
Raman shift (cm-1)	intensity
92.6273	0
96.0021	206.37
99.3769	1017.64
102.752	2634.81
106.127	4477.11
109.501	6736.24
112.876	9807.96
116.251	13993.1
119.626	17993.7
123.001	18790.5
126.376	13166
129.75	7477.88
133.125	4211.93
136.5	2789.43
139.875	2061.03
143.25	1323.94
146.624	475.231
149.999	79.7361
153.374	244.778
156.749	191.889
160.124	67.9407
163.499	83.15
166.873	238.077
170.248	334.772
173.623	430.383
176.998	519.188
180.373	610.29
183.747	676.109
187.122	718.08
190.497	769.547
193.872	811.059
197.247	855.213
200.621	884.485
203.996	938.523
207.371	960.477
210.746	852.244
214.121	735.284
217.495	633.465
220.87	567.299
224.245	561.266
227.62	527.676
230.995	520.026
234.37	497.788
237.744	462.542
241.119	439.2
244.494	398.739
247.869	376.337
251.244	356.659
254.619	326.364
257.993	303.726
261.368	259.394
264.743	251.508
268.118	200.344
271.493	173.015
274.867	131.535
278.242	111.847
281.617	87.2388
284.992	63.2026
288.367	53.5558
291.741	27.8602
295.116	21.3956
298.491	8.00647
301.866	2.4664
305.241	0.996613
308.616	6.16409
311.99	2.96445
315.365	6.34467
318.74	11.1766
322.115	4.018
325.49	16.0582
328.865	15.763
332.239	7.96561
335.614	1.11879
338.989	10.2017
342.364	7.28293
345.739	2.77094
349.113	1.81163
352.488	2.19687
355.863	1.49106
359.238	10.1488
362.613	9.105
365.988	4.00226
369.362	16.6839
372.737	20.7202
376.112	22.5157
379.487	16.0008
382.862	21.9867
386.236	28.7204
389.611	16.772
392.986	22.9505
396.361	26.2787
399.736	24.3503
403.111	30.6428
406.485	24.6036
409.86	35.0507
413.235	28.1119
416.61	31.5787
419.985	21.9836
423.359	20.5283
426.734	25.6278
430.109	24.9092
433.484	21.0718
436.859	29.0503
440.233	22.4095
443.608	13.7874
446.983	14.9483
450.358	20.2554
453.733	16.1412
457.108	24.7338
460.482	8.41592
463.857	16.448
467.232	12.0647
470.607	24.2274
473.982	17.5125
477.356	14.9943
480.731	20.1239
484.106	7.37643
487.481	20.3301
490.856	8.60998
494.231	12.0787
497.605	19.706
500.98	12.7368
504.355	8.02154
507.73	16.2266
511.105	6.54437
514.479	11.9528
517.854	6.02274
521.229	18.8241
524.604	7.23189
527.979	10.1045
531.354	5.0966
534.728	19.4697
538.103	13.1213
541.478	8.53842
544.853	6.43074
548.228	8.46771
551.602	11.3663
554.977	6.7045
558.352	6.76708
561.727	9.83447
565.102	4.74579
568.476	3.72237
571.851	10.172
575.226	5.86586
578.601	1.47839
581.976	25.3268
585.351	6.43457
588.725	13.335
592.1	11.4893
595.475	7.24982
598.85	9.63213
602.225	14.335
605.6	0.572662
608.974	19.0527
612.349	6.60062
615.724	8.48434
619.099	9.19034
622.474	13.7527
625.848	1.81941
629.223	2.11548
632.598	3.06126
635.973	14.9533
639.348	16.8887
642.722	12.2241
646.097	1.72534
649.472	7.47803
652.847	7.94461
656.222	11.4455
659.597	11.4471
662.971	5.27998
666.346	3.73778
669.721	9.26396
673.096	2.61055
676.471	6.52098
679.846	12.0128
683.22	1.34531
686.595	23.2289
689.97	17.1272
693.345	16.0154
696.72	1.32452
700.094	4.02998
703.469	14.8482
706.844	7.27634
710.219	10.277
713.594	9.87312
716.968	1.60509
720.343	11.766
723.718	3.10864
727.093	12.2394
730.468	9.16188
733.842	13.2905
737.217	0.561615
740.592	2.43841
743.967	4.11695
747.342	12.8113
750.717	6.80325
754.091	9.69571
757.466	0.718285
760.841	9.14315
764.216	2.03687
767.591	9.3106
770.966	11.0356
774.34	7.81612
777.715	3.54942
781.09	12.6862
784.465	8.36417
787.84	4.02761
791.214	12.346
794.589	9.90743
797.964	6.7404
801.339	9.44136
804.714	6.98148
808.088	13.4965
811.463	11.2322
814.838	10.5051
818.213	2.53326
821.588	24.1508
824.963	17.2292
828.337	2.27368
831.712	16.4704
835.087	2.67832
838.462	7.68299
841.837	16.4645
845.212	13.2532
848.586	14.1475
851.961	19.403
855.336	1.27137
858.711	11.9427
862.086	22.0321
865.46	13.7332
868.835	0.796516
872.21	11.9798
875.585	1.12032
878.96	13.2993
882.335	13.0943
885.709	10.3689
889.084	5.68344
892.459	5.81939
895.834	7.77828
899.209	12.1897
902.583	13.2492
905.958	15.3814
909.333	13.4488
912.708	1.86604
916.083	6.18062
919.457	12.4324
922.832	10.258
926.207	10.3796
929.582	2.95602
932.957	4.25731
936.332	5.55468
939.706	8.11352
943.081	4.79363
946.456	3.62009
949.831	7.85667
953.206	14.0431
956.58	7.71121
959.955	12.0881
963.33	16.1016
966.705	9.81898
970.08	15.4917
973.455	10.4453
976.829	8.70226
980.204	14.9744
983.579	14.4727
986.954	2.45518
990.329	14.2845
993.703	6.91527
997.078	14.8312
1000.45	9.12389
1003.83	1.95399
1007.2	12.4351
1010.58	7.70833
1013.95	0.89344
1017.33	7.42998
1020.7	8.86165
1024.08	19.3009
1027.45	21.3492
1030.83	8.8232
1034.2	0.422249
1037.58	9.41511
1040.95	3.30205
1044.33	11.1304
1047.7	6.76915
1051.08	2.99155
1054.45	9.7912
1057.83	11.4189
1061.2	7.94816
1064.58	6.62479
1067.95	6.7752
1071.32	17.8971
1074.7	3.16389
1078.07	20.0194
1081.45	17.8176
1084.82	13.9555
1088.2	15.8081
1091.57	11.1567
1094.95	3.20811
1098.32	22.1533
1101.7	9.84038
1105.07	9.87875
1108.45	11.6865
1111.82	12.9801
1115.2	0.82177
1118.57	12.8953
1121.95	4.148
1125.32	4.37807
1128.7	5.22245
1132.07	1.2216
1135.45	10.3768
1138.82	4.21342
1142.19	16.4792
1145.57	3.93018
1148.94	4.23158
1152.32	7.77254
1155.69	12.8904
1159.07	12.0675
1162.44	17.0832
1165.82	10.6143
1169.19	8.84582
1172.57	9.92127
1175.94	12.4326
1179.32	16.8556
1182.69	12.4154
1186.07	0.318214
1189.44	11.9528
1192.82	8.14889
1196.19	4.74768
1199.57	1.24514
1202.94	2.65803
1206.32	3.84629
1209.69	4.24041
1213.07	5.38715
1216.44	3.55909
1219.82	15.5703
1223.19	13.0556
1226.57	10.5486
1229.94	19.2589
1233.32	5.79849
1236.69	10.8483
1240.07	6.58307
1243.44	13.6884
1246.82	11.4547
1250.19	7.26826
1253.56	11.8314
1256.94	12.3514
1260.31	5.03102
1263.69	13.5156
1267.06	25.0698
1270.44	12.9991
1273.81	0.365597
1277.19	15.7479
1280.56	9.04553
1283.94	8.39526
