Measurement: Raman, 780 nm, unoriented, Raman Data Processed
Mineral: Marsturite
Rruff sample: R141119
Ideal chemistry: NaCaMn^2+^_3_Si_5_O_14_(OH)
Locality: Gozaisho mine, Fukushima Prefecture, Japan
Source: Marcus Origlieri
Description: Massive aggregate of parallel prismatic or bladed yellowish orange crystals
Measured chemistry: (Na_0.89_Ca_0.11_)_Σ=1_Ca_1.00_(Mn^2+^_2.85_Ca_0.12_Mg_0.03_Fe^2+^_0.01_)_Σ=3.01_(Si_4.95_V^3+^_0.02_)_Σ=4.97_O_14_(OH)
Raman shift (cm-1)	intensity
107.47	0
110.845	7.79919
114.219	29.8507
117.594	15.872
120.969	1.34656
124.344	13.665
127.719	20.2966
131.094	14.0237
134.468	10.0698
137.843	27.7592
141.218	50.9645
144.593	23.3733
147.968	7.04407
151.342	18.9992
154.717	43.7454
158.092	61.9773
161.467	64.0087
164.842	59.7123
168.216	63.9565
171.591	77.9083
174.966	68.3953
178.341	38.8142
181.716	22.5912
185.09	17.1581
188.465	6.7276
191.84	0.838196
195.215	0.208984
198.59	3.86334
201.965	1.75946
205.339	0.261963
208.714	0.848022
212.089	7.90595
215.464	12.111
218.839	15.7547
222.214	21.1307
225.588	20.8481
228.963	18.8247
232.338	12.2025
235.713	9.94275
239.088	10.5998
242.462	12.6904
245.837	16.0235
249.212	15.0256
252.587	17.1092
255.962	17.4435
259.336	29.4421
262.711	41.5498
266.086	50.38
269.461	50.2019
272.836	39.3921
276.211	36.8057
279.585	39.0391
282.96	43.5594
286.335	51.6142
289.71	67.4234
293.085	84.8319
296.459	102.914
299.834	112.766
303.209	119.166
306.584	138.586
309.959	146.965
313.334	127.643
316.708	94.5092
320.083	63.0019
323.458	43.5951
326.833	25.6349
330.207	8.97852
333.582	4.35394
336.957	5.24005
340.332	4.58929
343.707	3.3562
347.082	0.272644
350.456	4.51953
353.831	3.33606
357.206	0.139343
360.581	3.66724
363.956	4.96576
367.33	9.92566
370.705	13.647
374.08	11.6061
377.455	16.8182
380.83	18.0792
384.205	15.1744
387.579	7.92334
390.954	3.27356
394.329	4.58331
397.704	4.02844
401.079	15.3616
404.453	19.0127
407.828	21.7785
411.203	20.7578
414.578	17.8377
417.953	20.6829
421.327	17.6467
424.702	17.2122
428.077	17.9102
431.452	26.4451
434.827	21.0521
438.202	11.0422
441.576	6.89148
444.951	2.34546
448.326	0.916931
451.701	0.660645
455.076	0.415344
458.45	0.396729
461.825	1.8631
465.2	0.364929
468.575	2.51044
471.95	2.24268
475.325	2.60486
478.699	4.58832
482.074	9.04273
485.449	9.43292
488.824	13.1234
492.199	14.287
495.573	13.666
498.948	10.8295
502.323	10.8663
505.698	10.5986
509.073	11.7556
512.447	9.85132
515.822	11.0418
519.197	10.9965
522.572	13.6992
525.947	14.1976
529.322	19.9091
532.696	25.8654
536.071	29.2399
539.446	30.6108
542.821	23.5673
546.196	16.0851
549.57	8.25354
552.945	9.79755
556.32	6.02545
559.695	6.44867
563.07	3.69183
566.444	5.10748
569.819	1.57379
573.194	0.137024
576.569	1.77441
579.944	1.22101
583.319	2.40521
586.693	1.73431
590.068	2.80225
593.443	0.503052
596.818	0.975098
600.193	4.44135
603.567	5.81567
606.942	6.30957
610.317	10.4113
613.692	12.0596
617.067	14.0009
620.442	12.9953
623.816	17.4304
627.191	23.5225
630.566	28.4446
633.941	40.7886
637.316	55.574
640.69	80.6888
644.065	128.656
647.44	203.009
650.815	302.139
654.19	445.336
657.564	652.376
660.939	809.34
664.314	677.94
667.689	425.762
671.064	261.006
674.439	187.083
677.813	147.237
681.188	120.336
684.563	87.5518
687.938	58.4484
691.313	41.2322
694.688	33.3352
698.062	30.5814
701.437	30.9727
704.812	27.4662
708.187	22.5477
711.562	19.8388
714.936	15.0835
718.311	13.9628
721.686	10.3215
725.061	7.38446
728.436	7.53528
731.81	3.53033
735.185	7.50757
738.56	2.034
741.935	0.52771
745.31	1.17053
748.684	1.34546
752.059	1.87817
755.434	0.602051
758.809	0.304932
762.184	1.86627
765.559	2.45911
768.933	1.37787
772.308	2.84821
775.683	2.96161
779.058	6.03888
782.433	8.6001
785.808	7.55096
789.182	8.06641
792.557	8.92102
795.932	12.1919
799.307	7.73358
802.682	4.77454
806.056	6.49017
809.431	3.12451
812.806	2.21332
816.181	4.00671
819.556	1.5368
822.93	3.72571
826.305	2.53101
829.68	5.54096
833.055	5.32703
836.43	14.6508
839.804	20.5434
843.179	24.0024
846.554	30.3212
849.929	35.7056
853.304	33.5721
856.679	31.4036
860.053	21.3905
863.428	20.5074
866.803	18.2267
870.178	11.7852
873.553	8.67584
876.927	8.78839
880.302	10.017
883.677	11.7548
887.052	13.1466
890.427	12.7026
893.802	15.1495
897.176	15.0124
900.551	12.4186
903.926	8.31995
907.301	7.18848
910.676	3.73901
914.05	2.92358
917.425	1.30121
920.8	1.86645
924.175	2.07513
927.55	1.38397
930.924	0.042847
934.299	1.73041
937.674	0.534546
941.049	1.01849
944.424	4.11432
947.799	5.03864
951.173	9.76746
954.548	14.484
957.923	14.8527
961.298	21.2947
964.673	26.8246
968.047	36.5496
971.422	60.6264
974.797	87.7079
978.172	120.608
981.547	159.393
984.922	176.492
988.296	182.978
991.671	178.241
995.046	174.634
998.421	181.277
1001.8	206.684
1005.17	252.166
1008.54	298.691
1011.92	324.937
1015.29	284.206
1018.67	195.336
1022.04	116.941
1025.42	75.9106
1028.79	46.9755
1032.17	29.7324
1035.54	22.5784
1038.92	18.8033
1042.29	12.4437
1045.67	6.11072
1049.04	2.3042
1052.42	1.03711
1055.79	0.526733
1059.17	1.75537
1062.54	0.418274
1065.92	0.327454
1069.29	0.633423
1072.67	0.157593
1076.04	3.09705
1079.42	0.619934
1082.79	1.07001
1086.17	6.69196
1089.54	7.32135
1092.92	2.97626
1096.29	2.12543
1099.66	0.263916
1103.04	3.27216
1106.41	2.4176
1109.79	2.48688
1113.16	2.0669
1116.54	0.161987
1119.91	0.163391
1123.29	1.47766
1126.66	0.826782
1130.04	0.269958
1133.41	2.08966
1136.79	3.27033
1140.16	6.3562
1143.54	1.61066
1146.91	2.94135
1150.29	2.87671
1153.66	5.32825
1157.04	1.91754
1160.41	5.58765
1163.79	4.77747
1167.16	5.58276
1170.54	6.08618
1173.91	7.78143
1177.29	5.98206
1180.66	5.71301
1184.04	5.96234
1187.41	6.55133
1190.79	7.1878
1194.16	5.41217
1197.54	5.25476
1200.91	7.68945
1204.28	8.52161
1207.66	4.17413
1211.03	6.12579
1214.41	5.28284
1217.78	4.60016
1221.16	1.27472
1224.53	3.66028
1227.91	4.54358
1231.28	0.600037
1234.66	1.98041
1238.03	1.86395
1241.41	1.07861
1244.78	1.39978
1248.16	2.8717
1251.53	3.53565
1254.91	1.82044
1258.28	2.48193
1261.66	8.54163
1265.03	6.26062
1268.41	4.71008
1271.78	2.50348
1275.16	0.187561
1278.53	1.16681
1281.9	1.7561
