Measurement: Raman, 532 nm, unoriented, Raman Data Processed
Mineral: Marshite
Rruff sample: R100001
Ideal chemistry: CuI
Locality: Rubtsovskiy, Altai Kray, Russia
Source: Marcus Origlieri
Description: Pale yellow vitreous tetrahedra associated with colorless cerussite
Raman shift (cm-1)	intensity
107.924	0
111.299	69.6238
114.674	6.27666
118.048	46.7971
121.423	377.315
124.798	1005.28
128.173	2757.23
131.548	4085.36
134.923	3953.72
138.297	4198.75
141.672	4580.54
145.047	4108.07
148.422	3304.66
151.797	2871.89
155.171	2897.88
158.546	2893.14
161.921	2908.2
165.296	2820.46
168.671	2556.07
172.046	2336.22
175.42	2135.5
178.795	1921.9
182.17	1653.32
185.545	1400.06
188.92	1161.69
192.294	917.359
195.669	658.476
199.044	428.035
202.419	229.374
205.794	104.936
209.168	50.6587
212.543	28.1221
215.918	23.5125
219.293	38.6904
222.668	66.777
226.042	88.4202
229.417	89.8599
232.792	48.7128
236.167	14.658
239.542	11.3161
242.917	14.0663
246.291	1.005
249.666	22.2899
253.041	62.8633
256.416	107.116
259.791	130.183
263.166	141.256
266.54	160.462
269.915	156.986
273.29	137.137
276.665	110.137
280.04	69.5355
283.414	39.3095
286.789	6.24762
290.164	11.8697
293.539	20.1316
296.914	23.1878
300.288	15.6259
303.663	3.23489
307.038	1.49374
310.413	14.5794
313.788	21.7242
317.163	33.7275
320.537	40.2481
323.912	47.8112
327.287	60.6593
330.662	68.3543
334.037	78.8002
337.411	93.8085
340.786	93.2671
344.161	112.414
347.536	112.55
350.911	111.017
354.286	108.372
357.66	103.502
361.035	95.0807
364.41	93.0423
367.785	82.8589
371.16	79.8525
374.534	77.4044
377.909	71.7683
381.284	70.6997
384.659	67.31
388.034	66.2746
391.409	59.0228
394.783	61.2365
398.158	54.1959
401.533	53.9439
404.908	47.4925
408.283	43.9056
411.657	42.2792
415.032	37.4371
418.407	27.3767
421.782	30.6096
425.157	25.1019
428.531	24.2506
431.906	19.8138
435.281	20.6501
438.656	20.8525
442.031	13.0558
445.406	13.0304
448.78	10.6439
452.155	10.7991
455.53	10.4877
458.905	6.87677
462.28	6.03554
465.654	3.75074
469.029	9.6419
472.404	6.54519
475.779	6.65215
479.154	0.75267
482.529	2.73727
485.903	3.84795
489.278	4.99378
492.653	2.47657
496.028	4.53799
499.403	1.51239
502.777	1.92516
506.152	1.08122
509.527	1.81285
512.902	1.33334
516.277	0.996414
519.652	0.40844
523.026	1.01496
526.401	0.489624
529.776	0.196655
533.151	2.29175
536.526	4.74568
539.9	2.53787
543.275	4.91948
546.65	2.77101
550.025	1.60641
553.4	2.35375
556.775	2.42
560.149	3.25923
563.524	4.62759
566.899	1.27088
570.274	1.98666
573.649	4.17666
577.024	0.717094
580.398	4.05983
583.773	5.08318
587.148	6.34298
590.523	3.17313
593.898	3.6404
597.272	1.99571
600.647	2.01775
604.022	2.47574
607.397	4.2011
610.772	5.32394
614.146	2.99965
617.521	3.65698
620.896	2.21201
624.271	3.32867
627.646	2.50552
631.02	4.51083
634.395	2.6291
637.77	7.23467
641.145	3.51246
644.52	4.79732
647.895	7.7704
651.269	5.35928
654.644	5.35826
658.019	5.31749
661.394	9.52388
664.769	6.82098
668.144	1.42494
671.518	6.86775
674.893	0.402191
678.268	0.044922
681.643	4.00317
685.018	4.75809
688.392	5.78973
691.767	5.63203
695.142	5.93988
698.517	0.329163
701.892	1.64082
705.266	4.00576
708.641	3.57582
712.016	7.5657
715.391	2.44056
718.766	5.25997
722.141	1.34583
725.515	5.21102
728.89	3.09778
732.265	3.29745
735.64	7.01862
739.015	5.40214
742.389	2.8632
745.764	4.42107
749.139	4.43713
752.514	1.90962
755.889	2.74343
759.264	5.23156
762.638	5.36383
766.013	6.58353
769.388	2.06062
772.763	3.56849
776.138	0.881821
779.513	3.25014
782.887	3.23238
786.262	3.87043
789.637	4.75429
793.012	4.06496
796.386	4.21234
799.761	9.41213
803.136	0.982491
806.511	3.33311
809.886	4.04376
813.261	4.8239
816.635	4.79697
820.01	0.971191
823.385	5.31496
826.76	2.26435
830.135	6.50078
833.51	3.79621
836.884	0.511215
840.259	5.32974
843.634	7.16297
847.009	3.55423
850.384	3.26263
853.758	1.0346
857.133	5.96907
860.508	4.2952
863.883	4.144
867.258	5.03445
870.633	1.88709
874.007	0.897713
877.382	3.38457
880.757	10.6685
884.132	5.59788
887.507	7.20596
890.881	2.86663
894.256	0.29319
897.631	0.076584
901.006	4.52845
904.381	2.70386
907.755	2.00185
911.13	4.98502
914.505	6.43356
917.88	4.58037
921.255	4.9692
924.63	4.73738
928.004	4.89155
931.379	4.67645
934.754	2.43105
938.129	1.50863
941.504	6.7407
944.879	7.30896
948.253	4.23043
951.628	2.19126
955.003	8.3114
958.378	1.67422
961.753	3.6691
965.127	0.3582
968.502	1.34298
971.877	6.42393
975.252	4.46814
978.627	3.06902
982.001	0.272057
985.376	5.22625
988.751	0.585541
992.126	4.88666
995.501	3.94566
998.875	0.425262
1002.25	4.97093
1005.62	6.82935
1009	3.55697
1012.38	2.75862
1015.75	3.97395
1019.12	4.73
1022.5	0.947929
1025.87	5.13095
1029.25	4.50301
1032.62	2.77415
1036	2.39812
1039.37	4.05591
1042.75	4.77383
1046.12	5.14334
1049.5	2.90845
1052.87	5.47729
1056.25	6.72889
1059.62	3.50965
1063	0.983646
1066.37	4.97718
1069.75	7.36179
1073.12	4.76258
1076.5	1.13992
1079.87	2.74616
1083.25	5.43348
1086.62	3.95575
1090	4.43467
1093.37	5.91275
1096.74	0.205914
1100.12	7.80837
1103.49	5.84028
1106.87	4.61752
1110.24	3.5153
1113.62	3.39055
1116.99	8.59574
1120.37	1.62355
1123.74	5.53266
1127.12	6.08736
1130.49	8.48195
1133.87	0.927708
1137.24	4.88216
1140.62	4.99311
1143.99	8.3141
1147.37	7.16878
1150.74	3.80127
1154.12	4.96244
1157.49	4.0202
1160.87	1.83756
1164.24	4.31323
1167.62	5.63245
1170.99	10.2826
1174.37	5.60704
1177.74	5.34236
1181.12	4.59208
1184.49	1.37614
1187.87	0.080585
1191.24	5.26186
1194.62	4.54459
1197.99	3.74261
1201.37	0.580715
1204.74	7.22163
1208.11	1.96213
1211.49	1.07708
1214.86	4.77546
1218.24	2.74387
1221.61	7.28741
1224.99	3.20859
1228.36	7.91983
1231.74	4.12353
1235.11	4.87392
1238.49	3.16796
1241.86	8.45398
1245.24	1.97914
1248.61	3.45138
1251.99	3.48721
1255.36	8.59866
1258.74	5.70643
1262.11	5.56882
1265.49	5.03846
1268.86	7.80933
1272.24	5.79584
1275.61	5.78045
1278.98	4.15023
1282.36	4.64696
1285.73	0.488472
1289.11	5.25916
1292.48	3.15131
1295.86	2.7341
1299.23	2.20084
