Measurement: Raman, 532 nm, unoriented, Raman Data Processed
Mineral: Marthozite
Rruff sample: R090052
Ideal chemistry: Cu^2+^(UO_2_)_3_(Se^4+^O_3_)_2_O_2_8H_2_O
Locality: Musonoi mine, Kolwezi, Katanga, Congo
Source: William W. Pinch
Description: Yellowish green triangular shaped flattened and striated crystals, associated with guilleminite and green brochantite.  Sample is from the same specimen used in the Cooper and Hawthorne (2001) study
Raman shift (cm-1)	intensity
151.011	0
153.903	11.4775
156.796	22.9976
159.689	1.43603
162.581	19.2363
165.474	65.5376
168.367	98.1631
171.259	163.16
174.152	171.001
177.045	224.861
179.938	231.336
182.83	202.596
185.723	206.435
188.616	258.58
191.508	301.036
194.401	281.307
197.294	334.074
200.186	349.35
203.079	391.464
205.972	403.856
208.864	396.876
211.757	376.652
214.65	354.122
217.543	334.712
220.435	299.067
223.328	294.25
226.221	289.697
229.113	284.589
232.006	261.201
234.899	303.13
237.792	343.358
240.684	358.42
243.577	339.584
246.47	330.155
249.362	337.94
252.255	349.359
255.148	313.691
258.041	323.507
260.933	319.308
263.826	324.688
266.719	332.405
269.611	301.306
272.504	271.856
275.397	246.229
278.289	206.988
281.182	165.826
284.075	115.998
286.967	103.131
289.86	71.7505
292.753	49.6704
295.646	27.7158
298.538	17.9702
301.431	6.90332
304.324	0.134766
307.216	2.17529
310.109	2.90478
313.002	16.1484
315.895	31.3852
318.787	4.3584
321.68	18.2466
324.573	6.01758
327.465	8.22852
330.358	6.95557
333.251	17.5527
336.144	5.12354
339.036	10.2607
341.929	6.87012
344.822	63.6733
347.714	111.241
350.607	151.807
353.5	185.119
356.392	205.27
359.285	201.985
362.178	178.052
365.07	108.143
367.963	66.1523
370.856	38.1274
373.749	40.4575
376.641	26.4102
379.534	12.0342
382.427	24.5171
385.32	28.2017
388.212	67.7915
391.105	88.5063
393.998	139.148
396.89	218.437
399.783	292.804
402.676	423.283
405.568	589.414
408.461	792.063
411.354	1053.71
414.247	1345.02
417.139	1679.68
420.032	1999.71
422.925	2246.31
425.817	2274.16
428.71	1990.96
431.603	1550.37
434.495	1101.61
437.388	787.723
440.281	566.994
443.173	431.372
446.066	313.066
448.959	253.022
451.852	241.773
454.744	259.219
457.637	282.659
460.53	330.321
463.423	397.531
466.315	438.028
469.208	485.558
472.101	498.666
474.993	404.601
477.886	292.723
480.779	225.151
483.671	137.609
486.564	62.8921
489.457	33.085
492.349	20.9311
495.242	18.313
498.135	15.3096
501.028	3.86963
503.92	1.29004
506.813	4.63379
509.706	14.0757
512.598	3.06934
515.491	0.041504
518.384	2.05859
521.277	18.52
524.169	4.7168
527.062	14.2109
529.955	0.701172
532.847	26.5747
535.74	26.2026
538.633	33.7202
541.525	41.0879
544.418	67.8579
547.311	75.2622
550.204	100.79
553.096	115.269
555.989	111.634
558.882	127.763
561.774	146.289
564.667	185.661
567.56	197.018
570.452	213.436
573.345	205.873
576.238	177.427
579.131	163.537
582.023	143.432
584.916	104.705
587.809	79.6602
590.701	74.2832
593.594	56.7988
596.487	59.0386
599.38	47.9961
602.272	48.7163
605.165	39.4492
608.058	61.48
610.95	49.852
613.843	26.1773
616.736	32.2476
619.629	56.9316
622.521	66.6196
625.414	80.9429
628.307	82.5425
631.199	95.585
634.092	121.315
636.985	122.793
639.877	93.2353
642.77	100.272
645.663	88.8799
648.556	70.4849
651.448	71
654.341	81.5776
657.234	68.6431
660.126	63.669
663.019	52.9736
665.912	30.1255
668.804	33.021
671.697	25.6743
674.59	11.1113
677.482	2.77783
680.375	12.1348
683.268	27.3208
686.161	37.584
689.053	24.2183
691.946	46.5273
694.839	23.667
697.731	0.801758
700.624	18.8433
703.517	41.8208
706.409	53.9839
709.302	86.5024
712.195	139.929
715.088	191.394
717.98	244.636
720.873	307.291
723.766	374.508
726.659	421.105
729.551	496.626
732.444	551.414
735.337	593.267
738.229	560.031
741.122	503.555
744.015	464.179
746.907	339.553
749.8	243.595
752.693	199.592
755.586	261.447
758.478	333.169
761.371	455.698
764.264	644.583
767.156	902.25
770.049	1274.24
772.942	1789.26
775.835	2355.78
778.727	2933.33
781.62	3235.84
784.513	3019.14
787.405	2457.13
790.298	1880.38
793.191	1521.3
796.083	1340.29
798.976	1419.85
801.869	1748.85
804.761	2302.4
807.654	3079.76
810.547	3986.3
813.44	4952.02
816.332	5660.03
819.225	5591.66
822.118	4541.38
825.01	3057.56
827.903	1895.41
830.796	1148.23
833.688	674.32
836.581	417.049
839.474	228.616
842.367	115.902
845.259	8.92822
848.152	53.5703
851.045	61.0772
853.937	45.5742
856.83	8.75684
859.723	74.8413
862.616	178.092
865.508	336.109
868.401	485.794
871.294	598.313
874.186	619.611
877.079	540.188
879.972	404.067
882.865	280.563
885.757	184.646
888.65	99.1323
891.543	46.4585
894.435	5.84766
897.328	9.14648
900.221	19.291
903.113	41.938
906.006	2.91943
908.899	4.41797
911.792	0.133789
914.684	10.4761
917.577	7.03369
920.47	1.75879
923.362	4.76611
926.255	11.0479
929.148	23.1426
932.04	18.0962
934.933	20.8135
937.826	62.7393
940.719	61.5977
943.611	63.6816
946.504	64.9023
949.397	57.3608
952.289	72.2446
955.182	63.1177
958.075	67.7476
960.967	78.4077
963.86	58.707
966.753	66.7398
969.646	67.3955
972.538	62.0068
975.431	54.4971
978.324	40.3906
981.216	55.1206
984.109	53.6909
987.002	41.0942
989.894	49.1108
992.787	37.4062
995.68	35.5547
998.573	25.2969
1001.47	21.708
1004.36	28.1865
1007.25	35.3105
1010.14	33.8901
1013.04	18.4404
1015.93	18.3672
1018.82	21.4932
1021.71	6.83301
1024.61	19.4839
1027.5	24.8648
1030.39	13.3562
1033.29	6.48389
1036.18	16.115
1039.07	10.4665
1041.96	25.6877
1044.86	16.5322
1047.75	18.4631
1050.64	4.96069
1053.53	16.6553
1056.43	9.51245
1059.32	9.41821
1062.21	5.03174
1065.11	11.7837
1068	24.6606
1070.89	13.2615
1073.78	20.5142
1076.68	0.084473
1079.57	7.20093
1082.46	1.67822
1085.35	10.1528
1088.25	3.84473
1091.14	19.1177
1094.03	21.5652
1096.92	17.8418
1099.82	19.7087
1102.71	3.57617
1105.6	24.4959
1108.49	5.36597
1111.39	17.375
1114.28	25.2942
1117.17	17.4485
1120.07	13.0068
1122.96	12.3391
1125.85	10.4421
1128.74	27.1394
1131.64	0.681396
1134.53	6.34351
1137.42	14.6809
1140.32	6.10132
1143.21	26.4766
1146.1	16.9285
1148.99	20.2895
1151.89	27.9651
1154.78	3.01709
1157.67	1.24194
1160.56	8.79273
1163.46	16.8569
1166.35	11.0493
1169.24	15.3152
1172.13	12.8877
1175.03	18.5237
1177.92	17.9233
1180.81	0.088135
1183.71	2.52685
1186.6	0.388428
1189.49	2.3125
1192.38	16.8823
1195.28	15.9448
1198.17	21.7451
1201.06	21.8894
1203.95	21.3301
1206.85	24.4402
1209.74	30.5422
1212.63	21.7712
1215.53	15.4829
1218.42	20.3928
1221.31	28.4458
1224.2	27.8389
1227.1	25.0557
1229.99	15.0938
1232.88	17.1914
1235.77	10.9648
1238.67	10.7383
1241.56	4.91504
1244.45	11.8521
1247.35	10.4463
1250.24	19.324
1253.13	9.41284
1256.02	22.2722
1258.92	17.0366
1261.81	8.43945
1264.7	8.01392
1267.59	44.1753
1270.49	28.0154
1273.38	32.7734
1276.27	15.4944
1279.16	12.2104
1282.06	7.12793
1284.95	6.0144
1287.84	10.7578
1290.74	20.502
1293.63	8.67822
1296.52	3.49805
1299.41	5.93066
