Measurement: Raman, 532 nm, unoriented, Raman Data Processed
Mineral: Masutomilite
Rruff sample: R061008
Ideal chemistry: KLiAlMn^2+^(Si_3_Al)O_10_(F,OH)_2_
Locality: Tanokamiyama, Shiga Prefecture, Japan
Source: Michael Scott
Description: Brownish purple mica fragment
Raman shift (cm-1)	intensity
151.895	0
154.788	12.2129
157.681	221.1
160.574	468.509
163.466	573.323
166.359	541.696
169.252	532.66
172.144	591.292
175.037	767.581
177.93	892.196
180.822	953.304
183.715	1010.02
186.608	1006.48
189.501	991.019
192.393	1038.71
195.286	1012.76
198.179	1121.3
201.071	1309.59
203.964	1440.02
206.857	1290.71
209.75	1099.19
212.642	1011.44
215.535	576.515
218.428	469.732
221.32	322.99
224.213	99.585
227.106	48.2578
229.998	8.93555
232.891	31.9072
235.784	26.8125
238.676	44.3984
241.569	228.634
244.462	380.418
247.355	526.484
250.247	586.548
253.14	702.745
256.033	829.731
258.925	879.052
261.818	930.18
264.711	772.266
267.603	528.133
270.496	357.664
273.389	171.367
276.281	174.358
279.174	98.1299
282.067	109.959
284.96	26.2617
287.852	39.8897
290.745	90.415
293.638	109.672
296.53	126.96
299.423	224.157
302.316	299.487
305.209	251.213
308.101	167.199
310.994	182.356
313.887	111.155
316.779	35.3379
319.672	15.2617
322.565	1.64648
325.457	42.2402
328.35	6.16894
331.243	115.526
334.135	83.5107
337.028	198.556
339.921	345.525
342.814	477.815
345.706	664.929
348.599	988.69
351.492	1261.09
354.384	1543.58
357.277	1723.24
360.17	1846.85
363.062	2036.93
365.955	1903.83
368.848	1617.67
371.741	1324.31
374.633	1076.3
377.526	894.756
380.419	749.911
383.311	565.696
386.204	567.487
389.097	462.47
391.99	235.393
394.882	109.201
397.775	90.6406
400.668	122.993
403.56	91.1016
406.453	97.4072
409.346	74.9844
412.238	235.028
415.131	463.905
418.024	747.518
420.916	934.835
423.809	1158.11
426.702	1459
429.594	1681.85
432.487	1892.05
435.38	2026.32
438.273	2217.48
441.165	2571.52
444.058	3320.49
446.951	3942.12
449.843	4955.2
452.736	5930.51
455.629	6526.4
458.522	7303.65
461.414	8256.15
464.307	8495.6
467.2	6864.26
470.092	5151.17
472.985	4372.24
475.878	3716.47
478.77	3226.61
481.663	2686.92
484.556	2157.27
487.449	1687.67
490.341	1252.07
493.234	1025.53
496.127	898.651
499.019	955.046
501.912	970.453
504.805	896.438
507.697	778.037
510.59	754.516
513.483	616.898
516.375	622.509
519.268	551.332
522.161	474.707
525.054	400.79
527.946	386.93
530.839	347.742
533.732	395.446
536.624	367.757
539.517	245.31
542.41	133.179
545.303	4.65625
548.195	29.5088
551.088	78.5303
553.981	85.0205
556.873	89.21
559.766	3.84082
562.659	44.1357
565.551	88.0772
568.444	121.116
571.337	259.196
574.23	328.869
577.122	534.156
580.015	564.748
582.908	606.616
585.8	697.027
588.693	800.918
591.586	815.712
594.478	965.542
597.371	1246.66
600.264	1448.67
603.157	1800.18
606.049	2087.01
608.942	1934.7
611.835	1717.41
614.727	1409.63
617.62	1174.64
620.513	1078.42
623.405	912.273
626.298	724.619
629.191	669.652
632.083	570.073
634.976	507.096
637.869	506.054
640.761	444.819
643.654	345.543
646.547	282.684
649.44	358.951
652.332	336.718
655.225	214.485
658.118	207.769
661.01	142.475
663.903	52.791
666.796	73.7461
669.688	113.853
672.581	59.0391
675.474	44.8057
678.367	27.9727
681.259	6.88867
684.152	5.70898
687.045	61.6279
689.937	106.886
692.83	15.6289
695.723	82.7061
698.615	56.2119
701.508	5.48242
704.401	18.1084
707.294	16.9277
710.186	7.96094
713.079	32.1846
715.972	53.2637
718.864	123.288
721.757	63.4541
724.65	101.493
727.543	29.1309
730.435	77.9092
733.328	11.3418
736.221	90.6084
739.113	54.8887
742.006	98.9463
744.899	205.69
747.791	149.87
750.684	133.958
753.577	20.4531
756.47	41.8467
759.362	83.6025
762.255	3.42188
765.148	38.4932
768.04	104.949
770.933	8.3623
773.826	38.2832
776.718	99.4766
779.611	160.157
782.504	212.77
785.396	339.275
788.289	381.503
791.182	597.798
794.075	614.233
796.967	643.45
799.86	714.062
802.753	765.644
805.645	721.965
808.538	705.946
811.431	671.979
814.323	661.673
817.216	639.188
820.109	516.833
823.002	669.534
825.894	560.717
828.787	553.494
831.68	468.485
834.572	460.421
837.465	414.565
840.358	477.816
843.25	435.459
846.143	430.159
849.036	439.787
851.929	450.746
854.821	564.357
857.714	699.252
860.607	730.861
863.499	598.486
866.392	444.441
869.285	202.593
872.178	142.861
875.07	37.9258
877.963	145.781
880.856	121.278
883.748	248.2
886.641	163.493
889.534	172.539
892.426	248.145
895.319	249.826
898.212	163.248
901.104	44.4746
903.997	26.6221
906.89	28.1172
909.783	33.79
912.675	18.7725
915.568	24.5361
918.461	33.8145
921.353	17.2354
924.246	187.032
927.139	219.432
930.031	322.846
932.924	200.389
935.817	287.663
938.71	392.676
941.602	407.863
944.495	451.419
947.388	648.784
950.28	825.404
953.173	1021.32
956.066	1258.27
958.958	1609.32
961.851	2014.07
964.744	2213.06
967.636	2268.61
970.529	2118.32
973.422	2023.02
976.315	1784.34
979.207	1623.31
982.1	1305.93
984.993	1069.73
987.885	917.444
990.778	811.299
993.671	771.109
996.563	860.905
999.456	772.964
1002.35	675.714
1005.24	381.986
1008.13	183.418
1011.03	76.0596
1013.92	0.347656
1016.81	33.7685
1019.71	19.5723
1022.6	10.9756
1025.49	36.9541
1028.38	96.6172
1031.28	4.46777
1034.17	82.9717
1037.06	33.9355
1039.95	212.231
1042.85	243.93
1045.74	411.264
1048.63	435.78
1051.53	655.484
1054.42	789.03
1057.31	872.092
1060.2	893.837
1063.1	863.027
1065.99	842.256
1068.88	982.437
1071.77	1087.29
1074.67	1095.48
1077.56	1014.43
1080.45	1105.4
1083.34	1050.7
1086.24	891.109
1089.13	784.895
1092.02	660.226
1094.91	725.059
1097.81	596.644
1100.7	547.282
1103.59	453.697
1106.49	297.5
1109.38	273.075
1112.27	191.665
1115.16	118.485
1118.06	74.3711
1120.95	40.3154
1123.84	57.9092
1126.73	55.7822
1129.63	178.576
1132.52	121.781
1135.41	54.5068
1138.31	61.4453
1141.2	29.1963
1144.09	54.2676
1146.98	5.2793
1149.88	81.4746
1152.77	143.721
1155.66	261.493
1158.56	282.574
1161.45	261.797
1164.34	144.026
1167.23	87.335
1170.12	192.264
1173.02	143.235
1175.91	205.028
1178.8	231.652
1181.7	97.3096
1184.59	150.986
1187.48	192.282
1190.37	67.5449
1193.27	116.289
1196.16	48.748
1199.05	75.6094
1201.94	103.893
1204.84	26.1055
1207.73	12.8691
1210.62	121.72
1213.52	35.206
1216.41	82.0586
1219.3	92.625
1222.19	104.294
1225.09	58.0801
1227.98	127.866
1230.87	169.576
1233.77	221.05
1236.66	226.577
1239.55	132.922
1242.44	158.656
1245.34	208.014
1248.23	254.786
1251.12	177.88
1254.01	99.2969
1256.91	159.862
1259.8	105.028
1262.69	74.4385
1265.58	8.7959
1268.48	232.897
1271.37	249.969
1274.26	273.634
1277.15	190.804
1280.05	84.6494
1282.94	226.106
1285.83	97.3545
1288.73	1.78516
