Measurement: Raman, 532 nm, unoriented, Raman Data Processed
Mineral: Matlockite
Rruff sample: R140538
Ideal chemistry: PbClF
Locality: Mammoth mine, Tiger, Pinal County, Arizona, USA
Source: The University of Arizona Mineral Museum 5194 and 10550
Description: Pale yellowish or colorless platy crystals, associated with bright orange georgerobinsonite (R110148), quartz, and cerussite.
Raman shift (cm-1)	intensity
90.2653	0
93.6401	56.8934
97.0149	40.5145
100.39	9.29541
103.765	9.32422
107.139	22.7908
110.514	30.8788
113.889	64.9517
117.264	162.673
120.639	204.958
124.013	288.645
127.388	390.439
130.763	640.978
134.138	921.592
137.513	612.526
140.888	452.699
144.262	497.031
147.637	660.618
151.012	838.687
154.387	1022.51
157.762	1213.45
161.137	1430.06
164.511	1544.46
167.886	1101.62
171.261	488.762
174.636	196.228
178.011	89.5115
181.385	47.1726
184.76	29.2344
188.135	22.4509
191.51	16.7039
194.885	12.7796
198.26	17.0447
201.634	29.4689
205.009	46.6018
208.384	72.4668
211.759	109.489
215.133	151.754
218.508	195.473
221.883	234.742
225.258	256.538
228.633	259.608
232.008	245.911
235.382	230.95
238.757	226.393
242.132	201.022
245.507	146.805
248.882	97.6465
252.256	69.0132
255.631	56.102
259.006	39.0078
262.381	29.5912
265.756	21.8594
269.131	13.1647
272.505	11.3046
275.88	8.01709
279.255	4.40832
282.63	0.200439
286.005	2.51929
289.38	1.55438
292.754	4.0282
296.129	6.09796
299.504	7.87384
302.879	2.96082
306.254	1.36218
309.628	6.83667
313.003	10.3914
316.378	13.0941
319.753	15.9373
323.128	19.4938
326.502	23.4471
329.877	25.3075
333.252	27.4379
336.627	30.6293
340.002	32.1564
343.377	34.5726
346.751	32.4175
350.126	33.443
353.501	31.3773
356.876	27.2086
360.251	24.8639
363.625	23.1711
367	21.3929
370.375	16.4042
373.75	14.32
377.125	17.3487
380.5	16.1736
383.874	15.8511
387.249	15.5236
390.624	13.2585
393.999	12.6192
397.374	11.2378
400.748	11.9577
404.123	13.3821
407.498	9.82178
410.873	9.79834
414.248	8.11597
417.623	11.4827
420.997	15.2015
424.372	9.62427
427.747	8.94519
431.122	5.34253
434.497	4.70526
437.872	1.66333
441.246	6.86029
444.621	0.614563
447.996	0.226929
451.371	1.67108
454.745	0.892944
458.12	1.39673
461.495	0.877563
464.87	2.39191
468.245	3.03766
471.62	1.81958
474.994	0.103882
478.369	0.39563
481.744	12.297
485.119	41.9296
488.494	5.35944
491.868	4.27942
495.243	2.50159
498.618	0.430847
501.993	2.47644
505.368	1.58423
508.743	1.81982
512.117	5.83826
515.492	3.56714
518.867	3.25189
522.242	4.96674
525.617	2.64819
528.991	3.39954
532.366	4.74609
535.741	6.91132
539.116	6.16925
542.491	6.69428
545.866	8.2326
549.24	9.25909
552.615	9.45483
555.99	3.453
559.365	7.30786
562.74	6.87256
566.115	5.79077
569.489	6.83948
572.864	5.19659
576.239	3.53522
579.614	7.11432
582.989	4.85712
586.363	7.90839
589.738	2.04761
593.113	4.3811
596.488	0.982422
599.863	0.953735
603.237	0.487976
606.612	2.54065
609.987	3.56311
613.362	0.432739
616.737	4.6795
620.112	2.15466
623.486	2.07178
626.861	2.76337
630.236	0.322998
633.611	0.054688
636.986	0.680481
640.361	2.72815
643.735	4.89532
647.11	4.11353
650.485	2.87714
653.86	2.98511
657.235	5.81928
660.609	2.23669
663.984	5.67224
667.359	7.21301
670.734	9.67718
674.109	4.58527
677.484	2.36719
680.858	2.55475
684.233	0.947754
687.608	3.13184
690.983	1.66943
694.357	1.0968
697.732	2.87463
701.107	0.42627
704.482	0.045349
707.857	2.69171
711.232	1.77551
714.606	2.2157
717.981	1.28845
721.356	1.95062
724.731	4.29333
728.106	5.57495
731.481	6.39722
734.855	3.54913
738.23	4.41443
741.605	4.43805
744.98	4.99927
748.355	5.07568
751.729	6.5976
755.104	6.28552
758.479	1.35169
761.854	2.27454
765.229	3.7193
768.604	2.88592
771.978	2.55054
775.353	2.74322
778.728	0.55304
782.103	1.43103
785.478	5.40753
788.852	2.5658
792.227	3.41766
795.602	1.19977
798.977	2.99933
802.352	5.16815
805.726	8.08325
809.101	12.7153
812.476	10.6468
815.851	8.64032
819.226	12.38
822.601	11.7155
825.975	9.39722
829.35	7.83014
832.725	9.435
836.1	7.26465
839.475	14.0519
842.85	16.0301
846.224	16.2774
849.599	16.5616
852.974	16.7743
856.349	19.3107
859.724	21.2234
863.098	17.344
866.473	15.3326
869.848	13.1708
873.223	11.9744
876.598	11.1356
879.972	6.87012
883.347	9.68543
886.722	9.47693
890.097	7.70935
893.472	6.07422
896.847	3.54327
900.221	3.42444
903.596	5.42273
906.971	2.55322
910.346	2.34705
913.721	2.62274
917.096	0.394409
920.47	0.27832
923.845	0.279724
927.22	2.50305
930.595	1.1424
933.97	2.24823
937.344	2.43201
940.719	0.399841
944.094	0.569336
947.469	1.81097
950.844	4.28394
954.218	5.19812
957.593	2.47229
960.968	3.52356
964.343	4.63232
967.718	5.88922
971.092	8.67328
974.467	2.77179
977.842	3.65399
981.217	6.87982
984.592	8.45715
987.967	10.0595
991.341	8.80902
994.716	8.15942
998.091	7.83954
1001.47	7.65564
1004.84	8.85034
1008.22	8.22357
1011.59	5.27173
1014.97	11.725
1018.34	6.85822
1021.72	6.62152
1025.09	7.74719
1028.46	6.18945
1031.84	7.82379
1035.21	10.4744
1038.59	10.6284
1041.96	10.4315
1045.34	11.3293
1048.71	6.16321
1052.09	8.58691
1055.46	7.3822
1058.84	3.93835
1062.21	1.87476
1065.59	1.44165
1068.96	3.57324
1072.34	1.17993
1075.71	0.705322
1079.09	1.08533
1082.46	1.85254
1085.84	0.708252
1089.21	2.05798
1092.59	2.38501
1095.96	0.157227
1099.34	1.21081
1102.71	2.74585
1106.09	1.88831
1109.46	3.03491
1112.84	6.87524
1116.21	5.03064
1119.58	5.19556
1122.96	1.99121
1126.33	3.81433
1129.71	1.83313
1133.08	0.634888
1136.46	0.102661
1139.83	1.80505
1143.21	1.89331
1146.58	0.998413
1149.96	2.89441
1153.33	0.15625
1156.71	4.46362
1160.08	2.86572
1163.46	2.64453
1166.83	2.39014
1170.21	4.02539
1173.58	4.05188
1176.96	3.00232
1180.33	2.8728
1183.71	4.71863
1187.08	8.16687
1190.46	2.0166
1193.83	4.30896
1197.2	6.3656
1200.58	2.14587
1203.95	2.24731
1207.33	3.00391
1210.7	2.89587
1214.08	3.94641
1217.45	3.95459
1220.83	6.34448
1224.2	2.81226
1227.58	2.31604
1230.95	1.52478
1234.33	3.07043
1237.7	4.24939
1241.08	2.99915
1244.45	4.51648
1247.83	0.115356
1251.2	5.39099
1254.58	4.01965
1257.95	7.17407
1261.33	4.25854
1264.7	3.2312
1268.08	5.72888
1271.45	3.14014
1274.83	2.60205
1278.2	2.64221
1281.58	5.14661
1284.95	2.70264
1288.33	2.97205
1291.7	3.703
1295.08	2.55408
1298.45	6.66455
1301.83	0
