Measurement: Raman, 780 nm, unoriented, Raman Data Processed
Mineral: Matlockite
Rruff sample: R140538
Ideal chemistry: PbClF
Locality: Mammoth mine, Tiger, Pinal County, Arizona, USA
Source: The University of Arizona Mineral Museum 5194 and 10550
Description: Pale yellowish or colorless platy crystals, associated with bright orange georgerobinsonite (R110148), quartz, and cerussite.
Raman shift (cm-1)	intensity
93.9705	0
97.3453	8.46332
100.72	5.0965
104.095	17.462
107.47	22.3047
110.845	3.13812
114.219	4.48792
117.594	18.186
120.969	26.1299
124.344	56.5016
127.719	93.7643
131.094	167.977
134.468	262.286
137.843	172.691
141.218	107.441
144.593	116.984
147.968	162.555
151.342	210.183
154.717	274.759
158.092	340.202
161.467	397.567
164.842	428.834
168.216	316.813
171.591	137.359
174.966	46.9334
178.341	13.5646
181.716	3.66287
185.09	1.81256
188.465	0.592926
191.84	1.28253
195.215	0.591858
198.59	5.45341
201.965	11.7772
205.339	17.6052
208.714	25.9333
212.089	36.1606
215.464	49.6031
218.839	60.2585
222.214	75.7694
225.588	83.7515
228.963	88.4403
232.338	91.5508
235.713	92.5866
239.088	92.4777
242.462	87.566
245.837	67.0845
249.212	47.5789
252.587	34.4076
255.962	25.4111
259.336	18.9634
262.711	14.9105
266.086	13.6984
269.461	9.50624
272.836	5.85979
276.211	3.99507
279.585	2.93217
282.96	3.19107
286.335	0.750153
289.71	0.805389
293.085	0.290054
296.459	1.20943
299.834	0.127823
303.209	0.024857
306.584	0.269249
309.959	0.415131
313.334	1.46375
316.708	1.89109
320.083	1.71165
323.458	2.98321
326.833	2.88653
330.207	3.10434
333.582	2.83047
336.957	2.71926
340.332	2.58385
343.707	2.23121
347.082	2.4121
350.456	1.84644
353.831	2.27661
357.206	2.01121
360.581	1.84878
363.956	1.39268
367.33	1.43082
370.705	1.83507
374.08	0.9394
377.455	0.646881
380.83	0.916946
384.205	0.455528
387.579	0.030128
390.954	0.552055
394.329	1.10519
397.704	0.171585
401.079	0.116371
404.453	1.62603
407.828	0.13073
411.203	0.37027
414.578	0.016098
417.953	0.076309
421.327	0.82518
424.702	1.06916
428.077	0.729866
431.452	1.06685
434.827	1.42034
438.202	0.443275
441.576	0.842537
444.951	0.606018
448.326	0.359146
451.701	0.732826
455.076	1.09813
458.45	0.280426
461.825	1.13959
465.2	0.255692
468.575	0.487274
471.95	1.27041
475.325	0.420113
478.699	0.695229
482.074	0.356773
485.449	1.30887
488.824	1.45417
492.199	0.672516
495.573	0.886742
498.948	0.34436
502.323	1.37174
505.698	0.009438
509.073	0.408752
512.447	0.855217
515.822	1.72631
519.197	0.407677
522.572	0.762451
525.947	1.04918
529.322	0.541451
532.696	0.620026
536.071	0.92701
539.446	0.347504
542.821	2.24443
546.196	1.64238
549.57	1.82802
552.945	1.1698
556.32	0.995354
559.695	1.70719
563.07	1.13946
566.444	1.40239
569.819	0.61338
573.194	1.1583
576.569	0.745117
579.944	1.02398
583.319	0.144043
586.693	0.071152
590.068	0.248764
593.443	0.605682
596.818	1.48754
600.193	0.563278
603.567	0.817078
606.942	0.358276
610.317	0.836334
613.692	1.20767
617.067	0.187897
620.442	0.525955
623.816	1.31805
627.191	0.24839
630.566	1.00491
633.941	1.28313
637.316	1.40381
640.69	1.42964
644.065	1.38451
647.44	1.54865
650.815	0.886948
654.19	1.30811
657.564	2.8613
660.939	1.27821
664.314	1.54379
667.689	1.07954
671.064	1.09593
674.439	1.91631
677.813	1.12694
681.188	0.518089
684.563	1.7114
687.938	1.21678
691.313	1.21414
694.688	0.973076
698.062	0.027107
701.437	0.405106
704.812	0.057716
708.187	0.751854
711.562	0.280922
714.936	1.21339
718.311	0.894203
721.686	1.07346
725.061	1.04198
728.436	0.735779
731.81	0.084297
735.185	0.757965
738.56	1.16213
741.935	0.635406
745.31	0.27256
748.684	1.02544
752.059	0.742249
755.434	0.783768
758.809	0.655975
762.184	0.159821
765.559	1.11385
768.933	0.147697
772.308	1.04072
775.683	1.23663
779.058	1.71918
782.433	0.685638
785.808	1.15846
789.182	1.91759
792.557	1.05771
795.932	2.16428
799.307	2.31613
802.682	2.08562
806.056	2.11297
809.431	3.18197
812.806	2.05557
816.181	3.15987
819.556	2.9324
822.93	2.32551
826.305	3.31995
829.68	3.32534
833.055	2.8529
836.43	3.20213
839.804	3.6684
843.179	4.07195
846.554	4.74523
849.929	4.27283
853.304	4.17001
856.679	4.25614
860.053	4.37048
863.428	4.62524
866.803	4.83944
870.178	4.05979
873.553	4.50407
876.927	3.92466
880.302	3.83687
883.677	3.2066
887.052	1.97909
890.427	1.67905
893.802	2.7124
897.176	2.23171
900.551	0.476967
903.926	0.473778
907.301	0.579147
910.676	0.54847
914.05	0.117668
917.425	0.589386
920.8	1.28877
924.175	0.204727
927.55	0.275291
930.924	0.179398
934.299	0.189148
937.674	0.172295
941.049	1.34877
944.424	0.140709
947.799	0.018806
951.173	1.54465
954.548	0.790489
957.923	0.453773
961.298	1.14357
964.673	0.611145
968.047	1.25401
971.422	0.982872
974.797	0.612343
978.172	1.06326
981.547	0.399376
984.922	0.106247
988.296	1.20234
991.671	0.006592
995.046	1.77049
998.421	0.858795
1001.8	1.41079
1005.17	1.33138
1008.54	0.63063
1011.92	0.18132
1015.29	0.852303
1018.67	1.14912
1022.04	1.06846
1025.42	1.1675
1028.79	1.15453
1032.17	0.695908
1035.54	1.66321
1038.92	1.71892
1042.29	1.14285
1045.67	1.78154
1049.04	0.900421
1052.42	1.74184
1055.79	0.475319
1059.17	1.47623
1062.54	0.880356
1065.92	1.25625
1069.29	0.448044
1072.67	0.353043
1076.04	1.05109
1079.42	0.067551
1082.79	0.804878
1086.17	1.21532
1089.54	0.443153
1092.92	1.32339
1096.29	0.129326
1099.66	1.80631
1103.04	0.901482
1106.41	1.32051
1109.79	1.14946
1113.16	0.295746
1116.54	0.95652
1119.91	0.21859
1123.29	0.663956
1126.66	0.315514
1130.04	0.48716
1133.41	0.799561
1136.79	0.964752
1140.16	0.588188
1143.54	0.205589
1146.91	0.490089
1150.29	0.646385
1153.66	0.148674
1157.04	0.297081
1160.41	1.03986
1163.79	1.63651
1167.16	0.687836
1170.54	0.39431
1173.91	1.64489
1177.29	1.00391
1180.66	1.07863
1184.04	1.19484
1187.41	1.83781
1190.79	1.71825
1194.16	0.864159
1197.54	1.63762
1200.91	1.69864
1204.28	1.08523
1207.66	0.198006
1211.03	2.01196
1214.41	0.321693
1217.78	1.02772
1221.16	1.14866
1224.53	1.06274
1227.91	0.667542
1231.28	0.625427
1234.66	0.428337
1238.03	0.792549
1241.41	0.686844
1244.78	0.308731
1248.16	0.463448
1251.53	1.89423
1254.91	0.769691
1258.28	0.263748
1261.66	0.254684
1265.03	1.08473
1268.41	0.356705
1271.78	0.226364
1275.16	0.590569
1278.53	0.697021
1281.9	0.901924
