Measurement: Raman, 785 nm, unoriented, Raman Data Processed
Mineral: Mattheddleite
Rruff sample: R070490
Ideal chemistry: Pb_10_(SiO_4_)_3_(SO_4_)_3_Cl_2_
Locality: Dry Smale Gill, Roughton Gill, Caldbeck Fells, Cumbria (Cumberland), England, United Kingdom
Source: Bob Jenkins
Description: Radial aggregates of colorless hexagonal prisms associated with elongated bladed striated blue-green caledonite and creamy yellow barite
Raman shift (cm-1)	intensity
227.465	0
230.358	37.1645
233.25	1.2666
236.143	10.6304
239.036	47.3328
241.929	105.339
244.821	57.1731
247.714	64.6773
250.607	58.0127
253.499	75.9307
256.392	59.4102
259.285	134.865
262.177	147.365
265.07	119.798
267.963	131.227
270.856	126.032
273.748	100.874
276.641	91.5414
279.534	88.5557
282.426	20.3671
285.319	16.3014
288.212	10.6968
291.104	5.3103
293.997	2.96082
296.89	12.1024
299.783	2.54053
302.675	11.8798
305.568	24.9935
308.461	33.6189
311.353	59.8932
314.246	73.5753
317.139	93.0548
320.031	143.5
322.924	194.149
325.817	232.651
328.709	268.332
331.602	292.649
334.495	345.825
337.388	389.864
340.28	383.181
343.173	416.355
346.066	447.359
348.958	454.904
351.851	472.732
354.744	507.418
357.637	483.143
360.529	466.34
363.422	440.26
366.315	427.059
369.207	400.686
372.1	362.98
374.993	302.53
377.885	236.903
380.778	210.744
383.671	161.132
386.563	103.766
389.456	116.163
392.349	104.086
395.242	63.1974
398.134	12.6415
401.027	7.96643
403.92	5.90125
406.812	32.3743
409.705	8.88159
412.598	4.5481
415.49	21.0537
418.383	114.376
421.276	212.89
424.169	350.821
427.061	531.359
429.954	738.027
432.847	881.056
435.739	915.548
438.632	864.256
441.525	750.153
444.418	737.423
447.31	702.525
450.203	642.647
453.096	579.837
455.988	471.48
458.881	371.875
461.774	233.353
464.666	172.6
467.559	140.83
470.452	110.93
473.344	90.9404
476.237	91.0948
479.13	74.2797
482.023	77.1656
484.915	49.5487
487.808	72.3904
490.701	87.4818
493.593	71.4993
496.486	64.3433
499.379	91.4478
502.272	85.0873
505.164	79.0175
508.057	101.796
510.95	124.735
513.842	176.78
516.735	155.317
519.628	187.479
522.52	191.23
525.413	174.999
528.306	140.135
531.198	118.698
534.091	84.3679
536.984	56.0862
539.877	14.1378
542.769	10.9841
545.662	6.75604
548.555	10.7857
551.447	6.37451
554.34	18.161
557.233	12.6545
560.125	13.543
563.018	8.21484
565.911	8.06726
568.804	6.15021
571.696	1.36304
574.589	18.1612
577.482	25.5525
580.375	40.1467
583.267	52.7704
586.16	57.5591
589.053	90.5835
591.945	135.988
594.838	194.788
597.731	277.447
600.623	354.017
603.516	434.459
606.409	488.859
609.301	481.571
612.194	419.228
615.087	393.609
617.98	342.014
620.872	233.112
623.765	130.371
626.658	59.1395
629.55	35.178
632.443	7.47607
635.336	26.7885
638.228	12.2087
641.121	37.1066
644.014	20.4008
646.907	27.7825
649.799	1.03027
652.692	18.2973
655.585	17.8535
658.477	21.4592
661.37	20.3008
664.263	0.941467
667.155	16.3124
670.048	9.0943
672.941	21.1414
675.833	35.4856
678.726	25.647
681.619	6.64136
684.512	7.82147
687.404	20.6619
690.297	16.6061
693.19	10.7246
696.082	25.2059
698.975	39.9226
701.868	23.426
704.76	25.252
707.653	38.5934
710.546	16.6155
713.439	39.4204
716.331	39.1645
719.224	37.2424
722.117	34.4884
725.009	34.2031
727.902	11.0764
730.795	18.2205
733.688	5.91968
736.58	27.11
739.473	1.05994
742.366	0.764648
745.258	12.2822
748.151	17.4071
751.044	13.4061
753.936	2.90515
756.829	4.97058
759.722	1.2182
762.615	12.4791
765.507	8.48242
768.4	2.25116
771.293	8.33905
774.185	6.53192
777.078	13.9075
779.971	52.7163
782.863	28.5394
785.756	28.8776
788.649	46.1163
791.542	39.3622
794.434	58.7376
797.327	56.59
800.22	71.8374
803.112	93.4712
806.005	118.144
808.898	145.37
811.79	177.941
814.683	227.388
817.576	291.197
820.468	340.93
823.361	390.906
826.254	437.184
829.147	434.435
832.039	465.844
834.932	460.28
837.825	456.251
840.717	431.113
843.61	454.482
846.503	432.723
849.395	435.264
852.288	442.63
855.181	386.88
858.074	370.206
860.966	331.757
863.859	303.942
866.752	268.087
869.644	262.203
872.537	203.152
875.43	183.698
878.322	151.92
881.215	140.781
884.108	134.138
887.001	101.91
889.893	95.8266
892.786	83.0535
895.679	66.6803
898.571	66.3188
901.464	54.0453
904.357	35.6198
907.25	32.5902
910.142	27.5504
913.035	7.86438
915.928	19.0605
918.82	12.8219
921.713	19.9709
924.606	7.39703
927.498	19.9247
930.391	4.76703
933.284	37.0958
936.177	43.8514
939.069	72.2913
941.962	157.618
944.855	243.94
947.747	389.41
950.64	645.959
953.533	1011.8
956.425	1563.08
959.318	2248.51
962.211	2949.06
965.104	3416.52
967.996	3422.03
970.889	2924.84
973.782	2204.75
976.674	1569.36
979.567	982.391
982.46	563.522
985.352	286.468
988.245	141.054
991.138	90.2635
994.03	19.472
996.923	5.46136
999.816	6.36768
1002.71	3.95776
1005.6	10.556
1008.49	13.3502
1011.39	8.87714
1014.28	4.46747
1017.17	48.4941
1020.07	59.3693
1022.96	50.6202
1025.85	46.9248
1028.74	26.5844
1031.64	36.7806
1034.53	16.7247
1037.42	32.9117
1040.31	30.5591
1043.21	12.6678
1046.1	44.4053
1048.99	36.9833
1051.88	75.5993
1054.78	95.9189
1057.67	26.074
1060.56	1.6507
1063.45	0.945374
1066.35	7.38788
1069.24	26.2215
1072.13	31.4376
1075.03	20.912
1077.92	2.35461
1080.81	51.1804
1083.7	55.3368
1086.6	48.7084
1089.49	47.04
1092.38	44.758
1095.28	49.7577
1098.17	47.7313
1101.06	56.6323
1103.95	40.0894
1106.85	34.12
1109.74	35.7789
1112.63	39.1501
1115.52	29.9277
1118.42	32.3535
1121.31	26.1867
1124.2	34.0545
1127.1	38.699
1129.99	36.2137
1132.88	34.1124
1135.77	36.0314
1138.67	32.3024
1141.56	35.9705
1144.45	25.635
1147.34	35.854
1150.24	18.7217
1153.13	10.8479
1156.02	10.6144
1158.91	19.3473
1161.81	19.4713
1164.7	9.58585
1167.59	2.26117
1170.48	17.9912
1173.38	1.86124
1176.27	2.2403
1179.16	2.07931
1182.06	8.73752
1184.95	7.53613
1187.84	32.919
1190.73	20.1416
1193.63	10.8024
1196.52	13.6006
1199.41	27.265
1202.31	31.4964
1205.2	31.6733
1208.09	34.4825
1210.98	40.2755
1213.88	14.23
1216.77	29.5879
1219.66	33.3666
1222.55	23.6593
1225.45	37.4288
1228.34	63.6264
1231.23	19.1663
1234.12	36.5859
1237.02	13.6098
1239.91	28.0669
1242.8	0.78244
1245.69	26.3739
1248.59	9.15259
1251.48	35.9172
1254.37	17.2289
1257.27	7.37036
1260.16	7.72189
1263.05	12.2348
1265.94	6.32083
