Measurement: Raman, 532 nm, unoriented, Raman Data Processed
Mineral: Mattheddleite
Rruff sample: R070490
Ideal chemistry: Pb_10_(SiO_4_)_3_(SO_4_)_3_Cl_2_
Locality: Dry Smale Gill, Roughton Gill, Caldbeck Fells, Cumbria (Cumberland), England, United Kingdom
Source: Bob Jenkins
Description: Radial aggregates of colorless hexagonal prisms associated with elongated bladed striated blue-green caledonite and creamy yellow barite
Raman shift (cm-1)	intensity
180.529	0
183.421	1.74121
186.314	48.9097
189.207	126.699
192.1	172.538
194.992	136.894
197.885	192.964
200.778	192.566
203.67	192.625
206.563	228.648
209.456	182.513
212.348	196.078
215.241	165.081
218.134	157.38
221.026	139.588
223.919	115.8
226.812	77.8296
229.705	93.9517
232.597	97.5659
235.49	58.8389
238.383	79.4121
241.275	35.3965
244.168	42.585
247.061	72.1489
249.954	115.83
252.846	31.6064
255.739	39.0225
258.632	56.4727
261.524	28.4761
264.417	72.8345
267.31	58.5605
270.202	87.2676
273.095	68.6343
275.988	87.2358
278.881	46.3438
281.773	76.8648
284.666	66.5654
287.559	31.8882
290.451	60.1768
293.344	14.0591
296.237	6.32129
299.13	27.4707
302.022	16.2607
304.915	30.9551
307.808	45.0688
310.7	68.9209
313.593	137.782
316.486	126.802
319.378	137.086
322.271	198.557
325.164	253.972
328.057	250.698
330.949	229.416
333.842	249.684
336.735	329
339.627	298.68
342.52	382.265
345.413	355.147
348.305	381.875
351.198	398.389
354.091	445.305
356.983	395.885
359.876	370.978
362.769	361.184
365.662	306.679
368.554	309.21
371.447	252.376
374.34	242.333
377.232	197.898
380.125	136.553
383.018	169.263
385.911	85.7022
388.803	90.7544
391.696	45.7876
394.589	6.4834
397.481	2.85498
400.374	46.1802
403.267	16.2261
406.159	27.876
409.052	6.53613
411.945	21.273
414.837	83.4043
417.73	193.375
420.623	308.461
423.516	512.792
426.408	735.359
429.301	938.197
432.194	1089.75
435.086	1118.89
437.979	1091.67
440.872	938.735
443.764	922.661
446.657	927.653
449.55	938.973
452.443	758.958
455.335	621.053
458.228	484.606
461.121	323.755
464.014	224.01
466.906	145.379
469.799	134.163
472.692	103.394
475.584	93.7485
478.477	106.657
481.37	116.48
484.262	107.543
487.155	97.0957
490.048	67.1885
492.94	104.045
495.833	71.686
498.726	115.084
501.619	144.147
504.511	167.712
507.404	177.846
510.297	533.385
513.189	325.328
516.082	344.276
518.975	377.195
521.867	392.947
524.76	351.991
527.653	277.524
530.546	267.857
533.438	158.019
536.331	106.919
539.224	48.0107
542.116	24.4009
545.009	43.979
547.902	5.1626
550.794	23.8355
553.687	2.86133
556.58	31.9434
559.473	22.9751
562.365	29.3833
565.258	41.5542
568.151	6.26269
571.043	38.188
573.936	58.623
576.829	64.041
579.721	21.7358
582.614	41.4194
585.507	75.6465
588.4	90.6773
591.292	156.986
594.185	263.359
597.078	336.375
599.97	461.622
602.863	481.546
605.756	576.783
608.649	527.394
611.541	483.611
614.434	443.077
617.327	391.877
620.219	308.869
623.112	145.09
626.005	51.8628
628.897	25.8862
631.79	45.6421
634.683	12.7461
637.576	26.4331
640.468	8.02979
643.361	30.7983
646.254	50.3438
649.146	3.97363
652.039	26.2935
654.932	53.1724
657.824	46.8047
660.717	40.0635
663.61	25.9097
666.503	0.09082
669.395	28.0977
672.288	29.5801
675.181	51.6973
678.073	25.8955
680.966	66.5913
683.859	58.333
686.751	80.9165
689.644	44.834
692.537	74.6626
695.43	92.2998
698.322	63.4663
701.215	79.979
704.108	93.5439
707	59.6123
709.893	82.4912
712.786	89.603
715.678	88.7812
718.571	118.152
721.464	91.1646
724.357	74.5791
727.249	51.7305
730.142	87.458
733.035	19.6963
735.927	14.7749
738.82	6.20361
741.713	26.103
744.606	69.2651
747.498	1.59033
750.391	48.8027
753.284	17.0933
756.176	67.0513
759.069	24.8398
761.962	40.3691
764.854	3.07568
767.747	33.7246
770.64	4.97705
773.533	57.4692
776.425	18.2515
779.318	63.3892
782.211	52.1768
785.103	31.6846
787.996	80.5781
790.889	34.6094
793.781	48.6553
796.674	45.7632
799.567	66.228
802.46	126.561
805.352	125.315
808.245	135.657
811.138	229.092
814.03	304.018
816.923	344.554
819.816	417.242
822.708	572.866
825.601	616.268
828.494	667.926
831.386	645.639
834.279	641.529
837.172	637.002
840.065	622.953
842.957	631.745
845.85	638.995
848.743	706.861
851.635	594.51
854.528	603.124
857.421	548.873
860.313	517.362
863.206	503.611
866.099	441.097
868.992	401.633
871.884	353.305
874.777	300.511
877.67	271.395
880.562	233.351
883.455	239.988
886.348	184.023
889.24	143.409
892.133	154.006
895.026	138.099
897.919	68.7622
900.811	79.3603
903.704	47.5815
906.597	59.0459
909.489	63.0185
912.382	15.0185
915.275	2.73486
918.168	15.8223
921.06	8.94092
923.953	20.0347
926.846	6.83057
929.738	66.2764
932.631	59.5581
935.524	72.1499
938.416	122.258
941.309	232.973
944.202	313.771
947.095	523.653
949.987	808.812
952.88	1349.4
955.773	2077.07
958.665	2998.63
961.558	4050.56
964.451	4721.13
967.343	4911.21
970.236	4364.7
973.129	3544.28
976.021	2744.77
978.914	1824.67
981.807	1010.03
984.7	534.123
987.592	280.452
990.485	136.175
993.378	47.731
996.27	33.0498
999.163	19.5386
1002.06	0.852051
1004.95	30.5391
1007.84	46.8555
1010.73	14.3506
1013.63	52.9277
1016.52	2.70459
1019.41	30.6186
1022.3	28.9004
1025.2	86.9346
1028.09	88.6514
1030.98	103.724
1033.88	91.0874
1036.77	54.6919
1039.66	32.8516
1042.55	83.9697
1045.45	65.5806
1048.34	184.614
1051.23	244.699
1054.12	189.864
1057.02	165.856
1059.91	113.711
1062.8	130.164
1065.69	83.1929
1068.59	95.7349
1071.48	107.483
1074.37	88.3257
1077.27	193.124
1080.16	162.769
1083.05	233.047
1085.94	215.484
1088.84	107.891
1091.73	132.959
1094.62	137.682
1097.52	134.363
1100.41	169.524
1103.3	127.969
1106.19	101.973
1109.09	48.187
1111.98	92.7656
1114.87	103.6
1117.76	125.478
1120.66	122.366
1123.55	112.805
1126.44	64.0083
1129.34	142.288
1132.23	121.49
1135.12	124.065
1138.01	64.4106
1140.91	119.955
1143.8	91.2515
1146.69	74.561
1149.58	46.252
1152.48	39.1465
1155.37	67.7949
1158.26	7.20166
1161.15	43.4204
1164.05	33.541
1166.94	5.49512
1169.83	32.6938
1172.72	12.0586
1175.62	5.79688
1178.51	25.6274
1181.4	35.3413
1184.3	82.8457
1187.19	85.2734
1190.08	46.7554
1192.97	42.521
1195.87	68.5869
1198.76	59.5161
1201.65	63.4287
1204.55	111.03
1207.44	60.3584
1210.33	52.3442
1213.22	47.0317
1216.12	84.6172
1219.01	69.7812
1221.9	137.065
1224.79	169.985
1227.69	86.9619
1230.58	17.2114
1233.47	54.9575
1236.37	58.0024
1239.26	47.4717
1242.15	27.5337
1245.04	67.6558
1247.94	69.1943
1250.83	80.5147
1253.72	5.80615
1256.61	44.1704
1259.51	28.6924
1262.4	82.228
1265.29	64.3887
1268.18	136.114
1271.08	27.668
1273.97	105.322
1276.86	40.6299
1279.76	56.4302
1282.65	65.4585
1285.54	3.23975
1288.43	33.523
1291.33	65.5044
1294.22	40.0068
1297.11	3.49219
