Measurement: Raman, 532 nm, unoriented, Raman Data Processed
Mineral: Mawbyite
Rruff sample: R080011
Ideal chemistry: Pb^2+^Fe^3+^_2_(As^5+^O_4_)_2_(OH)_2_
Locality: Tsumeb, Namibia
Source: William W. Pinch
Description: Reddish brown wedge-shaped crystals, many V-twinned, associated with quartz and scorodite
Raman shift (cm-1)	intensity
130.047	0
133.422	8.03992
136.797	47.0593
140.172	114.578
143.546	189.469
146.921	258.406
150.296	268.388
153.671	238.876
157.046	219.616
160.421	157.75
163.795	72.9206
167.17	29.4351
170.545	28.9982
173.92	36.0062
177.294	49.3628
180.669	90.6954
184.044	116.999
187.419	151.795
190.794	190.959
194.169	235.203
197.543	279.182
200.918	275.106
204.293	260.811
207.668	241.694
211.043	204.056
214.417	170.128
217.792	163.681
221.167	173.514
224.542	184.839
227.917	221.996
231.292	255.68
234.666	303.661
238.041	330.878
241.416	371.908
244.791	401.18
248.166	414.759
251.541	418.481
254.915	393.029
258.29	371.22
261.665	327.46
265.04	274.303
268.415	210.922
271.789	159.113
275.164	118.579
278.539	82.9891
281.914	72.4814
285.289	45.7664
288.663	17.7985
292.038	22.0732
295.413	3.84955
298.788	9.82727
302.163	14.1435
305.538	10.8488
308.912	5.75427
312.287	2.4082
315.662	7.0083
319.037	31.6542
322.412	59.7761
325.786	92.5934
329.161	134.564
332.536	194.84
335.911	262.965
339.286	326.929
342.661	404.207
346.035	463.077
349.41	510.122
352.785	507.732
356.16	445.366
359.535	366.153
362.909	278.582
366.284	213.809
369.659	169.325
373.034	135.19
376.409	118.774
379.784	102.164
383.158	105.966
386.533	101.006
389.908	75.9119
393.283	64.2384
396.658	38.824
400.032	30.6733
403.407	15.2037
406.782	9.336
410.157	7.46484
413.532	7.2196
416.906	3.69287
420.281	3.66284
423.656	1.88934
427.031	0.874817
430.406	4.42835
433.781	17.7032
437.155	33.3749
440.53	58.609
443.905	96.7318
447.28	139.062
450.655	187.666
454.029	241.671
457.404	304.163
460.779	357.724
464.154	402.618
467.529	439.012
470.904	471.11
474.278	501.628
477.653	541.986
481.028	595.963
484.403	659.808
487.778	711.561
491.152	770.359
494.527	782.445
497.902	763.656
501.277	690.4
504.652	578.4
508.026	458.3
511.401	361.101
514.776	285.28
518.151	240.957
521.526	204.796
524.901	186.128
528.275	180.363
531.65	165.755
535.025	160.576
538.4	158.37
541.775	128.093
545.149	114.438
548.524	83.2694
551.899	72.3585
555.274	46.9149
558.649	30.8671
562.024	13.0482
565.398	12.6999
568.773	0.59552
572.148	0.201721
575.523	2.19
578.898	8.4967
582.273	11.2558
585.647	0.883972
589.022	1.86029
592.397	2.45111
595.772	2.06879
599.146	9.09967
602.521	7.96069
605.896	9.54712
609.271	12.2303
612.646	15.7684
616.021	19.8599
619.395	21.3081
622.77	22.4156
626.145	32.2775
629.52	35.2836
632.895	41.2605
636.269	42.0073
639.644	49.0195
643.019	53.4167
646.394	48.6674
649.769	50.7026
653.144	47.7085
656.518	45.1188
659.893	44.0274
663.268	37.4007
666.643	26.2851
670.018	22.6358
673.393	22.225
676.767	16.6317
680.142	11.6561
683.517	4.97766
686.892	2.1333
690.267	0.022369
693.641	5.04987
697.016	6.76175
700.391	3.62051
703.766	5.51398
707.141	6.74408
710.515	8.34607
713.89	26.1178
717.265	38.5416
720.64	56.6622
724.015	78.8314
727.389	97.3532
730.764	109.638
734.139	121.119
737.514	133.732
740.889	121.634
744.264	94.6936
747.638	82.6912
751.013	63.3176
754.388	34.2298
757.763	9.86328
761.138	4.54504
764.513	10.5409
767.887	4.13544
771.262	5.85284
774.637	21.8057
778.012	44.9681
781.387	86.7748
784.761	117.917
788.136	151.332
791.511	170.668
794.886	189.361
798.261	191.396
801.635	193.459
805.01	179.064
808.385	181.725
811.76	177.025
815.135	199.138
818.51	221.795
821.884	268.486
825.259	335.491
828.634	438.921
832.009	575.61
835.384	741.098
838.759	957.869
842.133	1149.87
845.508	1334.37
848.883	1422.67
852.258	1373.26
855.633	1237.29
859.007	1046.12
862.382	867.699
865.757	726.084
869.132	597.775
872.507	496.266
875.881	388.807
879.256	291.284
882.631	222.904
886.006	162.511
889.381	113.692
892.756	70.7558
896.13	42.0426
899.505	25.3385
902.88	5.39444
906.255	7.04245
909.63	10.6135
913.005	12.0059
916.379	12.3037
919.754	8.30545
923.129	0.395813
926.504	0.02655
929.879	9.9339
933.253	16.8075
936.628	14.3854
940.003	26.5343
943.378	26.7544
946.753	29.7958
950.127	34.2716
953.502	39.5645
956.877	44.5762
960.252	47.9916
963.627	49.0673
967.001	52.3541
970.376	49.4142
973.751	45.7633
977.126	40.5295
980.501	39.3259
983.875	40.4167
987.25	32.3746
990.625	33.4329
994	30.831
997.375	27.1459
1000.75	26.321
1004.12	24.3118
1007.5	24.4596
1010.87	19.3939
1014.25	24.3926
1017.62	23.1076
1021	18.0233
1024.37	15.8447
1027.75	18.3789
1031.12	12.1614
1034.5	11.0316
1037.87	13.7374
1041.25	6.68015
1044.62	11.6311
1048	10.4595
1051.37	8.73726
1054.75	7.76755
1058.12	9.52
1061.5	7.32294
1064.87	5.92068
1068.25	4.63711
1071.62	3.754
1075	3.77647
1078.37	1.92528
1081.74	5.98627
1085.12	0.946075
1088.49	3.46089
1091.87	6.229
1095.24	0.302383
1098.62	0.544159
1101.99	1.04561
1105.37	2.65845
1108.74	2.99185
1112.12	2.24284
1115.49	2.86916
1118.87	3.25801
1122.24	0.237564
1125.62	6.9763
1128.99	3.83179
1132.37	4.77504
1135.74	1.7449
1139.12	2.27701
1142.49	1.78203
1145.87	1.10994
1149.24	6.04906
1152.62	5.01576
1155.99	3.35968
1159.37	2.85843
1162.74	0.688141
1166.12	5.00893
1169.49	2.5273
1172.87	0.877533
1176.24	2.48981
1179.62	2.87842
1182.99	5.09589
1186.37	2.74815
1189.74	4.46588
1193.11	2.84738
1196.49	5.55872
1199.86	5.64537
1203.24	3.88467
1206.61	3.85298
1209.99	5.23459
1213.36	4.8226
1216.74	6.28123
1220.11	4.91496
1223.49	5.38452
1226.86	5.67036
1230.24	7.00017
1233.61	3.1736
1236.99	5.12398
1240.36	2.44275
1243.74	4.52481
1247.11	6.52972
1250.49	7.6302
1253.86	3.72415
1257.24	5.22759
1260.61	4.3757
1263.98	4.32736
1267.36	1.78941
1270.73	5.12154
1274.11	6.36285
1277.48	7.73968
1280.86	6.91083
1284.23	6.57431
1287.61	4.74231
1290.98	1.40062
1294.36	2.36078
1297.73	3.13983
1301.11	3.25632
1304.48	0.554855
