Measurement: Raman, 780 nm, unoriented, Raman Data Processed
Mineral: Mawbyite
Rruff sample: R080011
Ideal chemistry: Pb^2+^Fe^3+^_2_(As^5+^O_4_)_2_(OH)_2_
Locality: Tsumeb, Namibia
Source: William W. Pinch
Description: Reddish brown wedge-shaped crystals, many V-twinned, associated with quartz and scorodite
Raman shift (cm-1)	intensity
118.134	0
121.509	7.26062
124.883	19.1822
128.258	29.9594
131.633	61.4446
135.008	109.337
138.383	149.582
141.757	174.668
145.132	196.067
148.507	193.25
151.882	192.28
155.257	170.065
158.632	129.793
162.006	96.5979
165.381	38.9864
168.756	33.3404
172.131	44.8197
175.506	49.023
178.881	52.9689
182.255	73.312
185.63	79.3192
189.005	94.561
192.38	120.16
195.755	139.524
199.129	140.833
202.504	143.315
205.879	122.259
209.254	106.253
212.629	59.1237
216.004	37.3131
219.378	6.16907
222.753	3.37366
226.128	3.96033
229.503	0.831299
232.877	14.6758
236.252	35.3673
239.627	54.9784
243.002	88.2688
246.377	108.663
249.752	124.489
253.126	135.963
256.501	138.011
259.876	128.457
263.251	126.497
266.626	100.039
270	63.7457
273.375	46.6233
276.75	25.9917
280.125	24.8589
283.5	17.337
286.875	10.8123
290.249	4.73401
293.624	1.69385
296.999	4.8396
300.374	3.13464
303.749	6.27039
307.123	9.63184
310.498	0.50647
313.873	7.63098
317.248	7.35669
320.623	23.7848
323.998	41.6015
327.372	71.8693
330.747	105.816
334.122	149.138
337.497	193.82
340.872	240.994
344.247	278.486
347.621	306.347
350.996	316.751
354.371	311.545
357.746	275.662
361.121	234.674
364.495	216.943
367.87	178.697
371.245	171.062
374.62	160.128
377.995	147.521
381.37	144.801
384.744	142.639
388.119	118.344
391.494	102.177
394.869	81.9178
398.244	62.6266
401.618	37.2018
404.993	11.8608
408.368	8.50049
411.743	7.56091
415.118	3.12842
418.493	0.033875
421.867	0.292114
425.242	8.26453
428.617	12.4938
431.992	20.5219
435.366	30.6837
438.741	44.5471
442.116	66.6383
445.491	76.1058
448.866	91.5919
452.241	118.811
455.615	131.476
458.99	145.437
462.365	155.837
465.74	156.111
469.115	149.008
472.49	147.887
475.864	148.081
479.239	154.309
482.614	171.097
485.989	183.928
489.364	190.852
492.738	198.448
496.113	201.816
499.488	174.696
502.863	145.842
506.238	102.023
509.613	69.3547
512.987	43.1504
516.362	26.856
519.737	18.9918
523.112	18.5459
526.487	13.1378
529.861	18.3975
533.236	17.4935
536.611	25.0726
539.986	31.5253
543.361	21.8464
546.736	20.8417
550.11	14.1832
553.485	8.43677
556.86	7.26068
560.235	0.958679
563.61	0.26593
566.984	0.526794
570.359	4.34845
573.734	0.694824
577.109	1.13892
580.484	2.07721
583.859	1.89764
587.233	9.54273
590.608	3.06018
593.983	11.9553
597.358	9.39795
600.732	13.3491
604.107	20.548
607.482	12.7235
610.857	10.7335
614.232	15.6529
617.607	19.559
620.981	17.2463
624.356	26.7115
627.731	21.3214
631.106	23.3226
634.481	25.1477
637.856	22.568
641.23	31.0695
644.605	25.0656
647.98	27.1716
651.355	21.7391
654.73	27.9547
658.104	24.8822
661.479	22.4246
664.854	14.9901
668.229	18.0278
671.604	14.6185
674.979	8.88666
678.353	9.65204
681.728	11.744
685.103	1.51208
688.478	0.551392
691.853	0.983093
695.227	4.69013
698.602	0.176941
701.977	5.13074
705.352	0.677307
708.727	8.17096
712.101	8.9809
715.476	17.8798
718.851	27.2162
722.226	39.4275
725.601	44.2423
728.976	59.828
732.35	56.0652
735.725	71.5358
739.1	65.6914
742.475	57.03
745.85	43.5771
749.225	29.4855
752.599	18.878
755.974	5.71021
759.349	3.35748
762.724	5.64221
766.099	5.47571
769.473	4.02002
772.848	5.65949
776.223	17.3564
779.598	40.1829
782.973	64.0823
786.347	86.5331
789.722	108.622
793.097	130.571
796.472	152.364
799.847	164.942
803.222	175.989
806.596	182.449
809.971	199.032
813.346	204.749
816.721	216.536
820.096	245.875
823.471	277.49
826.845	317.266
830.22	358.718
833.595	415.097
836.97	496.741
840.345	580.662
843.719	656.176
847.094	716.27
850.469	750.731
853.844	718.711
857.219	638.561
860.593	546.681
863.968	445.678
867.343	368.918
870.718	300.737
874.093	244.611
877.467	184.577
880.842	134.182
884.217	95.8843
887.592	60.444
890.967	37.0236
894.342	24.3503
897.716	9.60181
901.091	5.87237
904.466	1.20093
907.841	5.72235
911.216	5.87054
914.591	6.95453
917.965	1.81653
921.34	2.36999
924.715	4.70154
928.09	0.858154
931.465	2.63592
934.839	8.1438
938.214	7.22553
941.589	12.8448
944.964	9.88773
948.339	11.8991
951.713	13.9452
955.088	22.8411
958.463	26.6401
961.838	19.8959
965.213	20.702
968.587	18.9118
971.962	22.5826
975.337	23.099
978.712	12.2982
982.087	14.4677
985.462	18.2584
988.836	15.4808
992.211	13.5252
995.586	14.8493
998.961	7.78433
1002.34	10.8703
1005.71	13.3784
1009.09	13.8578
1012.46	14.0552
1015.84	11.2594
1019.21	8.18417
1022.59	8.36633
1025.96	5.76645
1029.33	8.61404
1032.71	3.54559
1036.08	9.69696
1039.46	9.21606
1042.83	7.27408
1046.21	5.53555
1049.58	4.52084
1052.96	4.58951
1056.33	3.20566
1059.71	2.32089
1063.08	1.04788
1066.46	2.33783
1069.83	8.61658
1073.21	4.49741
1076.58	2.11111
1079.96	1.44516
1083.33	2.53003
1086.71	0.537354
1090.08	7.29822
1093.46	0.711609
1096.83	2.41086
1100.2	1.06808
1103.58	3.35886
1106.95	4.46802
1110.33	3.89517
1113.7	9.15414
1117.08	0.789154
1120.45	4.60492
1123.83	1.7352
1127.2	12.1982
1130.58	3.70389
1133.95	0.6185
1137.33	7.44193
1140.7	4.9498
1144.08	5.90942
1147.45	6.38553
1150.83	2.19891
1154.2	1.21667
1157.58	5.69998
1160.95	2.54797
1164.33	1.591
1167.7	6.52515
1171.08	4.34625
1174.45	5.85538
1177.83	9.40573
1181.2	0.685577
1184.58	5.23471
1187.95	7.84717
1191.33	3.52643
1194.7	1.93137
1198.08	1.3454
1201.45	8.0448
1204.83	7.36447
1208.2	2.16507
1211.57	1.7305
1214.95	3.29428
1218.32	0.666412
1221.7	0.118958
1225.07	5.73587
1228.45	3.33737
1231.82	3.10522
1235.2	5.42703
1238.57	10.8756
1241.95	10.6072
1245.32	3.24521
1248.7	7.47803
1252.07	2.47543
1255.45	3.95065
1258.82	4.30527
1262.2	0.289703
1265.57	6.88492
1268.95	12.3893
1272.32	3.3772
1275.7	5.86157
1279.07	2.70175
1282.44	2.89136
1285.82	0.091644
