Measurement: Raman, 532 nm, unoriented, Raman Data Processed
Mineral: Maxwellite
Rruff sample: R060955
Ideal chemistry: NaFe^3+^As^5+^O_4_F
Locality: Squaw Creek Tin mine, Catron County, New Mexico, USA
Source: Bob Jenkins
Description: Red prismatic crystals in quartz matrix associated with hematite
Measured chemistry: (Na_0.56_Ca_0.41_[box]_0.03_)_Σ=1_(Fe^3+^_0.24_Al_0.24_Fe^2+^_0.23_Mg_0.19_Ti_0.06_Mn_0.03_)_Σ=1_(As_0.99_P_0.01_)_Σ=1_O_4_)F_1.00_ ; trace of Sn, Zr and Nd ; Fe3 and Fe2 split by charge balance
Raman shift (cm-1)	intensity
145.629	0
148.522	107.374
151.414	70.6006
154.307	58.0508
157.2	3.76367
160.092	32.645
162.985	130.821
165.878	82.3652
168.77	17.9185
171.663	26.9531
174.556	47.7085
177.448	73.5449
180.341	58.6548
183.234	57.3403
186.127	103.84
189.019	64.6646
191.912	24.2007
194.805	18.3716
197.697	38.3301
200.59	37.9761
203.483	27.8911
206.375	26.0337
209.268	92.6294
212.161	1.6665
215.054	98.063
217.946	114.27
220.839	135.242
223.732	239.347
226.624	225.786
229.517	380.039
232.41	479.404
235.303	581.799
238.195	803.243
241.088	1063.15
243.981	1277.76
246.873	1548.23
249.766	1775
252.659	1819.61
255.551	1779.08
258.444	1601.46
261.337	1403.02
264.229	1320.38
267.122	1056.02
270.015	875.014
272.908	752.041
275.8	663.741
278.693	584.046
281.586	556.445
284.478	501.311
287.371	536.226
290.264	587.325
293.156	582.831
296.049	638.235
298.942	856.019
301.834	757.932
304.727	857.457
307.62	946.048
310.513	881.282
313.405	817.982
316.298	750.819
319.191	721.701
322.083	647.484
324.976	664.133
327.869	595.243
330.762	487.957
333.654	381.453
336.547	276.37
339.44	269.57
342.332	208.882
345.225	225.893
348.118	155.059
351.01	233.505
353.903	221.516
356.796	144.565
359.688	92.3765
362.581	67.8062
365.474	6.71631
368.366	5.31055
371.259	32.7158
374.152	40.6958
377.045	60.7754
379.937	53.9102
382.83	50.0815
385.723	15.1343
388.615	59.4707
391.508	92.9228
394.401	91.1699
397.293	61.2578
400.186	67.7471
403.079	5.89697
405.972	3.61279
408.864	41.1655
411.757	46.3516
414.65	18.7471
417.542	9.66504
420.435	55.1265
423.328	1.94531
426.221	120.802
429.113	73.4922
432.006	141.351
434.899	296.384
437.791	174.339
440.684	255.399
443.577	292.235
446.469	421.193
449.362	573.864
452.255	601.667
455.147	694.619
458.04	823.993
460.933	788.586
463.826	915.087
466.718	1036.1
469.611	1050.62
472.504	1154.37
475.396	1151.48
478.289	1119.05
481.182	1169.74
484.074	1148.28
486.967	1228.39
489.86	1284.51
492.752	1136.87
495.645	1199.69
498.538	1203.98
501.431	1184.65
504.323	1194
507.216	1238.32
510.109	1291.47
513.001	1375.73
515.894	1366.26
518.787	1467.59
521.679	1627.86
524.572	1638.02
527.465	1585.78
530.358	1630.13
533.25	1590.76
536.143	1424.22
539.036	1341.2
541.928	1164.45
544.821	1038.82
547.714	797.788
550.606	641.292
553.499	467.36
556.392	314.317
559.284	204.919
562.177	97.4448
565.07	29.7666
567.963	12.0386
570.855	22.1035
573.748	64.8027
576.641	17.0356
579.533	42.0742
582.426	40.9453
585.319	64.21
588.212	53.9214
591.104	16.3945
593.997	63.2563
596.89	27.4204
599.782	31.502
602.675	78.7974
605.568	140.013
608.46	177.497
611.353	185.328
614.246	247.423
617.139	274.651
620.031	332.861
622.924	410.423
625.817	331.123
628.709	392.011
631.602	381.186
634.495	339.562
637.387	326.156
640.28	356.747
643.173	328.61
646.066	318.236
648.958	345.386
651.851	401.654
654.744	395.836
657.636	405.945
660.529	418.671
663.422	355.389
666.314	383.869
669.207	356.342
672.1	323.104
674.992	268.852
677.885	290.772
680.778	201.028
683.67	262.17
686.563	205.523
689.456	181.401
692.349	163.782
695.241	164.202
698.134	159.01
701.027	60.6221
703.919	59.3164
706.812	68.7812
709.705	48.9512
712.597	3.68945
715.49	24.2402
718.383	52.3379
721.276	26.8711
724.168	37.9092
727.061	27.6445
729.954	34.2549
732.846	1.38379
735.739	59.8916
738.632	19.5156
741.524	37.2471
744.417	79.4561
747.31	77.3691
750.203	177.002
753.095	50.7705
755.988	161.013
758.881	209.807
761.773	326.935
764.666	378.856
767.559	616.359
770.452	797.931
773.344	1033.83
776.237	1272.57
779.13	1488.69
782.022	1626.08
784.915	1887.27
787.808	2033.75
790.7	2156.7
793.593	2337.43
796.486	2457.66
799.378	2374.59
802.271	2180.77
805.164	2119.42
808.057	1971.63
810.949	1784.84
813.842	1611.08
816.735	1466.55
819.627	1267.2
822.52	1027.2
825.413	920.625
828.305	944.289
831.198	709.529
834.091	753.852
836.984	892.795
839.876	1097.88
842.769	1378.88
845.662	1758.18
848.554	2372.76
851.447	2931.53
854.34	3706.09
857.232	4419.17
860.125	5196.52
863.018	5644
865.91	5646.21
868.803	5554.45
871.696	5081.53
874.589	4513.5
877.481	3835.7
880.374	3121.93
883.267	2420.63
886.159	1972.71
889.052	1464.05
891.945	1129.2
894.837	855.368
897.73	604.889
900.623	350.574
903.516	223.751
906.408	88.4658
909.301	5.45215
912.194	56.9619
915.086	125.208
917.979	81.7998
920.872	14.6514
923.764	35.2441
926.657	10.9199
929.55	80.085
932.442	57.5801
935.335	73.9375
938.228	200.572
941.121	178.287
944.013	216.936
946.906	257.103
949.799	313.653
952.691	284.405
955.584	186.898
958.477	154.21
961.37	78.8643
964.262	132.111
967.155	47.2236
970.048	87.0908
972.94	2.89453
975.833	41.044
978.726	8.74414
981.618	94.7022
984.511	50.3594
987.404	64.5088
990.296	107.912
993.189	108.032
996.082	196.516
998.975	222.961
1001.87	184.765
1004.76	258.82
1007.65	250.494
1010.54	222.421
1013.44	279.729
1016.33	261.056
1019.22	287.288
1022.12	295.88
1025.01	343.483
1027.9	383.971
1030.79	368.782
1033.69	223.526
1036.58	241.976
1039.47	264.697
1042.37	245.692
1045.26	192.88
1048.15	171.404
1051.04	132.333
1053.94	208.261
1056.83	202.023
1059.72	251.103
1062.61	113.532
1065.51	118.37
1068.4	120.668
1071.29	197.602
1074.18	137.685
1077.08	82.5938
1079.97	93.7461
1082.86	64.8115
1085.76	68.792
1088.65	113.921
1091.54	168.805
1094.43	163.172
1097.33	67.9512
1100.22	94.6807
1103.11	147.431
1106	140.181
1108.9	126.507
1111.79	138.812
1114.68	85.0986
1117.58	79.3633
1120.47	24.8174
1123.36	16.6191
1126.25	73.7559
1129.15	48.8047
1132.04	118.133
1134.93	49.5088
1137.82	64.834
1140.72	10.8818
1143.61	58.8213
1146.5	64.7168
1149.39	16.5684
1152.29	8.23145
1155.18	63.8213
1158.07	76.7734
1160.97	101.769
1163.86	1.45898
1166.75	34.7373
1169.64	29.4893
1172.54	71.9648
1175.43	109.884
1178.32	117.872
1181.21	39.2764
1184.11	79.042
1187	95.0781
1189.89	148.068
1192.79	57.0635
1195.68	64.0977
1198.57	36.0518
1201.46	72.791
1204.36	16.0928
1207.25	64.1885
1210.14	84.9385
1213.03	108.305
1215.93	69.2188
1218.82	65.2481
1221.71	106.119
1224.61	31.5381
1227.5	73.3955
1230.39	79.333
1233.28	17.7197
1236.18	123.96
1239.07	251.954
1241.96	227.359
1244.85	121.656
1247.75	146.815
1250.64	88.1904
1253.53	122.465
1256.42	62.5283
1259.32	91.5205
1262.21	84.9629
1265.1	42.3447
1267.99	73.7881
1270.89	128.125
1273.78	149.928
1276.67	169.06
1279.57	117.519
1282.46	60.9424
1285.35	127.688
1288.24	53.8438
1291.14	57.1318
1294.03	27.334
