Measurement: Raman, 785 nm, unoriented, Raman Data Processed
Mineral: Maxwellite
Rruff sample: R060955
Ideal chemistry: NaFe^3+^As^5+^O_4_F
Locality: Squaw Creek Tin mine, Catron County, New Mexico, USA
Source: Bob Jenkins
Description: Red prismatic crystals in quartz matrix associated with hematite
Measured chemistry: (Na_0.56_Ca_0.41_[box]_0.03_)_Σ=1_(Fe^3+^_0.24_Al_0.24_Fe^2+^_0.23_Mg_0.19_Ti_0.06_Mn_0.03_)_Σ=1_(As_0.99_P_0.01_)_Σ=1_O_4_)F_1.00_ ; trace of Sn, Zr and Nd ; Fe3 and Fe2 split by charge balance
Raman shift (cm-1)	intensity
146.38	0
149.273	198.088
152.166	270.243
155.058	97.6289
157.951	34.9287
160.844	21.4253
163.736	129.612
166.629	277.968
169.522	471.202
172.414	478.695
175.307	445.232
178.2	439.338
181.093	429.628
183.985	393.229
186.878	448.716
189.771	424.262
192.663	435.38
195.556	448.951
198.449	432.747
201.341	415.895
204.234	431.807
207.127	446.623
210.019	442.116
212.912	471.788
215.805	460.818
218.698	548.357
221.59	563.102
224.483	606.924
227.376	623.175
230.268	723.567
233.161	835.328
236.054	921.309
238.946	1076.34
241.839	1240.89
244.732	1504.99
247.625	1658.63
250.517	1859.69
253.41	2047.41
256.303	2186.43
259.195	2114.87
262.088	1840.82
264.981	1553.03
267.873	1245.7
270.766	936.573
273.659	678.463
276.552	582.422
279.444	510.82
282.337	494.298
285.23	530.25
288.122	562.749
291.015	605.097
293.908	649.848
296.8	651.263
299.693	703.59
302.586	794.193
305.478	812.973
308.371	808.025
311.264	811.755
314.157	794.669
317.049	622.144
319.942	618.836
322.835	513.805
325.727	364.55
328.62	317.222
331.513	203.433
334.406	104.202
337.298	54.5049
340.191	133.237
343.084	182.414
345.976	51.5698
348.869	20.0303
351.762	119.998
354.654	167.097
357.547	319.762
360.44	321.419
363.333	398.887
366.225	475.089
369.118	429.254
372.011	401.277
374.903	445.037
377.796	443.878
380.689	403.769
383.582	560.037
386.474	576.243
389.367	775.62
392.26	929.726
395.152	1135.73
398.045	1066.01
400.938	1023.04
403.83	826.43
406.723	620.173
409.616	444.509
412.508	249.409
415.401	170.251
418.294	66.1274
421.187	7.33203
424.079	74.4131
426.972	82.9273
429.865	30.3418
432.757	17.8242
435.65	117.737
438.543	345.5
441.435	533.042
444.328	841.222
447.221	1166.88
450.113	1528.47
453.006	1868.78
455.899	2287.95
458.792	2698.43
461.684	2937.82
464.577	3158.85
467.47	3242.25
470.362	3209.74
473.255	3150.48
476.148	3024.28
479.041	2923.8
481.933	2784.84
484.826	2611.81
487.719	2436.94
490.611	2236.51
493.504	2088.84
496.397	1729.38
499.289	1645.82
502.182	1466.22
505.075	1371.08
507.967	1242.85
510.86	1132.35
513.753	1129.01
516.646	1060.75
519.538	1018.36
522.431	1041.65
525.324	1070.81
528.216	1101.57
531.109	1032.97
534.002	1114.21
536.894	1033.88
539.787	1077.46
542.68	977.833
545.573	782.656
548.465	622.86
551.358	474.367
554.251	319.19
557.143	165.035
560.036	115.312
562.929	35.9541
565.822	2.67139
568.714	44.4336
571.607	66.0205
574.5	45.0772
577.392	45.3887
580.285	23.7295
583.178	26.8867
586.07	18.2085
588.963	88.312
591.856	61.9629
594.749	89.9233
597.641	158.99
600.534	209.833
603.427	213.141
606.319	223.223
609.212	247.893
612.105	291.597
614.997	326.342
617.89	303.575
620.783	328.679
623.676	344.582
626.568	339.778
629.461	366.769
632.354	264.292
635.246	336.148
638.139	299.662
641.032	370.846
643.924	337.815
646.817	351.711
649.71	309.531
652.602	310.326
655.495	348.845
658.388	393.018
661.281	395.592
664.173	366.429
667.066	420.471
669.959	425.996
672.851	373.204
675.744	409.596
678.637	360.054
681.529	382.897
684.422	329.461
687.315	299.833
690.208	257.781
693.1	220.098
695.993	221.511
698.886	179.702
701.778	159.694
704.671	113.064
707.564	93.7432
710.457	43.2017
713.349	40.5503
716.242	8.65576
719.135	37.7002
722.027	48.1997
724.92	38.1421
727.813	110.289
730.705	49.2622
733.598	36.023
736.491	74.0742
739.384	36.4331
742.276	37.1328
745.169	43.2685
748.062	57.312
750.954	98.2749
753.847	149.054
756.74	131.368
759.632	144.435
762.525	154.342
765.418	217.058
768.31	276.513
771.203	386.089
774.096	534.956
776.989	705.882
779.881	800.648
782.774	945.933
785.667	1042.89
788.559	1239.47
791.452	1297.44
794.345	1419.49
797.237	1439.09
800.13	1458.03
803.023	1442.05
805.915	1459.88
808.808	1353.59
811.701	1273.84
814.594	1150.1
817.486	1122.78
820.379	992.562
823.272	874.404
826.164	903.455
829.057	887.85
831.95	921.369
834.842	1055.52
837.735	1260.05
840.628	1485.41
843.521	1855.28
846.413	2389.23
849.306	3031.53
852.199	3812.16
855.091	4856.88
857.984	6040.78
860.877	7273.97
863.769	8136.43
866.662	8827.86
869.555	8885.22
872.448	8581.31
875.34	7613.88
878.233	6528.54
881.126	5246.98
884.018	4204.71
886.911	3198.76
889.804	2514.78
892.697	1846.31
895.589	1364.01
898.482	1121.3
901.375	780.261
904.267	519.039
907.16	348.629
910.053	214.345
912.945	107.265
915.838	55.5923
918.731	32.6108
921.624	62.1099
924.516	71.1914
927.409	100.897
930.302	133.506
933.194	75.251
936.087	19.4072
938.98	20.8711
941.872	16.3887
944.765	68.916
947.658	110.582
950.551	171.009
953.443	225.144
956.336	236.981
959.229	203.26
962.121	196.584
965.014	182.633
967.907	130.818
970.799	122.253
973.692	55.0735
976.585	116.81
979.477	101.928
982.37	134.658
985.263	108.062
988.156	140.166
991.048	74.3347
993.941	95.334
996.834	102.584
999.726	60.7246
1002.62	82.7964
1005.51	145.181
1008.4	116.181
1011.3	145.096
1014.19	160.077
1017.08	173.203
1019.98	119.52
1022.87	146.468
1025.76	205.189
1028.65	172.05
1031.55	72.2263
1034.44	92.2583
1037.33	132.947
1040.22	145.704
1043.12	82.1909
1046.01	31.9585
1048.9	95.3648
1051.8	70.8828
1054.69	51.3293
1057.58	56.0818
1060.47	28.5242
1063.37	86.2664
1066.26	60.7629
1069.15	11.822
1072.04	41.5725
1074.94	64.1838
1077.83	63.4319
1080.72	40.5569
1083.62	17.2473
1086.51	62.1846
1089.4	34.6963
1092.29	33.4741
1095.18	60.5088
1098.08	25.1199
1100.97	89.9939
1103.86	80.4739
1106.76	138.405
1109.65	146.672
1112.54	145.334
1115.43	145.724
1118.33	139.356
1121.22	214.697
1124.11	198.328
1127.01	199.945
1129.9	213.571
1132.79	188.495
1135.68	238.969
1138.58	205.95
1141.47	191.973
1144.36	165.537
1147.25	152.305
1150.15	146.993
1153.04	136.462
1155.93	142.599
1158.83	84.1091
1161.72	55.2307
1164.61	68.5066
1167.5	39.3813
1170.4	31.0862
1173.29	13.5994
1176.18	20.4277
1179.07	15.8796
1181.97	23.9544
1184.86	13.4287
1187.75	15.2825
1190.64	3.98291
1193.54	13.7144
1196.43	102.798
1199.32	26.7061
1202.21	64.6155
1205.11	64.6626
1208	72.0747
1210.89	102.757
1213.79	88.272
1216.68	66.2986
1219.57	70.7437
1222.46	41.9072
1225.36	71.6834
1228.25	61.2165
1231.14	23.9539
1234.04	45.6167
1236.93	7.10352
