Measurement: Raman, 780 nm, unoriented, Raman Data Processed
Mineral: Mcgillite
Rruff sample: R110206
Ideal chemistry: Mn^2+^_8_Si_6_O_15_(OH)_8_Cl_2_
Locality: Sullivan mine, Kimberley, British Columbia, Canada
Source: Royal Ontario Museum
Description: Pink massive platy associated with black sphalerite and milky-white quartz. Metatype sample.
Raman shift (cm-1)	intensity
103.174	0
106.549	19.564
109.924	18.9135
113.299	28.0535
116.674	61.0126
120.048	61.4445
123.423	62.7692
126.798	16.1083
130.173	2.14119
133.548	8.36661
136.923	29.0215
140.297	36.4402
143.672	41.5274
147.047	59.9554
150.422	67.8065
153.797	61.37
157.171	50.6715
160.546	33.6716
163.921	14.2896
167.296	2.66818
170.671	2.37341
174.046	5.96809
177.42	11.7289
180.795	11.5348
184.17	6.95485
187.545	1.92149
190.92	2.79109
194.294	1.18616
197.669	1.98879
201.044	0.078262
204.419	1.4697
207.794	2.86618
211.168	0.357498
214.543	0.80452
217.918	1.58592
221.293	5.53648
224.668	7.10194
228.042	10.3058
231.417	14.0481
234.792	16.7229
238.167	19.2238
241.542	16.1084
244.917	20.3056
248.291	28.7856
251.666	35.14
255.041	47.1899
258.416	58.6775
261.791	75.2419
265.166	79.9687
268.54	80.5277
271.915	75.1179
275.29	63.8316
278.665	46.7266
282.04	30.2279
285.414	12.2808
288.789	4.17145
292.164	0.320358
295.539	3.41805
298.914	10.9718
302.288	21.1337
305.663	35.6677
309.038	54.4703
312.413	66.7442
315.788	80.1391
319.163	93.2384
322.537	120.954
325.912	125.232
329.287	68.3632
332.662	30.471
336.037	17.1441
339.411	12.0369
342.786	4.4593
346.161	0.161446
349.536	4.04282
352.911	2.17376
356.286	2.16409
359.66	8.28966
363.035	17.3292
366.41	21.2188
369.785	18.1146
373.16	13.7373
376.534	10.4783
379.909	12.2368
383.284	13.8501
386.659	20.6987
390.034	27.0298
393.409	31.9586
396.783	39.8793
400.158	44.4814
403.533	51.7872
406.908	53.6698
410.283	43.0461
413.658	32.6009
417.032	22.4857
420.407	16.8005
423.782	9.97082
427.157	3.80561
430.532	0.291985
433.906	1.51172
437.281	0.110237
440.656	1.40119
444.031	8.77834
447.406	16.6141
450.781	18.0271
454.155	21.6843
457.53	30.8651
460.905	31.099
464.28	18.442
467.654	8.83921
471.029	10.1306
474.404	15.8228
477.779	19.0722
481.154	19.1703
484.529	29.7648
487.903	49.5013
491.278	59.7188
494.653	32.7249
498.028	14.1906
501.403	8.54837
504.777	6.22118
508.152	8.59208
511.527	10.8688
514.902	12.8699
518.277	8.89378
521.652	2.54123
525.026	1.32421
528.401	2.11697
531.776	0.75914
535.151	1.00754
538.526	0.187202
541.9	0.045013
545.275	0.143333
548.65	1.07124
552.025	0.634964
555.4	0.609306
558.775	0.971169
562.149	0.192032
565.524	2.16629
568.899	2.04747
572.274	4.16029
575.649	6.60519
579.024	8.98443
582.398	14.8142
585.773	19.8456
589.148	33.0798
592.523	52.562
595.898	83.5524
599.272	135.853
602.647	203.124
606.022	295.593
609.397	443.189
612.772	577.108
616.146	527.62
619.521	350.919
622.896	203.279
626.271	116.535
629.646	72.1573
633.021	49.1964
636.395	35.6336
639.77	28.5141
643.145	21.5597
646.52	15.739
649.895	13.526
653.269	9.50123
656.644	5.93326
660.019	4.45557
663.394	2.17451
666.769	1.7016
670.144	1.17583
673.518	0.615005
676.893	1.12363
680.268	1.32902
683.643	6.24463
687.018	8.16067
690.393	9.16301
693.767	13.4293
697.142	12.1429
700.517	11.1785
703.892	7.06865
707.266	5.26946
710.641	2.84785
714.016	2.16797
717.391	0.31942
720.766	0.382591
724.141	0.100494
727.515	0.099724
730.89	0.514076
734.265	0.653954
737.64	1.44221
741.015	0.336235
744.389	0.914574
747.764	0.824097
751.139	0.074463
754.514	0.832062
757.889	0.796883
761.264	1.01882
764.638	0.563156
768.013	0.909599
771.388	1.46174
774.763	1.72337
778.138	3.2298
781.513	5.78191
784.887	8.80585
788.262	10.1109
791.637	15.7863
795.012	20.4331
798.387	21.4788
801.761	24.9614
805.136	27.7367
808.511	26.2164
811.886	21.83
815.261	15.2686
818.635	14.9929
822.01	12.1595
825.385	8.21759
828.76	6.54169
832.135	5.35965
835.51	4.63836
838.884	3.86205
842.259	2.43238
845.634	3.44255
849.009	2.09531
852.384	2.87775
855.759	3.0484
859.133	2.65869
862.508	2.59145
865.883	4.47286
869.258	4.8302
872.633	4.80698
876.007	4.07979
879.382	3.01218
882.757	3.27998
886.132	3.4455
889.507	1.10595
892.881	1.70627
896.256	2.58595
899.631	0.194286
903.006	0.822487
906.381	0.798199
909.756	0.698269
913.13	0.342075
916.505	0.114376
919.88	0.599255
923.255	0.769653
926.63	0.172337
930.005	0.299381
933.379	0.310867
936.754	1.05014
940.129	1.35739
943.504	2.13635
946.879	2.92663
950.253	4.1945
953.628	5.2229
957.003	1.80999
960.378	3.22781
963.753	0.501297
967.127	0.968555
970.502	1.45495
973.877	1.18763
977.252	1.46812
980.627	1.50338
984.001	1.96279
987.376	1.07451
990.751	3.02445
994.126	5.59873
997.501	8.72551
1000.88	9.92752
1004.25	13.9868
1007.62	16.4309
1011	24.5961
1014.38	41.7028
1017.75	69.8416
1021.12	111.004
1024.5	186.367
1027.87	255.083
1031.25	177.302
1034.62	94.352
1038	51.3253
1041.37	25.7818
1044.75	14.2158
1048.12	9.87467
1051.5	6.43879
1054.87	3.64698
1058.25	3.32536
1061.62	3.8064
1065	1.91824
1068.37	1.48413
1071.75	1.51594
1075.12	0.221054
1078.5	0.607014
1081.87	0.341236
1085.25	1.58629
1088.62	0.544613
1092	0.083706
1095.37	0.646114
1098.74	0.391632
1102.12	1.39726
1105.49	1.7648
1108.87	4.19843
1112.24	5.09583
1115.62	7.82074
1118.99	14.1354
1122.37	14.5518
1125.74	15.209
1129.12	12.0636
1132.49	7.68139
1135.87	3.60078
1139.24	4.32063
1142.62	3.4124
1145.99	2.506
1149.37	3.68979
1152.74	5.57236
1156.12	4.95813
1159.49	4.60645
1162.87	3.48331
1166.24	1.11553
1169.62	1.349
1172.99	1.30889
1176.37	0.182289
1179.74	0.051468
1183.12	0.027145
1186.49	0.242531
1189.87	0.882156
1193.24	1.55776
1196.62	0.680534
1199.99	0.606544
1203.37	1.27697
1206.74	0.521519
1210.11	0.775833
1213.49	1.63578
1216.86	1.2951
1220.24	2.27865
1223.61	2.23711
1226.99	1.25279
1230.36	1.16751
1233.74	0.177254
1237.11	1.39199
1240.49	1.7581
1243.86	0.79332
1247.24	1.44917
1250.61	1.26084
1253.99	1.4384
1257.36	2.0782
1260.74	3.55992
1264.11	0.498199
1267.49	0.85445
1270.86	0.230846
1274.24	1.26489
1277.61	1.49157
1280.98	0.852112
1284.36	0.899612
