Measurement: Raman, 532 nm, unoriented, Raman Data Processed
Mineral: Mcgillite
Rruff sample: R110206
Ideal chemistry: Mn^2+^_8_Si_6_O_15_(OH)_8_Cl_2_
Locality: Sullivan mine, Kimberley, British Columbia, Canada
Source: Royal Ontario Museum
Description: Pink massive platy associated with black sphalerite and milky-white quartz. Metatype sample.
Raman shift (cm-1)	intensity
181.612	0
184.505	0.173111
187.398	2.46295
190.29	0.233246
193.183	0.613892
196.076	7.25171
198.968	9.18426
201.861	13.212
204.754	15.4734
207.647	13.8922
210.539	12.6987
213.432	12.6869
216.325	13.5502
219.217	13.8636
222.11	14.7307
225.003	17.4788
227.895	20.0038
230.788	20.7982
233.681	23.2383
236.573	20.3972
239.466	18.8128
242.359	15.4656
245.252	13.8785
248.144	17.319
251.037	26.412
253.93	36.1009
256.822	41.9458
259.715	60.3661
262.608	67.2926
265.5	71.6412
268.393	73.5528
271.286	70.4684
274.179	63.7729
277.071	54.8881
279.964	40.4519
282.857	24.1367
285.75	10.5007
288.642	1.89224
291.535	1.43472
294.428	1.98613
297.32	1.49187
300.213	9.53952
303.106	17.5359
305.998	32.4816
308.891	50.8706
311.784	70.6256
314.676	88.3098
317.569	103.306
320.462	119.631
323.355	151.989
326.247	157.57
329.14	106.065
332.033	53.173
334.925	30.0736
337.818	19.5176
340.711	13.1546
343.603	4.94839
346.496	0.464935
349.389	1.50331
352.281	2.95999
355.174	3.37013
358.067	7.92482
360.96	15.2986
363.852	21.5247
366.745	26.3467
369.638	25.2181
372.53	21.1546
375.423	15.7256
378.316	16.8032
381.209	17.689
384.101	22.9393
386.994	29.6461
389.887	37.2653
392.779	46.1021
395.672	51.5013
398.565	57.3973
401.457	62.6979
404.35	70.8013
407.243	70.3259
410.135	62.8402
413.028	51.1071
415.921	39.8973
418.814	29.2954
421.706	20.0572
424.599	12.4292
427.492	6.23735
430.384	3.82408
433.277	1.68239
436.17	2.47786
439.062	0.31163
441.955	3.90501
444.848	9.08334
447.741	20.7578
450.633	24.3163
453.526	31.657
456.419	39.0713
459.311	46.4064
462.204	41.1647
465.097	27.0684
467.99	15.6525
470.882	14.1597
473.775	18.1854
476.668	23.3349
479.56	31.0394
482.453	39.2596
485.346	50.7476
488.238	68.1847
491.131	79.9292
494.024	63.0089
496.916	30.9907
499.809	16.5325
502.702	10.1372
505.595	7.41759
508.487	6.9697
511.38	8.89754
514.273	10.8246
517.165	7.73518
520.058	7.98596
522.951	3.01303
525.844	1.28564
528.736	3.64389
531.629	0.383789
534.522	1.9521
537.414	0.263504
540.307	0.406067
543.2	0.953018
546.092	1.33299
548.985	2.5135
551.878	0.401703
554.771	0.134521
557.663	0.05365
560.556	2.45255
563.449	1.05598
566.341	2.11951
569.234	2.52995
572.127	5.36758
575.019	8.06822
577.912	11.8658
580.805	16.0208
583.697	23.525
586.59	30.1114
589.483	46.6907
592.376	67.9289
595.268	102.704
598.161	160.306
601.054	249.752
603.946	360.879
606.839	495.723
609.732	658.68
612.625	809.2
615.517	828.057
618.41	658.145
621.303	439.538
624.195	271.271
627.088	168.022
629.981	109.747
632.873	75.6292
635.766	57.0678
638.659	45.2093
641.552	35.5333
644.444	26.9129
647.337	19.4761
650.23	13.8247
653.122	9.19981
656.015	8.32352
658.908	5.16264
661.8	0.752289
664.693	0.394058
667.586	1.453
670.479	0.114975
673.371	0.230606
676.264	1.08891
679.157	4.33859
682.049	5.19817
684.942	21.2597
687.835	30.0502
690.727	30.5864
693.62	34.7269
696.513	38.6389
699.405	34.3569
702.298	20.529
705.191	22.5219
708.084	17.2573
710.976	19.7728
713.869	7.33844
716.762	2.98747
719.654	1.87439
722.547	1.08431
725.44	0.198303
728.332	1.06729
731.225	0.483871
734.118	0.083313
737.011	0.757462
739.903	0.851578
742.796	1.29688
745.689	0.838226
748.581	0.410522
751.474	1.77748
754.367	2.5968
757.26	2.62729
760.152	4.1268
763.045	0.775009
765.938	1.2787
768.83	2.54935
771.723	1.3175
774.616	3.88171
777.508	2.90698
780.401	5.84958
783.294	7.91368
786.187	11.5767
789.079	16.6548
791.972	17.7179
794.865	27.4812
797.757	30.8012
800.65	32.9143
803.543	34.2145
806.435	36.5648
809.328	35.562
812.221	31.3097
815.114	24.049
818.006	20.5269
820.899	16.5149
823.792	15.9396
826.684	12.0209
829.577	8.2169
832.47	8.36545
835.362	5.86626
838.255	3.54327
841.148	3.44344
844.04	1.58806
846.933	2.35892
849.826	3.18546
852.719	2.29542
855.611	2.79669
858.504	3.26948
861.397	5.28619
864.289	6.64864
867.182	6.11577
870.075	5.16188
872.967	6.02837
875.86	5.38344
878.753	5.55215
881.646	3.31297
884.538	6.16481
887.431	4.46809
890.324	4.17102
893.216	1.16823
896.109	1.59575
899.002	0.627548
901.894	0.088715
904.787	1.41284
907.68	0.837036
910.573	1.33551
913.465	0.96022
916.358	0.349716
919.251	0.834732
922.143	0.380661
925.036	0.55397
927.929	0.584625
930.822	1.15854
933.714	2.91864
936.607	0.670929
939.5	1.83784
942.392	4.02223
945.285	4.26318
948.178	6.9996
951.07	6.65027
953.963	8.68378
956.856	6.77217
959.749	3.35541
962.641	6.6541
965.534	2.98733
968.427	4.2309
971.319	2.17447
974.212	3.53639
977.105	1.20312
979.997	4.57578
982.89	5.3833
985.783	2.86417
988.676	6.18135
991.568	8.59024
994.461	11.5172
997.354	13.7511
1000.25	17.3564
1003.14	24.061
1006.03	29.2284
1008.92	37.6024
1011.82	51.8509
1014.71	77.0985
1017.6	127.842
1020.5	203.659
1023.39	301.787
1026.28	422.227
1029.17	478.83
1032.07	347.959
1034.96	207.411
1037.85	130.887
1040.74	72.9906
1043.64	43.4725
1046.53	26.4949
1049.42	16.9654
1052.32	13.8667
1055.21	10.5443
1058.1	7.96657
1060.99	6.68286
1063.89	5.2283
1066.78	3.53189
1069.67	1.98566
1072.56	1.58646
1075.46	0.87442
1078.35	1.22026
1081.24	0.062363
1084.13	0.502563
1087.03	0.458313
1089.92	0.217957
1092.81	1.50916
1095.7	0.227402
1098.6	1.25226
1101.49	3.42023
1104.38	1.04361
1107.28	5.21527
1110.17	4.83026
1113.06	10.8413
1115.95	15.7248
1118.85	19.7601
1121.74	24.3941
1124.63	27.141
1127.53	22.313
1130.42	17.1114
1133.31	9.85187
1136.2	8.64703
1139.1	6.41849
1141.99	7.4576
1144.88	6.2104
1147.77	5.22221
1150.67	6.67522
1153.56	9.61638
1156.45	7.94052
1159.35	5.94778
1162.24	4.39629
1165.13	3.72527
1168.02	2.07358
1170.92	1.35353
1173.81	0.142303
1176.7	2.13434
1179.59	2.26242
1182.49	1.97215
1185.38	1.28889
1188.27	3.96114
1191.16	3.14166
1194.06	0.202255
1196.95	0.056915
1199.84	0.595612
1202.73	2.46893
1205.63	2.90031
1208.52	2.45331
1211.41	2.07837
1214.31	1.68483
1217.2	2.21643
1220.09	2.03294
1222.98	3.1806
1225.88	2.33505
1228.77	2.37563
1231.66	1.25215
1234.56	1.57902
1237.45	0.087051
1240.34	0.279541
1243.23	1.9469
1246.13	1.46571
1249.02	2.90097
1251.91	1.935
1254.8	1.46516
1257.7	1.95509
1260.59	0.015015
1263.48	1.4668
1266.38	4.46181
1269.27	2.44434
1272.16	0.24231
1275.05	2.43895
1277.95	2.19765
1280.84	1.08469
1283.73	0.820602
1286.62	2.23088
1289.52	1.07628
1292.41	2.5372
1295.3	2.13455
1298.19	2.96898
1301.09	2.75305
