Measurement: Raman, 780 nm, unoriented, Raman Data Processed
Mineral: Mcgovernite
Rruff sample: R110030
Ideal chemistry: Mn^2+^_19_Zn^2+^_3_(As^3+^O_3_)(As^5+^O_4_)_3_(SiO_4_)_3_(OH)_21_
Locality: Sterling Hill mine, Odgensberg, Sussex County, New Jersey, USA
Source: William W Pinch
Description: Dark orange-brown micaceous crystals
Raman shift (cm-1)	intensity
129.691	0
132.583	8.3031
135.476	0.638794
138.369	12.283
141.262	12.3947
144.154	15.9382
147.047	34.5316
149.94	37.9727
152.832	34.1698
155.725	59.3663
158.618	73.5729
161.51	76.0341
164.403	66.0792
167.296	49.9752
170.189	29.728
173.081	15.8998
175.974	13.9894
178.867	9.77478
181.759	1.24463
184.652	3.81226
187.545	6.79065
190.437	4.09766
193.33	7.36511
196.223	18.8625
199.115	15.6963
202.008	19.0474
204.901	20.5574
207.794	27.069
210.686	26.1186
213.579	18.1731
216.472	22.5603
219.364	18.2598
222.257	19.7578
225.15	15.3901
228.042	19.2339
230.935	12.125
233.828	24.2061
236.721	24.7949
239.613	27.4206
242.506	28.9976
245.399	24.2709
248.291	26.8066
251.184	21.7236
254.077	20.6977
256.969	16.7649
259.862	36.645
262.755	39.943
265.648	38.6965
268.54	40.5031
271.433	35.797
274.326	36.4635
277.218	42.6967
280.111	40.5681
283.004	44.3593
285.897	31.7252
288.789	32.8646
291.682	39.0155
294.575	27.3246
297.467	22.3051
300.36	11.5946
303.253	8.41748
306.145	6.15698
309.038	7.28284
311.931	2.05176
314.824	1.17615
317.716	1.72107
320.609	6.77246
323.502	6.67175
326.394	1.24756
329.287	7.01123
332.18	0.952148
335.072	1.37048
337.965	13.0665
340.858	15.8088
343.75	12.6625
346.643	9.33765
349.536	13.599
352.429	10.8478
355.321	16.4409
358.214	22.4457
361.107	22.9944
364	22.4706
366.892	27.5144
369.785	45.0018
372.678	52.5402
375.57	41.6018
378.463	39.1366
381.356	47.0288
384.248	44.2513
387.141	63.1151
390.034	63.356
392.926	80.2676
395.819	82.9343
398.712	93.8202
401.605	92.361
404.497	93.1342
407.39	83.3524
410.283	66.5142
413.175	44.868
416.068	35.6649
418.961	25.0798
421.853	22.436
424.746	14.0304
427.639	2.35974
430.532	3.51379
433.424	2.16528
436.317	0.49585
439.21	2.47668
442.102	3.50586
444.995	3.06323
447.888	1.46521
450.781	10.1251
453.673	14.2972
456.566	21.7175
459.459	35.3117
462.351	31.2288
465.244	31.9941
468.137	33.0306
471.029	30.2112
473.922	39.0114
476.815	30.5953
479.707	21.4386
482.6	25.8292
485.493	26.3203
488.386	31.7192
491.278	31.9185
494.171	53.0908
497.064	75.8026
499.956	104.846
502.849	136.127
505.742	161.689
508.635	181.673
511.527	182.622
514.42	177.655
517.313	150.642
520.205	130.453
523.098	106.949
525.991	88.7434
528.883	71.7629
531.776	53.4783
534.669	34.277
537.562	31.7416
540.454	22.3224
543.347	10.9874
546.24	1.39038
549.132	1.01782
552.025	3.33887
554.918	2.40576
557.81	0.514893
560.703	8.41467
563.596	2.3186
566.489	3.16956
569.381	3.45386
572.274	10.3059
575.167	18.6942
578.059	17.6539
580.952	18.6577
583.845	24.9895
586.737	20.6494
589.63	15.756
592.523	14.0326
595.415	18.9816
598.308	33.129
601.201	39.2806
604.094	54.4269
606.986	58.1013
609.879	60.6361
612.772	55.4231
615.664	57.7781
618.557	50.9096
621.45	52.8204
624.342	46.7524
627.235	47.3442
630.128	48.0951
633.021	47.6831
635.913	43.4496
638.806	41.5972
641.699	38.2245
644.591	31.9182
647.484	27.7415
650.377	27.1754
653.269	21.9688
656.162	13.2804
659.055	13.6965
661.948	9.0697
664.84	5.93457
667.733	7.41467
670.626	5.76575
673.518	0.761597
676.411	1.5575
679.304	0.856812
682.197	2.45312
685.089	0.639893
687.982	1.08228
690.875	0.374146
693.767	0.817749
696.66	4.17004
699.553	1.651
702.445	8.44006
705.338	18.5083
708.231	21.5916
711.124	34.2267
714.016	48.65
716.909	61.5221
719.802	83.5281
722.694	107.325
725.587	118.281
728.48	138.723
731.372	165.189
734.265	150.239
737.158	128.688
740.051	112.718
742.943	86.9086
745.836	59.4701
748.729	39.4537
751.621	19.9044
754.514	1.04346
757.407	5.48901
760.299	6.8645
763.192	3.48413
766.085	40.3361
768.977	84.4297
771.87	161.113
774.763	266.682
777.656	434.223
780.548	666.679
783.441	930.12
786.334	1151.76
789.226	1223.87
792.119	1160.28
795.012	969.365
797.904	757.683
800.797	611.965
803.69	533.203
806.583	517.428
809.475	538.843
812.368	542.781
815.261	537.898
818.153	531.69
821.046	570.014
823.939	595.772
826.832	602.256
829.724	572.935
832.617	483.699
835.51	392.911
838.402	317.873
841.295	245.406
844.188	195.815
847.08	151.165
849.973	132.835
852.866	122.937
855.759	95.0841
858.651	60.4598
861.544	31.736
864.437	15.8147
867.329	11.5306
870.222	1.79517
873.115	8.61841
876.007	8.75586
878.9	5.39673
881.793	0.702881
884.686	3.52429
887.578	7.85181
890.471	3.10144
893.364	10.295
896.256	8.92383
899.149	0.718018
902.042	0.983643
904.934	5.44153
907.827	15.6213
910.72	15.0175
913.612	7.75305
916.505	21.8417
919.398	29.5429
922.291	20.8189
925.183	21.8494
928.076	28.6039
930.969	29.524
933.861	16.9025
936.754	32.5349
939.647	24.6144
942.539	24.5169
945.432	21.5259
948.325	27.038
951.218	22.0377
954.11	23.8166
957.003	14.8058
959.896	15.178
962.788	12.9473
965.681	12.6204
968.574	17.7734
971.466	8.48779
974.359	13.1266
977.252	6.27332
980.145	5.54529
983.037	17.2903
985.93	4.84851
988.823	8.14197
991.715	2.05945
994.608	10.679
997.501	5.74164
1000.39	3.29279
1003.29	3.05164
1006.18	4.67462
1009.07	12.4034
1011.96	10.4141
1014.86	12.8688
1017.75	13.4821
1020.64	13.3368
1023.53	12.4817
1026.43	12.3281
1029.32	9.20856
1032.21	19.3566
1035.11	8.80267
1038	11.9972
1040.89	13.9203
1043.78	19.1094
1046.68	7.71845
1049.57	15.6696
1052.46	13.241
1055.36	14.2513
1058.25	13.2947
1061.14	11.498
1064.03	8.87738
1066.93	7.22119
1069.82	9.75769
1072.71	4.97516
1075.6	2.92999
1078.5	1.38672
1081.39	5.17499
1084.28	0.431396
1087.17	6.23901
1090.07	8.28595
1092.96	3.86072
1095.85	9.53302
1098.74	5.79468
1101.64	6.53912
1104.53	1.70892
1107.42	1.25208
1110.32	8.33502
1113.21	4.01147
1116.1	4.94958
1118.99	3.28186
1121.89	7.06635
1124.78	8.00946
1127.67	10.1804
1130.57	3.60907
1133.46	7.42236
1136.35	12.7872
1139.24	12.6907
1142.14	13.2335
1145.03	7.54907
1147.92	18.9503
1150.81	16.4619
1153.71	11.4803
1156.6	12.6423
1159.49	14.4956
1162.38	20.2606
1165.28	15.2281
1168.17	24.9927
1171.06	32.4622
1173.96	27.0116
1176.85	22.7045
1179.74	21.7639
1182.63	26.1831
1185.53	22.9775
1188.42	27.5586
1191.31	24.0009
1194.2	20.1194
1197.1	19.4029
1199.99	22.3934
1202.88	20.5389
1205.78	28.3265
1208.67	14.8751
1211.56	17.7492
1214.45	17.6628
1217.35	19.6324
1220.24	12.9101
1223.13	16.1821
1226.02	21.4988
1228.92	13.4568
1231.81	9.24237
1234.7	9.77875
1237.6	4.93396
1240.49	1.24853
1243.38	0.821411
1246.27	7.03717
1249.17	5.0365
1252.06	7.7132
1254.95	6.07062
1257.84	2.5484
1260.74	8.12616
1263.63	13.7091
1266.52	9.99695
1269.41	7.16089
1272.31	4.1861
1275.2	7.31805
1278.09	7.89758
1280.98	0.795288
1283.88	5.06201
