Measurement: Raman, 532 nm, unoriented, Raman Data Processed
Mineral: Mcgovernite
Rruff sample: R110030
Ideal chemistry: Mn^2+^_19_Zn^2+^_3_(As^3+^O_3_)(As^5+^O_4_)_3_(SiO_4_)_3_(OH)_21_
Locality: Sterling Hill mine, Odgensberg, Sussex County, New Jersey, USA
Source: William W Pinch
Description: Dark orange-brown micaceous crystals
Raman shift (cm-1)	intensity
179.684	0
182.577	4.62146
185.469	11.6318
188.362	7.71509
191.255	33.6697
194.147	47.7993
197.04	57.0352
199.933	76.0999
202.825	52.0256
205.718	57.8485
208.611	62.5262
211.504	56.7877
214.396	46.0324
217.289	42.8627
220.182	29.4401
223.074	28.1873
225.967	12.0367
228.86	13.6244
231.752	14.7502
234.645	27.2942
237.538	22.5519
240.43	19.2433
243.323	18.4298
246.216	21.3096
249.109	20.8866
252.001	22.4249
254.894	24.7346
257.787	38.208
260.679	38.7089
263.572	47.7174
266.465	35.838
269.358	49.5806
272.25	40.2153
275.143	57.7758
278.036	44.0741
280.928	41.544
283.821	25.1209
286.714	17.2082
289.606	6.10193
292.499	13.0243
295.392	23.0166
298.284	7.34229
301.177	9.75159
304.07	2.38953
306.963	7.89429
309.855	8.99121
312.748	0.69873
315.641	3.9115
318.533	4.0011
321.426	4.07983
324.319	11.2289
327.212	13.5614
330.104	13.095
332.997	20.6589
335.89	31.2277
338.782	35.8935
341.675	38.2838
344.568	32.4031
347.46	48.3651
350.353	51.3942
353.246	60.8347
356.139	71.1655
359.031	77.2202
361.924	68.921
364.817	84.5684
367.709	82.1442
370.602	93.4443
373.495	87.1844
376.387	97.3564
379.28	107.644
382.173	115.057
385.065	133.803
387.958	152.985
390.851	171.245
393.744	182.786
396.636	206.507
399.529	232.305
402.422	224.325
405.314	216.096
408.207	196.689
411.1	157.057
413.993	146.803
416.885	103.548
419.778	63.2449
422.671	56.2971
425.563	37.5642
428.456	31.4547
431.349	18.0392
434.241	13.6197
437.134	5.76404
440.027	2.08765
442.92	7.40796
445.812	4.72729
448.705	1.29187
451.598	8.53113
454.49	1.87305
457.383	3.91943
460.276	17.1362
463.168	9.73084
466.061	2.6228
468.954	0.326538
471.846	8.37195
474.739	12.4094
477.632	14.8514
480.525	27.0949
483.417	44.9386
486.31	70.6569
489.203	116.379
492.095	175.541
494.988	270.21
497.881	388.928
500.774	515.26
503.666	621.145
506.559	691.963
509.452	722.897
512.344	699.575
515.237	637.233
518.13	535.238
521.022	458.063
523.915	378.402
526.808	323.482
529.701	248.66
532.593	187.9
535.486	140.249
538.379	97.0758
541.271	74.0492
544.164	48.7841
547.057	21.1834
549.949	13.1117
552.842	7.01599
555.735	2.26306
558.628	0.78125
561.52	2.70837
564.413	0.940674
567.306	3.81848
570.198	6.16846
573.091	6.31628
575.984	18.3552
578.876	15.7148
581.769	21.3066
584.662	19.381
587.554	21.8774
590.447	24.3303
593.34	30.6455
596.232	40.6025
599.125	57.8982
602.018	72.6605
604.911	92.7321
607.803	105.948
610.696	113.816
613.589	114.243
616.481	115.607
619.374	117.958
622.267	113.367
625.159	98.3521
628.052	91.5023
630.945	90.8029
633.838	87.2526
636.73	79.7112
639.623	64.7172
642.516	65.6932
645.408	56.9534
648.301	52.4952
651.194	35.8981
654.087	38.3192
656.979	31.5367
659.872	19.3873
662.765	10.481
665.657	10.8221
668.55	5.46521
671.443	1.74817
674.335	9.12036
677.228	3.93848
680.121	8.61487
683.014	5.49927
685.906	0.499512
688.799	3.99768
691.692	1.35864
694.584	0.622314
697.477	10.2651
700.37	8.5332
703.263	11.035
706.155	26.7384
709.048	52.802
711.941	70.7625
714.833	96.0885
717.726	125.109
720.619	156.109
723.511	191.795
726.404	234.583
729.297	253.112
732.189	243.821
735.082	234.951
737.975	189.837
740.868	148.996
743.76	95.1428
746.653	57.7961
749.546	26.3091
752.438	7.90967
755.331	5.37695
758.224	9.75732
761.116	8.23413
764.009	36.0151
766.902	93.9446
769.795	196.44
772.687	358.735
775.58	610.58
778.473	936.579
781.365	1348.84
784.258	1755.83
787.151	2059.16
790.043	2114.89
792.936	1950.21
795.829	1657.14
798.722	1327.36
801.614	1118.31
804.507	1011.43
807.4	985.94
810.292	998.983
813.185	1025.06
816.078	1026.83
818.971	1040.48
821.863	1086.5
824.756	1103.64
827.649	1072.1
830.541	959.461
833.434	771.121
836.327	603.129
839.219	466.09
842.112	358.912
845.005	289.66
847.898	235.9
850.79	204.265
853.683	176.998
856.576	121.794
859.468	80.5869
862.361	33.5581
865.254	10.1335
868.146	1.75269
871.039	8.55688
873.932	8.84033
876.824	7.15295
879.717	0.017334
882.61	10.0118
885.503	4.53418
888.395	2.90784
891.288	2.97839
894.181	0.005859
897.073	2.87122
899.966	0.241943
902.859	18.6226
905.751	27.7393
908.644	36.531
911.537	38.7324
914.43	44.059
917.322	58.7874
920.215	50.1316
923.108	52.8319
926	56.4199
928.893	62.837
931.786	54.6123
934.678	52.8701
937.571	41.1322
940.464	42.7761
943.357	36.1084
946.249	44.0497
949.142	39.3348
952.035	30.795
954.927	25.2312
957.82	22.9241
960.713	29.8423
963.606	20.5095
966.498	18.0831
969.391	27.5987
972.284	10.6364
975.176	13.7839
978.069	6.53418
980.962	4.45874
983.854	8.46069
986.747	3.80042
989.64	5.64758
992.533	7.3363
995.425	1.23731
998.318	2.33545
1001.21	8.28479
1004.1	10.36
1007	16.3866
1009.89	21.2311
1012.78	24.8484
1015.67	24.9695
1018.57	28.1777
1021.46	40.8463
1024.35	38.8603
1027.24	35.6765
1030.14	35.9664
1033.03	34.4905
1035.92	40.0015
1038.82	27.6229
1041.71	39.3722
1044.6	32.1498
1047.49	20.8779
1050.39	25.8008
1053.28	21.406
1056.17	21.5278
1059.07	28.1648
1061.96	15.8626
1064.85	22.1953
1067.74	8.85669
1070.63	21.0745
1073.53	11.2131
1076.42	6.22607
1079.31	12.9326
1082.21	8.39477
1085.1	8.40796
1087.99	0.891357
1090.88	4.0896
1093.78	5.87842
1096.67	8.65552
1099.56	7.40649
1102.45	14.137
1105.35	5.26685
1108.24	1.75855
1111.13	5.37598
1114.03	7.77856
1116.92	4.7063
1119.81	6.93237
1122.7	5.6665
1125.6	2.57568
1128.49	6.06079
1131.38	4.34253
1134.28	2.91553
1137.17	6.8501
1140.06	10.0513
1142.95	0.128418
1145.85	1.00098
1148.74	0.286865
1151.63	4.94849
1154.52	2.9331
1157.42	3.99878
1160.31	6.15381
1163.2	6.08765
1166.09	8.64624
1168.99	9.74414
1171.88	7.48535
1174.77	1.75073
1177.66	16.4766
1180.56	9.33252
1183.45	15.8406
1186.34	20.675
1189.24	21.2034
1192.13	16.1116
1195.02	9.36938
1197.91	23.2153
1200.81	15.688
1203.7	21.3225
1206.59	19.9824
1209.48	18.7183
1212.38	31.6465
1215.27	22.7847
1218.16	9.04419
1221.06	10.4524
1223.95	9.74536
1226.84	17.6824
1229.73	6.27686
1232.63	6.33594
1235.52	1.01074
1238.41	2.62793
1241.31	3.54565
1244.2	9.40601
1247.09	10.7419
1249.98	1.86035
1252.88	5.36231
1255.77	9.05322
1258.66	22.3198
1261.55	14.9121
1264.45	10.9116
1267.34	16.8464
1270.23	7.52344
1273.12	8.97583
1276.02	8.802
1278.91	20.5244
1281.8	10.0491
1284.69	11.7588
1287.59	12.6011
1290.48	10.843
1293.37	6.47412
1296.27	28.3545
1299.16	16.8618
1302.05	5.16113
