Measurement: Raman, 532 nm, unoriented, Raman Data Processed
Mineral: Mcguinnessite
Rruff sample: R070082
Ideal chemistry: CuMgCO_3_(OH)_2_
Locality: Copper King mine, Red Mountain District, Mendocino County, California, USA
Source: James Shigley
Description: Aggregates of greenish blue radially fibrous spherules
Raman shift (cm-1)	intensity
167.537	0
170.429	104.685
173.322	4.00879
176.215	34.5801
179.108	12.2051
182	222.027
184.893	508.772
187.786	763.291
190.678	1242.42
193.571	1834.36
196.464	2370.65
199.357	2551.75
202.249	2165.62
205.142	1533.14
208.035	983.36
210.927	610.52
213.82	334.768
216.713	95.0466
219.605	6.21143
222.498	7.94946
225.391	64.3875
228.284	19.0781
231.176	119.718
234.069	239.287
236.962	339.375
239.854	454.828
242.747	652.092
245.64	831.388
248.532	1047.43
251.425	1236.74
254.318	1403.16
257.211	1557.81
260.103	1738.78
262.996	2001.35
265.889	1973.8
268.781	1735.14
271.674	1352.18
274.567	1084.58
277.459	847.523
280.352	673.093
283.245	583.227
286.137	538.074
289.03	547.879
291.923	671.732
294.816	718.208
297.708	773.31
300.601	813.359
303.494	868.966
306.387	882.111
309.279	936.865
312.172	960.579
315.065	892.207
317.957	821.377
320.85	728.02
323.743	561.967
326.635	447.494
329.528	392.012
332.421	336.294
335.313	236.737
338.206	127.939
341.099	67.9639
343.992	32.0999
346.884	23.7722
349.777	2.16504
352.67	46.0364
355.562	33.3418
358.455	64.5996
361.348	62.9153
364.24	34.7766
367.133	24.7654
370.026	25.1345
372.919	86.8938
375.811	80.6111
378.704	35.7356
381.597	12.4199
384.489	67.7681
387.382	151.905
390.275	220.279
393.168	301.996
396.06	468.496
398.953	658.972
401.846	948.036
404.738	1341
407.631	1818.6
410.524	2155
413.416	2302.06
416.309	2067.4
419.202	1586.42
422.094	1186.22
424.987	992.856
427.88	802.004
430.773	577.227
433.665	545.646
436.558	523.057
439.451	594.953
442.343	720.425
445.236	893.078
448.129	1015.03
451.022	1189.83
453.914	1192.44
456.807	1041.82
459.7	711.22
462.592	418.388
465.485	219.167
468.378	65.168
471.27	18.7341
474.163	26.4014
477.056	105.073
479.949	142.129
482.841	306.457
485.734	443.585
488.627	592.911
491.519	731.44
494.412	855.58
497.305	1033.65
500.197	1254.15
503.09	1653.41
505.983	2312.27
508.875	3065.29
511.768	3881.31
514.661	4574.85
517.554	4710.94
520.446	4177.77
523.339	3054.64
526.232	2120.86
529.125	1402.98
532.017	934.591
534.91	687.697
537.803	465.268
540.695	310.798
543.588	180.854
546.481	137.771
549.373	99.2578
552.266	24.3105
555.159	10.5215
558.052	10.2537
560.944	8.32935
563.837	28.0566
566.73	27.6819
569.622	5.2085
572.515	6.5918
575.408	55.9788
578.3	12.0654
581.193	8.91748
584.086	19.3919
586.979	33.6382
589.871	5.98853
592.764	0.156738
595.657	0.619141
598.549	18.0161
601.442	50.3164
604.335	34.6292
607.227	82.946
610.12	92.1296
613.013	77.1699
615.905	65.3144
618.798	94.906
621.691	67.8071
624.584	83.7261
627.476	72.6206
630.369	64.7856
633.262	97.7373
636.154	75.7798
639.047	112.04
641.94	38.1677
644.832	47.5857
647.725	14.0913
650.618	43.251
653.511	22.1148
656.403	38.9658
659.296	27.0977
662.189	23.4929
665.081	70.332
667.974	18.9797
670.867	38.9883
673.76	59.6755
676.652	56.7378
679.545	80.9192
682.438	79.9631
685.33	164.93
688.223	209.201
691.116	288.462
694.008	437.248
696.901	610.896
699.794	778.731
702.687	1013.71
705.579	1118.93
708.472	901.821
711.365	641.24
714.257	434.932
717.15	275.123
720.043	210.133
722.935	205.48
725.828	179.238
728.721	247.079
731.614	290.243
734.506	335.921
737.399	353.745
740.292	295.226
743.184	312.868
746.077	159.016
748.97	177.917
751.862	115.562
754.755	112.298
757.648	97.9534
760.54	107.634
763.433	85.0942
766.326	113.723
769.219	64.6814
772.111	64.759
775.004	42.6931
777.897	71.0544
780.789	31.5981
783.682	45.0374
786.575	1.74023
789.467	0.120361
792.36	4.15064
795.253	18.9502
798.146	3.98389
801.038	4.87183
803.931	24.7873
806.824	16.0691
809.716	9.52563
812.609	32.5261
815.502	1.96216
818.394	39.8257
821.287	45.0225
824.18	85.0308
827.073	159.88
829.965	228.912
832.858	382.397
835.751	466.108
838.643	389.356
841.536	205.871
844.429	60.4038
847.322	80.3618
850.214	33.7778
853.107	65.7888
856	77.6042
858.892	94.1172
861.785	44.3435
864.678	80.2661
867.57	76.2185
870.463	122.291
873.356	86.7459
876.249	150.412
879.141	146.231
882.034	253.887
884.927	228.706
887.819	270.876
890.712	335.857
893.605	406.147
896.497	418.196
899.39	483.21
902.283	470.568
905.176	539.489
908.068	521.308
910.961	492.391
913.854	479.458
916.746	440.957
919.639	313.799
922.532	315.941
925.424	288.92
928.317	232.734
931.21	203.136
934.102	192.218
936.995	145.306
939.888	135.954
942.781	56.0676
945.673	91.1221
948.566	105.775
951.459	34.146
954.351	55.2668
957.244	50.4009
960.137	79.2383
963.029	30.2585
965.922	6.82544
968.815	26.1706
971.708	30.5554
974.6	15.8557
977.493	7.7312
980.386	35.1951
983.279	2.25903
986.171	25.4309
989.064	14.7822
991.957	2.87671
994.849	31.4307
997.742	4.32666
1000.63	18.7739
1003.53	5.74365
1006.42	54.842
1009.31	32.1931
1012.21	37.7485
1015.1	47.7371
1017.99	59.0261
1020.88	92.3628
1023.78	109.427
1026.67	113.87
1029.56	190.361
1032.45	215.129
1035.35	263.974
1038.24	345.81
1041.13	412.293
1044.03	459.683
1046.92	525.875
1049.81	499.76
1052.7	520.693
1055.6	527.08
1058.49	557.298
1061.38	637.177
1064.27	711.805
1067.17	755.183
1070.06	950.303
1072.95	1238.16
1075.85	1702.72
1078.74	2560.31
1081.63	3760.3
1084.52	5183.08
1087.42	6189.79
1090.31	6064.3
1093.2	4486.34
1096.09	2760.97
1098.99	1564.15
1101.88	916.37
1104.77	577.28
1107.66	302.751
1110.56	206.569
1113.45	182.591
1116.34	89.2546
1119.23	77.9749
1122.13	31.7185
1125.02	55.3904
1127.91	0.830811
1130.81	12.5474
1133.7	5.79834
1136.59	7.18628
1139.48	18.8223
1142.38	2.23535
1145.27	10.541
1148.16	1.75806
1151.06	8.56494
1153.95	7.49634
1156.84	11.396
1159.73	9.64868
1162.63	5.30298
1165.52	36.3516
1168.41	29.1016
1171.3	39.2759
1174.2	42.727
1177.09	25.3545
1179.98	12.7864
1182.88	24.7922
1185.77	37.5459
1188.66	71.2068
1191.55	6.83057
1194.45	50.072
1197.34	45.5151
1200.23	19.8496
1203.12	64.667
1206.02	115.292
1208.91	53.5691
1211.8	21.8552
1214.69	40.0002
1217.59	56.5164
1220.48	27.5188
1223.37	56.9224
1226.27	13.2559
1229.16	43.8413
1232.05	49.2205
1234.94	44.7903
1237.84	48.155
1240.73	70.3188
1243.62	35.3477
1246.51	75.3096
1249.41	42.6321
1252.3	26.5784
1255.19	36.0791
1258.09	8.28931
1260.98	54.3203
1263.87	45.6211
1266.76	61.4434
1269.66	67.8164
1272.55	26.219
1275.44	20.8586
1278.33	3.36426
1281.23	43.0969
1284.12	39.7632
1287.01	53.5796
1289.9	73.4636
1292.8	20.2349
1295.69	10.5068
1298.58	26.291
1301.48	62.7063
1304.37	29.3145
1307.26	84.0403
1310.15	29.2266
1313.05	60.6201
1315.94	21.0344
