Measurement: Raman, 780 nm, unoriented, Raman Data Processed
Mineral: Medaite
Rruff sample: R130098
Ideal chemistry: Mn^2+^_6_V^5+^Si_5_O_18_(OH)
Locality: Molinello Mine, Graveglia Valley, Ne, Genova Province, Liguria, Italy
Source: Donald Doell (Large Piece) and Rock Currier (Small Piece)
Description: Red grains and prismatic crystals
Raman shift (cm-1)	intensity
91.1996	0
94.5744	15.2039
97.9492	14.9141
101.324	0.130005
104.699	3.11707
108.074	5.80673
111.448	4.42142
114.823	13.6913
118.198	19.8066
121.573	34.4203
124.948	37.4556
128.322	40.0318
131.697	29.0205
135.072	15.9139
138.447	3.40713
141.822	3.59598
145.197	2.81454
148.571	8.62259
151.946	10.1467
155.321	13.4287
158.696	15.5264
162.071	21.3758
165.446	14.6671
168.82	8.95764
172.195	15.3798
175.57	21.8682
178.945	28.8131
182.32	23.1703
185.694	15.0465
189.069	10.7577
192.444	14.4753
195.819	10.2642
199.194	6.86008
202.569	12.9134
205.943	19.7588
209.318	23.6292
212.693	26.5146
216.068	28.3596
219.442	24.2458
222.817	25.5078
226.192	26.9086
229.567	24.9985
232.942	25.1919
236.317	32.7632
239.691	34.2126
243.066	37.9496
246.441	28.132
249.816	12.6146
253.191	2.60178
256.565	0.149445
259.94	0.242584
263.315	3.07953
266.69	6.76138
270.065	7.43045
273.44	1.5791
276.814	5.41333
280.189	17.0708
283.564	20.5016
286.939	22.4779
290.314	33.2164
293.688	39.17
297.063	48.8352
300.438	56.8763
303.813	63.2423
307.188	65.2087
310.562	69.5288
313.937	81.7293
317.312	97.6377
320.687	117.199
324.062	129.463
327.437	130.167
330.811	124.816
334.186	123.748
337.561	129.29
340.936	139.75
344.311	149.74
347.685	151.799
351.06	136.817
354.435	131.139
357.81	120.326
361.185	111.817
364.56	101.908
367.934	100.791
371.309	100.287
374.684	95.2756
378.059	92.2832
381.434	87.9835
384.808	73.3052
388.183	60.8908
391.558	54.2605
394.933	47.8199
398.308	45.8198
401.683	41.3646
405.057	38.4066
408.432	31.6837
411.807	28.5121
415.182	26.3296
418.557	21.9207
421.931	17.3652
425.306	13.2021
428.681	6.28598
432.056	0.546173
435.431	5.65765
438.805	7.4845
442.18	4.00909
445.555	1.08246
448.93	2.07803
452.305	5.59778
455.68	11.7886
459.054	24.9217
462.429	40.0089
465.804	31.4269
469.179	16.5183
472.554	10.2609
475.928	6.48825
479.303	7.96158
482.678	7.03021
486.053	9.60046
489.428	10.6463
492.803	8.43607
496.177	8.40582
499.552	6.87521
502.927	12.2626
506.302	18.6698
509.677	26.5364
513.051	31.772
516.426	26.2969
519.801	14.1866
523.176	7.36945
526.551	3.12367
529.926	1.8591
533.3	1.39148
536.675	2.57309
540.05	5.71524
543.425	8.67841
546.799	9.99637
550.174	6.72201
553.549	4.97322
556.924	1.9763
560.299	0.016281
563.674	0.449188
567.048	0.216385
570.423	0.21698
573.798	0.925232
577.173	0.815384
580.548	0.612457
583.923	0.269608
587.297	0.326431
590.672	1.00099
594.047	0.506226
597.422	0.840454
600.797	4.64568
604.171	6.0262
607.546	7.7861
610.921	10.704
614.296	14.387
617.671	21.124
621.045	27.2674
624.42	40.2069
627.795	51.6958
631.17	65.7911
634.545	88.2151
637.919	108.369
641.294	126.247
644.669	144.664
648.044	181.225
651.419	228.276
654.794	257.534
658.168	225.66
661.543	163.629
664.918	122.488
668.293	105.932
671.668	87.426
675.043	67.4714
678.417	55.3614
681.792	47.456
685.167	43.2836
688.542	40.6101
691.917	33.0376
695.291	24.2964
698.666	17.9782
702.041	14.3853
705.416	15.2198
708.791	13.8419
712.165	13.8934
715.54	9.46565
718.915	7.33809
722.29	3.02371
725.665	0.966629
729.039	0.391418
732.414	2.08057
735.789	2.50874
739.164	1.27579
742.539	0.906235
745.914	3.7061
749.288	6.64641
752.663	11.6238
756.038	17.0663
759.413	26.5144
762.788	43.3719
766.163	63.1751
769.537	76.8383
772.912	80.3564
776.287	70.3487
779.662	51.8781
783.037	32.9695
786.411	18.2891
789.786	8.57545
793.161	0.547318
796.536	5.4566
799.911	6.34927
803.285	5.97009
806.66	3.66121
810.035	6.04021
813.41	16.7641
816.785	30.6517
820.159	51.6872
823.534	66.8218
826.909	81.5743
830.284	97.0151
833.659	122.766
837.034	164.354
840.408	225.02
843.783	310.903
847.158	421.668
850.533	545.496
853.908	632.061
857.283	642.805
860.657	593.91
864.032	549.678
867.407	495.872
870.782	450.853
874.157	434.072
877.531	447.595
880.906	488.593
884.281	522.316
887.656	513.535
891.031	446.708
894.405	334.811
897.78	239.385
901.155	174.622
904.53	139.278
907.905	122.751
911.279	110.455
914.654	97.8622
918.029	101.502
921.404	118.387
924.779	133.128
928.154	106.433
931.528	55.2669
934.903	15.844
938.278	2.19455
941.653	9.83664
945.028	10.4371
948.403	2.68356
951.777	5.49532
955.152	23.1147
958.527	49.8519
961.902	90.5078
965.277	122.213
968.651	102.838
972.026	64.026
975.401	44.5446
978.776	40.8143
982.151	49.0834
985.525	59.013
988.9	75.9183
992.275	95.0055
995.65	104.086
999.025	98.7034
1002.4	87.7488
1005.77	69.2051
1009.15	56.7349
1012.52	42.2452
1015.9	29.1822
1019.27	14.8194
1022.65	6.47316
1026.02	1.21672
1029.4	2.64783
1032.77	1.2352
1036.15	0.914658
1039.52	0.282104
1042.9	4.17744
1046.27	5.86919
1049.65	10.1445
1053.02	13.1676
1056.4	12.6838
1059.77	11.7787
1063.15	7.50714
1066.52	5.86752
1069.9	4.90497
1073.27	4.58598
1076.64	2.10642
1080.02	5.99217
1083.39	4.59981
1086.77	4.60902
1090.14	3.82214
1093.52	5.8168
1096.89	1.54167
1100.27	1.47723
1103.64	1.65564
1107.02	0.131042
1110.39	0.109131
1113.77	0.683899
1117.14	0.414978
1120.52	1.24559
1123.89	0.775208
1127.27	3.01228
1130.64	2.55232
1134.02	2.68112
1137.39	5.22792
1140.77	2.98627
1144.14	2.43045
1147.52	3.86314
1150.89	3.96013
1154.27	4.98824
1157.64	6.13463
1161.02	4.92401
1164.39	2.79298
1167.77	3.53687
1171.14	2.96327
1174.52	3.06428
1177.89	2.48906
1181.27	3.44102
1184.64	2.95178
1188.01	0.948547
1191.39	2.6944
1194.76	1.94013
1198.14	2.58726
1201.51	1.84081
1204.89	2.34782
1208.26	0.906067
1211.64	0.75322
1215.01	1.83725
1218.39	1.54465
1221.76	0.347778
1225.14	2.9697
1228.51	0.702744
1231.89	1.32443
1235.26	0.20224
1238.64	0.809265
1242.01	0.126862
1245.39	0.328323
1248.76	1.61526
1252.14	1.43367
1255.51	0.487686
1258.88	0.629654
1262.26	1.81798
1265.63	1.51228
1269.01	0.434845
1272.38	2.35545
1275.76	4.22061
1279.13	1.0681
1282.51	0.820938
