Measurement: Raman, 532 nm, unoriented, Raman Data Processed
Mineral: Medaite
Rruff sample: R130098
Ideal chemistry: Mn^2+^_6_V^5+^Si_5_O_18_(OH)
Locality: Molinello Mine, Graveglia Valley, Ne, Genova Province, Liguria, Italy
Source: Donald Doell (Large Piece) and Rock Currier (Small Piece)
Description: Red grains and prismatic crystals
Raman shift (cm-1)	intensity
177.107	0
180	0.598526
182.892	5.80135
185.785	10.5416
188.678	13.9284
191.57	22.0306
194.463	27.055
197.356	27.7031
200.249	30.1258
203.141	33.2615
206.034	38.0964
208.927	41.0324
211.819	45.6587
214.712	48.1788
217.605	48.5423
220.497	42.7165
223.39	39.5505
226.283	42.7171
229.175	46.3772
232.068	45.5504
234.961	48.8333
237.854	57.9111
240.746	67.362
243.639	72.315
246.532	64.8749
249.424	48.9571
252.317	38.1318
255.21	27.8413
258.103	21.4839
260.995	16.7493
263.888	10.0417
266.781	3.37595
269.673	4.2755
272.566	6.78433
275.459	7.22533
278.351	4.81088
281.244	0.866867
284.137	1.2814
287.029	0.823929
289.922	5.04308
292.815	13.8458
295.708	22.9665
298.6	32.4799
301.493	41.1788
304.386	45.0631
307.278	42.4032
310.171	40.2315
313.064	41.0993
315.957	47.1512
318.849	52.1912
321.742	63.3981
324.635	69.902
327.527	69.4792
330.42	66.8342
333.313	62.3323
336.205	63.0196
339.098	72.8001
341.991	86.8386
344.884	97.7153
347.776	101.473
350.669	96.5191
353.562	96.8172
356.454	94.2793
359.347	90.5705
362.24	85.9712
365.132	85.659
368.025	91.9951
370.918	101.621
373.81	111.955
376.703	119.138
379.596	119.635
382.489	111.454
385.381	96.4272
388.274	81.8114
391.167	71.8132
394.059	68.074
396.952	66.3257
399.845	65.2188
402.738	65.3241
405.63	59.5205
408.523	50.8057
411.416	42.6651
414.308	32.728
417.201	24.7606
420.094	18.7004
422.986	13.8131
425.879	11.5998
428.772	11.6728
431.664	10.1653
434.557	12.436
437.45	11.6571
440.343	14.9931
443.235	14.9829
446.128	12.6469
449.021	5.00209
451.913	0.304321
454.806	2.80926
457.699	3.81506
460.591	4.41061
463.484	4.27502
466.377	2.62353
469.27	1.23347
472.162	2.45304
475.055	7.58672
477.948	11.148
480.84	15.0116
483.733	19.6635
486.626	24.0943
489.519	26.1547
492.411	22.1637
495.304	18.063
498.197	14.1142
501.089	13.7317
503.982	13.6272
506.875	17.807
509.767	21.9266
512.66	25.976
515.553	22.7217
518.446	18.3585
521.338	12.4332
524.231	8.46691
527.124	6.08327
530.016	4.35395
532.909	5.50996
535.802	6.73714
538.694	7.63387
541.587	10.2456
544.48	13.454
547.372	13.0981
550.265	11.0564
553.158	6.59861
556.051	5.07189
558.943	3.05263
561.836	1.62492
564.729	2.64294
567.621	2.53523
570.514	2.61804
573.407	1.45573
576.299	0.409409
579.192	1.51307
582.085	1.81342
584.978	1.00794
587.87	1.51214
590.763	0.043037
593.656	0.278275
596.548	0.072693
599.441	0.945389
602.334	2.80105
605.226	3.09356
608.119	6.87485
611.012	9.04752
613.905	12.0669
616.797	18.461
619.69	25.9194
622.583	38.1666
625.475	50.2902
628.368	63.8584
631.261	82.2327
634.154	103.099
637.046	122.947
639.939	138.601
642.832	146.973
645.724	157.352
648.617	179.669
651.51	209.903
654.402	236.684
657.295	237.494
660.188	207.328
663.081	182.127
665.973	169.256
668.866	163.095
671.759	143.723
674.651	120.301
677.544	96.0781
680.437	80.7608
683.329	73.4513
686.222	66.3087
689.115	60.1809
692.008	52.1134
694.9	41.0889
697.793	32.7356
700.686	27.767
703.578	25.9969
706.471	29.2382
709.364	30.8123
712.256	30.3183
715.149	24.8669
718.042	16.7398
720.934	9.70975
723.827	4.76006
726.72	1.48473
729.613	1.30096
732.505	2.68091
735.398	3.14461
738.291	1.36652
741.183	2.47324
744.076	8.60742
746.969	13.791
749.861	17.1597
752.754	26.5937
755.647	37.8811
758.54	55.1355
761.432	81.8809
764.325	114.404
767.218	152.202
770.11	184.162
773.003	197.234
775.896	184.396
778.788	151.924
781.681	109.927
784.574	71.9975
787.467	39.2315
790.359	14.9478
793.252	2.80202
796.145	13.5259
799.037	17.5115
801.93	15.0901
804.823	7.15161
807.716	9.3358
810.608	32.7916
813.501	60.4494
816.394	92.7724
819.286	126.577
822.179	163.873
825.072	195.281
827.964	215.606
830.857	238.766
833.75	272.28
836.643	330.555
839.535	412.235
842.428	531.993
845.321	690.849
848.213	883.297
851.106	1080.82
853.999	1236.85
856.891	1279.03
859.784	1220.97
862.677	1123.84
865.569	1029.73
868.462	952.005
871.355	891.814
874.248	888.17
877.14	946.925
880.033	1027.74
882.926	1084.11
885.818	1081.96
888.711	1025.55
891.604	889.727
894.496	708.993
897.389	541.752
900.282	415.905
903.175	338.472
906.067	289.523
908.96	258.638
911.853	232.893
914.745	202.162
917.638	183.271
920.531	191.425
923.423	211.464
926.316	207.847
929.209	153.079
932.102	87.6091
934.994	37.4111
937.887	9.62639
940.78	7.11539
943.672	14.6747
946.565	14.585
949.458	13.8088
952.351	8.68593
955.243	0.379761
958.136	18.9839
961.029	44.334
963.921	75.0723
966.814	90.4969
969.707	78.2496
972.599	61.5593
975.492	57.672
978.385	64.5436
981.278	78.5433
984.17	97.9783
987.063	117.849
989.956	134.304
992.848	148.448
995.741	153.424
998.634	141.365
1001.53	121.655
1004.42	101.528
1007.31	85.9301
1010.21	76.417
1013.1	63.1753
1015.99	46.5871
1018.88	31.3585
1021.77	17.276
1024.67	8.45113
1027.56	1.49646
1030.45	0.01207
1033.35	1.48833
1036.24	0.424896
1039.13	2.11949
1042.02	5.85642
1044.92	8.99026
1047.81	12.8097
1050.7	17.9108
1053.6	17.4201
1056.49	16.5083
1059.38	12.5785
1062.27	12.3676
1065.17	10.4814
1068.06	8.07433
1070.95	6.97762
1073.84	3.57534
1076.74	3.68031
1079.63	2.32224
1082.52	4.65128
1085.41	5.519
1088.31	5.58343
1091.2	5.21551
1094.09	4.32341
1096.99	2.75217
1099.88	2.12356
1102.77	1.11391
1105.66	0.158562
1108.56	1.29995
1111.45	1.1078
1114.34	0.841019
1117.23	1.11523
1120.13	0.410843
1123.02	0.444527
1125.91	0.42617
1128.81	0.215134
1131.7	0.787941
1134.59	1.41584
1137.48	1.5193
1140.38	1.66232
1143.27	1.10095
1146.16	1.91461
1149.05	2.42113
1151.95	2.46751
1154.84	2.84076
1157.73	2.8251
1160.62	3.22825
1163.52	2.90818
1166.41	2.86955
1169.3	1.50401
1172.2	2.49147
1175.09	1.91218
1177.98	1.77399
1180.87	0.919899
1183.77	0.673546
1186.66	1.38492
1189.55	0.54319
1192.44	1.06171
1195.34	0.601593
1198.23	2.24262
1201.12	1.70503
1204.02	1.28628
1206.91	1.29098
1209.8	1.71
1212.69	1.70228
1215.59	1.9695
1218.48	2.00306
1221.37	2.15362
1224.26	1.54639
1227.16	2.34074
1230.05	3.54717
1232.94	2.48421
1235.84	2.87421
1238.73	2.19492
1241.62	2.37291
1244.51	2.78167
1247.41	3.88405
1250.3	2.27768
1253.19	2.94737
1256.08	3.27536
1258.98	2.80908
1261.87	3.24097
1264.76	2.96323
1267.65	2.11089
1270.55	2.68076
1273.44	1.91743
1276.33	1.89606
1279.23	2.39881
1282.12	1.92945
1285.01	1.56681
1287.9	0.679939
1290.8	1.47865
1293.69	0.489075
1296.58	0.27668
1299.47	0.524612
