Measurement: Raman, 532 nm, unoriented, Raman Data Processed
Mineral: Meieranite
Rruff sample: R140947
Ideal chemistry: Na_2_Sr_3_MgSi_6_O_17_
Locality: Wessels mine, Kalahari Manganese Fields, Northern Cape Province, South Africa
Source: Jaco and Tania Janse van Nieuwenhuizen
Description: Aggregates of granular blue crystals, associated with massive pale green sugilite, prismatic grey aegirine and bladed white pectolite. Type sample
Measured chemistry: Na_1.96_(Sr_2.91_Ba_0.03_Ca_0.03_Pb_0.02_)_Σ2.99_(Mg_0.62_Mn_0.28_Co_0.07_Fe_0.01_)_Σ0.98_Si_6.03_O_17_ ; = bright phase. Grey phase is sugilite.
Raman shift (cm-1)	intensity
134.138	0
137.513	81.4939
140.888	41.706
144.262	22.7588
147.637	64.1062
151.012	31.9402
154.387	6.75928
157.762	15.3652
161.137	61.9077
164.511	81.3962
167.886	62.7317
171.261	39.8726
174.636	36.1475
178.011	16.2056
181.385	8.41699
184.76	1.53076
188.135	8.49365
191.51	18.5488
194.885	18.2617
198.26	48.898
201.634	64.1143
205.009	44.2471
208.384	29.25
211.759	19.8716
215.133	24.0459
218.508	29.4351
221.883	35.498
225.258	41.1543
228.633	52.0996
232.008	46.8291
235.382	54.2769
238.757	43.6572
242.132	26.8477
245.507	5.47363
248.882	3.82617
252.256	4.48242
255.631	3.11475
259.006	2.05908
262.381	4.94824
265.756	2.81299
269.131	10.9663
272.505	21.3218
275.88	27.9209
279.255	45.248
282.63	51.7944
286.005	86.0078
289.38	123.989
292.754	148.131
296.129	153.564
299.504	152.678
302.879	167.754
306.254	186.504
309.628	196.922
313.003	220.228
316.378	212.563
319.753	181.352
323.128	124.061
326.502	94.707
329.877	64.3389
333.252	57.1924
336.627	71.8057
340.002	72.7153
343.377	65.9956
346.751	56.1392
350.126	51.7676
353.501	48.9902
356.876	42.5225
360.251	65.4951
363.625	93.9746
367	71.3677
370.375	15.5225
373.75	2.75635
377.125	0.944336
380.5	7.74854
383.874	38.04
387.249	51.1108
390.624	82.8516
393.999	142.929
397.374	240.237
400.748	155.736
404.123	62.9634
407.498	19.9629
410.873	14.8062
414.248	5.65967
417.623	25.3296
420.997	59.3052
424.372	69.6724
427.747	39.6138
431.122	5.05127
434.497	4.27246
437.872	8.86084
441.246	27.0239
444.621	42.5156
447.996	39.0742
451.371	32.7319
454.745	56.9775
458.12	91.9761
461.495	94.7466
464.87	100.782
468.245	67.6611
471.62	59.4575
474.994	32.8164
478.369	21.4297
481.744	37.1582
485.119	48.6733
488.494	75.5644
491.868	97.1587
495.243	73.854
498.618	70.9873
501.993	77.4819
505.368	88.2837
508.743	79.9468
512.117	50.5713
515.492	43.2563
518.867	22.0723
522.242	23.1626
525.617	16.7007
528.991	4.3374
532.366	4.77441
535.741	13.2856
539.116	7.79736
542.491	25.5488
545.866	61.062
549.24	91.4712
552.615	109.992
555.99	59.1963
559.365	38.6338
562.74	52.396
566.115	55.2095
569.489	49.4321
572.864	39.6089
576.239	20.8359
579.614	6.48584
582.989	3.07129
586.363	23.1655
589.738	0.372559
593.113	0.741211
596.488	10.1538
599.863	4.96924
603.237	8.94043
606.612	39.3223
609.987	70.6309
613.362	145.887
616.737	248.394
620.112	468.747
623.486	888.763
626.861	1529.19
630.236	2499.56
633.611	3382.31
636.986	2621.79
640.361	1306.31
643.735	829.7
647.11	660.957
650.485	639.396
653.86	868.453
657.235	1207.41
660.609	1613.95
663.984	1516.31
667.359	873.245
670.734	419.012
674.109	207.164
677.484	106.592
680.858	76.6226
684.233	49.3057
687.608	34.127
690.983	31.7607
694.357	16.4209
697.732	0.069824
701.107	0.992676
704.482	1.11231
707.857	3.02197
711.232	1.67383
714.606	4.2793
717.981	11.7661
721.356	11.7651
724.731	22.9082
728.106	42.0825
731.481	25.9053
734.855	40.3662
738.23	46.9077
741.605	61.3779
744.98	76.5264
748.355	114.692
751.729	199.182
755.104	263
758.479	345.027
761.854	463.817
765.229	505.801
768.604	397.157
771.978	239.513
775.353	126.533
778.728	78.3667
782.103	41.3857
785.478	71.041
788.852	36.187
792.227	19.9619
795.602	16.5386
798.977	18.731
802.352	23.6172
805.726	26.4502
809.101	42.1792
812.476	11.6733
815.851	21.7246
819.226	49.1387
822.601	30.8213
825.975	6.79102
829.35	0.866211
832.725	7.99609
836.1	3.87109
839.475	1.48975
842.85	3.56836
846.224	17.7012
849.599	7.00244
852.974	8.44629
856.349	16.8379
859.724	47.8628
863.098	47.4526
866.473	19.5859
869.848	42.8188
873.223	30.5093
876.598	34.5478
879.972	19.7998
883.347	13.1289
886.722	15.1982
890.097	33.5176
893.472	46.3096
896.847	68.1728
900.221	85.8354
903.596	109.285
906.971	114.361
910.346	113.033
913.721	86.9131
917.096	86.8691
920.47	75.0059
923.845	104.616
927.22	137.196
930.595	236.059
933.97	413.606
937.344	692.387
940.719	765.011
944.094	400.99
947.469	179.195
950.844	80.5737
954.218	22.3198
957.593	15.8218
960.968	21.8374
964.343	7.83008
967.718	81.3354
971.092	165.932
974.467	285.256
977.842	238.474
981.217	152.164
984.592	98.5772
987.967	95.3979
991.341	143.568
994.716	197.733
998.091	305.453
1001.47	397.853
1004.84	225.506
1008.22	117.276
1011.59	81.1352
1014.97	73.6191
1018.34	65.0166
1021.72	67.856
1025.09	61.7681
1028.46	117.543
1031.84	161.165
1035.21	169.273
1038.59	141.695
1041.96	123.622
1045.34	149.565
1048.71	261.491
1052.09	413.309
1055.46	455.125
1058.84	562.598
1062.21	830.854
1065.59	968.667
1068.96	557.662
1072.34	240.016
1075.71	102.192
1079.09	60.835
1082.46	24.1406
1085.84	44.0117
1089.21	75.1992
1092.59	143.793
1095.96	248.213
1099.34	217.304
1102.71	58.0147
1106.09	27.1709
1109.46	0.822266
1112.84	6.53906
1116.21	3.40234
1119.58	5.62598
1122.96	7.03809
1126.33	8.24902
1129.71	1.82617
1133.08	13.5947
1136.46	11.0068
1139.83	14.4639
1143.21	18.6387
1146.58	12.1035
1149.96	26.9043
1153.33	31.4443
1156.71	50.0342
1160.08	41.7617
1163.46	39.4033
1166.83	52.0518
1170.21	38.4961
1173.58	54.2949
1176.96	35.4287
1180.33	48.8262
1183.71	52.4629
1187.08	45.0361
1190.46	44.0332
1193.83	35.0107
1197.2	32.584
1200.58	26.0967
1203.95	23.8281
1207.33	20.207
1210.7	10.7246
1214.08	25.8779
1217.45	20.6943
1220.83	26.4531
1224.2	42.7022
1227.58	4.57422
1230.95	24.29
1234.33	13.002
1237.7	20.4873
1241.08	29.1797
1244.45	34.6143
1247.83	64.1328
1251.2	58.7412
1254.58	58.5
1257.95	61.0137
1261.33	50.0117
1264.7	22.0088
1268.08	18.5859
1271.45	28.3525
1274.83	22.877
1278.2	44.7275
1281.58	27.2744
1284.95	8.45703
1288.33	23.3516
1291.7	16.8623
1295.08	21.6816
1298.45	19.5684
1301.83	0
