Measurement: Raman, 785 nm, unoriented, Raman Data Processed
Mineral: Meionite
Rruff sample: R040169
Ideal chemistry: (Ca,Na)_4_(Si,Al)_12_O_24_(CO_3_,SO_4_,Cl)
Locality: Black Hills, South Dakota, USA
Source: University of Arizona Mineral Museum
Description: White massive
Measured chemistry: (Ca_0.73_Na_0.24_K_0.03_)_4_(Si_0.58_Al_0.41_)_12_O_24_((CO_3_)_0.90_Cl_0.10_)
Raman shift (cm-1)	intensity
142.232	0
145.125	64.162
148.018	357.633
150.911	683.477
153.803	725.339
156.696	597.987
159.589	565.742
162.481	617.168
165.374	596.87
168.267	515.377
171.16	408.456
174.052	271.777
176.945	164.561
179.838	62.1215
182.73	31.7527
185.623	27.9867
188.516	62.532
191.408	108.85
194.301	127.502
197.194	121.809
200.087	152.889
202.979	62.313
205.872	51.5535
208.765	34.6276
211.657	12.6636
214.55	3.17871
217.443	10.2293
220.335	46.2935
223.228	9.95605
226.121	36.5557
229.013	63.9482
231.906	67.071
234.799	74.7859
237.692	57.7305
240.584	94.9871
243.477	127.436
246.37	238.464
249.262	284.106
252.155	347.756
255.048	467.32
257.941	519.605
260.833	406.862
263.726	307.437
266.619	187.978
269.511	122.054
272.404	46.391
275.297	15.481
278.19	16.1748
281.082	0.325562
283.975	59.3601
286.868	99.6464
289.76	128.295
292.653	204.035
295.546	226.936
298.438	154.149
301.331	105.786
304.224	79.0122
307.116	19.8953
310.009	12.354
312.902	9.59119
315.795	33.5453
318.687	4.56482
321.58	10.3927
324.473	9.91589
327.365	21.8574
330.258	3.5199
333.151	20.3059
336.043	35.4288
338.936	42.181
341.829	53.3473
344.721	95.0834
347.614	143.588
350.507	187.616
353.4	247.794
356.292	305.197
359.185	368.25
362.078	358.842
364.97	307.631
367.863	252.385
370.756	208.12
373.649	174.881
376.541	177.082
379.434	125.591
382.327	150.833
385.219	124.016
388.112	57.3062
391.005	72.8435
393.897	48.2082
396.79	11.0765
399.683	14.818
402.575	26.0831
405.468	29.204
408.361	32.4315
411.254	63.7626
414.146	148.017
417.039	170.943
419.932	261.798
422.824	279.65
425.717	281.461
428.61	251.442
431.502	237.033
434.395	298.007
437.288	430.55
440.181	698.561
443.073	1028.25
445.966	1537.98
448.859	2199.56
451.751	2672.09
454.644	2669.46
457.537	2219.67
460.43	2012.8
463.322	1719.95
466.215	1342.65
469.108	968.087
472	709.015
474.893	494.148
477.786	383.502
480.678	300.631
483.571	193.533
486.464	153.964
489.356	102.392
492.249	47.629
495.142	23.9147
498.035	9.63745
500.927	0.254395
503.82	28.0242
506.713	14.5503
509.605	4.6394
512.498	37.0972
515.391	111.169
518.284	206.329
521.176	386.495
524.069	619.271
526.962	936.011
529.854	1247.23
532.747	1233.58
535.64	761.946
538.533	507.25
541.425	304.252
544.318	193.472
547.211	101.091
550.103	58.2437
552.996	26.5857
555.889	12.3569
558.781	9.22376
561.674	16.9432
564.567	20.2054
567.459	12.2089
570.352	20.3049
573.245	32.2343
576.138	25.6854
579.03	55.5085
581.923	50.4733
584.816	52.3053
587.708	78.6982
590.601	21.8315
593.494	22.0416
596.386	7.10773
599.279	41.78
602.172	39.6248
605.064	68.0499
607.957	42.3062
610.85	28.9011
613.743	49.1226
616.635	5.01044
619.528	3.90356
622.421	4.88275
625.313	21.5263
628.206	7.47894
631.099	2.76953
633.991	27.556
636.884	31.2327
639.777	24.08
642.67	23.5513
645.562	12.8087
648.455	18.6212
651.348	5.30304
654.24	0.166931
657.133	22.3268
660.026	10.2478
662.918	46.805
665.811	33.7918
668.704	53.4442
671.597	97.0998
674.489	90.2853
677.382	118.821
680.275	38.4302
683.167	27.1486
686.06	12.6235
688.953	1.32489
691.846	15.4086
694.738	0.07373
697.631	1.05756
700.524	41.0824
703.416	18.3312
706.309	30.089
709.202	22.4793
712.094	28.3259
714.987	34.9911
717.88	39.1964
720.773	37.7343
723.665	69.0143
726.558	66.9887
729.451	89.3413
732.343	114.461
735.236	102.396
738.129	156.058
741.021	211.874
743.914	266.469
746.807	296.622
749.699	377.174
752.592	452.592
755.485	562.85
758.378	707.653
761.27	648.923
764.163	642.487
767.056	571.084
769.948	447.164
772.841	278.092
775.734	210.406
778.626	145.523
781.519	102.681
784.412	51.0818
787.305	62.6657
790.197	28.7496
793.09	13.9641
795.983	58.1352
798.875	4.96045
801.768	10.9091
804.661	1.01898
807.553	13.7311
810.446	0.807495
813.339	1.67395
816.232	7.45465
819.124	22.2294
822.017	5.99115
824.91	19.095
827.802	12.1613
830.695	7.65106
833.588	19.9938
836.481	18.3864
839.373	6.78455
842.266	5.96033
845.159	28.8889
848.051	28.4438
850.944	18.623
853.837	26.455
856.729	37.8733
859.622	14.1551
862.515	67.0464
865.408	34.655
868.3	29.1045
871.193	19.9551
874.086	23.6756
876.978	20.099
879.871	16.4734
882.764	28.645
885.656	30.0826
888.549	6.2218
891.442	26.8163
894.335	1.55237
897.227	15.3016
900.12	10.7042
903.013	13.9702
905.905	17.0411
908.798	19.978
911.691	17.051
914.583	6.39337
917.476	10.5791
920.369	1.28357
923.261	5.89123
926.154	3.11237
929.047	25.0039
931.94	8.30408
934.832	14.8209
937.725	1.78815
940.618	19.9831
943.51	14.6924
946.403	34.0313
949.296	38.4428
952.188	49.8862
955.081	32.5747
957.974	13.3759
960.867	14.5031
963.759	35.2742
966.652	15.6674
969.545	21.7057
972.437	42.6811
975.33	48.2079
978.223	47.5232
981.115	51.376
984.008	25.2491
986.901	21.3028
989.794	51.3167
992.686	21.5464
995.579	27.452
998.472	27.6811
1001.36	29.6043
1004.26	31.5882
1007.15	23.6507
1010.04	4.08154
1012.93	22.0781
1015.83	16.5059
1018.72	13.8773
1021.61	45.8894
1024.51	35.5503
1027.4	35.0231
1030.29	31.0176
1033.18	16.3446
1036.08	14.6479
1038.97	6.14624
1041.86	2.45007
1044.76	4.25464
1047.65	26.1849
1050.54	4.203
1053.43	28.7081
1056.33	20.9706
1059.22	3.30872
1062.11	47.0571
1065	97.4633
1067.9	138.373
1070.79	180.855
1073.68	266.103
1076.58	391.238
1079.47	587.619
1082.36	813.02
1085.25	1170.66
1088.14	1317.61
1091.04	1422.05
1093.93	1435.83
1096.82	1409.97
1099.72	1334.26
1102.61	1161.63
1105.5	844.484
1108.39	575.489
1111.29	477.152
1114.18	384.046
1117.07	402.729
1119.96	391.247
1122.86	429.392
1125.75	366.484
1128.64	311.34
1131.54	310.205
1134.43	259.571
1137.32	227.604
1140.21	205.799
1143.11	154.696
1146	112.981
1148.89	104.047
1151.79	121.516
1154.68	84.4138
1157.57	80.1907
1160.46	82.5666
1163.36	87.7598
1166.25	153.948
1169.14	143.513
1172.03	208.55
1174.93	231.35
1177.82	285.943
1180.71	283.795
1183.6	273.03
1186.5	274.406
1189.39	265.269
1192.28	253.823
1195.17	252.548
1198.07	260.973
1200.96	214.535
1203.85	117.666
1206.75	142.684
1209.64	58.7551
1212.53	96.6904
1215.42	59.2505
1218.32	29.7983
1221.21	4.48584
1224.1	8.7229
1226.99	13.8215
1229.89	3.68897
