Measurement: Raman, 532 nm, unoriented, Raman Data Processed
Mineral: Melanotekite
Rruff sample: R090032
Ideal chemistry: Pb_2_Fe^3+^_2_O_2_Si_2_O_7_
Locality: Kombat, Namibia
Source: William W. Pinch
Description: Black, massive exhibiting greasy luster, associated with colorless to pale brown bladed yangite (R090031). Sample is from the John Innes collection.
Raman shift (cm-1)	intensity
136.245	0
139.62	5.25925
142.995	2.41065
146.369	0.703255
149.744	2.00622
153.119	5.17987
156.494	9.65902
159.869	10.7316
163.244	12.4926
166.618	12.7396
169.993	18.9736
173.368	23.1423
176.743	29.8597
180.118	39.241
183.493	42.456
186.867	31.6726
190.242	14.1236
193.617	5.4269
196.992	0.145561
200.367	0.733685
203.741	0.506535
207.116	0.604065
210.491	1.4903
213.866	3.65781
217.241	3.86275
220.615	3.17584
223.99	2.69025
227.365	2.59456
230.74	2.68336
234.115	4.84407
237.489	7.51031
240.864	10.77
244.239	12.9888
247.614	14.1201
250.989	16.22
254.364	18.8748
257.738	19.4212
261.113	16.5683
264.488	10.9977
267.863	3.60944
271.238	1.04141
274.613	1.32161
277.987	0.83633
281.362	0.822197
284.737	3.09234
288.112	8.28961
291.487	16.3698
294.861	25.032
298.236	36.6035
301.611	46.7114
304.986	54.0881
308.361	56.6448
311.736	54.5269
315.11	54.8011
318.485	59.6386
321.86	72.8684
325.235	88.9646
328.61	110.757
331.984	134.17
335.359	156.252
338.734	166.514
342.109	155.202
345.484	123.237
348.858	81.8711
352.233	47.7423
355.608	25.5874
358.983	12.6461
362.358	4.44195
365.733	0.798653
369.107	0.922188
372.482	4.51771
375.857	8.52514
379.232	14.7848
382.607	18.822
385.981	15.0434
389.356	5.82816
392.731	0.20993
396.106	2.24934
399.481	0.636913
402.856	1.54972
406.23	8.32164
409.605	17.0422
412.98	25.0883
416.355	24.0099
419.73	21.9795
423.104	29.7077
426.479	42.5434
429.854	52.0498
433.229	55.394
436.604	56.8155
439.978	57.3085
443.353	52.8701
446.728	43.3148
450.103	34.9073
453.478	28.8409
456.853	20.3623
460.227	13.936
463.602	8.95225
466.977	5.46646
470.352	2.22707
473.727	0.830994
477.101	1.35844
480.476	1.26092
483.851	1.43888
487.226	0.146908
490.601	2.12051
493.976	4.81849
497.35	10.9913
500.725	18.217
504.1	31.9812
507.475	51.1235
510.85	81.4573
514.224	126.262
517.599	182.987
520.974	246.263
524.349	308.473
527.724	329.757
531.098	280.46
534.473	204.066
537.848	142.162
541.223	109.278
544.598	96.2511
547.973	88.7581
551.347	72.9978
554.722	56.1944
558.097	46.0158
561.472	39.4685
564.847	39.1182
568.221	41.2371
571.596	45.2825
574.971	46.2327
578.346	43.9948
581.721	37.7082
585.096	29.0014
588.47	21.046
591.845	14.0373
595.22	9.71348
598.595	6.13911
601.97	3.25732
605.344	1.89357
608.719	0.560936
612.094	0.496208
615.469	0.11623
618.844	0.319431
622.218	0.34565
625.593	0.190071
628.968	0.262096
632.343	0.014935
635.718	0.32653
639.093	0.240814
642.467	0.763969
645.842	0.080978
649.217	0.184288
652.592	0.011177
655.967	0.328423
659.341	0.192116
662.716	0.068893
666.091	0.425011
669.466	0.77689
672.841	1.53209
676.216	3.15391
679.59	6.0496
682.965	9.88864
686.34	14.8465
689.715	19.4065
693.09	19.5324
696.465	12.0976
699.839	5.73693
703.214	3.52608
706.589	1.74355
709.964	1.17733
713.339	0.931229
716.713	0.6374
720.088	0.275297
723.463	0.288126
726.838	0.721624
730.213	0.779213
733.587	1.42345
736.962	1.43799
740.337	1.19697
743.712	1.32639
747.087	2.00292
750.462	1.58084
753.836	1.94451
757.211	2.22815
760.586	2.21165
763.961	2.14677
767.336	2.17244
770.71	2.01269
774.085	2.0862
777.46	1.40816
780.835	1.69689
784.21	1.47891
787.585	0.963427
790.959	1.39417
794.334	0.588932
797.709	0.476473
801.084	0.428411
804.459	0.042034
807.833	0.47476
811.208	0.289673
814.583	0.212255
817.958	0.296942
821.333	0.626572
824.707	0.72764
828.082	0.96977
831.457	1.17099
834.832	0.212587
838.207	0.238321
841.582	0.443716
844.956	0.157867
848.331	0.269611
851.706	0.440006
855.081	1.98072
858.456	5.14548
861.83	9.26366
865.205	17.5982
868.58	29.2351
871.955	43.8035
875.33	56.3248
878.705	59.8276
882.079	50.6493
885.454	43.5575
888.829	40.8188
892.204	38.9866
895.579	29.6702
898.953	17.4636
902.328	9.77971
905.703	5.5462
909.078	2.891
912.453	1.59338
915.827	0.504276
919.202	0.259956
922.577	1.03145
925.952	1.84053
929.327	3.28421
932.702	6.00925
936.076	9.88041
939.451	15.4068
942.826	25.019
946.201	40.0227
949.576	62.0183
952.951	90.5849
956.325	112.456
959.7	102.969
963.075	67.254
966.45	40.5282
969.825	23.5532
973.199	13.0746
976.574	7.42552
979.949	4.99255
983.324	3.41698
986.699	2.83523
990.073	4.87803
993.448	6.51749
996.823	8.49928
1000.2	9.27905
1003.57	7.95397
1006.95	4.12587
1010.32	0.808453
1013.7	0.353104
1017.07	0.750906
1020.45	0.112019
1023.82	0.101826
1027.2	0.433756
1030.57	0.35759
1033.95	0.862267
1037.32	0.898926
1040.7	1.46797
1044.07	1.54336
1047.44	1.5572
1050.82	2.18204
1054.19	1.70347
1057.57	2.15102
1060.94	2.07157
1064.32	2.04174
1067.69	2.50727
1071.07	2.48964
1074.44	1.95423
1077.82	1.82368
1081.19	1.68863
1084.57	1.22815
1087.94	1.5461
1091.32	2.01146
1094.69	2.29108
1098.07	2.86264
1101.44	3.01476
1104.82	3.18099
1108.19	3.2113
1111.57	3.13502
1114.94	3.54924
1118.32	3.5679
1121.69	3.25946
1125.07	3.77281
1128.44	3.76329
1131.82	3.27788
1135.19	3.16756
1138.57	3.59409
1141.94	3.73139
1145.32	3.82939
1148.69	3.9412
1152.07	3.53728
1155.44	3.60016
1158.81	2.95708
1162.19	3.04277
1165.56	2.54217
1168.94	1.83986
1172.31	1.2407
1175.69	1.23703
1179.06	0.94592
1182.44	0.323888
1185.81	0.291099
1189.19	0.063538
1192.56	0.025015
1195.94	0.235025
1199.31	0.102127
1202.69	0.228713
1206.06	0.185891
1209.44	0.734821
1212.81	0.42489
1216.19	0.324348
1219.56	0.044573
1222.94	0.653908
1226.31	0.549561
1229.68	0.525012
1233.06	0.454898
1236.43	0.681403
1239.81	0.674155
1243.18	0.733472
1246.56	0.984347
1249.93	0.51494
1253.31	0.884859
1256.68	0.444697
1260.06	0.777597
1263.43	0.561207
1266.81	0.527927
1270.18	0.763905
1273.56	0.57028
1276.93	0.521271
1280.31	0.497685
1283.68	0.552624
1287.06	0.370862
1290.43	0.095998
1293.81	0.325597
1297.18	0.496547
1300.56	0.025104
