Measurement: Raman, 532 nm, unoriented, Raman Data Processed
Mineral: Melanovanadite
Rruff sample: R060131
Ideal chemistry: CaV^4+^_2_V^5+^_2_O_10_5H_2_O
Locality: Minas Ragra, Peru
Source: University of Arizona Mineral Museum
Description: Sprays of black prismatic crystals
Measured chemistry: (Ca_0.73_[box]_0.27_)_Σ=1_(V^5+^_2.54_V^4+^_1.46_)_Σ=4_O_10_·5H_2_O
Raman shift (cm-1)	intensity
147.154	0
150.046	1.76775
152.939	2.05
155.832	2.57936
158.724	1.82087
161.617	2.18554
164.51	0.947058
167.403	0.326376
170.295	0.336817
173.188	0.02004
176.081	0.266016
178.973	0.083399
181.866	0.094316
184.759	0.398091
187.651	0.649771
190.544	1.2229
193.437	1.63082
196.329	2.31344
199.222	3.09056
202.115	4.10004
205.008	3.14649
207.9	2.52073
210.793	2.20635
213.686	2.02737
216.578	1.74285
219.471	1.51305
222.364	1.35838
225.256	1.53332
228.149	1.45039
231.042	1.21881
233.935	1.19017
236.827	0.908537
239.72	0.086136
242.613	0.006132
245.505	0.101481
248.398	0.516145
251.291	0.095812
254.184	0.13869
257.076	0.251293
259.969	0.621731
262.862	1.62768
265.754	2.31482
268.647	2.36296
271.54	2.34677
274.433	2.51882
277.325	2.09762
280.218	3.29011
283.111	2.59279
286.003	2.04025
288.896	1.49044
291.789	0.953762
294.681	0.894709
297.574	0.608957
300.467	1.02714
303.36	0.821443
306.252	0.874112
309.145	1.1997
312.038	0.991843
314.93	1.0996
317.823	1.25947
320.716	1.57188
323.608	1.51544
326.501	1.50854
329.394	1.21374
332.287	2.46484
335.179	2.52225
338.072	1.96305
340.965	3.24265
343.857	4.00483
346.75	4.26721
349.643	4.75296
352.536	4.80337
355.428	4.53989
358.321	3.93722
361.214	2.23215
364.106	0.984097
366.999	0.232089
369.892	0.0907335
372.784	0.08923
375.677	0.037241
378.57	0.178538
381.462	0.220719
384.355	0.212334
387.248	0.046086
390.141	0.029535
393.033	0.145259
395.926	0.131659
398.819	0.150014
401.712	0.275513
404.604	0.672474
407.497	1.17105
410.39	2.31389
413.282	2.86455
416.175	3.78535
419.068	4.56236
421.96	5.39977
424.853	5.72115
427.746	6.33594
430.639	6.07966
433.531	5.08646
436.424	4.69989
439.317	4.21368
442.209	4.22701
445.102	4.05006
447.995	4.03895
450.887	3.86629
453.78	4.27242
456.673	4.60954
459.566	4.81491
462.458	4.77642
465.351	4.34421
468.244	4.35521
471.136	3.915
474.029	4.17486
476.922	3.3811
479.815	3.55371
482.707	3.72651
485.6	2.53613
488.493	3.68448
491.385	2.70399
494.278	3.08354
497.171	2.33206
500.063	2.935
502.956	3.19964
505.849	2.06424
508.741	2.2709
511.634	1.57084
514.527	1.28214
517.42	0.948689
520.312	0.575834
523.205	0.694007
526.098	0.428099
528.99	0.181492
531.883	0.155947
534.776	0.132654
537.669	0.035027
540.561	0.010991
543.454	0.101127
546.347	0.022419
549.239	0.245704
552.132	0.086404
555.025	0.24687
557.918	0.088774
560.81	0.050777
563.703	0.024784
566.596	0.575365
569.488	0.309648
572.381	0.840056
575.274	0.799877
578.166	1.08191
581.059	0.372991
583.952	1.02931
586.845	0.864174
589.737	0.522369
592.63	1.12957
595.523	0.792848
598.415	0.488912
601.308	0.486844
604.201	0.319782
607.093	0.487217
609.986	0.659693
612.879	0.318479
615.771	0.09093
618.664	0.001424
621.557	0.001268
624.45	0.22185
627.342	0.466787
630.235	0.162811
633.128	0.797683
636.02	0.363904
638.913	1.37572
641.806	1.27143
644.699	0.859537
647.591	0.520392
650.484	0.732427
653.377	0.808052
656.269	1.22213
659.162	1.34909
662.055	1.18593
664.947	1.04808
667.84	0.080134
670.733	0.884942
673.626	0.422065
676.518	0.73531
679.411	0.376079
682.304	0.30956
685.197	0.077014
688.089	0.01216
690.982	0.122829
693.875	0.192925
696.767	0.382908
699.66	0.801773
702.553	1.15858
705.445	1.12203
708.338	1.27475
711.231	1.15386
714.124	1.39986
717.016	1.74642
719.909	2.36087
722.802	2.78245
725.694	1.98555
728.587	2.17253
731.48	1.64324
734.372	0.794377
737.265	0.58276
740.158	0.577007
743.051	0.091164
745.943	0.273202
748.836	0.259483
751.729	0.456706
754.621	0.090244
757.514	0.410961
760.407	0.014692
763.299	0.217105
766.192	0.687109
769.085	1.05744
771.977	1.87532
774.87	2.28995
777.763	2.46224
780.656	3.44191
783.548	4.08329
786.441	5.98397
789.334	8.72646
792.226	10.8976
795.119	15.0639
798.012	18.2162
800.905	22.1743
803.797	26.6417
806.69	30.4121
809.583	34.3839
812.475	37.4431
815.368	39.2826
818.261	39.2279
821.154	35.1399
824.046	29.2611
826.939	23.6515
829.832	19.1142
832.724	14.9621
835.617	12.4459
838.51	10.3875
841.403	8.7485
844.295	8.25941
847.188	7.1465
850.081	7.33493
852.973	7.82944
855.866	9.28363
858.759	9.62842
861.651	10.5863
864.544	9.87572
867.437	7.78588
870.33	6.3268
873.222	4.74097
876.115	2.74144
879.008	1.53937
881.9	0.712902
884.793	0.456965
887.686	0.173663
890.578	0.292407
893.471	0.359428
896.364	0.314104
899.256	0.064186
902.149	0.154135
905.042	0.007018
907.935	2.46515
910.827	3.33941
913.72	4.70461
916.613	5.53102
919.505	6.07978
922.398	3.51506
925.291	3.83857
928.184	4.14303
931.076	4.93783
933.969	4.27392
936.862	2.41082
939.754	1.26816
942.647	0.783377
945.54	0.195777
948.433	0.693022
951.325	0.84136
954.218	0.182871
957.111	0.404805
960.003	0.027134
962.896	0.144004
965.789	0.393116
968.682	0.973177
971.574	1.59838
974.467	2.49476
977.36	5.48125
980.252	7.51795
983.145	11.6286
986.038	15.5767
988.93	19.1731
991.823	22.5759
994.716	28.7151
997.609	39.4895
1000.5	44.252
1003.39	30.3487
1006.29	15.0188
1009.18	6.80024
1012.07	3.73899
1014.97	2.09191
1017.86	1.96558
1020.75	1.1479
1023.64	0.383068
1026.54	0.226398
1029.43	0.481819
1032.32	0.213185
1035.21	0.610242
1038.11	0.011979
1041	0.020235
1043.89	0.589891
1046.78	0.751691
1049.68	0.122822
1052.57	0.215716
1055.46	0.239156
1058.36	0.140053
1061.25	0.854238
1064.14	0.242983
1067.03	0.617738
1069.93	0.132401
1072.82	1.03734
1075.71	0.568065
1078.6	0.312875
1081.5	0.095541
1084.39	0.716315
1087.28	0.947357
1090.17	0.52799
1093.07	0.433597
1095.96	0.625189
1098.85	0.334015
1101.75	0.502077
1104.64	0.575087
1107.53	0.171229
1110.42	0.042667
1113.32	0.082128
1116.21	0.10425
1119.1	0.407797
1121.99	0.444985
1124.89	0.30229
1127.78	0.235021
1130.67	0.582488
1133.57	0.992343
1136.46	0.302142
1139.35	0.787228
1142.24	0.102111
1145.14	0.52777
1148.03	0.170711
1150.92	0.075583
1153.81	0.772393
1156.71	0.326527
1159.6	0.718867
1162.49	0.465347
1165.38	0.379067
1168.28	0.625353
1171.17	0.41999
1174.06	0.491342
1176.96	0.627031
1179.85	1.06437
1182.74	0.231605
1185.63	0.242947
1188.53	0.092044
1191.42	0.3015
1194.31	0.400314
1197.2	0.021797
1200.1	0.375852
1202.99	0.007141
1205.88	0.355885
1208.78	0.441073
1211.67	0.656489
1214.56	0.06594
1217.45	0.216928
1220.35	0.695562
1223.24	0.477638
1226.13	0.096665
1229.03	0.001762
1231.92	0.84265
1234.81	0.34267
1237.7	0.558931
1240.6	0.531256
1243.49	0.506264
1246.38	0.431207
1249.27	0.052854
1252.17	0.616601
1255.06	0.474182
1257.95	0.619801
1260.84	0.293196
1263.74	0.196084
1266.63	0.607593
1269.52	0.265615
1272.41	0.570755
1275.31	0.771251
1278.2	0.30118
1281.09	0.823822
1283.99	0.185084
1286.88	0.171569
1289.77	0.482916
1292.66	0.339679
1295.56	0.977458
1298.45	0.375923
1301.34	0.001452
