Measurement: Raman, 780 nm, unoriented, Raman Data Processed
Mineral: Melanovanadite
Rruff sample: R050555
Ideal chemistry: CaV^4+^_2_V^5+^_2_O_10_5H_2_O
Locality: Ragra mine, Cerro de Pasco Province, Pasco Department, Peru
Source: Dave Bunk Minerals
Description: Radiating aggregates of black prismatic crystals
Measured chemistry: (Ca_0.87_[box]_0.13_)_Σ=1_(V^5+^_2.26_V^4+^_1.74_)_Σ=4_O_10_·5H_2_O
Raman shift (cm-1)	intensity
102.672	0
106.047	8.17981
109.422	110.53
112.796	325.906
116.171	684.367
119.546	1128.26
122.921	1602.22
126.296	2010.62
129.671	2431.14
133.045	2786.69
136.42	2946.5
139.795	2835
143.17	2465.65
146.545	2112.22
149.919	1844.86
153.294	1547.21
156.669	1126.21
160.044	643.24
163.419	291.976
166.793	107.734
170.168	17.7848
173.543	14.0812
176.918	20.4901
180.293	17.8939
183.667	2.2301
187.042	4.31879
190.417	6.96783
193.792	6.21021
197.167	19.804
200.542	12.6392
203.916	11.7269
207.291	48.9357
210.666	100.344
214.041	188.987
217.416	315.738
220.791	471.356
224.165	629.983
227.54	771.397
230.915	884.056
234.29	928.807
237.665	897.601
241.039	736.04
244.414	568.95
247.789	409.772
251.164	301.63
254.539	238.024
257.913	225.261
261.288	261.89
264.663	314.04
268.038	369.809
271.413	429.186
274.788	470.075
278.162	483.75
281.537	446.348
284.912	386.716
288.287	324.051
291.662	277.815
295.036	233.582
298.411	215.319
301.786	186.548
305.161	180.284
308.536	172.151
311.911	159.519
315.285	152.253
318.66	146.921
322.035	134.481
325.41	116.129
328.784	96.7222
332.159	76.737
335.534	52.0827
338.909	38.3845
342.284	21.516
345.659	20.6013
349.033	4.94449
352.408	4.491
355.783	9.39743
359.158	11.2146
362.533	14.6348
365.908	6.28314
369.282	4.81638
372.657	4.02914
376.032	12.2609
379.407	26.8184
382.782	44.7757
386.156	62.7634
389.531	88.8927
392.906	132.274
396.281	134.359
399.656	151.531
403.031	170.857
406.405	187.41
409.78	209.706
413.155	209.78
416.53	212.969
419.904	205.375
423.279	185.625
426.654	143.33
430.029	98.5341
433.404	64.9858
436.779	39.9551
440.153	23.8798
443.528	19.3577
446.903	15.6028
450.278	17.8545
453.653	20.4415
457.027	18.8245
460.402	15.9937
463.777	19.4577
467.152	13.8481
470.527	12.1679
473.902	8.39575
477.276	11.6006
480.651	6.02005
484.026	1.09164
487.401	0.769745
490.776	1.71259
494.151	3.56564
497.525	6.10544
500.9	6.36801
504.275	7.3114
507.65	13.0651
511.024	19.9658
514.399	26.5835
517.774	33.2143
521.149	43.6676
524.524	44.3361
527.899	51.8001
531.273	54.2676
534.648	55.0263
538.023	54.2982
541.398	48.0977
544.773	40.0583
548.148	35.122
551.522	24.7508
554.897	17.6531
558.272	13.7951
561.647	11.072
565.021	3.70044
568.396	3.58057
571.771	0.882843
575.146	0.82782
578.521	1.69394
581.896	0.399414
585.27	4.59296
588.645	1.66788
592.02	2.85477
595.395	0.771332
598.77	3.42883
602.144	0.83194
605.519	7.13532
608.894	4.86517
612.269	6.73102
615.644	6.51782
619.019	8.15244
622.393	16.4902
625.768	20.2408
629.143	23.4016
632.518	30.9221
635.893	35.0677
639.268	39.3386
642.642	42.799
646.017	54.2527
649.392	60.5105
652.767	79.7723
656.141	85.2675
659.516	102.819
662.891	116.994
666.266	136.358
669.641	156.758
673.016	175.306
676.39	189.692
679.765	196.557
683.14	206.631
686.515	214.608
689.89	206.753
693.264	191.192
696.639	178.659
700.014	160.988
703.389	142.604
706.764	124.295
710.139	124.295
713.513	84.0903
716.888	69.2072
720.263	68.8739
723.638	44.918
727.013	31.0168
730.388	27.1896
733.762	22.5975
737.137	12.2309
740.512	8.85919
743.887	12.165
747.261	0.329987
750.636	5.78958
754.011	1.65067
757.386	2.61801
760.761	1.4621
764.136	5.8157
767.51	1.91052
770.885	2.427
774.26	1.92648
777.635	0.580231
781.01	2.88843
784.385	2.1463
787.759	5.56055
791.134	3.29019
794.509	3.83023
797.884	2.15134
801.259	9.0669
804.633	2.91226
808.008	7.8186
811.383	5.02081
814.758	9.34567
818.133	9.63586
821.507	4.67835
824.882	8.65311
828.257	5.53461
831.632	5.7131
835.007	7.75726
838.381	7.9053
841.756	12.5763
845.131	19.8224
848.506	26.6398
851.881	40.8875
855.256	58.8856
858.63	85.2511
862.005	122.373
865.38	163.715
868.755	215.342
872.13	189.411
875.505	160.842
878.879	107.871
882.254	65.0716
885.629	38.3427
889.004	20.3098
892.379	5.64978
895.753	4.71725
899.128	6.02951
902.503	2.23209
905.878	4.59692
909.253	1.47101
912.627	0.47876
916.002	5.33981
919.377	7.48669
922.752	20.292
926.127	27.199
929.501	61.256
932.876	115.26
936.251	166.564
939.626	241.45
943.001	297.983
946.376	319.45
949.75	269.793
953.125	176.067
956.5	100.775
959.875	95.8035
963.25	57.9531
966.625	43.9891
969.999	66.875
973.374	75.5834
976.749	122.324
980.124	175.956
983.499	214.073
986.873	236.122
990.248	203.301
993.623	135.486
996.998	69.9289
1000.37	39.7976
1003.75	24.2316
1007.12	15.8899
1010.5	20.2415
1013.87	2.84613
1017.25	3.9808
1020.62	7.97177
1024	3.70373
1027.37	1.20801
1030.75	3.25263
1034.12	0.058868
1037.5	1.08649
1040.87	0.629242
1044.24	0.04425
1047.62	0.409058
1050.99	2.14212
1054.37	3.53009
1057.74	5.14328
1061.12	6.53143
1064.49	5.04684
1067.87	2.47919
1071.24	11.7307
1074.62	2.22986
1077.99	6.07538
1081.37	3.50201
1084.74	6.38141
1088.12	3.82788
1091.49	3.3057
1094.87	10.4295
1098.24	2.19333
1101.62	4.25339
1104.99	3.16751
1108.37	0.467346
1111.74	0.157898
1115.12	0.334473
1118.49	2.61841
1121.87	6.95596
1125.24	6.668
1128.62	6.64377
1131.99	1.89499
1135.37	4.97208
1138.74	4.50345
1142.12	8.59296
1145.49	1.6141
1148.87	8.0448
1152.24	5.90491
1155.61	5.17218
1158.99	2.24216
1162.36	8.61426
1165.74	3.07474
1169.11	7.44217
1172.49	7.33993
1175.86	0.58194
1179.24	2.51675
1182.61	3.85053
1185.99	2.92835
1189.36	7.03946
1192.74	6.03857
1196.11	3.45566
1199.49	6.71707
1202.86	2.24908
1206.24	2.50464
1209.61	3.21497
1212.99	3.54889
1216.36	0.617676
1219.74	2.1778
1223.11	0.624451
1226.48	1.53354
1229.86	3.46957
1233.23	2.57559
1236.61	2.64438
1239.98	3.19116
1243.36	0.208618
1246.73	1.68121
1250.11	4.82495
1253.48	3.90784
1256.86	6.94885
1260.23	6.43948
1263.61	3.10187
1266.98	19.7724
1270.36	1.80011
1273.73	1.03458
1277.11	3.95261
1280.48	0.987671
1283.86	1.89179
