Measurement: Raman, 532 nm, unoriented, Raman Data Processed
Mineral: Melanovanadite
Rruff sample: R050555
Ideal chemistry: CaV^4+^_2_V^5+^_2_O_10_5H_2_O
Locality: Ragra mine, Cerro de Pasco Province, Pasco Department, Peru
Source: Dave Bunk Minerals
Description: Radiating aggregates of black prismatic crystals
Measured chemistry: (Ca_0.87_[box]_0.13_)_Σ=1_(V^5+^_2.26_V^4+^_1.74_)_Σ=4_O_10_·5H_2_O
Raman shift (cm-1)	intensity
120.042	0
123.417	12.2472
126.792	37.959
130.167	109.533
133.542	297.238
136.916	514.275
140.291	667.701
143.666	767.461
147.041	920.107
150.416	1006.24
153.791	1029.42
157.165	986.093
160.54	859.507
163.915	689.499
167.29	536.459
170.665	431.013
174.039	357.95
177.414	300.757
180.789	241.968
184.164	189.561
187.539	144.849
190.913	101.117
194.288	69.9413
197.663	42.2109
201.038	16.7418
204.413	3.47986
207.788	8.38965
211.162	7.81763
214.537	21.8043
217.912	3.8114
221.287	3.3999
224.662	23.6853
228.036	49.4888
231.411	94.8936
234.786	140.495
238.161	193.278
241.536	216.586
244.911	213.974
248.286	207.048
251.66	203.057
255.035	176.544
258.41	153.062
261.785	132.847
265.16	124.753
268.534	114.726
271.909	86.5122
275.284	72.5294
278.659	54.9689
282.034	37.0217
285.409	21.8663
288.783	18.4524
292.158	13.884
295.533	1.14514
298.908	7.90576
302.283	12.7413
305.657	18.7935
309.032	20.7941
312.407	24.4609
315.782	30.9238
319.157	35.3167
322.531	31.5315
325.906	24.9259
329.281	26.0433
332.656	20.4963
336.031	22.1547
339.406	9.61328
342.781	5.17017
346.155	4.58496
349.53	4.4823
352.905	5.25281
356.28	5.96985
359.655	1.56946
363.029	14.2683
366.404	6.65454
369.779	0.646362
373.154	1.92248
376.529	7.29028
379.904	5.42053
383.278	16.5557
386.653	17.7738
390.028	21.5773
393.403	22.1947
396.778	30.0231
400.152	33.5792
403.527	36.6786
406.902	39.6876
410.277	37.6006
413.652	40.8654
417.026	52.885
420.401	57.2086
423.776	72.3176
427.151	69.9684
430.526	56.6537
433.901	34.9082
437.276	22.509
440.65	10.9852
444.025	13.6936
447.4	12.4229
450.775	8.37903
454.15	9.30725
457.524	13.7886
460.899	8.46082
464.274	13.0657
467.649	17.3591
471.024	29.7079
474.399	28.771
477.773	40.5469
481.148	43.4329
484.523	43.2754
487.898	46.0781
491.273	57.4094
494.647	63.7994
498.022	66.6882
501.397	66.7836
504.772	72.8379
508.147	70.4628
511.522	64.4696
514.896	67.152
518.271	59.8989
521.646	58.6813
525.021	55.7035
528.396	54.9496
531.77	49.8911
535.145	45.1545
538.52	48.0088
541.895	49.5298
545.27	47.6708
548.644	38.7492
552.019	24.826
555.394	21.9208
558.769	15.0311
562.144	13.3588
565.519	10.6268
568.894	8.11218
572.268	7.74548
575.643	2.8114
579.018	3.50452
582.393	4.76782
585.768	1.27405
589.142	3.59717
592.517	2.76819
595.892	3.28149
599.267	1.11621
602.642	1.04065
606.016	1.55969
609.391	1.05005
612.766	2.1228
616.141	1.0863
619.516	4.91443
622.891	6.62476
626.265	7.56787
629.64	7.73792
633.015	9.48279
636.39	8.09509
639.765	14.4258
643.139	20.4248
646.514	25.1794
649.889	22.3109
653.264	28.0264
656.639	25.4037
660.014	32.7358
663.389	38.1998
666.763	39.5961
670.138	51.3743
673.513	52.8169
676.888	59.8907
680.263	64.9415
683.637	66.6626
687.012	67.8065
690.387	67.1201
693.762	60.3725
697.137	53.9308
700.511	55.4807
703.886	53.6703
707.261	47.5152
710.636	41.8107
714.011	31.8777
717.386	29.807
720.76	28.7642
724.135	21.2383
727.51	17.3984
730.885	16.0334
734.26	13.5958
737.635	10.5994
741.009	9.62457
744.384	7.03857
747.759	4.31976
751.134	4.14313
754.509	7.04614
757.884	8.54132
761.258	6.7334
764.633	2.28607
768.008	5.30035
771.383	4.05627
774.758	3.29413
778.132	3.64502
781.507	3.185
784.882	1.54944
788.257	0.388123
791.632	0.256165
795.006	0.563599
798.381	1.53686
801.756	3.56787
805.131	1.11188
808.506	8.31555
811.881	0.372131
815.255	2.74988
818.63	5.48431
822.005	0.755371
825.38	1.74536
828.755	2.60321
832.13	1.1731
835.504	3.60382
838.879	3.7027
842.254	10.5627
845.629	12.2691
849.004	19.2526
852.378	24.0597
855.753	27.5648
859.128	30.9406
862.503	40.9389
865.878	49.2825
869.253	66.8234
872.627	87.9112
876.002	106.012
879.377	99.2237
882.752	74.1784
886.127	53.795
889.501	36.7607
892.876	26.4999
896.251	20.2555
899.626	18.9888
903.001	8.74164
906.376	7.96802
909.75	3.79736
913.125	2.39386
916.5	3.60785
919.875	1.8667
923.25	4.18604
926.625	3.10724
929.999	7.27447
933.374	13.0614
936.749	27.0043
940.124	58.6945
943.499	87.1224
946.873	143.716
950.248	202.943
953.623	208.521
956.998	141.246
960.373	93.7013
963.748	71.7579
967.122	63.0164
970.497	58.5381
973.872	58.1356
977.247	57.388
980.622	54.5701
983.996	53.5466
987.371	54.8005
990.746	62.1397
994.121	68.566
997.496	77.464
1000.87	78.8174
1004.25	73.9441
1007.62	76.6708
1011	58.3874
1014.37	36.3135
1017.75	25.3045
1021.12	22.0019
1024.49	18.4632
1027.87	14.7446
1031.24	12.0482
1034.62	6.56024
1037.99	2.09876
1041.37	0.825317
1044.74	2.24463
1048.12	0.059875
1051.49	4.14734
1054.87	2.1853
1058.24	6.33032
1061.62	0.006348
1064.99	3.63287
1068.37	5.81421
1071.74	5.44745
1075.12	6.63812
1078.49	5.32877
1081.87	7.64725
1085.24	9.19415
1088.62	4.88345
1091.99	7.42969
1095.37	8.52496
1098.74	6.6618
1102.12	6.10953
1105.49	5.82941
1108.87	1.7749
1112.24	6.04627
1115.62	3.58697
1118.99	4.52972
1122.36	1.08194
1125.74	2.4194
1129.11	2.74402
1132.49	5.16992
1135.86	6.03726
1139.24	10.1021
1142.61	1.04272
1145.99	7.79428
1149.36	6.00757
1152.74	2.93424
1156.11	0.410095
1159.49	0.914368
1162.86	3.77362
1166.24	3.77133
1169.61	1.61453
1172.99	1.3692
1176.36	2.07184
1179.74	2.80292
1183.11	1.93967
1186.49	2.19092
1189.86	1.46542
1193.23	2.32202
1196.61	0.699219
1199.98	0.910004
1203.36	4.68759
1206.73	5.4624
1210.11	3.14889
1213.48	3.33786
1216.86	3.05527
1220.23	0.986237
1223.61	1.6452
1226.98	3.22177
1230.36	0.633453
1233.73	5.58591
1237.11	1.31882
1240.48	2.21396
1243.86	1.70462
1247.23	3.69516
1250.61	1.95847
1253.98	1.88132
1257.36	3.08997
1260.73	0.359406
1264.11	1.55203
1267.48	0.174316
1270.86	3.62036
1274.23	7.07169
1277.61	2.71204
1280.98	2.58899
1284.36	2.98663
1287.73	3.75546
1291.11	2.89368
1294.48	3.39188
1297.86	2.63049
1301.23	2.68832
