Measurement: Raman, 780 nm, unoriented, Raman Data Processed
Mineral: Melanotekite
Rruff sample: R090032
Ideal chemistry: Pb_2_Fe^3+^_2_O_2_Si_2_O_7_
Locality: Kombat, Namibia
Source: William W. Pinch
Description: Black, massive exhibiting greasy luster, associated with colorless to pale brown bladed yangite (R090031). Sample is from the John Innes collection.
Raman shift (cm-1)	intensity
136.25	0
139.142	19.7432
142.035	21.8979
144.928	2.09341
147.82	3.25807
150.713	11.8794
153.606	29.9143
156.499	49.4256
159.391	68.4639
162.284	78.6025
165.177	70.4169
168.069	57.3376
170.962	45.6913
173.855	38.984
176.747	35.7676
179.64	41.9376
182.533	49.8683
185.425	50.9973
188.318	33.512
191.211	8.82304
194.104	4.714
196.996	6.94159
199.889	6.99995
202.782	4.80133
205.674	2.02898
208.567	2.01295
211.46	6.70412
214.352	11.2
217.245	12.8748
220.138	14.0664
223.03	13.352
225.923	15.8027
228.816	18.8049
231.709	22.366
234.601	29.6992
237.494	41.0661
240.387	59.4395
243.279	79.364
246.172	96.1894
249.065	110.043
251.958	123.011
254.85	134.926
257.743	144.368
260.636	151.984
263.528	134.438
266.421	78.4031
269.314	37.9273
272.207	29.691
275.099	36.7465
277.992	47.1443
280.885	65.9373
283.777	95.8503
286.67	133.314
289.563	170.711
292.455	213.577
295.348	254.885
298.241	296.031
301.134	332.367
304.026	342.666
306.919	317.061
309.812	262.786
312.704	207.543
315.597	177.492
318.49	175.71
321.382	198.797
324.275	235.462
327.168	282.549
330.06	332.135
332.953	374.712
335.846	396.783
338.739	386.55
341.631	349.327
344.524	282.006
347.417	194.677
350.309	110.736
353.202	53.7953
356.095	17.5475
358.987	0.276382
361.88	9.72749
364.773	11.1294
367.666	6.81412
370.558	0.671448
373.451	7.52464
376.344	17.6802
379.236	30.372
382.129	38.9474
385.022	36.7721
387.914	20.2305
390.807	7.16168
393.7	8.94353
396.592	22.1633
399.485	33.5253
402.378	44.6314
405.271	63.9102
408.163	89.7665
411.056	122.257
413.949	128.019
416.841	77.5044
419.734	37.9679
422.627	30.8375
425.519	39.7139
428.412	53.9634
431.305	69.3113
434.198	79.6524
437.09	90.4329
439.983	103.375
442.876	111.321
445.768	107.054
448.661	106.977
451.554	110.981
454.447	110.143
457.339	91.2807
460.232	60.7923
463.125	37.0251
466.017	23.8786
468.91	16.4624
471.803	11.77
474.695	6.76856
477.588	2.54591
480.481	0.439747
483.373	2.27293
486.266	2.72224
489.159	2.43269
492.052	1.68413
494.944	1.1091
497.837	0.806934
500.73	3.41273
503.622	7.26993
506.515	13.8898
509.408	23.1965
512.301	36.4892
515.193	50.8237
518.086	65.8525
520.979	82.6125
523.871	100.916
526.764	117.995
529.657	125.223
532.549	116.954
535.442	102.556
538.335	95.251
541.227	97.0237
544.12	105.584
547.013	111.478
549.906	99.6361
552.798	78.7061
555.691	66.2883
558.584	68.9174
561.476	80.0682
564.369	96.5285
567.262	116.889
570.154	137.938
573.047	155.962
575.94	162.661
578.833	154.607
581.725	134.982
584.618	108.796
587.511	86.8695
590.403	65.5049
593.296	48.2424
596.189	35.7107
599.082	25.5197
601.974	19.9047
604.867	15.3521
607.76	11.6546
610.652	8.47354
613.545	6.99031
616.438	4.9006
619.33	3.49575
622.223	2.33037
625.116	1.61216
628.009	1.26633
630.901	0.927292
633.794	0.039391
636.687	0.601658
639.579	0.813034
642.472	0.31411
645.365	0.388229
648.257	0.912144
651.15	1.0519
654.043	1.0445
656.936	0.585951
659.828	0.130503
662.721	0.774736
665.614	1.74601
668.506	3.24283
671.399	5.46145
674.292	9.34647
677.184	15.8457
680.077	22.494
682.97	27.9833
685.862	35.1517
688.755	43.4544
691.648	47.5606
694.541	35.2871
697.433	18.0809
700.326	8.86265
703.219	4.51295
706.111	3.06247
709.004	1.52257
711.897	0.711124
714.789	0.430315
717.682	0.117947
720.575	0.648781
723.468	0.373186
726.36	0.931458
729.253	0.613142
732.146	1.2681
735.038	1.6052
737.931	1.36038
740.824	2.20445
743.716	2.17834
746.609	2.72616
749.502	2.72212
752.395	2.96558
755.287	3.00346
758.18	3.03329
761.073	2.76514
763.965	2.94442
766.858	2.56939
769.751	2.47912
772.644	1.9134
775.536	1.92161
778.429	1.78479
781.322	1.47016
784.214	1.24872
787.107	0.949492
790	0.725433
792.892	0.834629
795.785	0.539244
798.678	0.411251
801.571	0.244177
804.463	0.218838
807.356	0.183279
810.249	0.054859
813.141	0.134111
816.034	0.087364
818.927	1.00401
821.819	0.90238
824.712	1.45275
827.605	2.11039
830.497	2.28506
833.39	1.77366
836.283	0.567009
839.176	0.144785
842.068	0.324909
844.961	0.612534
847.854	0.289545
850.746	0.412233
853.639	1.05641
856.532	2.21316
859.424	5.16123
862.317	8.93415
865.21	15.3295
868.103	23.3178
870.995	32.1005
873.888	45.3684
876.781	59.405
879.673	73.7904
882.566	80.7094
885.459	89.936
888.351	101.767
891.244	108.294
894.137	93.0128
897.03	62.4849
899.922	39.5514
902.815	25.0579
905.708	16.2525
908.6	9.87444
911.493	6.14275
914.386	3.62731
917.278	1.64586
920.171	0.5257
923.064	0.451706
925.957	0.328102
928.849	0.038759
931.742	0.795038
934.635	1.5196
937.527	3.27199
940.42	5.08656
943.313	8.35953
946.205	13.3109
949.098	18.679
951.991	24.2406
954.884	30.642
957.776	34.5366
960.669	29.676
963.562	20.6928
966.454	13.1884
969.347	7.15437
972.24	3.9657
975.132	1.95956
978.025	0.780266
980.918	0.897676
983.811	1.18377
986.703	2.2918
989.596	4.47478
992.489	6.66467
995.381	8.69094
998.274	10.003
1001.17	10.7824
1004.06	8.28152
1006.95	3.71625
1009.85	2.04154
1012.74	0.458495
1015.63	0.248764
1018.52	0.086372
1021.42	0.411362
1024.31	0.534631
1027.2	0.057032
1030.09	0.176009
1032.99	0.293254
1035.88	0.200087
1038.77	0.178219
1041.66	0.881848
1044.56	0.629972
1047.45	0.89331
1050.34	1.12055
1053.23	0.772903
1056.13	0.891871
1059.02	1.19535
1061.91	1.18046
1064.81	1.34536
1067.7	1.55693
1070.59	1.4933
1073.48	1.72082
1076.38	2.11642
1079.27	2.06146
1082.16	1.9237
1085.06	2.15283
1087.95	2.03256
1090.84	1.92493
1093.73	2.32154
1096.63	2.18048
1099.52	2.2936
1102.41	2.70874
1105.3	3.02246
1108.2	2.86567
1111.09	3.01364
1113.98	2.81002
1116.88	2.697
1119.77	3.12739
1122.66	2.97407
1125.55	3.41129
1128.45	3.35493
1131.34	3.37283
1134.23	3.08355
1137.12	3.49989
1140.02	3.7499
1142.91	3.7316
1145.8	3.64559
1148.69	3.66392
1151.59	3.88535
1154.48	3.7018
1157.37	3.63457
1160.27	2.90026
1163.16	2.67735
1166.05	2.14628
1168.94	2.00995
1171.84	1.4545
1174.73	1.30506
1177.62	1.03275
1180.51	0.509913
1183.41	0.492887
1186.3	0.348423
1189.19	0.026622
1192.09	0.100278
1194.98	0.011635
1197.87	0.489931
1200.76	0.25937
1203.66	0.125069
1206.55	0.03789
1209.44	0.137544
1212.33	0.058455
1215.23	0.071588
1218.12	0.001348
1221.01	0.338488
1223.9	0.234035
1226.8	0.269693
1229.69	0.137614
1232.58	0.424626
1235.47	0.280227
1238.37	0.74417
1241.26	0.633922
1244.15	0.728601
1247.05	0.65135
1249.94	2.00914
1252.83	0.328681
1255.72	0.145505
1258.62	0.570434
1261.51	0.806926
1264.4	0.148369
1267.3	0.233701
1270.19	0.410466
1273.08	0.178456
1275.97	0.564507
1278.87	0.371814
1281.76	0.115544
1284.65	0.077355
