Measurement: Raman, 785 nm, unoriented, Raman Data Processed
Mineral: Melanophlogite
Rruff sample: R060863
Ideal chemistry: C_2_H_17_O_5_Si_46_O_92_
Locality: 6 miles east of Mount Hamilton, Santa Clara County, California, USA
Source: Michael Scott
Description: Colorless cubes
Raman shift (cm-1)	intensity
150.719	0
153.612	107.978
156.505	165.205
159.397	94.5139
162.29	218.393
165.183	363.054
168.075	587.638
170.968	711.639
173.861	744.68
176.753	587.209
179.646	364.826
182.539	195.888
185.431	23.687
188.324	0.533203
191.217	33.2268
194.11	82.1013
197.002	23.9004
199.895	41.5444
202.788	28.2983
205.68	73.874
208.573	129.035
211.466	151.395
214.358	298.759
217.251	385.641
220.144	540.758
223.037	665.397
225.929	733.458
228.822	759.114
231.715	771.878
234.607	800.429
237.5	792.004
240.393	804.836
243.286	1008.63
246.178	1205.86
249.071	1336.15
251.964	1657.51
254.856	1859.17
257.749	2164.57
260.642	2408.82
263.534	2605.62
266.427	2727.81
269.32	2649.14
272.212	2553.93
275.105	2545.7
277.998	2314.81
280.891	2204.14
283.783	2164.51
286.676	2051.64
289.569	1913.38
292.461	1789.81
295.354	1527.49
298.247	1300.9
301.139	1112.62
304.032	926.014
306.925	720.417
309.818	547.361
312.71	429.127
315.603	223.165
318.496	200.171
321.388	66.2217
324.281	50.9404
327.174	64.5029
330.067	44.9014
332.959	44.3565
335.852	71.9966
338.745	122.981
341.637	203.24
344.53	221.406
347.423	314.647
350.315	401.228
353.208	486.958
356.101	566.935
358.993	659.416
361.886	703.553
364.779	707.746
367.672	655.277
370.564	648.368
373.457	590.689
376.35	505.113
379.242	356.568
382.135	206.362
385.028	81.1738
387.921	7.17969
390.813	23.5747
393.706	43.4292
396.599	55.8506
399.491	5.77808
402.384	25.4744
405.277	15.3967
408.169	16.5669
411.062	8.39233
413.955	23.1003
416.848	12.7315
419.74	19.6314
422.633	29.7607
425.526	59.0505
428.418	45.8069
431.311	111.134
434.204	170.12
437.096	237.18
439.989	214.96
442.882	230.207
445.774	119.464
448.667	89.0977
451.56	124.148
454.453	82.1733
457.345	66.3752
460.238	89.6201
463.131	121.488
466.023	86.4839
468.916	110.498
471.809	91.5962
474.702	33.3491
477.594	96.5054
480.487	45.2895
483.38	103.497
486.272	85.519
489.165	33.6362
492.058	59.6365
494.95	74.3606
497.843	71.8159
500.736	25.0388
503.628	40.5112
506.521	31.5779
509.414	55.6995
512.307	32.499
515.199	40.917
518.092	32.498
520.985	65.779
523.877	19.9395
526.77	15.8894
529.663	5.26514
532.556	43.4768
535.448	47.6326
538.341	58.0293
541.234	47.3125
544.126	71.8936
547.019	69.4578
549.912	45.8167
552.804	39.1128
555.697	95.1272
558.59	69.3455
561.482	112.337
564.375	49.5618
567.268	29.9793
570.16	41.491
573.053	35.853
575.946	81.4465
578.839	46.344
581.731	96.7439
584.624	179.786
587.517	252.707
590.409	304.229
593.302	385.465
596.195	298.222
599.087	138.93
601.98	78.5898
604.873	50.8376
607.766	26.0479
610.658	31.7671
613.551	42.6252
616.444	46.7458
619.336	12.6311
622.229	9.68359
625.122	18.019
628.014	33.3594
630.907	5.13745
633.8	38.3218
636.693	47.0496
639.585	65.9319
642.478	35.1982
645.371	45.0393
648.263	4.29297
651.156	1.30225
654.049	44.7346
656.942	3.45166
659.834	22.2058
662.727	8.27026
665.62	29.1511
668.512	27.53
671.405	31.1448
674.298	23.5649
677.19	28.1721
680.083	28.7029
682.976	16.6399
685.869	33.8274
688.761	46.8828
691.654	56.5679
694.547	42.0772
697.439	6.55981
700.332	59.5649
703.225	48.3669
706.117	52.4451
709.01	56.5395
711.903	41.9614
714.795	8.11499
717.688	98.7891
720.581	93.5256
723.474	167.432
726.366	111.02
729.259	106.948
732.152	37.3169
735.044	37.5523
737.937	41.3379
740.83	20.8411
743.722	77.6726
746.615	25.7334
749.508	50.1172
752.401	15.9355
755.293	74.6416
758.186	13.824
761.079	8.88013
763.971	40.8049
766.864	17.6511
769.757	43.3599
772.649	61.4939
775.542	56.3438
778.435	111.225
781.328	94.1038
784.22	162.888
787.113	242.066
790.006	299.648
792.898	401.929
795.791	539.306
798.684	656.532
801.577	721.686
804.469	677.729
807.362	660.591
810.255	490.542
813.147	318.791
816.04	194.481
818.933	153.15
821.825	101.659
824.718	110.559
827.611	80.166
830.504	53.6975
833.396	28.1511
836.289	25.1104
839.182	40.8809
842.074	34.9656
844.967	12.1035
847.86	4.51416
850.752	12.5601
853.645	2.53369
856.538	42.1077
859.431	1.71167
862.323	8.74854
865.216	58.6956
868.109	76.2183
871.001	75.9849
873.894	92.0044
876.787	23.6077
879.679	46.3816
882.572	71.9544
885.465	55.6855
888.357	39.4102
891.25	81.3992
894.143	54.9058
897.036	73.3415
899.928	47.7424
902.821	52.2253
905.714	45.3091
908.606	26.9544
911.499	51.9824
914.392	52.592
917.284	25.7605
920.177	24.9395
923.07	5.95703
925.963	14.9395
928.855	16.4033
931.748	3.16431
934.641	30.4739
937.533	20.9973
940.426	4.21338
943.319	67.3357
946.211	79.2258
949.104	19.6382
951.997	62.9563
954.889	6.16284
957.782	52.679
960.675	35.2773
963.568	70.5796
966.46	30.9951
969.353	37.1768
972.246	39.7827
975.138	29.5835
978.031	48.9653
980.924	12.5185
983.817	83.2783
986.709	55.6868
989.602	57.7188
992.495	77.084
995.387	40.9126
998.28	67.0874
1001.17	73.3052
1004.07	17.6304
1006.96	47.405
1009.85	61.5
1012.74	9.27271
1015.64	35.3848
1018.53	25.1077
1021.42	48.0669
1024.31	31.9014
1027.21	27.5896
1030.1	66.4109
1032.99	11.2754
1035.88	42.0256
1038.78	32.2532
1041.67	41.0281
1044.56	6.00073
1047.46	8.11426
1050.35	27.4062
1053.24	9.32104
1056.13	3.37744
1059.03	0.130127
1061.92	8.70166
1064.81	1.66528
1067.7	59.2502
1070.6	10.346
1073.49	68.322
1076.38	76.6706
1079.28	54.9451
1082.17	120.331
1085.06	98.0337
1087.95	124.641
1090.85	164.31
1093.74	146.012
1096.63	195.679
1099.53	163.109
1102.42	135.955
1105.31	112.563
1108.2	72.8447
1111.1	55.0903
1113.99	69.4526
1116.88	65.2922
1119.77	47.905
1122.67	29.0972
1125.56	39.269
1128.45	28.7346
1131.34	52.0388
1134.24	20.835
1137.13	41.3918
1140.02	101.818
1142.91	102.48
1145.81	132.733
1148.7	112.952
1151.59	122.283
1154.49	115.899
1157.38	94.6577
1160.27	59.3892
1163.16	40.4355
1166.06	33.9148
1168.95	72.156
1171.84	51.5913
1174.73	76.6919
1177.63	48.8245
1180.52	16.8875
1183.41	9.05493
1186.31	22.657
1189.2	25.0288
1192.09	26.429
1194.98	41.8186
1197.88	79.1094
1200.77	16.6135
1203.66	71.9131
1206.55	24.9768
1209.45	113.695
1212.34	83.2952
1215.23	59.2764
1218.12	36.3379
1221.02	23.2466
1223.91	41.6416
1226.8	21.8586
