Measurement: Raman, 785 nm, unoriented, Raman Data Processed
Mineral: Mellite
Rruff sample: R070574
Ideal chemistry: Al_2_C_6_(COO)_6_16H_2_O
Locality: Tuscany, Italy
Source: James Shigley
Description: Pale yellow prismatic crystal fragment
Measured chemistry: (Al_1.95_Fe^3+^_0.05_)_Σ=2_C_6_(COO)_6_·16H_2_O; CO_2_ and H_2_O from stoichiometry
Raman shift (cm-1)	intensity
143.267	0
146.16	468.163
149.052	2513.34
151.945	4198.73
154.838	3822.12
157.73	3380.33
160.623	3870.17
163.516	4698.35
166.409	4516.7
169.301	4014.13
172.194	4373.85
175.087	5798.21
177.979	7890.34
180.872	7628.87
183.765	4768.82
186.657	2528.64
189.55	1613.84
192.443	1515.76
195.335	1783.89
198.228	1743.55
201.121	1654.33
204.014	1606.01
206.906	1476.99
209.799	900.903
212.692	316.034
215.584	132.905
218.477	300.744
221.37	267.192
224.262	123.638
227.155	99.5171
230.048	451.663
232.941	886.298
235.833	1414.8
238.726	2158.07
241.619	2919.82
244.511	3263.55
247.404	2569.05
250.297	1771.68
253.19	1240.11
256.082	1117.37
258.975	1163.56
261.868	1067.41
264.76	1009.66
267.653	985.215
270.546	957.141
273.438	850.868
276.331	735.118
279.224	515.729
282.116	415.759
285.009	268.928
287.902	169.149
290.795	46.9136
293.687	4.41846
296.58	52.7915
299.473	31.7568
302.365	157.735
305.258	419.632
308.151	721.943
311.043	1020.15
313.936	1211.58
316.829	1575.87
319.722	1949.77
322.614	2578.73
325.507	3175.18
328.4	2942.72
331.292	2204.61
334.185	1969.54
337.078	1955.34
339.971	1513.13
342.863	965.417
345.756	709.074
348.649	692.064
351.541	787.436
354.434	990.687
357.327	1062.66
360.219	1101.53
363.112	1151.71
366.005	947.395
368.897	675.474
371.79	451.332
374.683	448.397
377.576	402.913
380.468	435.342
383.361	471.018
386.254	502.743
389.146	513.658
392.039	471.834
394.932	365.418
397.825	305.916
400.717	198.653
403.61	131.992
406.503	60.2908
409.395	19.7754
412.288	10.147
415.181	40.7954
418.073	49.2693
420.966	30.8191
423.859	6.58081
426.752	10.5972
429.644	9.30054
432.537	40.5757
435.43	74.5305
438.322	83.2148
441.215	66.3799
444.108	123.125
447	129.976
449.893	121.994
452.786	107.149
455.678	100.555
458.571	126.944
461.464	143.321
464.357	139.555
467.249	115.722
470.142	156.919
473.035	173.633
475.927	81.9724
478.82	67.3276
481.713	52.6721
484.606	3.35327
487.498	42.0911
490.391	10.6365
493.284	13.3149
496.176	7.38721
499.069	44.9268
501.962	36.7493
504.854	42.093
507.747	78.7627
510.64	74.5237
513.533	87.3916
516.425	110.703
519.318	153.221
522.211	208.596
525.103	238.017
527.996	295.414
530.889	349.39
533.781	349.716
536.674	395.464
539.567	367.786
542.46	331.721
545.352	289.445
548.245	161.718
551.138	138.589
554.03	114.999
556.923	20.5252
559.816	26.7258
562.708	20.3467
565.601	2.77856
568.494	9.98901
571.386	8.86426
574.279	14.2825
577.172	51.6887
580.065	14.8809
582.957	37.4961
585.85	1.302
588.743	4.073
591.635	8.39014
594.528	3.07812
597.421	9.23462
600.313	19.0679
603.206	3.91431
606.099	32.5498
608.992	50.8489
611.884	3.48047
614.777	28.4277
617.67	44.4314
620.562	50.6819
623.455	31.1306
626.348	69.9099
629.24	61.0984
632.133	124.075
635.026	93.2478
637.919	173.948
640.811	119.662
643.704	120.679
646.597	87.116
649.489	95.3682
652.382	119.567
655.275	92.3528
658.168	90.98
661.06	85.471
663.953	85.5181
666.846	69.3311
669.738	62.3999
672.631	7.79614
675.524	17.3223
678.416	6.89258
681.309	8.10645
684.202	19.5127
687.095	48.5288
689.987	22.7163
692.88	15.2903
695.773	7.02783
698.665	6.1145
701.558	34.1182
704.451	0.354248
707.343	29.2869
710.236	42.8704
713.129	44.3298
716.021	67.354
718.914	116.351
721.807	96.7742
724.7	105.283
727.592	76.6633
730.485	46.5542
733.378	10.7637
736.27	5.94336
739.163	29.6382
742.056	38.6289
744.948	38.7468
747.841	83.6597
750.734	90.0984
753.627	109.176
756.519	195.874
759.412	234.168
762.305	337.632
765.197	423.045
768.09	504.904
770.983	626.608
773.875	657.683
776.768	459.031
779.661	281.291
782.554	220.316
785.446	244.53
788.339	239.266
791.232	324.365
794.125	420.302
797.017	572.34
799.91	653.297
802.803	746.467
805.695	741.486
808.588	681.943
811.481	611.594
814.373	563.779
817.266	497.969
820.159	465.187
823.052	419.37
825.944	378.971
828.837	331.2
831.73	234.253
834.622	207.958
837.515	160.899
840.408	123.112
843.3	180.692
846.193	73.8696
849.086	118.55
851.979	62.0422
854.871	13.8779
857.764	26.5249
860.657	30.9185
863.549	4.95361
866.442	19.3196
869.335	19.3843
872.227	6.49902
875.12	18.4736
878.013	45.7161
880.905	7.55908
883.798	12.9573
886.691	18.2349
889.584	7.28076
892.476	7.74219
895.369	15.655
898.262	29.2812
901.154	49.1438
904.047	41.1841
906.94	46.3777
909.832	38.8789
912.725	70.6079
915.618	66.729
918.511	99.5781
921.403	63.0212
924.296	120.849
927.189	83.0022
930.081	69.0679
932.974	107.636
935.867	111.623
938.76	115.858
941.652	95.9468
944.545	72.1851
947.438	46.2178
950.33	78.3224
953.223	62.1403
956.116	39.1389
959.008	43.8758
961.901	60.8961
964.794	5.24866
967.687	27.7383
970.579	33.4664
973.472	37.7009
976.365	31.8751
979.257	6.32556
982.15	4.71985
985.043	20.6692
987.935	3.92371
990.828	19.2628
993.721	59.1083
996.614	53.4821
999.506	18.8951
1002.4	68.8612
1005.29	15.6305
1008.18	32.8536
1011.08	19.3267
1013.97	24.3709
1016.86	85.5046
1019.75	34.0769
1022.65	8.94702
1025.54	54.0098
1028.43	41.1918
1031.33	37.8329
1034.22	46.8082
1037.11	51.575
1040	10.364
1042.9	20.6593
1045.79	2.23328
1048.68	8.22656
1051.58	54.2936
1054.47	61.3394
1057.36	1.5509
1060.25	75.5889
1063.15	43.1836
1066.04	32.1212
1068.93	48.3911
1071.82	77.1791
1074.72	55.2872
1077.61	28.1827
1080.5	50.1438
1083.39	34.9753
1086.29	36.3115
1089.18	6.17285
1092.07	48.6105
1094.96	17.4342
1097.86	43.1534
1100.75	23.0373
1103.64	5.2583
1106.54	53.6099
1109.43	3.25098
1112.32	44.1888
1115.21	37.2632
1118.11	34.5408
1121	31.0888
1123.89	36.6758
1126.79	36.2602
1129.68	11.4872
1132.57	27.4636
1135.46	34.0284
1138.36	28.85
1141.25	38.8019
1144.14	33.9806
1147.03	20.354
1149.93	57.0505
1152.82	33.426
1155.71	67.9487
1158.61	54.9825
1161.5	79.4441
1164.39	48.3901
1167.28	29.2933
1170.18	1.80078
1173.07	1.32678
1175.96	9.17798
1178.85	23.3545
1181.75	41.4496
1184.64	6.76355
1187.53	7.4303
1190.42	28.0994
1193.32	13.4116
1196.21	16.3596
1199.1	25.4168
1201.99	24.4064
1204.89	94.4504
1207.78	92.1664
1210.67	187.897
1213.57	315.169
1216.46	565.609
1219.35	1011.38
1222.24	1718.58
1225.14	2651.53
1228.03	2150.59
1230.92	993.171
1233.82	450.711
1236.71	260.419
1239.6	145.013
1242.49	55.4554
1245.39	45.7707
1248.28	13.1986
1251.17	36.9867
1254.06	37.2906
1256.96	12.5397
1259.85	26.6854
1262.74	14.7361
1265.63	24.5773
1268.53	32.3771
1271.42	7.25781
