Measurement: Raman, 780 nm, unoriented, Raman Data Processed
Mineral: Mendozavilite-NaCu
Rruff sample: R120038
Ideal chemistry: [Na_2_(H_2_O)_15_Cu^2+^(H_2_O)_6_][Mo^6+^_8_P_2_Fe^3+^_3_O_34_(OH)_3_]
Locality: Lomas Bayas mine, Baquedano, Antofagasta Province, Antofagasta Region, Chile
Source: Bob Jenkins
Description: Bright green massive
Raman shift (cm-1)	intensity
104.217	0
107.591	0.287619
110.966	0.302932
114.341	0.539428
117.716	0.503101
121.091	0.807301
124.466	0.384417
127.84	0.706386
131.215	0.672331
134.59	1.03239
137.965	0.910506
141.34	0.945327
144.714	0.199125
148.089	0.116444
151.464	0.123199
154.839	0.222349
158.214	0.126873
161.589	0.037965
164.963	0.299355
168.338	0.834523
171.713	0.998218
175.088	1.12838
178.463	1.06461
181.838	1.59594
185.212	1.76523
188.587	2.085
191.962	2.15965
195.337	2.02561
198.712	2.14736
202.086	2.0471
205.461	2.24123
208.836	2.23111
212.211	2.78038
215.586	3.25587
218.96	3.94464
222.335	4.57921
225.71	5.27931
229.085	5.92064
232.46	5.75903
235.834	6.23416
239.209	6.01815
242.584	6.82294
245.959	7.59706
249.334	7.85078
252.709	7.93905
256.083	7.42748
259.458	6.42284
262.833	4.64824
266.208	3.59997
269.583	2.45354
272.957	1.61237
276.332	0.898441
279.707	0.714724
283.082	0.515217
286.457	1.16953
289.832	1.26561
293.206	2.01309
296.581	2.45385
299.956	2.88895
303.331	3.03
306.706	2.98907
310.08	2.02716
313.455	1.49966
316.83	0.59965
320.205	0.300251
323.58	0.138493
326.954	0.203352
330.329	0.288379
333.704	0.311244
337.079	0.31085
340.454	0.179878
343.829	0.312629
347.203	0.45234
350.578	0.771978
353.953	0.942853
357.328	1.28867
360.703	1.68201
364.077	2.02684
367.452	2.42198
370.827	2.751
374.202	3.60327
377.577	4.15836
380.952	4.28366
384.326	4.28337
387.701	3.56913
391.076	2.99664
394.451	2.32239
397.826	1.56215
401.2	1.71564
404.575	1.35383
407.95	1.43589
411.325	1.76184
414.7	1.88056
418.075	1.45157
421.449	1.6212
424.824	1.753
428.199	1.84285
431.574	2.03542
434.949	2.25374
438.323	2.04079
441.698	2.70518
445.073	2.21797
448.448	2.2904
451.823	1.91354
455.197	1.65576
458.572	1.35928
461.947	1.30441
465.322	1.40842
468.697	1.4836
472.072	1.81454
475.446	2.00508
478.821	2.40765
482.196	2.25086
485.571	1.96347
488.946	1.79259
492.32	1.29003
495.695	0.70541
499.07	0.584183
502.445	0.229686
505.82	0.108714
509.195	0.147036
512.569	0.26982
515.944	0.032023
519.319	0.164454
522.694	0.172966
526.068	0.049908
529.443	0.083778
532.818	0.055029
536.193	0.005877
539.568	0.139851
542.943	0.288858
546.317	0.532261
549.692	0.645539
553.067	0.904537
556.442	1.27801
559.817	1.56347
563.192	1.64231
566.566	1.36024
569.941	1.5844
573.316	1.29273
576.691	1.10339
580.066	0.93961
583.44	0.923541
586.815	0.828726
590.19	0.590239
593.565	0.54647
596.94	0.702933
600.314	0.430748
603.689	0.604186
607.064	0.794849
610.439	0.949968
613.814	0.799142
617.188	1.06017
620.563	1.0036
623.938	0.85194
627.313	0.64636
630.688	0.605556
634.063	0.327889
637.437	0.45235
640.812	0.002082
644.187	0.191091
647.562	0.1874
650.937	0.243602
654.312	0.226508
657.686	0.265059
661.061	0.242273
664.436	0.09226
667.811	0.108226
671.186	0.17669
674.56	0.054493
677.935	0.232178
681.31	0.294244
684.685	0.276657
688.06	0.370678
691.434	0.241504
694.809	0.348141
698.184	0.347037
701.559	0.291468
704.934	0.395633
708.308	0.274385
711.683	0.208894
715.058	0.167035
718.433	0.123937
721.808	0.307128
725.183	0.212388
728.557	0.155346
731.932	0.142432
735.307	0.056073
738.682	0.019421
742.057	0.012019
745.432	0.011565
748.806	0.062423
752.181	0.073575
755.556	0.121645
758.931	0.15098
762.306	0.52017
765.68	0.63661
769.055	0.937146
772.43	1.54302
775.805	1.91953
779.18	2.36405
782.554	2.95395
785.929	2.82249
789.304	2.72495
792.679	2.58319
796.054	1.97233
799.428	1.31117
802.803	0.880993
806.178	0.026988
809.553	0.183892
812.928	0.281786
816.303	0.290726
819.677	0.706956
823.052	1.31702
826.427	2.68261
829.802	3.92479
833.177	5.142
836.552	6.12984
839.926	6.65055
843.301	6.67664
846.676	6.5874
850.051	6.3038
853.426	6.10352
856.8	6.89116
860.175	7.4553
863.55	7.5197
866.925	7.45267
870.3	6.03871
873.674	4.33893
877.049	2.77317
880.424	1.41882
883.799	0.89056
887.174	0.674535
890.548	0.308916
893.923	0.145116
897.298	0.49548
900.673	0.435589
904.048	0.71643
907.423	0.267642
910.797	0.178845
914.172	0.248563
917.547	0.825466
920.922	1.2124
924.297	1.77694
927.671	2.00128
931.046	2.35099
934.421	2.85886
937.796	3.39789
941.171	3.88032
944.545	4.45921
947.92	4.87444
951.295	5.13839
954.67	6.07943
958.045	6.9624
961.42	7.31281
964.794	6.92278
968.169	5.44459
971.544	2.60124
974.919	0.438649
978.294	0.214483
981.668	0.547566
985.043	0.119537
988.418	0.308963
991.793	1.25873
995.168	2.30737
998.543	3.26213
1001.92	3.84534
1005.29	4.06172
1008.67	3.74914
1012.04	2.55181
1015.42	1.41994
1018.79	0.957404
1022.17	0.345764
1025.54	0.276493
1028.92	0.237781
1032.29	0.263425
1035.67	0.248393
1039.04	0.089866
1042.41	0.008936
1045.79	0.163235
1049.16	0.151159
1052.54	0.136896
1055.91	0.267364
1059.29	0.31091
1062.66	0.252078
1066.04	0.679463
1069.41	0.711504
1072.79	0.83647
1076.16	0.942499
1079.54	1.20927
1082.91	1.22369
1086.29	1.35615
1089.66	1.10065
1093.04	0.968624
1096.41	0.90352
1099.79	0.544469
1103.16	0.585723
1106.54	0.253316
1109.91	0.088112
1113.29	0.39981
1116.66	0.239024
1120.04	0.286235
1123.41	0.039958
1126.79	0.164601
1130.16	0.0779
1133.54	0.031761
1136.91	0.157802
1140.29	0.088028
1143.66	0.052633
1147.03	0.067687
1150.41	0.076599
1153.78	0.003283
1157.16	0.013668
1160.53	0.178896
1163.91	0.154124
1167.28	0.149777
1170.66	0.064254
1174.03	0.100195
1177.41	0.101427
1180.78	0.063579
1184.16	0.154865
1187.53	0.229841
1190.91	0.011179
1194.28	0.114585
1197.66	0.197199
1201.03	0.043714
1204.41	0.168832
1207.78	0.216774
1211.16	0.125434
1214.53	0.087371
1217.91	0.056667
1221.28	0.061983
1224.65	0.089434
1228.03	0.255826
1231.4	0.057947
1234.78	0.132411
1238.15	0.159984
1241.53	0.045669
1244.9	0.086643
1248.28	0.168793
1251.65	0.18474
1255.03	0.234063
1258.4	0.178952
1261.78	0.020902
1265.15	0.198123
1268.53	0.243555
1271.9	0.025213
1275.28	0.067014
1278.65	0.12107
1282.03	0.000525
