Measurement: Raman, 532 nm, unoriented, Raman Data Processed
Mineral: Mendozavilite-NaCu
Rruff sample: R120038
Ideal chemistry: [Na_2_(H_2_O)_15_Cu^2+^(H_2_O)_6_][Mo^6+^_8_P_2_Fe^3+^_3_O_34_(OH)_3_]
Locality: Lomas Bayas mine, Baquedano, Antofagasta Province, Antofagasta Region, Chile
Source: Bob Jenkins
Description: Bright green massive
Raman shift (cm-1)	intensity
167.464	0
170.357	1.2552
173.25	2.06888
176.143	0.68001
179.035	0.291721
181.928	5.37239
184.821	5.47107
187.713	10.1091
190.606	15.0652
193.499	19.6775
196.392	22.8922
199.284	28.7717
202.177	31.2767
205.07	34.5297
207.962	35.2809
210.855	39.3274
213.748	47.2544
216.64	53.3344
219.533	59.5055
222.426	65.6637
225.319	70.757
228.211	79.1656
231.104	83.2926
233.997	84.4081
236.889	84.6642
239.782	88.1733
242.675	93.3113
245.567	97.1081
248.46	100.767
251.353	101.533
254.245	100.255
257.138	90.0572
260.031	78.9973
262.924	65.2104
265.816	51.9131
268.709	40.3058
271.602	28.8666
274.494	19.7044
277.387	13.8744
280.28	9.39293
283.173	9.19402
286.065	10.3744
288.958	11.0327
291.851	14.793
294.743	19.6439
297.636	25.4776
300.529	29.1513
303.421	32.6897
306.314	32.1024
309.207	29.3279
312.099	26.6617
314.992	20.3972
317.885	14.3593
320.778	12.0433
323.67	7.49359
326.563	5.39194
329.456	1.97969
332.348	0.285789
335.241	2.79045
338.134	4.49093
341.027	3.26681
343.919	1.82166
346.812	1.73907
349.705	0.972672
352.597	1.08449
355.49	4.17166
358.383	6.53566
361.276	10.8873
364.168	14.9184
367.061	19.0101
369.954	25.6303
372.846	33.3559
375.739	43.1566
378.632	51.6666
381.524	57.5452
384.417	60.528
387.31	57.6917
390.202	50.6726
393.095	42.9618
395.988	36.1005
398.881	29.9444
401.773	28.7074
404.666	26.9481
407.559	26.595
410.451	26.1152
413.344	27.3275
416.237	26.8727
419.13	26.9454
422.022	28.22
424.915	30.3065
427.808	34.8879
430.7	40.4563
433.593	46.2185
436.486	51.7697
439.378	57.3377
442.271	63.4533
445.164	63.7887
448.057	62.5709
450.949	56.9798
453.842	50.3728
456.735	46.3346
459.627	40.4005
462.52	37.789
465.413	35.4981
468.305	35.6746
471.198	36.098
474.091	37.7046
476.983	39.588
479.876	39.9142
482.769	37.6925
485.662	32.6592
488.554	27.6993
491.447	20.1017
494.34	15.2915
497.232	10.0822
500.125	6.59799
503.018	3.91441
505.911	2.04957
508.803	0.792221
511.696	0.95892
514.589	1.28484
517.481	0.740311
520.374	1.80751
523.267	1.24491
526.159	1.78437
529.052	1.13789
531.945	1.34146
534.837	0.739788
537.73	1.4692
540.623	3.05892
543.516	4.29052
546.408	7.14432
549.301	9.53157
552.194	13.5832
555.086	15.9876
557.979	20.0882
560.872	23.5252
563.764	27.7929
566.657	29.9508
569.55	30.174
572.443	29.4178
575.335	28.0468
578.228	24.4107
581.121	22.3387
584.013	20.2111
586.906	18.557
589.799	17.3517
592.692	15.1023
595.584	14.6142
598.477	14.1526
601.37	13.8183
604.262	13.7502
607.155	14.915
610.048	15.3814
612.94	17.3575
615.833	17.5766
618.726	18.4839
621.619	16.9867
624.511	16.0907
627.404	12.2169
630.297	9.24434
633.189	7.00872
636.082	5.02294
638.975	3.01171
641.867	3.00636
644.76	2.12168
647.653	1.51459
650.545	1.69437
653.438	1.26001
656.331	0.67156
659.224	0.218884
662.116	0.921492
665.009	0.83905
667.902	1.04041
670.794	0.726068
673.687	0.708536
676.58	1.00892
679.472	1.1592
682.365	1.28581
685.258	2.13716
688.151	2.04831
691.043	2.3058
693.936	3.17169
696.829	4.10062
699.721	2.5495
702.614	2.75354
705.507	1.9172
708.399	2.54
711.292	2.52172
714.185	1.93271
717.078	1.66774
719.97	1.63556
722.863	1.01452
725.756	1.14809
728.648	1.37079
731.541	0.576944
734.434	0.177879
737.327	0.36775
740.219	0.597162
743.112	0.408714
746.005	0.434628
748.897	0.65712
751.79	0.521358
754.683	0.398235
757.575	2.57007
760.468	6.44483
763.361	8.17017
766.254	13.4421
769.146	19.3921
772.039	26.1301
774.932	32.6243
777.824	40.5562
780.717	45.6447
783.61	50.8832
786.502	53.5665
789.395	53.0763
792.288	49.3084
795.181	43.6158
798.073	33.2766
800.966	24.8633
803.859	14.6047
806.751	6.90853
809.644	0.993561
812.537	1.66124
815.429	3.07298
818.322	0.017799
821.215	6.33352
824.107	13.8637
827	23.7745
829.893	37.7877
832.786	51.737
835.678	63.8366
838.571	73.5761
841.464	79.7402
844.356	77.8709
847.249	75.3265
850.142	72.1162
853.034	73.4964
855.927	80.0122
858.82	91.5577
861.713	107.299
864.605	119.028
867.498	119.344
870.391	107.912
873.283	83.9003
876.176	60.0077
879.069	39.6058
881.962	24.9495
884.854	15.4734
887.747	9.78381
890.64	8.14961
893.532	5.82699
896.425	6.16183
899.318	8.01246
902.21	10.1772
905.103	8.21909
907.996	5.11897
910.889	2.88223
913.781	1.47076
916.674	2.18127
919.567	3.83765
922.459	8.00132
925.352	16.6886
928.245	22.809
931.137	28.0872
934.03	32.1159
936.923	37.5171
939.816	41.5192
942.708	44.2948
945.601	47.8275
948.494	52.7204
951.386	57.2007
954.279	65.7761
957.172	78.625
960.064	89.7001
962.957	96.4375
965.85	91.5659
968.742	69.6568
971.635	37.0929
974.528	13.4599
977.421	0.706444
980.313	4.02413
983.206	3.66551
986.099	1.09912
988.991	3.32757
991.884	9.7446
994.777	18.1496
997.669	25.9917
1000.56	33.168
1003.46	37.6891
1006.35	38.4792
1009.24	32.6746
1012.13	23.5052
1015.03	14.3598
1017.92	8.31121
1020.81	5.64291
1023.7	4.82962
1026.6	4.31718
1029.49	5.40325
1032.38	4.33813
1035.28	5.50086
1038.17	4.04612
1041.06	2.31111
1043.95	0.44474
1046.85	0.836936
1049.74	1.85522
1052.63	2.11155
1055.52	4.02841
1058.42	4.09552
1061.31	5.6318
1064.2	6.18218
1067.09	7.73225
1069.99	9.05193
1072.88	11.5753
1075.77	13.765
1078.66	16.0225
1081.56	17.2452
1084.45	18.7723
1087.34	17.1459
1090.24	16.4462
1093.13	15.1062
1096.02	12.0875
1098.91	9.93096
1101.81	6.70999
1104.7	5.70612
1107.59	4.04815
1110.48	2.98575
1113.38	2.0059
1116.27	2.11704
1119.16	0.791467
1122.06	0.945285
1124.95	1.19963
1127.84	1.14192
1130.73	0.698224
1133.63	1.45441
1136.52	0.189909
1139.41	0.185943
1142.3	0.061017
1145.2	0.489133
1148.09	0.50015
1150.98	0.318356
1153.88	0.115677
1156.77	0.582631
1159.66	0.075031
1162.55	0.37986
1165.45	0.445306
1168.34	0.227477
1171.23	0.237722
1174.12	0.399678
1177.02	0.038249
1179.91	0.814842
1182.8	0.626187
1185.69	0.471573
1188.59	0.373477
1191.48	0.219245
1194.37	0.434327
1197.27	0.091556
1200.16	0.544949
1203.05	0.762824
1205.94	0.191129
1208.84	0.794356
1211.73	0.837465
1214.62	1.35824
1217.52	0.203405
1220.41	0.169943
1223.3	0.900035
1226.19	0.741799
1229.09	0.052831
1231.98	1.17583
1234.87	1.05548
1237.76	1.00541
1240.66	1.04981
1243.55	1.62688
1246.44	0.534511
1249.33	1.50253
1252.23	0.616379
1255.12	1.22263
1258.01	0.253102
1260.9	0.150421
1263.8	1.1219
1266.69	0.698049
1269.58	0.533822
1272.48	0.832145
1275.37	0.250902
1278.26	0.572694
1281.15	0.586869
1284.05	0.775599
1286.94	0.388428
1289.83	0.452019
1292.72	0.132723
1295.62	0.55881
1298.51	0.281664
1301.4	0.200753
