Measurement: Raman, 780 nm, unoriented, Raman Data Processed
Mineral: Mendipite
Rruff sample: R050669
Ideal chemistry: Pb_3_O_2_Cl_2_
Locality: Mendip Hills, Higher Pits, Somerset, England
Source: University of Arizona Mineral Museum
Description: Colorless coarsely fibrous aggregate
Measured chemistry: Pb_3.00_O_2_Cl_2.00_
Raman shift (cm-1)	intensity
120.47	0
123.845	98.0955
127.22	353.011
130.595	847.103
133.97	1326.44
137.344	1991.82
140.719	2203.73
144.094	682.175
147.469	181.552
150.844	115.603
154.218	63.4649
157.593	24.1028
160.968	2.70844
164.343	2.88667
167.718	8.66602
171.093	11.996
174.467	14.9316
177.842	21.3602
181.217	1.56081
184.592	19.7169
187.966	43.2625
191.341	64.9859
194.716	83.8887
198.091	99.9232
201.466	115.183
204.841	125.78
208.215	133.943
211.59	139.469
214.965	142.448
218.34	141.971
221.715	135.447
225.089	128.119
228.464	117.326
231.839	108.15
235.214	95.2469
238.589	88.0043
241.964	83.7896
245.338	84.258
248.713	88.2575
252.088	99.054
255.463	110.853
258.838	125.116
262.212	142.743
265.587	160.45
268.962	178.469
272.337	179.47
275.712	151.487
279.087	103.695
282.461	66.2714
285.836	44.7415
289.211	40.8772
292.586	42.1169
295.961	34.946
299.335	15.4361
302.71	2.32357
306.085	2.89493
309.46	0.247643
312.835	6.33421
316.209	16.4583
319.584	32.0556
322.959	54.0485
326.334	74.8305
329.709	92.5447
333.084	93.2576
336.458	92.1822
339.833	79.6831
343.208	54.3197
346.583	33.399
349.958	19.6247
353.332	14.0946
356.707	11.7275
360.082	13.0285
363.457	14.5671
366.832	12.9043
370.207	10.0977
373.581	5.013
376.956	0.027988
380.331	2.25782
383.706	2.84491
387.081	3.49077
390.455	2.53424
393.83	1.92315
397.205	1.29738
400.58	5.45364
403.955	7.89014
407.329	11.9259
410.704	18.162
414.079	27.3971
417.454	37.2121
420.829	49.7445
424.204	64.186
427.578	79.34
430.953	92.4263
434.328	94.5857
437.703	82.2864
441.078	57.3924
444.452	38.0087
447.827	24.3973
451.202	17.1419
454.577	13.9893
457.952	14.9785
461.327	16.8846
464.701	20.6569
468.076	27.1841
471.451	32.3548
474.826	31.167
478.201	19.9395
481.575	10.9125
484.95	5.34543
488.325	3.93154
491.7	2.89716
495.075	2.05166
498.45	0.729408
501.824	0.911354
505.199	0.580724
508.574	0.21911
511.949	0.582183
515.323	0.217144
518.698	0.828589
522.073	1.27708
525.448	1.12193
528.823	0.349767
532.198	1.66051
535.572	1.64956
538.947	2.2926
542.322	1.52055
545.697	2.47547
549.072	3.03644
552.447	3.05259
555.821	2.8168
559.196	2.4113
562.571	2.76401
565.946	2.37505
569.321	2.88493
572.695	3.06459
576.07	3.34057
579.445	4.1855
582.82	4.59185
586.195	5.34294
589.569	5.68464
592.944	4.56221
596.319	4.47028
599.694	3.77551
603.069	2.96133
606.443	3.63541
609.818	2.40484
613.193	1.91663
616.568	2.08392
619.943	1.0718
623.318	0.422428
626.692	0.367126
630.067	0.291769
633.442	0.241787
636.817	0.241476
640.192	0.056652
643.567	0.318691
646.941	0.231165
650.316	0.081314
653.691	0.332726
657.066	0.438118
660.441	0.564321
663.815	0.826343
667.19	0.052033
670.565	0.13153
673.94	0.202409
677.315	0.522208
680.689	0.58952
684.064	1.4393
687.439	1.07348
690.814	0.901896
694.189	1.53162
697.563	1.71395
700.938	2.37613
704.313	2.41527
707.688	2.50067
711.063	2.55864
714.438	2.6427
717.812	2.9337
721.187	3.06585
724.562	3.17637
727.937	3.17619
731.312	2.94208
734.687	3.08891
738.061	3.11346
741.436	2.72456
744.811	2.34515
748.186	1.89983
751.561	2.00158
754.935	1.72006
758.31	1.44077
761.685	1.27647
765.06	0.339964
768.435	0.469151
771.809	0.438698
775.184	0.28438
778.559	0.458002
781.934	0.260722
785.309	0.085587
788.683	0.287045
792.058	0.125933
795.433	0.2664
798.808	0.181265
802.183	0.199179
805.558	0.205902
808.932	0.344386
812.307	0.016562
815.682	0.151734
819.057	0.988173
822.432	0.326484
825.807	0.667668
829.181	0.564671
832.556	0.212652
835.931	0.641944
839.306	0.977109
842.681	0.928347
846.055	0.723455
849.43	1.3812
852.805	1.09899
856.18	1.88857
859.555	1.49345
862.929	1.43682
866.304	2.09015
869.679	1.38856
873.054	0.712585
876.429	1.06539
879.803	1.13226
883.178	0.995315
886.553	0.200097
889.928	0.458904
893.303	0.039217
896.678	0.692128
900.052	0.065926
903.427	0.350792
906.802	0.118367
910.177	0.372634
913.552	0.169858
916.927	0.5034
920.301	0.472935
923.676	0.239492
927.051	0.112072
930.426	0.169158
933.801	0.472312
937.175	0.260933
940.55	0.269966
943.925	0.605961
947.3	0.301472
950.675	0.625824
954.049	0.400497
957.424	0.487684
960.799	0.36405
964.174	0.694101
967.549	0.901658
970.923	0.624093
974.298	0.22825
977.673	0.663584
981.048	0.642978
984.423	0.543089
987.798	0.407917
991.172	0.477996
994.547	0.244213
997.922	0.113923
1001.3	0.769198
1004.67	0.869398
1008.05	0.519712
1011.42	0.684195
1014.8	0.971416
1018.17	0.988813
1021.55	0.66669
1024.92	1.01029
1028.3	0.360947
1031.67	0.635934
1035.05	0.470485
1038.42	0.435421
1041.8	0.610895
1045.17	0.661864
1048.54	0.15516
1051.92	0.500905
1055.29	0.392021
1058.67	1.02269
1062.04	0.399391
1065.42	0.399105
1068.79	0.50504
1072.17	0.721552
1075.54	0.358084
1078.92	0.76735
1082.29	0.730647
1085.67	0.862125
1089.04	0.166946
1092.42	0.637508
1095.79	0.514097
1099.17	0.527203
1102.54	0.821591
1105.92	0.190716
1109.29	0.313426
1112.67	0.937202
1116.04	0.34015
1119.41	0.613914
1122.79	0.460572
1126.16	0.52181
1129.54	0.879391
1132.91	0.068077
1136.29	0.260565
1139.66	0.618677
1143.04	0.703457
1146.41	1.26267
1149.79	0.870781
1153.16	0.93373
1156.54	1.3918
1159.91	0.347127
1163.29	0.236193
1166.66	0.802136
1170.04	0.521111
1173.41	0.995601
1176.79	0.77817
1180.16	0.637475
1183.54	1.01973
1186.91	0.781858
1190.29	0.925462
1193.66	0.967623
1197.04	0.76705
1200.41	0.705449
1203.79	0.426159
1207.16	0.476573
1210.54	0.256082
1213.91	0.49324
1217.29	0.874543
1220.66	0.644206
1224.04	0.69706
1227.41	0.691308
1230.78	0.706193
1234.16	0.00093
1237.53	0.410978
1240.91	0.319552
1244.28	0.711758
1247.66	0.437191
1251.03	0.098261
1254.41	0.025743
1257.78	0.405144
1261.16	0.463432
1264.53	0.363501
1267.91	0.284265
1271.28	0.127943
1274.66	0.205171
1278.03	0.331114
1281.41	0.294225
1284.78	0.171864
