Measurement: Raman, 532 nm, unoriented, Raman Data Processed
Mineral: Mendipite
Rruff sample: R050669
Ideal chemistry: Pb_3_O_2_Cl_2_
Locality: Mendip Hills, Higher Pits, Somerset, England
Source: University of Arizona Mineral Museum
Description: Colorless coarsely fibrous aggregate
Measured chemistry: Pb_3.00_O_2_Cl_2.00_
Raman shift (cm-1)	intensity
120.637	0
124.012	260.406
127.387	831.688
130.762	1782.45
134.136	3614.32
137.511	7205.36
140.886	8065.25
144.261	2611.65
147.636	1182.77
151.011	972.508
154.385	696.561
157.76	479.467
161.135	328.121
164.51	240.392
167.885	163.778
171.259	107.437
174.634	51.6697
178.009	11.1201
181.384	30.458
184.759	52.8161
188.133	50.0431
191.508	47.6409
194.883	32.2473
198.258	12.806
201.633	9.03131
205.008	23.9064
208.382	42.2106
211.757	64.04
215.132	83.6734
218.507	101.911
221.882	112.785
225.256	128.065
228.631	144.263
232.006	162.097
235.381	187.725
238.756	208.183
242.131	209.421
245.505	207.433
248.88	218.502
252.255	248.917
255.63	303.781
259.005	377.182
262.38	467.223
265.754	574.399
269.129	678.737
272.504	699.346
275.879	577.143
279.254	392.306
282.628	258.693
286.003	210.158
289.378	224.035
292.753	270.326
296.128	244.631
299.503	136.247
302.877	71.8159
306.252	58.2007
309.627	83.7676
313.002	137.784
316.377	224.722
319.752	342.491
323.126	504.904
326.501	676.109
329.876	747.32
333.251	660.573
336.626	560.237
340	437.803
343.375	296.805
346.75	188.3
350.125	122.824
353.5	82.7304
356.875	64.7045
360.249	58.7606
363.624	59.995
366.999	54.3884
370.374	44.0769
373.749	25.2494
377.123	4.02721
380.498	11.1283
383.873	16.5103
387.248	15.4298
390.623	11.914
393.998	1.72411
397.372	7.62184
400.747	20.9703
404.122	41.4936
407.497	67.26
410.872	103.885
414.247	157.877
417.621	231.782
420.996	319.758
424.371	429.312
427.746	543.456
431.121	649.016
434.495	652.615
437.87	531.502
441.245	361.375
444.62	226.124
447.995	139.119
451.37	89.2999
454.744	67.1556
458.119	60.4985
461.494	67.0367
464.869	78.6322
468.244	100.743
471.618	117.363
474.993	107.127
478.368	67.7637
481.743	34.5004
485.118	17.8916
488.493	8.19664
491.867	1.71666
495.242	0.314934
498.617	0.845749
501.992	0.040855
505.367	1.95331
508.741	0.565971
512.116	0.565475
515.491	0.994812
518.866	2.20296
522.241	2.79793
525.616	4.16579
528.99	4.57698
532.365	6.10984
535.74	8.0054
539.115	9.07933
542.49	9.82352
545.865	11.5966
549.239	12.8174
552.614	13.6574
555.989	13.5402
559.364	13.7298
562.739	14.8172
566.114	14.4809
569.488	16.3704
572.863	18.6499
576.238	22.0134
579.613	23.6837
582.987	26.5035
586.362	29.4248
589.737	28.8849
593.112	26.2158
596.487	24.438
599.862	22.0988
603.236	19.9293
606.611	18.4899
609.986	14.7677
613.361	12.6829
616.736	10.1732
620.111	6.70754
623.485	4.16207
626.86	2.49632
630.235	0.621319
633.61	0.2136
636.985	0.557911
640.36	0.862747
643.734	0.9706
647.109	0.356136
650.484	0.756119
653.859	0.11377
657.234	0.205063
660.609	0.727554
663.983	1.30741
667.358	1.58045
670.733	3.30939
674.108	3.25683
677.482	5.95954
680.857	6.99346
684.232	8.3139
687.607	9.8891
690.982	11.3175
694.357	14.7319
697.731	15.6571
701.106	18.4667
704.481	19.8644
707.856	22.4443
711.231	24.0236
714.606	26.3956
717.98	29.2511
721.355	30.9244
724.73	31.3508
728.105	31.6709
731.48	31.2274
734.855	28.9851
738.229	27.9733
741.604	27.7553
744.979	23.6484
748.354	21.5729
751.729	18.5895
755.103	16.1024
758.478	13.9669
761.853	11.8949
765.228	9.69773
768.603	6.90689
771.977	6.4977
775.352	3.93013
778.727	2.76214
782.102	2.40454
785.477	1.05566
788.852	0.240437
792.226	0.318634
795.601	0.317955
798.976	0.647278
802.351	0.364292
805.726	0.101814
809.101	0.088726
812.475	0.258717
815.85	0.050415
819.225	0.086002
822.6	0.844078
825.975	1.08006
829.35	1.72735
832.724	2.44015
836.099	2.54128
839.474	2.47289
842.849	3.81478
846.224	4.2965
849.598	4.93112
852.973	6.78514
856.348	7.04203
859.723	7.67818
863.098	7.39262
866.472	6.90119
869.847	6.81317
873.222	6.12176
876.597	5.56992
879.972	5.54946
883.347	4.39715
886.721	3.07857
890.096	3.25378
893.471	1.77557
896.846	1.23512
900.221	0.962925
903.596	0.747942
906.97	0.83353
910.345	0.31439
913.72	0.754204
917.095	0.129416
920.47	0.15291
923.845	0.524605
927.219	0.032881
930.594	0.283705
933.969	0.184727
937.344	0.767864
940.719	1.27843
944.093	1.04199
947.468	1.49011
950.843	1.87288
954.218	1.55625
957.593	1.39121
960.967	2.15634
964.342	2.56293
967.717	2.65072
971.092	2.48465
974.467	2.54077
977.842	2.10276
981.216	1.9392
984.591	2.51795
987.966	2.33134
991.341	2.09174
994.716	1.76508
998.091	2.15488
1001.47	1.96741
1004.84	1.8873
1008.22	6.14273
1011.59	1.38583
1014.97	3.35206
1018.34	1.07644
1021.71	0.322706
1025.09	0.148697
1028.46	0.246112
1031.84	0.501022
1035.21	0.213297
1038.59	0.028173
1041.96	0.481797
1045.34	0.488979
1048.71	0.874479
1052.09	0.369655
1055.46	0.515927
1058.84	0.339623
1062.21	0.098959
1065.59	0.952742
1068.96	0.965039
1072.34	0.651129
1075.71	1.13312
1079.09	0.73796
1082.46	0.59654
1085.84	0.385607
1089.21	0.523757
1092.59	0.730281
1095.96	0.776874
1099.34	0.09985
1102.71	0.77551
1106.09	0.498464
1109.46	0.689301
1112.83	1.03923
1116.21	0.44771
1119.58	0.903789
1122.96	0.559511
1126.33	0.677669
1129.71	0.753998
1133.08	0.619232
1136.46	0.367897
1139.83	0.554948
1143.21	0.612139
1146.58	0.413575
1149.96	0.630345
1153.33	0.162654
1156.71	0.339118
1160.08	0.370437
1163.46	0.596178
1166.83	0.493745
1170.21	0.1861
1173.58	0.31242
1176.96	0.382788
1180.33	0.458447
1183.71	0.115293
1187.08	0.068649
1190.45	0.305244
1193.83	0.316224
1197.2	1.12296
1200.58	0.079003
1203.95	0.219985
1207.33	0.772175
1210.7	0.868637
1214.08	0.661685
1217.45	0.665177
1220.83	0.60888
1224.2	0.772661
1227.58	0.491674
1230.95	0.650888
1234.33	1.17792
1237.7	0.184505
1241.08	0.746512
1244.45	0.076387
1247.83	0.234657
1251.2	0.551231
1254.58	0.609113
1257.95	0.391221
1261.33	0.377892
1264.7	0.755747
1268.08	0.16938
1271.45	0.460635
1274.83	0.357629
1278.2	0.228075
1281.58	0.080142
1284.95	0.076212
1288.33	0.678758
1291.7	0.199428
1295.08	0.510238
1298.45	0.013814
1301.82	0
