Measurement: Raman, 780 nm, unoriented, Raman Data Processed
Mineral: Meneghinite
Rruff sample: R050444
Ideal chemistry: Pb_13_CuSb_7_S_24_
Locality: Bottino, Tucsany, Italy
Source: Peter Megaw
Description: Lead-gray metallic slender prismatic and striated crystal
Measured chemistry: (Pb_12.75_Sb_0.25_)_Σ=13.00_(Cu_0.73_Sb_0.13_Fe_0.01_)_Σ=0.87_Sb_7.00_S_24.00_
Raman shift (cm-1)	intensity
118.853	0
122.228	0.695221
125.603	1.50824
128.978	3.8383
132.353	4.8968
135.727	9.12671
139.102	11.5741
142.477	15.2128
145.852	10.3501
149.227	10.6547
152.601	4.60233
155.976	0.321594
159.351	0.269737
162.726	0.680931
166.101	1.3353
169.476	1.44514
172.85	4.78966
176.225	8.16512
179.6	13.6996
182.975	20.1043
186.35	29.8947
189.725	42.9011
193.099	50.5004
196.474	62.8276
199.849	70.4983
203.224	74.0521
206.599	73.782
209.973	65.0623
213.348	47.0626
216.723	31.6304
220.098	17.3446
223.473	9.55138
226.847	8.21298
230.222	8.23637
233.597	11.5182
236.972	17.1895
240.347	20.6463
243.722	24.8052
247.096	31.059
250.471	34.0249
253.846	38.4913
257.221	41.0931
260.596	42.9873
263.971	44.1309
267.345	43.3342
270.72	35.7786
274.095	28.4418
277.47	20.1945
280.845	11.8192
284.219	3.46529
287.594	0.462997
290.969	2.73813
294.344	0.052681
297.719	3.6514
301.094	16.4086
304.468	26.1242
307.843	40.779
311.218	52.3282
314.593	57.5613
317.968	62.9145
321.342	71.0991
324.717	86.2687
328.092	95.483
331.467	102.174
334.842	102.744
338.216	93.6844
341.591	71.1229
344.966	44.1751
348.341	23.242
351.716	11.8429
355.091	4.10267
358.465	1.33287
361.84	0.334888
365.215	0.017696
368.59	0.048584
371.965	0.642281
375.339	1.05557
378.714	1.36502
382.089	1.2188
385.464	1.75935
388.839	2.40827
392.214	2.97481
395.588	3.88284
398.963	4.12283
402.338	4.38482
405.713	4.24043
409.088	3.48373
412.462	4.84901
415.837	4.24516
419.212	4.85703
422.587	5.10882
425.962	2.55665
429.337	2.96407
432.712	3.7334
436.086	3.01469
439.461	2.5423
442.836	1.54928
446.211	2.05644
449.586	1.62628
452.96	1.75487
456.335	2.07188
459.71	2.72654
463.085	2.49203
466.46	0.810879
469.834	1.16097
473.209	0.763683
476.584	1.50694
479.959	0.987812
483.334	0.631349
486.709	0.57725
490.083	1.29818
493.458	0.006913
496.833	0.325589
500.208	0.56708
503.583	0.482135
506.957	0.494505
510.332	0.242147
513.707	0.529567
517.082	0.023619
520.457	0.015252
523.832	0.228631
527.206	0.292579
530.581	1.18094
533.956	1.13059
537.331	1.01704
540.706	1.09638
544.081	1.04542
547.455	0.272908
550.83	1.39645
554.205	0.515506
557.58	1.21226
560.955	0.850018
564.329	1.20479
567.704	1.19477
571.079	0.956086
574.454	1.10869
577.829	1.70601
581.203	0.768661
584.578	1.5039
587.953	0.449443
591.328	1.80736
594.703	0.656207
598.078	1.48047
601.452	1.34856
604.827	0.501925
608.202	1.51097
611.577	1.16027
614.952	1.09787
618.327	1.17168
621.701	0.875065
625.076	1.66285
628.451	0.537723
631.826	0.028934
635.201	1.39964
638.575	0.871159
641.95	1.15674
645.325	1.33721
648.7	1.13161
652.075	1.42257
655.449	1.22709
658.824	1.42128
662.199	1.87782
665.574	2.10085
668.949	1.26613
672.324	1.06143
675.698	1.25561
679.073	1.67457
682.448	0.783455
685.823	0.418146
689.198	1.79432
692.572	0.221099
695.947	0.205853
699.322	0.582114
702.697	1.84509
706.072	0.773695
709.447	0.505725
712.821	0.896099
716.196	1.21133
719.571	0.600238
722.946	1.13452
726.321	0.909245
729.696	0.632627
733.07	0.750718
736.445	0.313303
739.82	1.08067
743.195	0.749249
746.57	1.47229
749.944	1.70433
753.319	0.627919
756.694	0.368179
760.069	0.888425
763.444	2.26755
766.818	1.32201
770.193	0.315834
773.568	0.506088
776.943	0.618013
780.318	0.914513
783.693	0.914626
787.067	1.21806
790.442	0.818938
793.817	0.88553
797.192	0.282273
800.567	0.843352
803.942	0.925145
807.316	0.341959
810.691	1.25704
814.066	0.896274
817.441	1.19514
820.816	1.15436
824.19	0.343531
827.565	0.706054
830.94	1.32269
834.315	1.45732
837.69	0.620193
841.065	1.35355
844.439	1.26131
847.814	0.565382
851.189	1.68358
854.564	0.572467
857.939	0.780106
861.313	1.14828
864.688	0.648665
868.063	0.885756
871.438	1.75902
874.813	0.685815
878.188	0.731618
881.562	0.100377
884.937	0.996274
888.312	0.476815
891.687	0.817836
895.062	1.41468
898.437	1.40347
901.811	0.274244
905.186	0.659574
908.561	0.130836
911.936	0.551816
915.311	0.836836
918.685	0.003438
922.06	1.36963
925.435	0.599017
928.81	0.931818
932.185	1.01238
935.559	0.638389
938.934	0.620763
942.309	1.32683
945.684	1.54386
949.059	0.69091
952.434	1.27894
955.808	0.627929
959.183	0.796631
962.558	0.999182
965.933	0.771085
969.308	1.23571
972.683	0.716029
976.057	1.05992
979.432	0.35632
982.807	0.954679
986.182	1.02668
989.557	0.089131
992.931	0.345666
996.306	1.02434
999.681	0.659559
1003.06	1.19109
1006.43	0.637072
1009.8	0.49192
1013.18	0.803285
1016.55	1.18495
1019.93	0.191789
1023.3	0.884846
1026.68	1.06972
1030.05	0.395773
1033.43	0.969114
1036.8	0.733574
1040.18	0.187589
1043.55	1.66481
1046.93	0.769613
1050.3	0.441409
1053.68	1.43317
1057.05	1.52087
1060.43	0.741116
1063.8	1.48405
1067.18	1.06757
1070.55	1.21997
1073.93	0.312549
1077.3	1.46675
1080.68	0.341343
1084.05	0.219748
1087.43	1.52419
1090.8	1.1086
1094.18	1.86461
1097.55	0.654779
1100.93	1.17387
1104.3	1.26571
1107.67	0.205937
1111.05	1.00843
1114.42	0.706063
1117.8	0.0085
1121.17	0.372304
1124.55	0.041239
1127.92	0.166336
1131.3	0.046472
1134.67	1.05983
1138.05	0.721124
1141.42	0.184124
1144.8	0.243
1148.17	0.962703
1151.55	1.73405
1154.92	0.578823
1158.3	1.12389
1161.67	1.62056
1165.05	1.48441
1168.42	0.657111
1171.8	1.78969
1175.17	0.508532
1178.55	0.986824
1181.92	1.3546
1185.3	0.266962
1188.67	1.23527
1192.05	0.848044
1195.42	0.952406
1198.8	1.49836
1202.17	1.45108
1205.55	0.779779
1208.92	0.668462
1212.3	0.680641
1215.67	0.470983
1219.04	0.07379
1222.42	0.704697
1225.79	1.52721
1229.17	1.68247
1232.54	1.18898
1235.92	0.053374
1239.29	1.08862
1242.67	1.22472
1246.04	1.04056
1249.42	0.761486
1252.79	1.565
1256.17	1.06713
1259.54	1.28029
1262.92	1.77595
1266.29	0.983523
1269.67	0.700092
1273.04	0.092005
1276.42	0.515014
1279.79	0.6484
1283.17	0.575352
1286.54	0.323315
