Measurement: Raman, 785 nm, unoriented, Raman Data Processed
Mineral: Meneghinite
Rruff sample: R070093
Ideal chemistry: Pb_13_CuSb_7_S_24_
Locality: Kalkar Quarry, Santa Cruz, Santa Cruz County, California, USA
Source: James Shigley
Description: Elongated silver-gray metallic crystals embedded in quartz and associated with calcite
Measured chemistry: (Pb_12.20_Sn_0.80_)_Σ=13_Cu_1.00_(Sb_6.97_As_0.03_)_Σ=7_S_24.00_
Raman shift (cm-1)	intensity
158.915	0
161.808	7.94751
164.701	6.33374
167.593	78.5764
170.486	172.68
173.379	218.008
176.271	289.021
179.164	379.724
182.057	542.516
184.949	746.832
187.842	958.096
190.735	1211.41
193.627	1506.25
196.52	1780.12
199.413	1982.56
202.306	2228.65
205.198	2397.07
208.091	2419.61
210.984	2333.87
213.876	2094.58
216.769	1713.48
219.662	1384.87
222.555	1064.17
225.447	841.939
228.34	696.678
231.233	652.882
234.125	689.312
237.018	679.508
239.911	741.348
242.804	816.173
245.696	893.414
248.589	959.601
251.482	981.391
254.374	982.212
257.267	1062.29
260.16	1101.39
263.052	1141.33
265.945	1172.84
268.838	1115.41
271.731	995.306
274.623	930.046
277.516	733.355
280.409	614.922
283.301	390.301
286.194	153.33
289.087	15.7815
291.979	62.9609
294.872	96.5469
297.765	36.2751
300.658	113.207
303.55	335.878
306.443	613.351
309.336	937.132
312.228	1204.38
315.121	1262.39
318.014	1285.08
320.906	1435.46
323.799	1728.38
326.692	2020.09
329.584	2343.27
332.477	2539.06
335.37	2690.51
338.262	2727.8
341.155	2411.66
344.048	1830.75
346.941	1243.75
349.833	743.166
352.726	360.72
355.619	149.092
358.511	52.8085
361.404	7.96582
364.297	57.4609
367.19	33.6119
370.082	15.544
372.975	16.3173
375.868	7.9209
378.76	43.6764
381.653	42.6986
384.546	56.8411
387.438	68.4243
390.331	105.71
393.224	102.662
396.116	122.292
399.009	141.211
401.902	139.415
404.795	174.789
407.687	179.361
410.58	180.831
413.473	211.981
416.365	221.361
419.258	222.528
422.151	186.418
425.043	187.051
427.936	154.09
430.829	145.008
433.722	127.627
436.614	109.595
439.507	116.497
442.4	124.774
445.292	107.006
448.185	99.268
451.078	78.8672
453.971	91.3685
456.863	89.0758
459.756	66.2071
462.649	70.5317
465.541	64.9086
468.434	83.6297
471.327	75.3304
474.219	68.1336
477.112	50.7496
480.005	36.2776
482.898	41.1543
485.79	31.2513
488.683	32.4937
491.576	12.2595
494.468	25.1762
497.361	28.339
500.254	28.7103
503.147	42.1871
506.039	22.3312
508.932	24.0721
511.825	18.6818
514.717	19.5481
517.61	32.8611
520.503	6.34045
523.395	8.19488
526.288	7.01562
529.181	0.7099
532.073	23.6541
534.966	1.85419
537.859	3.03155
540.752	24.1809
543.644	17.2251
546.537	8.51166
549.43	24.3441
552.322	5.40405
555.215	13.7849
558.108	30.7251
561	18.9668
563.893	15.0551
566.786	31.4204
569.678	22.8305
572.571	23.9753
575.464	19.8482
578.357	30.9725
581.249	21.0385
584.142	6.16815
587.035	16.2227
589.927	9.86438
592.82	17.0851
595.713	11.2266
598.606	29.0366
601.498	9.30823
604.391	16.7983
607.284	0.023315
610.176	4.20459
613.069	14.5526
615.962	7.99109
618.854	12.4136
621.747	11.2149
624.64	27.268
627.533	5.01776
630.425	5.83728
633.318	19.9151
636.211	37.7872
639.103	10.4504
641.996	11.9761
644.889	28.8629
647.781	33.1262
650.674	11.2155
653.567	40.816
656.46	26.3996
659.352	23.5264
662.245	39.3514
665.138	39.6344
668.03	28.7733
670.923	32.5651
673.816	27.4012
676.708	21.5888
679.601	45.9748
682.494	16.2403
685.386	10.1812
688.279	28.8913
691.172	10.6631
694.065	18.3358
696.957	21.3683
699.85	13.7631
702.743	9.53613
705.635	2.39343
708.528	17.2006
711.421	35.5788
714.313	14.7836
717.206	28.1786
720.099	7.63504
722.992	27.0222
725.884	21.7189
728.777	13.2398
731.67	19.4428
734.562	10.2805
737.455	17.2713
740.348	10.9082
743.24	1.30499
746.133	8.27557
749.026	14.1285
751.919	5.87012
754.811	7.68915
757.704	27.4293
760.597	7.8316
763.489	3.64655
766.382	0.196747
769.275	5.75177
772.168	26.9117
775.06	14.2765
777.953	18.4419
780.846	10.9656
783.738	17.1438
786.631	24.4798
789.524	22.8922
792.416	20.2482
795.309	15.8755
798.202	16.0356
801.095	13.848
803.987	20.7352
806.88	7.42691
809.773	13.5398
812.665	1.17987
815.558	15.6687
818.451	4.21069
821.343	8.62668
824.236	12.4794
827.129	6.16263
830.021	11.9285
832.914	13.4559
835.807	14.8719
838.7	7.56378
841.592	7.78735
844.485	1.97058
847.378	14.7634
850.27	16.223
853.163	16.6054
856.056	5.14093
858.948	2.81128
861.841	15.5198
864.734	18.1217
867.627	6.5257
870.519	27.7188
873.412	12.884
876.305	14.3068
879.197	10.0934
882.09	22.85
884.983	22.6563
887.875	6.56241
890.768	4.86975
893.661	18.6588
896.554	24.7809
899.446	19.8624
902.339	4.13239
905.232	16.4677
908.125	13.5281
911.017	1.86304
913.91	28.2364
916.803	3.91254
919.695	21.1446
922.588	1.06116
925.481	19.3068
928.373	17.4779
931.266	19.4567
934.159	12.5165
937.052	15.4028
939.944	10.0329
942.837	11.1032
945.73	14.9295
948.622	19.6009
951.515	6.13492
954.408	5.52856
957.3	4.67758
960.193	16.0069
963.086	0.772522
965.979	19.0196
968.871	12.6248
971.764	18.039
974.657	0.670654
977.549	0.546722
980.442	12.6011
983.335	9.86468
986.227	19.8427
989.12	24.1779
992.013	19.2627
994.905	24.1187
997.798	13.7662
1000.69	27.1323
1003.58	23.6397
1006.48	5.16852
1009.37	9.79309
1012.26	16.2569
1015.15	21.7851
1018.05	19.728
1020.94	11.1313
1023.83	21.5993
1026.72	21.1236
1029.62	16.3923
1032.51	6.24585
1035.4	2.92831
1038.3	0.920166
1041.19	4.40012
1044.08	14.3965
1046.97	11.8232
1049.87	14.9682
1052.76	6.52673
1055.65	12.515
1058.55	19.9962
1061.44	12.2712
1064.33	3.82468
1067.22	2.59933
1070.12	14.994
1073.01	6.33173
1075.9	22.884
1078.79	11.5915
1081.69	21.5849
1084.58	2.53223
1087.47	18.8312
1090.37	17.1125
1093.26	5.42368
1096.15	7.80811
1099.04	7.32025
1101.93	18.3548
1104.83	17.3888
1107.72	15.9596
1110.61	4.37707
1113.51	8.9053
1116.4	17.9391
1119.29	27.0365
1122.18	11.5777
1125.08	8.34375
1127.97	12.2446
1130.86	13.5313
1133.76	8.32611
1136.65	15.7264
1139.54	5.46776
1142.43	15.989
1145.33	14.1366
1148.22	15.8538
1151.11	2.83192
1154	9.60156
1156.9	12.58
1159.79	19.1273
1162.68	15.5635
1165.58	5.99026
1168.47	10.4651
1171.36	11.5265
1174.25	16.0943
1177.15	0.482742
1180.04	13.7644
1182.93	8.18674
1185.82	0.149277
1188.72	21.9933
1191.61	19.9624
1194.5	12.5504
1197.39	26.3726
1200.29	13.4412
1203.18	9.27303
1206.07	1.22763
1208.96	30.7767
1211.86	26.8201
1214.75	11.2823
1217.64	15.4057
1220.54	15.4604
1223.43	25.7733
1226.32	16.5171
1229.21	19.1634
1232.11	16.1298
1235	4.53709
1237.89	0
