Measurement: Raman, 532 nm, unoriented, Raman Data Processed
Mineral: Merlinoite
Rruff sample: R130095
Ideal chemistry: K_5_Ca_2_(Si_23_Al_9_)O_64_24H_2_O
Locality: Pollena quarry, Vesuvius, Napoli, Campania, Italy
Source: Donald Doell
Description: Sprays and clusters of colorless prismatic crystals associated with calcite. Merlinoite crystals are twinned with 90 deg rotations around c-axis.
Raman shift (cm-1)	intensity
89.8438	0
93.2186	4.28834
96.5934	0.473842
99.9682	2.06437
103.343	2.05459
106.718	4.5137
110.093	5.06292
113.468	5.95212
116.842	8.20746
120.217	11.5735
123.592	14.5791
126.967	13.6654
130.342	11.2175
133.716	9.73715
137.091	7.19884
140.466	0.553906
143.841	0.270469
147.216	0.902844
150.59	0.316596
153.965	0.975436
157.34	1.14501
160.715	0.765639
164.09	0.272062
167.464	0.65696
170.839	2.02127
174.214	2.85892
177.589	6.86464
180.964	14.0234
184.339	19.6428
187.713	26.5942
191.088	34.7647
194.463	41.1183
197.838	41.5404
201.213	40.1591
204.588	42.5886
207.962	44.7607
211.337	40.0453
214.712	34.7888
218.087	30.1942
221.462	27.6877
224.836	26.9517
228.211	22.9893
231.586	18.3645
234.961	16.3214
238.336	13.813
241.71	13.3202
245.085	11.7063
248.46	8.75902
251.835	7.27066
255.21	7.43306
258.585	3.99843
261.959	4.22332
265.334	2.41341
268.709	2.53178
272.084	2.26504
275.459	0.990188
278.834	1.52908
282.208	0.442961
285.583	0.802584
288.958	0.990112
292.333	0.585056
295.708	0.941973
299.082	0.40311
302.457	0.659531
305.832	0.917641
309.207	1.62268
312.582	1.87618
315.957	0.874425
319.331	0.056939
322.706	0.116263
326.081	0.143279
329.456	0.588455
332.831	0.607921
336.205	0.513276
339.58	0.361668
342.955	0.321996
346.33	0.115862
349.705	0.75111
353.079	0.551591
356.454	0.043919
359.829	1.5561
363.204	0.060372
366.579	0.091436
369.954	0.053344
373.328	0.462663
376.703	0.09854
380.078	0.176788
383.453	0.548784
386.828	0.259243
390.202	0.442942
393.577	0.106876
396.952	1.64751
400.327	3.31959
403.702	3.51274
407.077	6.22339
410.451	8.48125
413.826	10.4914
417.201	12.9313
420.576	16.1357
423.951	16.5861
427.325	14.3596
430.7	9.722
434.075	8.691
437.45	8.05691
440.825	7.11946
444.2	9.21218
447.574	11.7681
450.949	15.4756
454.324	22.29
457.699	28.7583
461.074	37.1203
464.448	45.4072
467.823	56.4516
471.198	63.9331
474.573	73.1803
477.948	75.8238
481.322	77.6107
484.697	75.8352
488.072	67.7911
491.447	57.4043
494.822	43.9711
498.197	30.0338
501.571	18.4726
504.946	10.9446
508.321	5.68097
511.696	2.15697
515.071	0.959699
518.446	0.04195
521.82	1.09119
525.195	0.667113
528.57	0.66835
531.945	0.504069
535.32	0.654377
538.694	0.140263
542.069	0.328958
545.444	0.016697
548.819	0.260833
552.194	0.356706
555.568	0.036271
558.943	0.55204
562.318	0.280345
565.693	0.335569
569.068	0.373994
572.443	0.358066
575.817	0.378352
579.192	0.324302
582.567	1.05459
585.942	1.69372
589.317	1.11974
592.691	0.320279
596.066	1.65219
599.441	1.95701
602.816	2.45657
606.191	2.07415
609.566	2.45275
612.94	2.77101
616.315	2.72806
619.69	2.72016
623.065	3.74112
626.44	2.89763
629.814	1.98406
633.189	1.65352
636.564	2.27134
639.939	2.65214
643.314	2.49357
646.688	1.85874
650.063	1.69499
653.438	2.40486
656.813	1.57536
660.188	1.46125
663.563	1.36187
666.937	0.459485
670.312	0.269816
673.687	0.687043
677.062	0.098847
680.437	0.160971
683.812	0.104513
687.186	0.172786
690.561	0.20719
693.936	0.188756
697.311	0.174352
700.686	0.07967
704.06	0.054905
707.435	0.347442
710.81	0.986804
714.185	0.564355
717.56	0.457944
720.934	0.983375
724.309	0.903857
727.684	1.11753
731.059	1.09106
734.434	1.13585
737.808	1.04139
741.183	0.421973
744.558	1.62518
747.933	1.63248
751.308	1.0566
754.683	1.61875
758.057	2.53129
761.432	1.38747
764.807	3.00131
768.182	2.0379
771.557	2.30329
774.932	1.72589
778.306	0.886939
781.681	0.558146
785.056	0.472517
788.431	0.097236
791.806	0.464233
795.18	0.58473
798.555	0.100021
801.93	0.553004
805.305	0.431125
808.68	0.481178
812.054	0.07982
815.429	1.07869
818.804	0.631232
822.179	0.123475
825.554	0.048757
828.929	0.12435
832.303	0.745615
835.678	0.016343
839.053	0.031485
842.428	1.03987
845.803	0.820511
849.178	0.554878
852.552	0.49808
855.927	0.190942
859.302	1.0944
862.677	0.825669
866.052	1.48942
869.426	0.919146
872.801	0.098619
876.176	0.216987
879.551	0.114016
882.926	1.11161
886.301	0.105311
889.675	1.94596
893.05	0.733446
896.425	0.754095
899.8	0.32943
903.175	0.242281
906.549	0.475046
909.924	0.550926
913.299	0.426845
916.674	0.704793
920.049	0.908327
923.423	0.845464
926.798	0.665381
930.173	0.116433
933.548	0.531564
936.923	0.184681
940.298	0.948163
943.672	0.392934
947.047	0.215904
950.422	0.155302
953.797	0.667527
957.172	0.782906
960.546	0.090026
963.921	0.015095
967.296	0.284216
970.671	1.33582
974.046	1.64241
977.42	0.654951
980.795	0.396431
984.17	0.540095
987.545	0.835069
990.92	0.215369
994.295	0.874247
997.669	0.123899
1001.04	0.857634
1004.42	0.279877
1007.79	0.003898
1011.17	0.417294
1014.54	0.558337
1017.92	1.26423
1021.29	0.033462
1024.67	0.040242
1028.04	0.841099
1031.42	0.096438
1034.79	1.3417
1038.17	0.027015
1041.54	0.047054
1044.92	0.283902
1048.29	0.422808
1051.67	0.181097
1055.04	0.308277
1058.42	0.56456
1061.79	0.628768
1065.17	0.773357
1068.54	1.40783
1071.91	2.40013
1075.29	2.05178
1078.66	2.10946
1082.04	2.75648
1085.41	3.54008
1088.79	3.51682
1092.16	3.85928
1095.54	3.87431
1098.91	3.24031
1102.29	3.74637
1105.66	4.6871
1109.04	3.71622
1112.41	3.72909
1115.79	4.08721
1119.16	5.12946
1122.54	3.56742
1125.91	4.25312
1129.29	3.62958
1132.66	2.70531
1136.04	3.57586
1139.41	2.68089
1142.79	2.45073
1146.16	2.50768
1149.54	2.17313
1152.91	1.27737
1156.29	0.961192
1159.66	0.772372
1163.04	0.933337
1166.41	0.077406
1169.79	0.807967
1173.16	0.806412
1176.54	0.772099
1179.91	0.450563
1183.28	0.017919
1186.66	0.006493
1190.03	0.163145
1193.41	0.525275
1196.78	0.083952
1200.16	0.057697
1203.53	0.89016
1206.91	0.623303
1210.28	0.497155
1213.66	0.078915
1217.03	0.580665
1220.41	0.576227
1223.78	0.403067
1227.16	0.36286
1230.53	0.567495
1233.91	1.31607
1237.28	0.004186
1240.66	0.633865
1244.03	0.672255
1247.41	0.448891
1250.78	1.31473
1254.16	0.685697
1257.53	0.251603
1260.9	0.227241
1264.28	1.12098
1267.65	0.277453
1271.03	0.920027
1274.4	0.962602
1277.78	0.640884
1281.15	0.25375
1284.53	0.842537
1287.9	0.056172
1291.28	0.810814
1294.65	0.127526
1298.03	0.542686
1301.4	0.24855
