Measurement: Raman, 780 nm, unoriented, Raman Data Processed
Mineral: Merlinoite
Rruff sample: R130095
Ideal chemistry: K_5_Ca_2_(Si_23_Al_9_)O_64_24H_2_O
Locality: Pollena quarry, Vesuvius, Napoli, Campania, Italy
Source: Donald Doell
Description: Sprays and clusters of colorless prismatic crystals associated with calcite. Merlinoite crystals are twinned with 90 deg rotations around c-axis.
Raman shift (cm-1)	intensity
107.591	0
110.966	2.9014
114.341	4.08441
117.716	6.77151
121.091	16.3887
124.466	29.1027
127.84	42.8781
131.215	29.217
134.59	31.8347
137.965	41.8273
141.34	34.0084
144.714	28.9565
148.089	22.1884
151.464	16.4547
154.839	10.1568
158.214	6.43108
161.589	2.51004
164.963	1.26694
168.338	0.335587
171.713	0.946472
175.088	1.02331
178.463	0.049194
181.838	0.457611
185.212	2.33339
188.587	4.27876
191.962	3.41025
195.337	5.91101
198.712	9.36153
202.086	8.62082
205.461	10.1436
208.836	12.8798
212.211	12.3816
215.586	11.5374
218.96	11.7971
222.335	11.3306
225.71	10.4931
229.085	10.9646
232.46	10.5278
235.834	9.62645
239.209	11.658
242.584	10.6035
245.959	10.1095
249.334	9.32745
252.709	6.97311
256.083	6.04768
259.458	7.29562
262.833	5.89241
266.208	5.37547
269.583	6.74562
272.957	6.41229
276.332	7.98811
279.707	9.44858
283.082	8.2256
286.457	8.73308
289.832	7.86855
293.206	6.69843
296.581	7.60783
299.956	7.7095
303.331	7.86545
306.706	7.2413
310.08	7.91434
313.455	5.47272
316.83	5.82771
320.205	5.90733
323.58	3.98862
326.954	2.97878
330.329	2.94428
333.704	2.50047
337.079	1.71745
340.454	1.90904
343.829	0.860474
347.203	0.275421
350.578	0.666595
353.953	0.842773
357.328	1.18054
360.703	0.747604
364.077	0.259018
367.452	0.13829
370.827	0.712112
374.202	0.454315
377.577	0.230225
380.952	0.599106
384.326	1.07285
387.701	0.336105
391.076	1.55786
394.451	0.914413
397.826	1.87869
401.2	3.40456
404.575	2.10461
407.95	3.99202
411.325	5.63267
414.7	6.89523
418.075	10.9582
421.449	10.5801
424.824	11.1215
428.199	12.5214
431.574	7.32678
434.949	6.43552
438.323	5.44438
441.698	6.80057
445.073	9.00519
448.448	12.5574
451.823	17.0612
455.197	22.0269
458.572	29.563
461.947	36.1147
465.322	45.6699
468.697	53.1525
472.072	60.2661
475.446	65.688
478.821	68.2033
482.196	67.1413
485.571	67.1113
488.946	58.3976
492.32	46.4146
495.695	33.4778
499.07	22.4821
502.445	14.3121
505.82	8.66258
509.195	5.79115
512.569	3.4399
515.944	1.32487
519.319	1.9847
522.694	0.29126
526.068	0.238533
529.443	0.75296
532.818	0.223793
536.193	0.331612
539.568	0.437531
542.943	0.381485
546.317	1.84641
549.692	2.13132
553.067	4.85001
556.442	2.91996
559.817	1.48344
563.192	1.00227
566.566	0.028191
569.941	0.013237
573.316	0.80024
576.691	0.207726
580.066	0.83493
583.44	1.26751
586.815	1.97717
590.19	1.16479
593.565	1.71749
596.94	0.519119
600.314	1.39819
603.689	1.47633
607.064	1.52261
610.439	1.91375
613.814	2.87787
617.188	3.01369
620.563	3.96082
623.938	2.98927
627.313	1.29456
630.688	0.950035
634.063	1.63579
637.437	2.00473
640.812	2.47868
644.187	1.32449
647.562	2.10152
650.937	1.54954
654.312	2.09991
657.686	1.32317
661.061	0.332588
664.436	0.672325
667.811	0.96109
671.186	0.567459
674.56	0.753502
677.935	1.11321
681.31	0.503258
684.685	0.691147
688.06	0.902977
691.434	1.12515
694.809	0.453201
698.184	0.960747
701.559	0.361664
704.934	0.851883
708.308	2.33849
711.683	2.92969
715.058	2.00872
718.433	1.77759
721.808	2.32396
725.183	3.35869
728.557	2.10487
731.932	2.30565
735.307	3.49779
738.682	2.79665
742.057	4.0623
745.432	2.75783
748.806	2.33034
752.181	2.69493
755.556	2.69058
758.931	1.81564
762.306	3.06173
765.68	2.64083
769.055	3.21861
772.43	1.76061
775.805	0.764153
779.18	1.87379
782.554	0.735352
785.929	0.465736
789.304	0.995232
792.679	0.472443
796.054	0.503708
799.428	0.98745
802.803	0.364471
806.178	0.027725
809.553	2.43211
812.928	0.29348
816.303	0.549423
819.677	1.37197
823.052	1.48419
826.427	1.73703
829.802	0.446884
833.177	0.855011
836.552	1.72514
839.926	0.983765
843.301	1.56644
846.676	1.69405
850.051	1.84544
853.426	1.84983
856.8	1.83862
860.175	1.76374
863.55	1.9623
866.925	1.7568
870.3	1.52608
873.674	2.05601
877.049	2.25034
880.424	0.675987
883.799	1.14282
887.174	0.784096
890.548	0.575211
893.923	0.815269
897.298	0.682037
900.673	0.776207
904.048	0.393974
907.423	0.775673
910.797	1.43778
914.172	0.931335
917.547	0.761978
920.922	0.165916
924.297	0.801552
927.671	0.831543
931.046	1.67088
934.421	1.63403
937.796	1.16588
941.171	1.28567
944.545	1.3895
947.92	1.57988
951.295	0.740799
954.67	2.27017
958.045	0.81218
961.42	2.07298
964.794	2.69106
968.169	2.66491
971.544	0.51403
974.919	1.39134
978.294	2.46728
981.668	0.822716
985.043	1.10241
988.418	0.524742
991.793	0.234367
995.168	1.13342
998.543	1.88486
1001.92	1.33007
1005.29	1.10871
1008.67	0.217079
1012.04	0.221764
1015.42	0.356522
1018.79	0.829819
1022.17	1.21768
1025.54	0.329277
1028.92	0.408028
1032.29	0.121315
1035.67	0.990189
1039.04	0.183884
1042.41	0.837227
1045.79	0.862717
1049.16	0.716438
1052.54	2.6551
1055.91	0.851067
1059.29	2.01619
1062.66	2.0074
1066.04	2.67212
1069.41	2.58353
1072.79	2.34164
1076.16	2.50742
1079.54	3.81905
1082.91	2.56631
1086.29	3.64455
1089.66	4.07524
1093.04	2.82693
1096.41	2.3861
1099.79	1.89133
1103.16	1.82888
1106.54	3.33633
1109.91	1.36384
1113.29	2.56862
1116.66	0.907669
1120.04	0.009583
1123.41	0.798737
1126.79	0.747665
1130.16	1.06782
1133.54	0.994698
1136.91	0.224174
1140.29	0.780304
1143.66	0.603065
1147.03	1.70072
1150.41	1.22102
1153.78	0.428627
1157.16	0.432442
1160.53	1.7712
1163.91	0.461235
1167.28	0.218246
1170.66	1.60203
1174.03	0.657745
1177.41	1.33258
1180.78	0.622131
1184.16	1.10361
1187.53	1.60532
1190.91	1.4335
1194.28	2.01765
1197.66	1.12956
1201.03	1.23821
1204.41	0.884056
1207.78	1.81924
1211.16	0.437965
1214.53	0.828735
1217.91	1.27039
1221.28	1.32929
1224.65	0.255508
1228.03	1.26238
1231.4	0.078934
1234.78	0.897591
1238.15	2.30598
1241.53	0.367012
1244.9	1.11681
1248.28	0.333183
1251.65	0.243256
1255.03	0.551697
1258.4	1.4323
1261.78	1.4315
1265.15	0.332062
1268.53	0.990089
1271.9	1.29565
1275.28	0.469627
1278.65	0.178246
1282.03	0.297623
