Measurement: Raman, 780 nm, unoriented, Raman Data Processed
Mineral: Merrillite
Rruff sample: R150063
Ideal chemistry: Ca_9_NaMg(PO_4_)_7_
Locality: Suizhou L6 chondrite, Dayanpo, 12.5 km southeast of the city of Suizhou, Hubei Province, China (35°18’N, 113°35’E)
Source: Xiande Xie and Xiangping Gu
Description: Colorless aggregates of irregular grains, associated with forsterite, enstatite, maskelynite, FeNi metal, troilite, chlorapatite, chromite and ilmenite.
Measured chemistry: Ca_9.00_Na_0.98_(Mg_0.95_Fe_0.06_)_1.01_(P_1.00_O_4_)_7_
Raman shift (cm-1)	intensity
90.5957	0
93.4884	24.3693
96.3811	34.3677
99.2738	32.819
102.166	30.9535
105.059	16.9677
107.952	18.5503
110.845	14.9914
113.737	18.1501
116.63	10.5402
119.523	6.74611
122.415	0.605102
125.308	0.793105
128.201	1.16659
131.094	1.65447
133.986	0.52945
136.879	1.94985
139.772	6.93185
142.664	14.6357
145.557	21.7326
148.45	47.548
151.342	35.7092
154.235	51.98
157.128	53.5679
160.02	63.7938
162.913	64.8933
165.806	65.8959
168.698	59.1198
171.591	45.8388
174.484	35.8986
177.377	29.6299
180.269	24.0494
183.162	11.5385
186.055	2.43671
188.947	1.58326
191.84	2.29971
194.733	4.76275
197.625	8.16756
200.518	19.6789
203.411	37.2481
206.304	55.6934
209.196	64.1663
212.089	80.1387
214.982	87.9695
217.874	104.067
220.767	97.1377
223.66	101.483
226.553	92.0829
229.445	83.4222
232.338	82.5763
235.231	79.371
238.123	74.0292
241.016	67.9767
243.909	68.9836
246.801	65.4058
249.694	60.3703
252.587	57.712
255.48	54.5263
258.372	54.3657
261.265	51.7064
264.158	44.1543
267.05	41.1623
269.943	38.8513
272.836	26.4883
275.728	25.3449
278.621	13.7495
281.514	12.3284
284.406	3.69842
287.299	4.59988
290.192	4.87582
293.085	3.3577
295.977	1.02456
298.87	0.490645
301.763	8.09646
304.655	0.014816
307.548	3.85638
310.441	2.93661
313.334	10.2463
316.226	7.58048
319.119	2.63955
322.012	4.24656
324.904	13.3952
327.797	28.4119
330.69	48.9989
333.582	75.3021
336.475	118.985
339.368	143.536
342.26	159.892
345.153	169.62
348.046	159.069
350.938	148.746
353.831	141.321
356.724	136.387
359.617	130.04
362.509	153.802
365.402	188.184
368.295	229.69
371.187	266.171
374.08	309.128
376.973	339.886
379.865	337.84
382.758	330.283
385.651	300.961
388.544	266.442
391.436	237.999
394.329	216.82
397.222	194.807
400.114	204.178
403.007	210.211
405.9	251.787
408.793	285.22
411.685	338.721
414.578	382.363
417.471	423.437
420.363	438.255
423.256	431.924
426.149	411.698
429.041	366.404
431.934	310.996
434.827	263.261
437.719	207.708
440.612	159.017
443.505	122.987
446.398	101.267
449.29	71.3732
452.183	57.1959
455.076	37.363
457.968	21.974
460.861	2.90148
463.754	2.33326
466.647	10.4462
469.539	5.00163
472.432	0.48713
475.325	6.78521
478.217	0.377828
481.11	3.47383
484.003	2.74832
486.895	3.35052
489.788	1.13844
492.681	8.16339
495.573	1.5744
498.466	2.00104
501.359	5.05996
504.252	2.60609
507.144	11.8918
510.037	17.0939
512.93	26.2057
515.822	37.6078
518.715	50.1549
521.608	61.7139
524.5	73.6035
527.393	88.2343
530.286	101.773
533.178	110.425
536.071	116.671
538.964	126.132
541.857	130.257
544.749	128.856
547.642	126.842
550.535	115.263
553.427	112.015
556.32	104.83
559.213	96.2403
562.106	90.8025
564.998	83.716
567.891	85.6993
570.784	83.3223
573.676	78.0586
576.569	65.5227
579.462	57.6217
582.354	48.6025
585.247	40.6924
588.14	32.0188
591.033	23.1691
593.925	24.3819
596.818	21.8284
599.711	13.5587
602.603	19.3775
605.496	24.4975
608.389	29.0219
611.281	31.0596
614.174	37.3309
617.067	37.7089
619.96	44.9099
622.852	47.2486
625.745	42.0667
628.638	35.8777
631.53	33.1283
634.423	28.8668
637.316	19.7613
640.208	13.8194
643.101	6.0644
645.994	5.21786
648.886	1.22931
651.779	0.707836
654.672	3.29754
657.564	1.70605
660.457	2.42378
663.35	0.332273
666.243	2.37667
669.135	0.310204
672.028	0.50947
674.921	0.847673
677.813	1.00435
680.706	0.690196
683.599	0.807516
686.491	1.64267
689.384	0.797969
692.277	4.70666
695.17	2.09496
698.062	5.7123
700.955	7.53618
703.848	10.2042
706.74	17.0819
709.633	21.0514
712.526	20.028
715.418	22.111
718.311	23.0263
721.204	28.8216
724.097	26.5489
726.989	25.3231
729.882	32.1281
732.775	28.8336
735.667	32.5092
738.56	30.5623
741.453	29.9584
744.346	27.3203
747.238	29.8888
750.131	25.7113
753.024	26.9638
755.916	25.4425
758.809	24.86
761.702	23.1151
764.594	22.0342
767.487	19.506
770.38	18.2064
773.273	12.7114
776.165	14.3242
779.058	12.3871
781.951	9.78804
784.843	6.83482
787.736	9.10907
790.629	6.7297
793.521	7.60001
796.414	7.60443
799.307	5.1008
802.199	9.9858
805.092	6.93062
807.985	9.988
810.878	10.8406
813.77	12.9205
816.663	16.3723
819.556	14.4839
822.448	17.6356
825.341	16.3889
828.234	13.0578
831.126	10.7462
834.019	9.58835
836.912	7.05421
839.804	5.05874
842.697	8.91263
845.59	3.41104
848.483	3.32783
851.375	0.13592
854.268	1.01484
857.161	1.57667
860.053	0.638926
862.946	0.283682
865.839	1.13014
868.731	0.775457
871.624	0.786521
874.517	0.544693
877.409	0.413157
880.302	2.54921
883.195	3.35508
886.088	7.86425
888.98	9.47696
891.873	10.5116
894.766	13.6504
897.658	16.3033
900.551	17.1647
903.444	19.6945
906.337	17.5226
909.229	18.4082
912.122	18.3184
915.015	18.4146
917.907	12.4845
920.8	13.5167
923.693	7.87836
926.585	5.71826
929.478	3.67991
932.371	1.59377
935.264	2.2325
938.156	4.37583
941.049	2.54131
943.942	3.13867
946.834	2.33571
949.727	3.65861
952.62	14.5373
955.512	39.4943
958.405	96.5295
961.298	102.739
964.191	24.3064
967.083	16.7437
969.976	22.827
972.869	55.2531
975.761	101.94
978.654	38.0928
981.547	16.3382
984.439	9.1765
987.332	7.49335
990.225	6.33298
993.117	9.79963
996.01	8.34573
998.903	7.84586
1001.8	10.7821
1004.69	8.56672
1007.58	8.73791
1010.47	7.31178
1013.37	8.03785
1016.26	6.63667
1019.15	10.5048
1022.04	9.18353
1024.94	8.13744
1027.83	5.88365
1030.72	5.55201
1033.62	6.13102
1036.51	0.862586
1039.4	1.25672
1042.29	2.61531
1045.19	0.715051
1048.08	0.320551
1050.97	1.73375
1053.86	1.23111
1056.76	0.617435
1059.65	6.31128
1062.54	5.46797
1065.43	8.43393
1068.33	9.23592
1071.22	13.8544
1074.11	10.3317
1077.01	10.0211
1079.9	14.442
1082.79	20.116
1085.68	16.2324
1088.58	14.3302
1091.47	6.27767
1094.36	1.6149
1097.26	0.453102
1100.15	5.47534
1103.04	6.02235
