Measurement: Raman, 532 nm, unoriented, Raman Data Processed
Mineral: Merrillite
Rruff sample: R150063
Ideal chemistry: Ca_9_NaMg(PO_4_)_7_
Locality: Suizhou L6 chondrite, Dayanpo, 12.5 km southeast of the city of Suizhou, Hubei Province, China (35°18’N, 113°35’E)
Source: Xiande Xie and Xiangping Gu
Description: Colorless aggregates of irregular grains, associated with forsterite, enstatite, maskelynite, FeNi metal, troilite, chlorapatite, chromite and ilmenite.
Measured chemistry: Ca_9.00_Na_0.98_(Mg_0.95_Fe_0.06_)_1.01_(P_1.00_O_4_)_7_
Raman shift (cm-1)	intensity
89.7832	0
93.158	13.8948
96.5328	17.0897
99.9077	29.5845
103.282	10.2246
106.657	1.39377
110.032	11.5982
113.407	24.1068
116.782	35.2654
120.157	36.9016
123.531	41.8246
126.906	47.6885
130.281	53.6067
133.656	46.86
137.031	24.7373
140.405	17.1186
143.78	16.5559
147.155	18.0325
150.53	17.6778
153.905	16.726
157.28	13.9945
160.654	19.7954
164.029	31.3479
167.404	39.3983
170.779	39.3871
174.154	44.7351
177.528	65.8726
180.903	82.5577
184.278	58.3237
187.653	27.6722
191.028	8.43866
194.403	0.701324
197.777	0.17569
201.152	0.506165
204.527	0.557373
207.902	2.77695
211.277	6.2161
214.651	6.92105
218.026	7.93884
221.401	15.0067
224.776	22.7881
228.151	18.5765
231.525	9.69672
234.9	15.4297
238.275	19.0353
241.65	23.6284
245.025	29.9737
248.4	24.5892
251.774	10.2805
255.149	4.38385
258.524	4.77271
261.899	9.36703
265.274	16.52
268.649	25.3538
272.023	36.0734
275.398	34.6778
278.773	32.4572
282.148	29.5178
285.523	27.7686
288.897	26.7384
292.272	23.6622
295.647	24.2773
299.022	22.9941
302.397	21.3884
305.772	19.254
309.146	14.736
312.521	9.71847
315.896	3.09369
319.271	1.36252
322.646	1.82355
326.02	2.97775
329.395	1.31912
332.77	1.01147
336.145	9.52862
339.52	20.6049
342.894	30.511
346.269	42.0747
349.644	49.1138
353.019	52.8805
356.394	52.8099
359.769	59.5862
363.143	61.3273
366.518	38.7623
369.893	15.3075
373.268	6.41379
376.643	5.0166
380.017	2.69345
383.392	0.901093
386.767	1.05075
390.142	6.71078
393.517	24.9216
396.892	48.5455
400.266	78.7251
403.641	118.061
407.016	158.756
410.391	171.05
413.766	140.031
417.14	92.3214
420.515	54.2146
423.89	26.696
427.265	17.9111
430.64	25.1308
434.014	41.8394
437.389	63.7716
440.764	93.5652
444.139	125.186
447.514	157.793
450.889	141.384
454.263	90.0167
457.638	56.9538
461.013	42.2317
464.388	33.7602
467.763	28.4963
471.137	26.9191
474.512	26.6568
477.887	30.9002
481.262	34.9329
484.637	34.1523
488.012	33.2519
491.386	31.0894
494.761	24.0255
498.136	17.4322
501.511	12.6522
504.886	5.73389
508.26	2.46991
511.635	2.54944
515.01	4.59442
518.385	2.34625
521.76	2.92438
525.135	10.098
528.509	16.7472
531.884	26.8331
535.259	41.3276
538.634	47.9016
542.009	55.6503
545.384	65.8298
548.758	74.4768
552.133	83.6837
555.508	71.7429
558.883	45.8467
562.258	33.8251
565.632	27.2806
569.007	9.19251
572.382	0.370605
575.757	1.96393
579.132	4.53693
582.506	20.3648
585.881	46.0935
589.256	82.9532
592.631	119.595
596.006	135.833
599.381	111.239
602.755	100.998
606.13	102.161
609.505	76.347
612.88	76.2361
616.255	76.4438
619.63	87.5311
623.004	97.1094
626.379	75.5906
629.754	45.5002
633.129	26.179
636.504	15.0103
639.878	8.8349
643.253	5.2287
646.628	7.73462
650.003	7.63965
653.378	9.07593
656.752	9.17902
660.127	8.56665
663.502	8.69806
666.877	7.87634
670.252	4.79785
673.626	4.54742
677.001	0.868042
680.376	1.42017
683.751	1.92651
687.126	0.676147
690.501	0.892029
693.875	0.285767
697.25	2.86792
700.625	3.06158
704	5.04333
707.375	7.05621
710.75	12.7133
714.124	9.34412
717.499	14.374
720.874	15.9518
724.249	18.7878
727.624	17.4647
730.998	13.5075
734.373	11.1434
737.748	10.9261
741.123	9.84808
744.498	12.9421
747.872	16.5441
751.247	26.7074
754.622	30.465
757.997	31.5008
761.372	29.6354
764.747	27.0416
768.121	20.6526
771.496	16.3224
774.871	12.8925
778.246	15.7332
781.621	10.599
784.995	11.8087
788.37	6.50214
791.745	4.82257
795.12	1.40478
798.495	0.905945
801.87	0.714355
805.244	1.22577
808.619	2.12799
811.994	1.11444
815.369	1.12567
818.744	4.67334
822.119	3.07629
825.493	2.09112
828.868	0.547913
832.243	1.90967
835.618	0.519409
838.993	0.288269
842.367	2.0202
845.742	3.51813
849.117	4.27271
852.492	3.62866
855.867	5.30023
859.241	5.87268
862.616	6.69782
865.991	7.95679
869.366	6.97864
872.741	8.14477
876.115	7.86487
879.49	5.64807
882.865	6.3479
886.24	6.74316
889.615	6.25946
892.99	6.74829
896.364	5.04169
899.739	5.30151
903.114	1.29578
906.489	0.278992
909.864	1.38708
913.239	0.152039
916.613	1.49872
919.988	1.41772
923.363	0.564941
926.738	1.30383
930.113	0.641113
933.487	2.9093
936.862	8.53937
940.237	14.7902
943.612	34.4035
946.987	87.92
950.361	235.665
953.736	511.798
957.111	1133.22
960.486	1700.61
963.861	641.319
967.236	402.253
970.61	633.429
973.985	1246.03
977.36	1259.77
980.735	317.874
984.11	202.179
987.485	143.23
990.859	76.8018
994.234	54.5845
997.609	44.4929
1000.98	42.1626
1004.36	39.1877
1007.73	42.4966
1011.11	51.8354
1014.48	70.6913
1017.86	97.6033
1021.23	73.6172
1024.61	69.9911
1027.98	90.6242
1031.36	94.4735
1034.73	66.0379
1038.11	20.84
1041.48	20.4067
1044.86	31.6129
1048.23	45.5557
1051.61	8.11737
1054.98	3.24866
1058.36	2.37799
1061.73	4.15057
1065.11	4.20996
1068.48	24.1296
1071.86	26.3842
1075.23	35.9315
1078.6	81.4442
1081.98	172.643
1085.35	161.899
1088.73	25.9467
1092.1	0.600159
1095.48	5.69598
1098.85	0.336365
1102.23	3.7655
1105.6	12.7728
1108.98	14.1987
1112.35	12.5804
1115.73	3.94196
1119.1	0.47345
1122.48	4.40076
1125.85	0.755249
1129.23	5.73096
1132.6	13.0338
1135.98	6.7641
1139.35	1.85303
1142.73	3.05627
1146.1	1.43854
1149.48	3.37897
1152.85	4.6449
1156.22	6.49341
1159.6	5.1687
1162.97	5.39636
1166.35	9.00299
1169.72	7.11603
1173.1	9.48804
1176.47	12.0648
1179.85	11.2206
1183.22	10.5779
1186.6	13.9633
1189.97	11.6585
1193.35	13.5992
1196.72	10.6304
1200.1	11.4628
1203.47	13.2759
1206.85	7.87671
1210.22	8.65759
1213.6	7.91449
1216.97	7.76007
1220.35	8.77582
1223.72	8.32648
1227.1	6.93054
1230.47	3.55292
1233.85	6.97876
1237.22	3.69861
1240.6	4.34851
1243.97	4.74982
1247.35	4.76263
1250.72	4.45941
1254.1	2.47174
1257.47	1.27789
1260.85	1.63538
1264.22	1.48022
1267.59	2.12237
1270.97	0.923828
1274.34	2.3714
1277.72	1.62793
1281.09	3.27026
1284.47	1.63538
1287.84	1.13812
1291.22	0.07074
1294.59	1.80444
1297.97	2.22138
1301.34	0.454163
