Measurement: Raman, 532 nm, unoriented, Raman Data Processed
Mineral: Merwinite
Rruff sample: R070195
Ideal chemistry: Ca_3_Mg(SiO_4_)_2_
Locality: Commercial Quarry, Riverside County, California, USA
Source: California Institute of Technology
Description: Light gray massive
Measured chemistry: Ca_3.00_(Mg_0.98_Fe^2+^_0.02_)_Î£=1_(Si_1.00_O_4_)_2_
Raman shift (cm-1)	intensity
155.003	0
157.895	123.625
160.788	51.3955
163.681	16.9841
166.574	5.28992
169.466	123.986
172.359	83.418
175.252	39.9933
178.144	5.87195
181.037	4.29895
183.93	21.1916
186.822	150.587
189.715	329.846
192.608	255.731
195.501	172.132
198.393	206.182
201.286	281.591
204.179	451.163
207.071	593.599
209.964	593.31
212.857	489.871
215.75	454.695
218.642	474.084
221.535	551.08
224.428	667.168
227.32	643.418
230.213	367.71
233.106	163.17
235.998	99.3481
238.891	65.2089
241.784	118.056
244.677	182.103
247.569	308.258
250.462	435.375
253.355	498.547
256.247	644.249
259.14	795.102
262.033	921.477
264.925	1047.55
267.818	1209.99
270.711	1332.54
273.603	1189.68
276.496	1008.75
279.389	808.725
282.282	628.652
285.174	416.301
288.067	213.405
290.96	111.737
293.852	9.30542
296.745	2.06653
299.638	29.8042
302.531	2.41931
305.423	18.5719
308.316	39.276
311.209	61.6935
314.101	130.778
316.994	277.819
319.887	462.346
322.779	734.908
325.672	1058.25
328.565	1303.15
331.458	1133.97
334.35	701.45
337.243	390.01
340.136	281.978
343.028	270.953
345.921	245.665
348.814	143.339
351.707	71.6277
354.599	2.02234
357.492	40.1307
360.385	25.0237
363.277	12.3766
366.17	50.1403
369.063	142.883
371.955	225.554
374.848	315.476
377.741	465.846
380.634	695.773
383.526	1054.71
386.419	1443.66
389.312	1810.37
392.204	1758.27
395.097	1396.16
397.99	1110.03
400.882	1068.8
403.775	1169.79
406.668	1383.43
409.56	1749.43
412.453	2404.85
415.346	3279.45
418.239	4252.1
421.131	4754.57
424.024	4156.03
426.917	2715.22
429.809	1630.87
432.702	1040.15
435.595	708.233
438.488	560.523
441.38	490.781
444.273	435.101
447.166	373.465
450.058	360.203
452.951	292.966
455.844	205.207
458.736	133.414
461.629	63.9799
464.522	31.0433
467.414	9.00653
470.307	6.88214
473.2	11.321
476.093	6.43201
478.985	22.8344
481.878	20.4974
484.771	5.39557
487.663	28.2584
490.556	0.681763
493.449	28.392
496.341	56.0459
499.234	110.144
502.127	163.695
505.02	293.168
507.912	450.439
510.805	550.996
513.698	719.216
516.59	727.536
519.483	701.926
522.376	845.621
525.269	1110.85
528.161	1247.37
531.054	1170.96
533.947	1282.23
536.839	1537.55
539.732	1652.16
542.625	1428.11
545.517	1297.48
548.41	933.197
551.303	599.156
554.196	515.231
557.088	551.232
559.981	705.04
562.874	1000.79
565.766	1502.24
568.659	2197.54
571.552	3021.61
574.444	3712.83
577.337	3596.74
580.23	2500.62
583.122	1381.67
586.015	755.715
588.908	481.453
591.801	283.595
594.693	168.399
597.586	118.945
600.479	72.3907
603.371	37.6506
606.264	23.5783
609.157	22.2392
612.049	5.6247
614.942	3.19385
617.835	0.655823
620.728	1.19373
623.62	2.8418
626.513	20.3375
629.406	2.35913
632.298	9.54785
635.191	20.5599
638.084	25.5167
640.976	27.3673
643.869	37.4525
646.762	62.6428
649.655	95.4096
652.547	111.754
655.44	143.541
658.333	153.429
661.225	135.792
664.118	153.728
667.011	190.159
669.904	164.902
672.796	207.617
675.689	193.242
678.582	202.096
681.474	176.084
684.367	162.463
687.26	121.028
690.152	96.7688
693.045	77.7972
695.938	88.7481
698.831	76.5087
701.723	54.9432
704.616	77.1286
707.509	62.7848
710.401	74.4985
713.294	71.53
716.187	56.6993
719.079	85.2999
721.972	85.4142
724.865	108.74
727.758	79.9066
730.65	102.716
733.543	136.16
736.436	150.935
739.328	127.174
742.221	138.82
745.114	141.807
748.006	133.107
750.899	113.052
753.792	122.424
756.684	124.24
759.577	94.3231
762.47	89.6798
765.363	59.0732
768.255	61.9557
771.148	61.5855
774.041	41.7263
776.933	35.8687
779.826	12.7064
782.719	1.39075
785.611	12.9072
788.504	44.2395
791.397	25.7034
794.29	27.4116
797.182	16.8721
800.075	1.58533
802.968	1.2594
805.86	3.98743
808.753	17.4396
811.646	52.2754
814.538	77.4702
817.431	143.32
820.324	136.818
823.217	69.933
826.109	13.1549
829.002	1.48144
831.895	27.6954
834.787	50.6407
837.68	105.293
840.573	235.869
843.466	421.191
846.358	693.158
849.251	1029.65
852.144	1467.36
855.036	2172.29
857.929	3455.75
860.822	5623.86
863.715	8354.93
866.607	11451
869.5	13164.4
872.393	11943.6
875.285	12018.4
878.178	15598.5
881.071	22332.2
883.963	29284.2
886.856	22903.1
889.749	11299.9
892.641	6148.95
895.534	4533.12
898.427	4581.17
901.32	5920.06
904.212	8123.05
907.105	10198.3
909.998	10017.3
912.89	8680.79
915.783	8475.51
918.676	8054.86
921.568	5896.88
924.461	3567.22
927.354	2363.18
930.247	2112.39
933.139	2288.53
936.032	2319.77
938.925	1586.62
941.817	810.096
944.71	382.81
947.603	207.532
950.495	97.3166
953.388	29.2273
956.281	60.468
959.174	56.6208
962.066	63.8556
964.959	73.1175
967.852	43.9165
970.744	12.2658
973.637	89.6536
976.53	249.371
979.423	488.178
982.315	845.871
985.208	1174.56
988.101	1383.91
990.993	1195.21
993.886	1101.02
996.779	1381.54
999.671	2219.85
1002.56	3834.62
1005.46	5863.02
1008.35	7274.73
1011.24	4887.36
1014.13	2286.32
1017.03	1145.65
1019.92	608.708
1022.81	338.318
1025.71	176.324
1028.6	112.628
1031.49	68.3521
1034.38	25.9951
1037.28	5.11755
1040.17	2.14075
1043.06	22.5358
1045.95	15.83
1048.85	41.084
1051.74	59.0879
1054.63	61.6503
1057.53	120.316
1060.42	243.857
1063.31	389.066
1066.2	654.076
1069.1	945.304
1071.99	1047.33
1074.88	810.487
1077.77	488.931
1080.67	269.045
1083.56	151.458
1086.45	108.323
1089.35	69.5936
1092.24	62.2214
1095.13	62.6421
1098.02	20.4059
1100.92	30.751
1103.81	23.5291
1106.7	5.03625
1109.59	21.3435
1112.49	0.229248
1115.38	8.34668
1118.27	7.52417
1121.16	28.339
1124.06	1.71155
1126.95	31.4485
1129.84	23.9423
1132.74	25.017
1135.63	27.6427
1138.52	43.0908
1141.41	11.4069
1144.31	39.7517
1147.2	60.4989
1150.09	49.0372
1152.98	22.7592
1155.88	52.249
1158.77	18.1515
1161.66	11.8669
1164.56	14.7015
1167.45	21.8312
1170.34	19.1
1173.23	16.0883
1176.13	19.7881
1179.02	6.98377
1181.91	7.61633
1184.8	3.9989
1187.7	6.38403
1190.59	38.723
1193.48	18.5908
1196.38	1.94965
1199.27	12.0157
1202.16	47.2449
1205.05	24.7658
1207.95	21.5388
1210.84	35.4526
1213.73	26.2079
1216.62	36.3275
1219.52	37.2676
1222.41	30.3958
1225.3	20.3506
1228.19	29.8168
1231.09	38.108
1233.98	31.9469
1236.87	33.6296
1239.77	44.5806
1242.66	45.7175
1245.55	44.5701
1248.44	32.4922
1251.34	41.9423
1254.23	20.1842
1257.12	35.4844
1260.01	21.8197
1262.91	19.2908
1265.8	45.3831
1268.69	28.4863
1271.59	48.1797
1274.48	41.5468
1277.37	29.1815
1280.26	15.2918
1283.16	13.1749
1286.05	42.0523
1288.94	10.1316
1291.83	22.4923
1294.73	17.0498
1297.62	21.6906
1300.51	28.4666
1303.4	2.63403
1306.3	13.7374
