Measurement: Raman, 532 nm, unoriented, Raman Data Processed
Mineral: Mesolite
Rruff sample: R040139
Ideal chemistry: Na_2_Ca_2_(Si_9_Al_6_)O_30_8H_2_O
Locality: Lake Superior beach,  41 miles north of Tofte, Minnesota, USA
Source: University of Arizona Mineral Museum
Description: Aggregate of white radiating thin acicular crystals.
Measured chemistry: Na_1.95_Ca_1.89_(Si_9.21_Al_5.82_)O_30_Â·8H_2_O
Raman shift (cm-1)	intensity
149.662	0
153.037	143.002
156.411	495.304
159.786	531.598
163.161	469.116
166.536	571.852
169.911	697.756
173.286	733.204
176.66	721.962
180.035	757.221
183.41	875.985
186.785	694.01
190.16	470.168
193.535	287.941
196.909	288.349
200.284	195.429
203.659	129.111
207.034	0.406494
210.409	36.6773
213.783	71.2024
217.158	11.9529
220.533	103.568
223.908	286.631
227.283	311.879
230.657	226.435
234.032	134.755
237.407	165.657
240.782	213.16
244.157	202.845
247.532	160.744
250.906	108.326
254.281	184.693
257.656	180.899
261.031	135.334
264.406	131.407
267.781	146.893
271.155	133.298
274.53	147.925
277.905	156.917
281.28	244.678
284.655	307.002
288.029	448.154
291.404	574.966
294.779	563.135
298.154	466.414
301.529	307.557
304.904	132.801
308.278	60.781
311.653	20.0459
315.028	16.8267
318.403	22.7007
321.778	14.9531
325.152	85.3809
328.527	79.489
331.902	149.012
335.277	78.9019
338.652	123.721
342.026	0.502441
345.401	44.2002
348.776	43.4238
352.151	64.8726
355.526	49.3091
358.901	28.7017
362.275	26.3027
365.65	63.4819
369.025	117.264
372.4	99.3081
375.775	64.7737
379.149	52.5488
382.524	21.2737
385.899	13.7988
389.274	33.0884
392.649	16.2488
396.024	40.9319
399.398	183.034
402.773	267.703
406.148	416.663
409.523	555.155
412.898	624.346
416.272	606.936
419.647	664.819
423.022	705.964
426.397	704.83
429.772	755.082
433.147	744.644
436.521	867.925
439.896	982.902
443.271	1155.4
446.646	1119.41
450.021	982.713
453.396	641.024
456.77	395.897
460.145	185.723
463.52	65.4988
466.895	17.8347
470.27	16.0666
473.644	22.9558
477.019	10.2922
480.394	50.8713
483.769	101.465
487.144	176.03
490.519	175.136
493.893	242.268
497.268	215.374
500.643	285.457
504.018	328.17
507.393	409.057
510.767	621.874
514.142	987.028
517.517	1612.5
520.892	2660.73
524.267	4085.34
527.641	5676.55
531.016	6767.31
534.391	6332.9
537.766	4206.33
541.141	2375.84
544.516	1442.79
547.89	877.476
551.265	646.06
554.64	479.17
558.015	294.396
561.39	207.626
564.764	179.609
568.139	122.971
571.514	58.5727
574.889	49.7117
578.264	5.40259
581.639	8.32568
585.013	24.1399
588.388	13.4395
591.763	1.76392
595.138	28.8882
598.513	23.3416
601.888	9.13257
605.262	30.8423
608.637	65.7932
612.012	35.9353
615.387	27.9548
618.762	44.3201
622.136	36.6091
625.511	19.4082
628.886	4.25879
632.261	8.7749
635.636	8.89331
639.01	37.449
642.385	19.9905
645.76	32.4221
649.135	52.977
652.51	77.5112
655.885	106.461
659.259	129.346
662.634	161.711
666.009	149.823
669.384	125.678
672.759	80.6538
676.134	74.0693
679.508	55.1321
682.883	31.3291
686.258	69.8472
689.633	84.8064
693.008	108.232
696.382	99.5554
699.757	142.838
703.132	223.028
706.507	348.678
709.882	377.396
713.256	421.88
716.631	258.937
720.006	188.286
723.381	101.533
726.756	89.9067
730.131	39.9719
733.505	74.7639
736.88	64.7866
740.255	73.1199
743.63	127.164
747.005	146.555
750.38	184.165
753.754	216.135
757.129	199.259
760.504	185.616
763.879	159.367
767.254	105.556
770.628	64.355
774.003	21.0317
777.378	43.3406
780.753	8.51855
784.128	2.73413
787.503	12.165
790.877	9.07959
794.252	17.3337
797.627	54.4678
801.002	8.47754
804.377	35.6794
807.751	38.1843
811.126	37.4421
814.501	62.0073
817.876	86.9971
821.251	65.9917
824.625	28.6807
828	52.5566
831.375	43.3391
834.75	84.8181
838.125	32.3425
841.5	75.3311
844.874	31.4395
848.249	77.0566
851.624	56.6738
854.999	59.605
858.374	36.7353
861.749	91.75
865.123	86.4426
868.498	38.8171
871.873	63.8198
875.248	57.5203
878.623	45.1399
881.997	45.4277
885.372	56.4636
888.747	35.1282
892.122	64.1475
895.497	18.4873
898.871	31.2056
902.246	41.0037
905.621	4.65283
908.996	21.8135
912.371	0.61792
915.746	41.206
919.12	3.36353
922.495	39.8023
925.87	112.964
929.245	103.79
932.62	152.551
935.995	189.85
939.369	197.512
942.744	124.704
946.119	78.1074
949.494	26.5691
952.869	3.40918
956.243	2.00879
959.618	11.3569
962.993	20.8657
966.368	66.1704
969.743	67.2258
973.117	148.416
976.492	151.534
979.867	135.654
983.242	83.6587
986.617	30.5037
989.992	80.0049
993.366	81.821
996.741	67.9817
1000.12	91.9336
1003.49	49.6267
1006.87	59.2871
1010.24	107.876
1013.62	33.4941
1016.99	52.4807
1020.37	68.3755
1023.74	68.1946
1027.12	142.434
1030.49	215.907
1033.86	360.705
1037.24	447.905
1040.61	629.164
1043.99	742.901
1047.36	623.11
1050.74	393.512
1054.11	190.314
1057.49	115.344
1060.86	59.9934
1064.24	42.8252
1067.61	17.8477
1070.99	141.68
1074.36	124.656
1077.74	137.77
1081.11	119.281
1084.49	95.9509
1087.86	115.956
1091.24	140.705
1094.61	104.643
1097.99	92.0813
1101.36	118.459
1104.73	81.0388
1108.11	111.894
1111.48	81.4187
1114.86	66.5278
1118.23	29.3479
1121.61	21.5064
1124.98	14.2798
1128.36	19.5176
1131.73	24.4607
1135.11	29.5654
1138.48	27.1172
1141.86	18.5542
1145.23	5.46802
1148.61	23.731
1151.98	30.8296
1155.36	19.9998
1158.73	21.9734
1162.11	12.4419
1165.48	20.3584
1168.86	33.3852
1172.23	86.3457
1175.61	38.0657
1178.98	80.7363
1182.36	75.2327
1185.73	82.9316
1189.11	92.6128
1192.48	112.837
1195.86	125.023
1199.23	83.981
1202.61	89.4058
1205.98	46.8489
1209.36	62.4409
1212.73	62.0464
1216.1	72.6033
1219.48	55.3198
1222.85	49.4624
1226.23	87.9241
1229.6	65.9819
1232.98	66.0229
1236.35	10.3862
1239.73	64.2739
1243.1	43.7573
1246.48	55.9805
1249.85	65.3735
1253.23	43.9565
1256.6	40.4282
1259.98	68.792
1263.35	52.0098
1266.73	54.4336
1270.1	41.6748
1273.48	37.7275
1276.85	40.0288
1280.23	78.7964
1283.6	35.2959
1286.98	60.5371
1290.35	72.4312
1293.72	47.4023
1297.1	118.793
1300.47	7.30811
1303.85	54.6909
1307.22	105.813
1310.6	59.2153
1313.97	0.416992
