Measurement: Raman, 785 nm, unoriented, Raman Data Processed
Mineral: Mesolite
Rruff sample: R040139
Ideal chemistry: Na_2_Ca_2_(Si_9_Al_6_)O_30_8H_2_O
Locality: Lake Superior beach,  41 miles north of Tofte, Minnesota, USA
Source: University of Arizona Mineral Museum
Description: Aggregate of white radiating thin acicular crystals.
Measured chemistry: Na_1.95_Ca_1.89_(Si_9.21_Al_5.82_)O_30_Â·8H_2_O
Raman shift (cm-1)	intensity
142.715	0
145.607	105.974
148.5	228.888
151.393	336.019
154.286	409.531
157.178	432.257
160.071	366.2
162.964	373.456
165.856	443.579
168.749	516.891
171.642	506.97
174.534	469.889
177.427	491.067
180.32	442.046
183.212	423.812
186.105	374.577
188.998	288.92
191.891	161.813
194.783	125.292
197.676	119.554
200.569	72.7806
203.461	52.7808
206.354	1.19495
209.247	49.7171
212.139	32.5815
215.032	15.0949
217.925	14.803
220.818	33.665
223.71	100.705
226.603	166.649
229.496	131.778
232.388	113.706
235.281	74.3
238.174	85.006
241.066	104.909
243.959	110.888
246.852	56.757
249.745	1.16577
252.637	21.4391
255.53	50.8016
258.423	34.3104
261.315	19.1748
264.208	39.5421
267.101	33.9623
269.993	38.1096
272.886	54.3665
275.779	55.3797
278.672	68.0899
281.564	116.627
284.457	186.756
287.35	239.851
290.242	303.598
293.135	404.643
296.028	390.401
298.921	277.975
301.813	207.172
304.706	140.224
307.599	57.5613
310.491	19.8802
313.384	0.345398
316.277	33.8864
319.169	7.76038
322.062	28.1574
324.955	26.656
327.847	24.0392
330.74	59.9006
333.633	59.9098
336.526	48.5753
339.418	39.936
342.311	34.7265
345.204	61.9781
348.096	93.4623
350.989	91.8868
353.882	117.312
356.774	68.1895
359.667	72.735
362.56	82.0658
365.452	84.0267
368.345	76.4362
371.238	79.7647
374.131	62.4926
377.023	51.7323
379.916	27.168
382.809	16.9434
385.701	13.0637
388.594	5.71637
391.487	10.7705
394.38	7.15814
397.272	39.7176
400.165	62.8121
403.058	137.061
405.95	184.904
408.843	278.267
411.736	366.368
414.628	432.029
417.521	457.811
420.414	527.697
423.307	597.625
426.199	586.879
429.092	570.667
431.985	558.549
434.877	620.17
437.77	689.94
440.663	769.904
443.555	858.707
446.448	830.415
449.341	729.243
452.234	567.545
455.126	373.094
458.019	253.738
460.912	153.396
463.804	70.05
466.697	23.4913
469.59	3.4444
472.483	24.3551
475.375	3.74579
478.268	3.08789
481.161	21.4251
484.053	37.1932
486.946	87.7114
489.839	138.644
492.731	145.916
495.624	168.329
498.517	165.429
501.409	171.177
504.302	208.429
507.195	276.632
510.088	389.174
512.98	563.914
515.873	822.038
518.766	1260.06
521.658	1858.73
524.551	2642.25
527.444	3693.56
530.337	4625.09
533.229	4867.03
536.122	3817.53
539.015	2419.53
541.907	1464.46
544.8	868.357
547.693	587.322
550.585	431.998
553.478	306.276
556.371	227.678
559.263	157.34
562.156	101.954
565.049	84.8498
567.942	40.9605
570.834	40.6493
573.727	46.5247
576.62	1.99518
579.512	5.70636
582.405	1.62085
585.298	4.11295
588.19	5.31632
591.083	5.06064
593.976	1.92709
596.869	11.3055
599.761	3.49924
602.654	24.4306
605.547	24.9703
608.439	14.0379
611.332	22.6081
614.225	17.5307
617.117	16.0641
620.01	2.21606
622.903	3.37994
625.795	1.27417
628.688	8.56702
631.581	4.71588
634.474	12.4518
637.366	6.89844
640.259	3.75388
643.152	18.1827
646.044	0.632813
648.937	3.80865
651.83	19.6366
654.722	40.9555
657.615	39.6538
660.508	46.3369
663.401	76.5995
666.293	75.5684
669.186	85.7741
672.079	63.6418
674.971	70.1829
677.864	38.4106
680.757	40.3733
683.649	23.9463
686.542	56.4066
689.435	55.7419
692.328	61.0484
695.22	81.3358
698.113	73.6792
701.006	89.8047
703.898	161.857
706.791	203.29
709.684	247.715
712.577	321.356
715.469	275.989
718.362	215.066
721.255	140.828
724.147	84.5811
727.04	55.3604
729.933	58.516
732.825	40.1163
735.718	28.2569
738.611	60.4753
741.504	56.1266
744.396	76.9793
747.289	85.3496
750.182	113.256
753.074	117.264
755.967	146.516
758.86	128.45
761.752	127.605
764.645	95.3739
767.538	63.6978
770.431	43.018
773.323	26.9321
776.216	30.1441
779.109	17.7141
782.001	20.3352
784.894	3.60419
787.787	5.15439
790.679	5.01617
793.572	4.29392
796.465	1.40298
799.357	1.88672
802.25	16.78
805.143	4.05719
808.036	10.0497
810.928	6.54059
813.821	7.63257
816.714	6.64865
819.606	11.5488
822.499	17.0938
825.392	23.2771
828.284	19.9272
831.177	32.1165
834.07	28.9004
836.963	22.6129
839.855	19.9619
842.748	32.315
845.641	14.3407
848.533	36.9012
851.426	34.9063
854.319	28.4201
857.212	41.4692
860.104	44.0305
862.997	37.1127
865.89	33.9615
868.782	35.5521
871.675	32.1726
874.568	32.141
877.46	18.6692
880.353	25.7912
883.246	6.18387
886.139	17.9654
889.031	16.4195
891.924	3.75653
894.817	15.6028
897.709	4.78125
900.602	6.75446
903.495	8.36356
906.388	13.2111
909.28	5.47275
912.173	4.99063
915.066	1.75143
917.958	11.423
920.851	23.8294
923.744	40.0488
926.636	45.6221
929.529	66.022
932.422	94.9971
935.314	117.004
938.207	123.591
941.1	84.9632
943.993	54.6358
946.885	23.2624
949.778	1.68219
952.671	0.946106
955.563	3.41644
958.456	12.0274
961.349	2.05722
964.241	5.5209
967.134	29.7506
970.027	69.1208
972.92	89.0945
975.812	102.447
978.705	90.388
981.598	57.66
984.49	28.5243
987.383	20.8498
990.276	23.8773
993.168	44.0083
996.061	53.361
998.954	53.3137
1001.85	25.3019
1004.74	44.5761
1007.63	42.2158
1010.52	18.7063
1013.42	16.2892
1016.31	13.7992
1019.2	14.6042
1022.1	30.9224
1024.99	71.1896
1027.88	97.4976
1030.77	139.314
1033.67	197.404
1036.56	214.817
1039.45	296.611
1042.34	395.865
1045.24	473.673
1048.13	347.459
1051.02	200.713
1053.91	123.968
1056.81	46.3521
1059.7	23.6341
1062.59	33.6672
1065.49	23.7583
1068.38	13.7827
1071.27	19.1641
1074.16	48.7473
1077.06	53.9485
1079.95	62.5124
1082.84	68.12
1085.73	65.3528
1088.63	59.0671
1091.52	36.0526
1094.41	27.0831
1097.31	38.4612
1100.2	49.3304
1103.09	37.6196
1105.98	28.4782
1108.88	34.8389
1111.77	12.261
1114.66	26.3637
1117.56	14.1383
1120.45	16.6281
1123.34	9.71915
1126.23	8.97144
1129.12	10.0014
1132.02	0.142761
1134.91	6.02927
1137.8	20.3016
1140.7	6.04416
1143.59	3.53805
1146.48	1.02692
1149.37	9.92627
1152.27	23.2736
1155.16	9.60513
1158.05	14.1595
1160.94	22.4746
1163.84	16.0412
1166.73	16.2327
1169.62	4.17998
1172.52	23.083
1175.41	30.7417
1178.3	30.7662
1181.19	15.8248
1184.09	32.4706
1186.98	25.5155
1189.87	22.5928
1192.77	26.6289
1195.66	27.9064
1198.55	13.8552
1201.44	25.5366
1204.34	14.9014
1207.23	8.56674
1210.12	13.2415
1213.01	20.6883
1215.91	15.6311
1218.8	25.5913
1221.69	29.4
1224.58	34.1645
1227.48	6.56155
1230.37	25.9645
1233.26	7.88544
1236.15	2.97119
1239.05	5.30222
1241.94	14.8676
