Measurement: Raman, 785 nm, unoriented, Raman Data Processed
Mineral: Mesolite
Rruff sample: R040140
Ideal chemistry: Na_2_Ca_2_(Si_9_Al_6_)O_30_8H_2_O
Locality: Challis, Idaho, USA
Source: University of Arizona Mineral Museum
Description: White fibrous mass, associated with barrierite
Measured chemistry: Na_1.88_Ca_1.96_(Si_9.19_Al_5.82_)O_30_Â·8H_2_O
Raman shift (cm-1)	intensity
142.232	0
145.125	59.3579
148.018	349.548
150.911	474.799
153.803	542.982
156.696	430.855
159.589	345.521
162.481	367.646
165.374	451.952
168.267	541.048
171.16	520.479
174.052	457.242
176.945	437.784
179.838	420.015
182.73	389.021
185.623	348.365
188.516	265.509
191.408	178.805
194.301	122.73
197.194	119.31
200.087	109.359
202.979	58.9684
205.872	23.153
208.765	2.45538
211.657	42.0013
214.55	20.3743
217.443	18.1309
220.335	9.90118
223.228	4.42505
226.121	42.215
229.013	43.1913
231.906	60.2668
234.799	58.5572
237.692	82.1995
240.584	92.1422
243.477	85.1893
246.37	75.3193
249.262	15.4613
252.155	35.6535
255.048	35.7947
257.941	57.3517
260.833	23.8067
263.726	53.2378
266.619	71.3818
269.511	73.6866
272.404	96.842
275.297	116.766
278.19	119.003
281.082	165.179
283.975	227.04
286.868	250.758
289.76	317.63
292.653	368.225
295.546	379.985
298.438	288.521
301.331	214.381
304.224	136.093
307.116	85.7478
310.009	36.2598
312.902	16.5869
315.795	34.6318
318.687	56.6859
321.58	79.1266
324.473	82.4947
327.365	58.2895
330.258	62.0919
333.151	72.5628
336.043	62.5754
338.936	40.2684
341.829	38.8875
344.721	66.8675
347.614	122.326
350.507	125.334
353.4	134.305
356.292	112.206
359.185	86.2709
362.078	82.81
364.97	59.2968
367.863	81.6427
370.756	71.6369
373.649	25.0471
376.541	7.07318
379.434	10.7462
382.327	8.68817
385.219	1.37836
388.112	9.85425
391.005	6.74274
393.897	5.8158
396.79	4.36523
399.683	31.3716
402.575	56.3222
405.468	140.772
408.361	199.597
411.254	299.03
414.146	360.307
417.039	335.135
419.932	352.074
422.824	376.816
425.717	365.426
428.61	331.645
431.502	323.676
434.395	338.721
437.288	403.385
440.181	503.002
443.073	557.079
445.966	561.311
448.859	499.507
451.751	388.067
454.644	239.696
457.537	156.758
460.43	85.0733
463.322	48.9966
466.215	17.2994
469.108	12.2565
472	5.68543
474.893	18.8498
477.786	14.6884
480.678	5.76337
483.571	25.5309
486.464	45.6929
489.356	35.5219
492.249	67.0989
495.142	114.313
498.035	109.009
500.927	144.331
503.82	193.604
506.713	277.36
509.605	363.308
512.498	536.88
515.391	792.513
518.284	1190.89
521.176	1784.23
524.069	2514.01
526.962	3402.02
529.854	4273.85
532.747	4472.54
535.64	3603.87
538.533	2402.82
541.425	1511.12
544.318	961.226
547.211	640.762
550.103	447.394
552.996	346.068
555.889	263.98
558.781	189.78
561.674	155.157
564.567	135.354
567.459	101.796
570.352	81.9274
573.245	46.4501
576.138	32.9669
579.03	44.1246
581.923	27.8061
584.816	27.844
587.708	23.9452
590.601	16.2654
593.494	0.903534
596.386	1.64819
599.279	17.1204
602.172	4.59302
605.064	7.12521
607.957	7.88406
610.85	15.4745
613.743	1.84232
616.635	2.27185
619.528	4.97684
622.421	5.10608
625.313	5.28323
628.206	6.97305
631.099	7.16113
633.991	2.74286
636.884	1.3714
639.777	12.8597
642.67	15.3839
645.562	16.4486
648.455	5.22464
651.348	14.2859
654.24	18.0151
657.133	29.8381
660.026	32.9267
662.918	48.4917
665.811	47.9098
668.704	48.0592
671.597	57.9232
674.489	63.8461
677.382	65.4489
680.275	65.0591
683.167	62.0404
686.06	64.7922
688.953	83.8169
691.846	56.4158
694.738	69.4075
697.631	95.932
700.524	94.3731
703.416	142.625
706.309	188.551
709.202	236.295
712.094	278.856
714.987	257.175
717.88	212.237
720.773	152.953
723.665	116.404
726.558	91.399
729.451	82.6488
732.343	70.4803
735.236	59.3532
738.129	56.1159
741.021	81.8501
743.914	76.9644
746.807	112.801
749.699	127.252
752.592	149.205
755.485	152.225
758.378	139.903
761.27	105.446
764.163	91.7988
767.056	56.9172
769.948	43.0915
772.841	24.1746
775.734	32.6714
778.626	16.3774
781.519	14.8982
784.412	3.56442
787.305	0.402679
790.197	4.33261
793.09	3.42438
795.983	4.61942
798.875	6.30597
801.768	6.64108
804.661	8.25909
807.553	2.63193
810.446	2.00125
813.339	10.0158
816.232	7.44345
819.124	6.98798
822.017	10.7382
824.91	9.16754
827.802	3.51993
830.695	17.7615
833.588	13.8854
836.481	27.0908
839.373	26.0715
842.266	25.3763
845.159	24.8163
848.051	31.9185
850.944	24.0903
853.837	26.1556
856.729	35.0479
859.622	31.8972
862.515	21.7785
865.408	11.8048
868.3	25.7332
871.193	23.9005
874.086	22.9914
876.978	30.4447
879.871	19.0625
882.764	9.82683
885.656	21.2385
888.549	19.5107
891.442	3.82417
894.335	18.0454
897.227	19.9694
900.12	4.9518
903.013	0.497955
905.905	14.7176
908.798	8.5867
911.691	3.27499
914.583	3.931
917.476	16.0101
920.369	10.3743
923.261	16.5595
926.154	14.5966
929.047	18.4655
931.94	33.8081
934.832	37.6722
937.725	43.4505
940.618	34.4825
943.51	31.2302
946.403	18.1317
949.296	8.99707
952.188	0.195465
955.081	0.962189
957.974	3.73444
960.867	4.25479
963.759	21.5863
966.652	28.7219
969.545	44.1919
972.437	57.0856
975.33	65.7462
978.223	58.1734
981.115	38.7263
984.008	46.2355
986.901	29.1822
989.794	50.6417
992.686	55.185
995.579	58.268
998.472	58.1624
1001.36	37.7248
1004.26	28.8594
1007.15	28.4595
1010.04	14.7437
1012.93	24.6997
1015.83	17.1385
1018.72	29.7776
1021.61	26.1986
1024.51	56.1864
1027.4	79.5237
1030.29	115.786
1033.18	129.055
1036.08	169.405
1038.97	209.552
1041.86	250.859
1044.76	288.004
1047.65	225.439
1050.54	136.541
1053.43	81.7831
1056.33	37.7811
1059.22	35.0812
1062.11	19.0405
1065	4.12704
1067.9	20.5822
1070.79	10.5202
1073.68	38.665
1076.58	0.161835
1079.47	38.186
1082.36	33.6905
1085.25	36.2072
1088.14	22.3165
1091.04	21.4634
1093.93	39.7506
1096.82	36.414
1099.72	32.6467
1102.61	28.611
1105.5	39.0516
1108.39	32.192
1111.29	21.5442
1114.18	32.1709
1117.07	28.1592
1119.96	16.5711
1122.86	3.12814
1125.75	2.5235
1128.64	8.05786
1131.54	11.5375
1134.43	3.45361
1137.32	8.24905
1140.21	14.6097
1143.11	15.5201
1146	3.36325
1148.89	5.74921
1151.79	0.247498
1154.68	11.8978
1157.57	13.2895
1160.46	10.1098
1163.36	2.10825
1166.25	8.55507
1169.14	6.45876
1172.03	7.68283
1174.93	11.4943
1177.82	18.2407
1180.71	22.7138
1183.6	26.8708
1186.5	20.0487
1189.39	21.9756
1192.28	25.4635
1195.17	30.4666
1198.07	25.9173
1200.96	9.18872
1203.85	3.05943
1206.75	19.9854
1209.64	23.0114
1212.53	11.3767
1215.42	0.78624
1218.32	15.4331
1221.21	35.1282
1224.1	33.6622
1226.99	8.2041
1229.89	22.1105
1232.78	9.05167
1235.67	0.996902
1238.57	11.7631
1241.46	1.42352
