Measurement: Raman, 785 nm, unoriented, Raman Data Processed
Mineral: Mesolite
Rruff sample: R050013
Ideal chemistry: Na_2_Ca_2_(Si_9_Al_6_)O_30_8H_2_O
Locality: Poona, Maharashtra, India
Source: University of Arizona Mineral Museum
Description: Clear to white elongated prismatic single crystal
Measured chemistry: Na_2.00_Ca_2.00_(Si_9.00_Al_6.00_)O_30_Â·8H_2_O
Raman shift (cm-1)	intensity
217.523	0
220.416	40.043
223.309	47.241
226.202	72.638
229.094	104.304
231.987	111.223
234.88	112.463
237.772	70.018
240.665	82.232
243.558	106.906
246.451	68.07
249.343	91.254
252.236	70.254
255.129	67
258.021	52.059
260.914	27.285
263.807	3.285
266.699	3.792
269.592	61.634
272.485	61.519
275.378	114.655
278.27	146.781
281.163	52.369
284.056	108.456
286.948	78.198
289.841	137.296
292.734	274.672
295.626	397.252
298.519	338.898
301.412	209.916
304.305	111.239
307.197	24.654
310.09	9.171
312.983	0.669
315.875	65.538
318.768	63.04
321.661	89.732
324.553	121.374
327.446	37.433
330.339	79.748
333.232	3.985
336.124	121.939
339.017	54.509
341.91	74.896
344.802	24.228
347.695	14.821
350.588	50.821
353.48	95.051
356.373	48.208
359.266	80.736
362.159	126.288
365.051	73.759
367.944	149.773
370.837	6.559
373.729	70.375
376.622	51.123
379.515	8.174
382.407	45.131
385.3	57.381
388.193	50.568
391.086	37.591
393.978	36.488
396.871	12.417
399.764	3.615
402.656	7.972
405.549	37.855
408.442	62.717
411.334	182.448
414.227	174.964
417.12	116.976
420.013	114.514
422.905	59.514
425.798	98.409
428.691	53.583
431.583	53.879
434.476	46.948
437.369	97.569
440.261	159.941
443.154	179.631
446.047	245.39
448.94	290.161
451.832	223.028
454.725	104.792
457.618	105.553
460.51	10.037
463.403	7.383
466.296	7.024
469.188	7.102
472.081	10.167
474.974	2.956
477.866	35.417
480.759	16.036
483.652	31.488
486.545	34.696
489.437	29.047
492.33	6.311
495.223	38.414
498.115	7.667
501.008	21.263
503.901	17.242
506.793	28.772
509.686	2.392
512.579	56.195
515.472	46.058
518.364	95.552
521.257	269.437
524.15	767.585
527.042	1400.06
529.935	2263.42
532.828	2792.35
535.721	2494.45
538.613	1504.38
541.506	699.938
544.399	247.313
547.291	79.672
550.184	13.189
553.077	8.818
555.969	25.521
558.862	33.748
561.755	5.52
564.648	22.867
567.54	8.916
570.433	18.708
573.326	30.62
576.218	26.41
579.111	28.242
582.004	3.524
584.896	5.613
587.789	6.81
590.682	46.903
593.575	16.297
596.467	46.588
599.36	66.735
602.253	21.739
605.145	49.075
608.038	36.643
610.931	20.081
613.823	31.005
616.716	45.758
619.609	30.76
622.502	35.94
625.394	59.534
628.287	37.542
631.18	33.359
634.072	57.469
636.965	76.393
639.858	50.636
642.75	63.555
645.643	43.193
648.536	29.04
651.429	4.948
654.321	15.207
657.214	12.918
660.107	42.274
662.999	87.588
665.892	41.47
668.785	10.258
671.677	35.509
674.57	30.048
677.463	5.136
680.356	50.624
683.248	57.437
686.141	78.311
689.034	7.633
691.926	9.086
694.819	26.089
697.712	10.493
700.604	9.22
703.497	66.544
706.39	50.685
709.282	157.241
712.175	177.738
715.068	224.558
717.961	178.26
720.853	118.705
723.746	77.702
726.639	13.04
729.531	4.308
732.424	42.206
735.317	42.397
738.209	37.093
741.102	42.299
743.995	92.458
746.888	47.083
749.78	77.514
752.673	115.075
755.566	121.85
758.458	131.684
761.351	86.541
764.244	69.307
767.136	79.508
770.029	36.624
772.922	36.636
775.815	16.12
778.707	36.248
781.6	25.978
784.493	82.486
787.385	73.181
790.278	13.151
793.171	34.081
796.063	25.769
798.956	32.323
801.849	23.41
804.742	14.251
807.634	47.738
810.527	40.28
813.42	36.625
816.312	11.868
819.205	31.734
822.098	56.271
824.99	36.662
827.883	30.334
830.776	16.834
833.669	15.79
836.561	56.522
839.454	38.359
842.347	57.812
845.239	38.667
848.132	47.154
851.025	66.842
853.917	92.278
856.81	67.353
859.703	49.581
862.596	48.871
865.488	16.703
868.381	46.782
871.274	37.27
874.166	31.319
877.059	32.497
879.952	44.053
882.844	10.774
885.737	37.467
888.63	12.468
891.523	4.44
894.415	11.174
897.308	39.624
900.201	50.45
903.093	28.277
905.986	31.296
908.879	64.27
911.771	41.991
914.664	27.112
917.557	6.164
920.45	15.409
923.342	50.259
926.235	35.672
929.128	46.704
932.02	69.121
934.913	57.023
937.806	86.753
940.698	71.663
943.591	4.277
946.484	23.618
949.377	3.587
952.269	25.585
955.162	26.563
958.055	13.005
960.947	35.18
963.84	17.533
966.733	41.48
969.625	56.295
972.518	69.653
975.411	49.829
978.304	35.148
981.196	35.337
984.089	53.489
986.982	29.5
989.874	46.104
992.767	9.306
995.66	33.695
998.552	57.048
1001.45	81.295
1004.34	8.205
1007.23	15.194
1010.12	34.791
1013.02	26.518
1015.91	2.138
1018.8	31.372
1021.69	23.4
1024.59	10.907
1027.48	15.234
1030.37	37.096
1033.27	39.572
1036.16	13.509
1039.05	76.786
1041.94	183.36
1044.84	230.203
1047.73	146.926
1050.62	127.895
1053.51	14.972
1056.41	31.188
1059.3	5.234
1062.19	5.638
1065.09	12.097
1067.98	1.023
1070.87	38.579
1073.76	47.788
1076.65	11.764
1079.55	4.101
1082.44	63.085
1085.33	145.927
1088.23	149.113
1091.12	59.318
1094.01	21.965
1096.9	24.441
1099.8	17.072
1102.69	26.842
1105.58	12.956
1108.47	1.227
1111.37	45.232
1114.26	18.455
1117.15	22.914
1120.05	26.445
1122.94	17.77
1125.83	20.808
1128.72	7.954
1131.62	26.848
1134.51	29.946
1137.4	0.601
1140.3	46.231
1143.19	38.735
1146.08	5.256
1148.97	26.681
1151.87	34.621
1154.76	12.119
1157.65	29.051
1160.54	36.328
1163.44	9.923
1166.33	3.602
1169.22	27.418
1172.12	53.604
1175.01	5.852
1177.9	37.71
1180.79	22.028
1183.68	52.237
1186.58	10.156
1189.47	26.87
1192.36	20.896
1195.26	50.397
1198.15	36.776
1201.04	29.443
1203.93	2.752
1206.83	15.387
1209.72	29.58
1212.61	19.55
1215.51	31.121
1218.4	18.047
1221.29	12.442
1224.18	33.094
1227.08	39.034
1229.97	51.08
1232.86	48.417
