Measurement: Raman, 514 nm, unoriented, Raman Data Processed
Mineral: Mesolite
Rruff sample: R040140
Ideal chemistry: Na_2_Ca_2_(Si_9_Al_6_)O_30_8H_2_O
Locality: Challis, Idaho, USA
Source: University of Arizona Mineral Museum
Description: White fibrous mass, associated with barrierite
Measured chemistry: Na_1.88_Ca_1.96_(Si_9.19_Al_5.82_)O_30_Â·8H_2_O
Raman shift (cm-1)	intensity
115.644	0
119.813	475.1
123.981	85.9981
128.146	476.006
132.309	1819.51
136.47	2198.51
140.63	3369.33
144.787	5246.22
148.942	7712.52
153.096	7092.19
157.247	7304.36
161.396	7216.46
165.544	6248.78
169.689	6374.91
173.833	5952.22
177.974	4890.95
182.114	4139.18
186.251	3395.26
190.387	2581.32
194.52	2136.54
198.652	1946.66
202.782	1569.21
206.909	1017.76
211.035	605.988
215.159	509.882
219.281	563.874
223.4	575.514
227.518	862.604
231.634	803.356
235.748	692.061
239.86	850.25
243.97	1171.67
248.079	651.959
252.185	64.2432
256.289	226.5
260.391	293.559
264.492	278.223
268.59	261.462
272.687	8.89258
276.781	63.8066
280.874	426.095
284.964	1206.6
289.053	2116.15
293.14	3413.29
297.225	3805.47
301.308	2857.1
305.389	1797.92
309.468	1133.69
313.545	849.468
317.62	934.243
321.693	1129.57
325.765	1384.58
329.834	883.094
333.902	897.115
337.967	673.488
342.031	696.5
346.093	940.469
350.153	1452.06
354.21	1869.3
358.267	1879.73
362.321	1733.96
366.373	1831.96
370.423	1826.13
374.471	1582.06
378.518	1564.68
382.563	1551.92
386.605	1770.5
390.646	2108.24
394.685	2875.72
398.722	3697.44
402.757	4866.98
406.79	6365.72
410.821	7606.94
414.851	8108.01
418.878	7562.47
422.904	6900.32
426.927	5885.01
430.949	4708.98
434.969	4406.58
438.987	4319.94
443.003	5137.16
447.018	5526.2
451.03	5092.83
455.041	4258.16
459.049	3075.14
463.056	2440.78
467.061	1733.46
471.064	1296.99
475.065	1280.63
479.064	1123.41
483.062	1481.74
487.057	2174.04
491.051	3341.49
495.043	4549.9
499.032	4773.5
503.02	4328.9
507.007	3742.47
510.991	3739.09
514.973	4852.6
518.954	7030.25
522.933	11488.1
526.91	20912.3
530.885	35598.7
534.858	43169.4
538.829	33025.6
542.799	18190.1
546.766	9916.96
550.732	5744.05
554.696	3814.36
558.658	2769.87
562.618	2021.54
566.576	1600.35
570.533	1002.34
574.488	627.608
578.44	413.661
582.391	402.799
586.341	267.236
590.288	290.795
594.233	42.335
598.177	97.4111
602.119	114.308
606.059	200.139
609.997	211.558
613.933	183.972
617.868	325.382
621.801	170.775
625.731	171.137
629.66	240.465
633.588	186.706
637.513	152.128
641.437	73.2441
645.358	142.668
649.278	219.607
653.196	269.32
657.113	163.483
661.027	88.2148
664.94	133.926
668.851	308.297
672.76	236.481
676.667	234.356
680.572	238.9
684.476	512.311
688.378	551.692
692.278	518.019
696.176	381.624
700.072	621.164
703.967	885.867
707.86	1563.97
711.751	2534.09
715.64	2954.04
719.527	2485.55
723.413	1801.44
727.297	1098.5
731.179	923.252
735.059	620.267
738.937	700.407
742.814	681.765
746.689	1069.53
750.562	1340.97
754.433	1672.87
758.303	1720.56
762.17	1662.6
766.036	1720.15
769.901	1094.12
773.763	859.607
777.624	890.106
781.482	952.059
785.339	1040.05
789.195	1018.28
793.048	1104.47
796.9	988.439
800.75	738.649
804.598	543.227
808.445	546.237
812.289	237.065
816.132	192.49
819.973	12.8779
823.813	66.3682
827.65	81.5371
831.486	10.4004
835.32	43.9531
839.152	10.7109
842.983	45.8838
846.812	68.9102
850.639	51.4883
854.464	72.4648
858.288	211.942
862.11	27.8916
865.93	55.9092
869.748	150.282
873.564	16.8467
877.379	63.0586
881.192	124.496
885.004	24.3271
888.813	84.4033
892.621	85.7598
896.427	51.748
900.232	129.375
904.034	16.6543
907.835	106.58
911.634	29.168
915.432	70.4014
919.227	15.3154
923.021	191.918
926.813	268.232
930.604	269.285
934.393	257.087
938.18	537.639
941.965	601.011
945.749	571.914
949.53	363.291
953.311	403.315
957.089	359.403
960.866	385.71
964.641	538.613
968.414	1012.81
972.185	1306.53
975.955	1445.52
979.723	1570.92
983.49	1270.91
987.254	1202.48
991.017	1207.45
994.779	1353.33
998.538	1564.08
1002.3	1631.51
1006.05	1273.18
1009.81	1213.13
1013.56	1193.64
1017.31	1037.27
1021.06	1152.95
1024.81	1369.73
1028.55	1642.06
1032.3	2235.71
1036.04	2475.67
1039.78	2742.03
1043.52	3807.58
1047.26	4956.48
1050.99	3933.1
1054.73	2498.65
1058.46	1781.12
1062.19	1325.19
1065.92	1117.79
1069.65	1204.53
1073.37	1175.91
1077.1	1114.57
1080.82	1179.02
1084.54	1142.21
1088.26	1376.11
1091.97	1463.2
1095.69	1602.09
1099.4	1648.61
1103.12	1523.99
1106.83	1459.07
1110.54	1318.77
1114.24	1239.95
1117.95	1303.27
1121.65	1377.56
1125.35	1213.71
1129.06	1112.66
1132.75	1031.32
1136.45	862.128
1140.15	925.434
1143.84	831.006
1147.53	725.212
1151.22	587.748
1154.91	806.572
1158.6	555.161
1162.28	633.871
1165.97	392.491
1169.65	591.823
1173.33	368.073
1177.01	430.089
1180.69	349.636
1184.36	314.747
1188.04	215.423
1191.71	341.662
1195.38	177.525
1199.05	249.735
1202.71	196.983
1206.38	246.265
1210.04	37.2041
1213.71	101.481
1217.37	128.753
1221.03	54.626
1224.68	14.041
1228.34	43.7949
1231.99	135.38
1235.65	132.267
1239.3	207.617
1242.95	18.2295
1246.59	6.47852
1250.24	27.5869
1253.88	67.374
1257.53	67.7344
1261.17	104.654
1264.81	136.246
1268.45	125.42
1272.08	50.6621
1275.72	70.7031
1279.35	66.333
1282.98	41.4414
1286.61	104.689
1290.24	24.3506
1293.87	36.5293
1297.49	46.2764
1301.11	112.575
1304.73	87.5791
1308.36	32.707
1311.97	112.452
1315.59	137.238
1319.2	13.5195
1322.82	70.8359
1326.43	29.3301
1330.04	41.9951
1333.65	123.872
1337.26	111.33
1340.86	117.336
1344.47	187.959
1348.07	152.994
1351.67	110.92
1355.27	343.41
1358.87	330.079
1362.46	303.977
1366.06	276.28
1369.65	188.261
1373.24	293.172
1376.83	163.64
1380.42	55.6152
1384	223.232
1387.59	341.713
1391.17	295.281
1394.75	307.084
1398.33	311.203
1401.91	310.381
1405.49	319.211
1409.06	298.127
1412.64	259.94
1416.21	291.281
1419.78	245.545
1423.35	273.273
1426.91	338.531
1430.48	244.566
1434.05	463.537
1437.61	394.342
1441.17	316.998
1444.73	252.963
1448.29	463.742
1451.84	362.852
1455.4	332.633
1458.95	304.297
1462.5	414.857
1466.05	470.074
1469.6	337.445
1473.15	365.762
1476.69	333.162
1480.24	257.977
1483.78	189.787
1487.32	219.578
1490.86	250.812
1494.39	253.699
1497.93	199.779
1501.46	37.8594
1505	131.65
1508.53	123.91
1512.06	147.869
1515.59	159.502
1519.11	22.8418
1522.64	0
