Measurement: Raman, 514 nm, unoriented, Raman Data Processed
Mineral: Mesolite
Rruff sample: R040139
Ideal chemistry: Na_2_Ca_2_(Si_9_Al_6_)O_30_8H_2_O
Locality: Lake Superior beach,  41 miles north of Tofte, Minnesota, USA
Source: University of Arizona Mineral Museum
Description: Aggregate of white radiating thin acicular crystals.
Measured chemistry: Na_1.95_Ca_1.89_(Si_9.21_Al_5.82_)O_30_Â·8H_2_O
Raman shift (cm-1)	intensity
82.218	0
86.404	328.591
90.587	407.433
94.768	677.864
98.947	667.266
103.124	599.876
107.3	759.303
111.473	785.966
115.644	1196.56
119.813	1132.66
123.981	915.938
128.146	1364.84
132.309	1829.21
136.47	1403.3
140.63	2637.57
144.787	3549.98
148.942	4636.12
153.096	5186.78
157.247	5056.92
161.396	4856.59
165.544	4827.66
169.689	4473.04
173.833	3733.54
177.974	2885.68
182.114	2582.09
186.251	2211.97
190.387	1558.95
194.52	1257.3
198.652	1035.67
202.782	853.07
206.909	950.062
211.035	671.604
215.159	303.536
219.281	633.495
223.4	1411.94
227.518	1594.74
231.634	975.53
235.748	652.819
239.86	694.454
243.97	472.665
248.079	35.271
252.185	108.879
256.289	84.98
260.391	66.519
264.492	280.625
268.59	355.292
272.687	255.056
276.781	210.09
280.874	71.608
284.964	535.381
289.053	1355.38
293.14	2002.52
297.225	1787.44
301.308	1352.99
305.389	951.33
309.468	576.576
313.545	409.878
317.62	222.291
321.693	383.769
325.765	184.316
329.834	235.879
333.902	436.621
337.967	366.804
342.031	403.188
346.093	474.594
350.153	690.115
354.21	700.252
358.267	598.003
362.321	596.892
366.373	613.07
370.423	542.137
374.471	507.637
378.518	426.503
382.563	438.079
386.605	410.249
390.646	410.014
394.685	623.375
398.722	937.32
402.757	1422.87
406.79	1982.09
410.821	2545.13
414.851	2876.68
418.878	3184.47
422.904	3656.17
426.927	3492.08
430.949	3281.47
434.969	3427.53
438.987	4288.01
443.003	5485.93
447.018	5576.19
451.03	4503.13
455.041	3270.63
459.049	2157.7
463.056	1465.26
467.061	1109.9
471.064	870.621
475.065	995.806
479.064	1012.27
483.062	1226.27
487.057	1687.35
491.051	1914.42
495.043	2179.12
499.032	1989.85
503.02	1899.77
507.007	2093.23
510.991	2490.29
514.973	3380.91
518.954	5099.02
522.933	8683.59
526.91	15296.2
530.885	20371.2
534.858	17650.2
538.829	11083.1
542.799	5917.98
546.766	3451.14
550.732	2192.48
554.696	1435.21
558.658	962.991
562.618	716.263
566.576	478.14
570.533	336.951
574.488	227.191
578.44	212.209
582.391	175.812
586.341	87.473
590.288	161.44
594.233	61.532
598.177	129.298
602.119	246.538
606.059	166.851
609.997	208.129
613.933	88.357
617.868	36.16
621.801	19.945
625.731	51.306
629.66	32.363
633.588	22.958
637.513	22.212
641.437	41.67
645.358	95.554
649.278	155.075
653.196	218.896
657.113	352.317
661.027	438.53
664.94	443.727
668.851	497.891
672.76	462.613
676.667	181.067
680.572	21.091
684.476	23.053
688.378	124.951
692.278	516.805
696.176	241.628
700.072	255.433
703.967	471.601
707.86	886.019
711.751	1120.79
715.64	1177.72
719.527	736.928
723.413	408.741
727.297	138.133
731.179	69.369
735.059	25.029
738.937	16.898
742.814	61.093
746.689	174.955
750.562	273.385
754.433	252.661
758.303	285.486
762.17	344.892
766.036	255.704
769.901	103.152
773.763	81.32
777.624	13.226
781.482	63.465
785.339	72.099
789.195	35.399
793.048	71.882
796.9	16.84
800.75	5.415
804.598	17.933
808.445	99.515
812.289	177.832
816.132	366.029
819.973	599.623
823.813	903.063
827.65	1145.9
831.486	1539.61
835.32	2118.79
839.152	2588.28
842.983	1975.32
846.812	1284.61
850.639	730.62
854.464	564.738
858.288	422.807
862.11	230.856
865.93	279.848
869.748	187.794
873.564	63.719
877.379	36.565
881.192	50.301
885.004	63.444
888.813	21.059
892.621	14.552
896.427	0.619
900.232	114.905
904.034	4.209
907.835	27.587
911.634	26.721
915.432	74.802
919.227	144.26
923.021	188.437
926.813	272.939
930.604	363.684
934.393	727.557
938.18	1199.14
941.965	859.973
945.749	566.165
949.53	369.253
953.311	235.284
957.089	319.541
960.866	241.28
964.641	447.754
968.414	738.204
972.185	1086.55
975.955	1314.78
979.723	1182.91
983.49	832.956
987.254	800.401
991.017	818.055
994.779	954.44
998.538	965.796
1002.3	1090.06
1006.05	999.681
1009.81	815.397
1013.56	818.168
1017.31	724.936
1021.06	936.723
1024.81	1139.78
1028.55	1533.23
1032.3	2071.7
1036.04	2523.97
1039.78	3045.61
1043.52	3977.72
1047.26	3761.76
1050.99	2649.63
1054.73	1808.43
1058.46	1379.9
1062.19	1216.52
1065.92	1179.23
1069.65	1290.06
1073.37	1500.17
1077.1	1559.62
1080.82	1679.87
1084.54	1604.32
1088.26	1378.51
1091.97	1037.75
1095.69	1095.29
1099.4	916.669
1103.12	780.562
1106.83	811.464
1110.54	736.124
1114.24	664.372
1117.95	566.944
1121.65	490.402
1125.35	394.798
1129.06	227.935
1132.75	137.843
1136.45	67.724
1140.15	90.638
1143.84	13.325
1147.53	53.774
1151.22	30.015
1154.91	117.877
1158.6	14.578
1162.28	10.58
1165.97	63.563
1169.65	19.11
1173.33	41.026
1177.01	109.712
1180.69	51.168
1184.36	98.313
1188.04	28.238
1191.71	28.05
1195.38	27.385
1199.05	91.586
1202.71	6.56
1206.38	163.277
1210.04	30.255
1213.71	39.902
1217.37	193.739
1221.03	141.368
1224.68	113.803
1228.34	75.049
1231.99	164.109
1235.65	164.99
1239.3	225.686
1242.95	323.195
1246.59	178.63
1250.24	310.406
1253.88	215.601
1257.53	247.34
1261.17	397.888
1264.81	465.269
1268.45	459.845
1272.08	402.048
1275.72	522.221
1279.35	615.017
1282.98	681.068
1286.61	716.804
1290.24	778.284
1293.87	850.996
1297.49	852.641
1301.11	1036.22
1304.73	1048.67
1308.36	1046.73
1311.97	1223.34
1315.59	1206.92
1319.2	1208.56
1322.82	1196.96
1326.43	1081.14
1330.04	993.696
1333.65	1074.17
1337.26	934.58
1340.86	809.662
1344.47	716.871
1348.07	638.47
1351.67	486.596
1355.27	634.904
1358.87	482.888
1362.46	495.084
1366.06	346.746
1369.65	293.937
1373.24	208.625
1376.83	212.279
1380.42	211.727
1384	172.878
1387.59	71.516
1391.17	228.784
1394.75	28.679
1398.33	141.386
1401.91	132.051
1405.49	77.924
1409.06	79.957
1412.64	32.533
1416.21	53.135
1419.78	10.115
1423.35	102.835
1426.91	49.009
1430.48	39.652
1434.05	121.588
1437.61	153.585
1441.17	7.402
1444.73	37.402
1448.29	167.201
1451.84	4.354
1455.4	141
1458.95	175.111
1462.5	194.043
1466.05	161.633
1469.6	36.399
1473.15	145.099
1476.69	204.525
1480.24	84.562
1483.78	149.479
1487.32	109.699
1490.86	108.844
1494.39	84.82
1497.93	109.023
