Measurement: Raman, 532 nm, unoriented, Raman Data Processed
Mineral: Mesolite
Rruff sample: R050013
Ideal chemistry: Na_2_Ca_2_(Si_9_Al_6_)O_30_8H_2_O
Locality: Poona, Maharashtra, India
Source: University of Arizona Mineral Museum
Description: Clear to white elongated prismatic single crystal
Measured chemistry: Na_2.00_Ca_2.00_(Si_9.00_Al_6.00_)O_30_Â·8H_2_O
Raman shift (cm-1)	intensity
148.698	0
152.072	210.087
155.447	561.494
158.822	604.918
162.197	543.972
165.572	620.145
168.946	806.949
172.321	842.644
175.696	775.113
179.071	726.428
182.446	701.743
185.821	680.443
189.195	603.708
192.57	355.069
195.945	339.028
199.32	243.246
202.695	187.19
206.07	90.6255
209.444	43.6099
212.819	28.0381
216.194	53.7705
219.569	37.1899
222.944	23.6821
226.318	60.2983
229.693	90.96
233.068	117.402
236.443	132.886
239.818	110.821
243.192	96.9326
246.567	84.3047
249.942	23.9966
253.317	14.331
256.692	51.6645
260.067	39.919
263.441	58.1787
266.816	112.909
270.191	88.3701
273.566	154.861
276.941	114.546
280.315	136.225
283.69	172.199
287.065	303.17
290.44	397.167
293.815	486.308
297.19	438.528
300.564	253.373
303.939	90.9189
307.314	52.7119
310.689	23.0322
314.064	59.2007
317.438	6.37158
320.813	18.7573
324.188	101.926
327.563	124.136
330.938	66.9639
334.313	136.436
337.687	78.8931
341.062	70.124
344.437	105.05
347.812	70.0952
351.187	124.501
354.562	129.119
357.936	57.6514
361.311	73.9409
364.686	35.1113
368.061	89.7666
371.436	74.7891
374.81	135.722
378.185	67.644
381.56	97.3184
384.935	52.7881
388.31	65.8467
391.685	34.5894
395.059	29.6333
398.434	74.9761
401.809	91.2349
405.184	159.843
408.559	344.302
411.933	506.562
415.308	528.09
418.683	583.593
422.058	655.436
425.433	750.708
428.808	612.137
432.182	569.827
435.557	686.155
438.932	909.521
442.307	983.301
445.682	1048.63
449.056	912.381
452.431	638.867
455.806	367.87
459.181	207.462
462.556	99.7271
465.93	34.0664
469.305	1.26562
472.68	30.2109
476.055	49.9468
479.43	54.793
482.805	128.831
486.179	178.466
489.554	242.816
492.929	211.969
496.304	209.4
499.679	196.136
503.053	284.588
506.428	334.678
509.803	490.337
513.178	682.664
516.553	1276.75
519.928	2165.2
523.302	3421.12
526.677	4874.31
530.052	6097.27
533.427	6137.11
536.802	4194.77
540.177	2461.11
543.551	1492.17
546.926	910.886
550.301	572.944
553.676	429.658
557.051	279.185
560.425	161.491
563.8	130.597
567.175	130.108
570.55	105.259
573.925	31.0088
577.299	45.6182
580.674	40.6094
584.049	0.639648
587.424	24.043
590.799	46.5615
594.174	22.1484
597.548	23.7393
600.923	32.5215
604.298	38.8115
607.673	39.1758
611.048	55.8643
614.423	45.3935
617.797	147.407
621.172	88.4629
624.547	26.0293
627.922	40.5088
631.297	35.5801
634.671	67.0303
638.046	63.7617
641.421	46.9629
644.796	96.9522
648.171	85.3975
651.545	74.9268
654.92	69.0156
658.295	51.7744
661.67	56.0283
665.045	53.4248
668.42	43.1162
671.794	26.3926
675.169	59.9092
678.544	64.6846
681.919	64.5254
685.294	113.544
688.668	72.4189
692.043	118.267
695.418	34.4492
698.793	203.411
702.168	194.139
705.543	324.157
708.917	362.79
712.292	463.88
715.667	413.254
719.042	257.581
722.417	184.723
725.792	80.7266
729.166	62.3018
732.541	24.5283
735.916	67.499
739.291	54.5078
742.666	154.894
746.04	176.407
749.415	158.922
752.79	271.382
756.165	189.247
759.54	198.222
762.915	138.689
766.289	115.582
769.664	68.7812
773.039	54.626
776.414	95.2031
779.789	10.8682
783.163	25.6924
786.538	21.6289
789.913	26.0684
793.288	74.5391
796.663	44.6113
800.038	19.0957
803.412	57.085
806.787	16.5586
810.162	73.165
813.537	106.305
816.912	38.4453
820.286	69.5879
823.661	72.25
827.036	76.1904
830.411	32.5996
833.786	19.8604
837.16	104.963
840.535	4.4209
843.91	31.2705
847.285	115.917
850.66	44.0156
854.035	58.3096
857.409	108.195
860.784	23.1104
864.159	51.8438
867.534	149.783
870.909	19.3125
874.284	55.6025
877.658	73.3018
881.033	27.9971
884.408	18.4814
887.783	51.7012
891.158	49.3545
894.533	22.8662
897.907	1.87109
901.282	47.2012
904.657	32.6787
908.032	67.0068
911.407	61.4053
914.781	13.083
918.156	93.416
921.531	7.37695
924.906	40.417
928.281	172.041
931.655	161.94
935.03	145.853
938.405	180.264
941.78	145.171
945.155	66.7715
948.529	36.7754
951.904	19.3896
955.279	16.1826
958.654	53.5352
962.029	15.4795
965.404	84.249
968.778	131.67
972.153	105.016
975.528	151.701
978.903	96.0068
982.278	83.3779
985.653	0.332031
989.027	91.2998
992.402	88.3535
995.777	159.617
999.152	70.8525
1002.53	44.044
1005.9	47.1035
1009.28	104.45
1012.65	126.219
1016.03	3.23535
1019.4	47.54
1022.78	24.25
1026.15	80.0889
1029.53	183.346
1032.9	199.19
1036.28	377.983
1039.65	510.849
1043.02	764.304
1046.4	593.953
1049.77	360.54
1053.15	199.648
1056.52	130.157
1059.9	18.2676
1063.27	17.1631
1066.65	81.7031
1070.02	217.559
1073.4	187.961
1076.77	222.06
1080.15	267.445
1083.52	235.998
1086.9	189.173
1090.27	167.109
1093.65	111.356
1097.02	96.4072
1100.4	76.5644
1103.77	93.043
1107.15	70.625
1110.52	66.1103
1113.9	47.7461
1117.27	57.5147
1120.64	21.2441
1124.02	40.1367
1127.39	72.3535
1130.77	68.2109
1134.14	56.4629
1137.52	11.3643
1140.89	1.38086
1144.27	137.723
1147.64	90.333
1151.02	167.925
1154.39	63.8135
1157.77	80.0606
1161.14	54.8828
1164.52	82.7168
1167.89	74.0557
1171.27	34.0068
1174.64	45.4639
1178.02	27.2393
1181.39	94.1357
1184.77	53.5996
1188.14	67.5303
1191.52	63.2812
1194.89	28.3594
1198.27	45.8398
1201.64	87.8203
1205.02	29.3848
1208.39	96.7607
1211.77	69.3467
1215.14	97.5977
1218.52	119.182
1221.89	138.786
1225.27	105.551
1228.64	69.1856
1232.01	61.4541
1235.39	107.426
1238.76	44.5195
1242.14	111.422
1245.51	29.3877
1248.89	123.984
1252.26	87.042
1255.64	130.165
1259.01	34.1895
1262.39	67.5908
1265.76	81.4228
1269.14	95.6348
1272.51	109.546
1275.89	76.5928
1279.26	75.168
1282.64	54.1924
1286.01	61.6191
1289.39	75.3496
1292.76	92.7861
1296.14	60.9199
1299.51	42.875
1302.88	0.037109
1306.26	0
