Measurement: Raman, 532 nm, unoriented, Raman Data Processed
Mineral: Mesolite
Rruff sample: R040140
Ideal chemistry: Na_2_Ca_2_(Si_9_Al_6_)O_30_8H_2_O
Locality: Challis, Idaho, USA
Source: University of Arizona Mineral Museum
Description: White fibrous mass, associated with barrierite
Measured chemistry: Na_1.88_Ca_1.96_(Si_9.19_Al_5.82_)O_30_Â·8H_2_O
Raman shift (cm-1)	intensity
150.144	0
153.519	80.6572
156.894	219.538
160.268	226.436
163.643	215.941
167.018	287.279
170.393	344.941
173.768	308.859
177.143	260.148
180.517	270.896
183.892	255.88
187.267	290.467
190.642	192.211
194.017	94.9
197.391	95.0684
200.766	60.1953
204.141	14.699
207.516	3.49487
210.891	39.4346
214.266	18.996
217.64	13.4011
221.015	11.1544
224.39	66.6253
227.765	114.86
231.14	137.416
234.514	145
237.889	143.648
241.264	144.419
244.639	162.434
248.014	82.7015
251.388	77.0615
254.763	65.4716
258.138	94.1038
261.513	83.7139
264.888	100.841
268.263	86.0829
271.637	79.3137
275.012	89.0411
278.387	105.493
281.762	116.196
285.137	170.627
288.512	235.677
291.886	313.315
295.261	318.292
298.636	239.755
302.011	154.79
305.386	93.9146
308.76	31.7598
312.135	30.6438
315.51	37.7506
318.885	26.3148
322.26	32.2047
325.635	63.1895
329.009	39.448
332.384	53.8485
335.759	69.9552
339.134	26.7733
342.509	33.1328
345.883	64.6081
349.258	96.7896
352.633	97.0356
356.008	75.2908
359.383	54.3892
362.757	53.8114
366.132	50.673
369.507	27.9354
372.882	25.3925
376.257	14.3932
379.632	0.963379
383.006	0.968994
386.381	8.38403
389.756	4.90894
393.131	3.73682
396.506	7.59497
399.88	33.0939
403.255	98.7799
406.63	147.599
410.005	235.681
413.38	360.279
416.755	414.068
420.129	458.562
423.504	477.174
426.879	460.499
430.254	459.006
433.629	467.252
437.003	544.597
440.378	665.122
443.753	754.759
447.128	721.508
450.503	586.926
453.878	388.734
457.252	239.854
460.627	138.274
464.002	55.5892
467.377	30.6007
470.752	22.2549
474.127	13.0131
477.501	9.48621
480.876	36.6354
484.251	74.5013
487.626	101.275
491.001	107.923
494.375	146.296
497.75	156.256
501.125	149.198
504.5	221.75
507.875	320.454
511.25	434.531
514.624	720.489
517.999	1192.89
521.374	1930.62
524.749	2875.84
528.124	3763.95
531.498	4252.2
534.873	3616.68
538.248	2235.28
541.623	1294.9
544.998	790.919
548.372	501.725
551.747	335.64
555.122	267.429
558.497	187.453
561.872	157.073
565.247	109.216
568.621	60.5846
571.996	58.672
575.371	38.5635
578.746	14.0679
582.121	15.9077
585.495	7.54346
588.87	3.34985
592.245	1.67322
595.62	20.3368
598.995	19.4423
602.37	0.853638
605.744	2.83911
609.119	21.7
612.494	25.8589
615.869	9.0946
619.244	9.83899
622.619	6.09766
625.993	21.9587
629.368	5.0874
632.743	7.49268
636.118	28.8418
639.493	9.15894
642.867	0.204346
646.242	1.94214
649.617	23.5234
652.992	6.01416
656.367	44.45
659.741	1.88574
663.116	39.3727
666.491	48.4021
669.866	43.3678
673.241	49.6415
676.616	68.1433
679.99	27.323
683.365	44.337
686.74	50.1962
690.115	39.4606
693.49	67.099
696.865	64.1108
700.239	116.056
703.614	173.128
706.989	197.387
710.364	249.875
713.739	266.542
717.113	219.421
720.488	159.307
723.863	83.5742
727.238	88.1943
730.613	59.0394
733.987	58.9634
737.362	56.3831
740.737	67.3839
744.112	86.8917
747.487	109.999
750.862	129.472
754.236	129.136
757.611	129.65
760.986	109.953
764.361	98.3994
767.736	71.8058
771.111	39.5673
774.485	39.1533
777.86	10.6755
781.235	31.0508
784.61	0.512573
787.985	11.6974
791.359	17.3625
794.734	4.91052
798.109	17.392
801.484	15.2324
804.859	7.58948
808.234	16.0926
811.608	21.4139
814.983	22.9261
818.358	16.5377
821.733	10.4606
825.108	15.7559
828.482	43.6965
831.857	10.1869
835.232	10.081
838.607	32.0875
841.982	20.4883
845.356	46.0045
848.731	30.2765
852.106	42.4871
855.481	32.8345
858.856	44.3278
862.231	22.1466
865.605	48.4519
868.98	27.8011
872.355	10.2354
875.73	35.4734
879.105	21.5923
882.48	7.09448
885.854	40.5074
889.229	37.9517
892.604	42.7499
895.979	13.1952
899.354	17.1352
902.729	10.4463
906.103	36.3027
909.478	5.10364
912.853	5.18201
916.228	20.1602
919.602	37.4301
922.977	15.1207
926.352	36.0017
929.727	59.1578
933.102	80.1081
936.477	129.397
939.851	75.2222
943.226	53.3805
946.601	35.3918
949.976	19.1786
953.351	7.12354
956.726	9.15723
960.1	3.021
963.475	1.08252
966.85	10.2615
970.225	69.6051
973.6	76.9332
976.974	34.9496
980.349	51.8325
983.724	14.4139
987.099	2.16724
990.474	43.334
993.848	45.9998
997.223	65.4708
1000.6	38.1847
1003.97	40.7854
1007.35	26.4655
1010.72	35.4357
1014.1	22.6774
1017.47	31.436
1020.85	25.337
1024.22	77.7935
1027.6	108.351
1030.97	159.174
1034.35	237.992
1037.72	301.484
1041.1	385.62
1044.47	420.818
1047.85	370.437
1051.22	190.266
1054.6	129.711
1057.97	53.5054
1061.35	79.0598
1064.72	37.2288
1068.09	57.6357
1071.47	81.6388
1074.84	83.4137
1078.22	110.427
1081.59	125.213
1084.97	120.469
1088.34	104.019
1091.72	89.6711
1095.09	72.1797
1098.47	69.2478
1101.84	56.4626
1105.22	45.8181
1108.59	53.2513
1111.97	24.1233
1115.34	48.0653
1118.72	44.2002
1122.09	27.7355
1125.47	2.85706
1128.84	13.9423
1132.22	30.2264
1135.59	17.1331
1138.97	14.2107
1142.34	10.7526
1145.71	4.73877
1149.09	11.4037
1152.46	22.1675
1155.84	12.3507
1159.21	4.96936
1162.59	13.8231
1165.96	5.63904
1169.34	15.2211
1172.71	22.9793
1176.09	26.5332
1179.46	1.3053
1182.84	46.5216
1186.21	27.791
1189.59	33.7167
1192.96	28.1554
1196.34	23.9969
1199.71	31.1853
1203.09	38.259
1206.46	42.2434
1209.84	34.3662
1213.21	25.4449
1216.59	24.3024
1219.96	27.1487
1223.34	29.0864
1226.71	30.6135
1230.09	11.6938
1233.46	10.0697
1236.84	27.3812
1240.21	14.3008
1243.59	16.3257
1246.96	6.73364
1250.34	0.932007
1253.71	18.3791
1257.08	24.1248
1260.46	15.0814
1263.83	36.9207
1267.21	38.8109
1270.58	25.2495
1273.96	20.2123
1277.33	27.6764
1280.71	37.8857
1284.08	42.9138
1287.46	32.5907
1290.83	36.3886
1294.21	7.14917
1297.58	10.0049
1300.96	37.3588
1304.33	23.9622
1307.71	4.64087
1311.08	3.11072
1314.46	9.25354
