Measurement: Raman, 532 nm, unoriented, Raman Data Processed
Mineral: Messelite
Rruff sample: R140175
Ideal chemistry: Ca_2_Fe^2+^(PO_4_)_2_2H_2_O
Locality: Messel mine, Messel, Darmstadt, Hesse, Germany
Source: Rock Currier
Description: Pale greenish white hemispherical or sheaflike aggregates of lamellar crystals, associated with anapaite (R141081). The cell parameters do not match messelite, but may be a related phase, perhaps a polytype. Needs more work.
Measured chemistry: Ca_1.98_(Fe_0.88_Mg_0.09_)_Ʃ=0.97_(P_1.01_O_4_)_2_·2H_2_O trace amount of Mn
Raman shift (cm-1)	intensity
96.5328	0
99.9077	183.127
103.282	532.467
106.657	23.4877
110.032	279.138
113.407	861.894
116.782	197.343
120.157	126.684
123.531	113.416
126.906	94.8903
130.281	80.3809
133.656	77.165
137.031	75.387
140.405	88.03
143.78	145.111
147.155	374.89
150.53	1260.98
153.905	902.643
157.28	1166.1
160.654	370.207
164.029	72.592
167.404	59.5
170.779	169.226
174.154	272.799
177.528	4.63379
180.903	16.6035
184.278	179.467
187.653	486.916
191.028	185.093
194.403	200.904
197.777	563.289
201.152	1485.27
204.527	2371.74
207.902	710.351
211.277	332.453
214.651	473.774
218.026	1054.61
221.401	2191.46
224.776	2166.21
228.151	1019.19
231.525	766.595
234.9	530.179
238.275	191.093
241.65	95.2544
245.025	124.893
248.4	138.607
251.774	8.86157
255.149	44.9163
258.524	28.0771
261.899	37.1492
265.274	158.258
268.649	222.852
272.023	90.5396
275.398	77.1848
278.773	181.224
282.148	470.481
285.523	1077.28
288.897	1665.11
292.272	1122.38
295.647	553.332
299.022	380.705
302.397	353.92
305.772	228.668
309.146	115.65
312.521	57.646
315.896	33.2478
319.271	38.4465
322.646	86.592
326.02	172.587
329.395	324.091
332.77	532.584
336.145	704.357
339.52	590.425
342.894	387.386
346.269	329.953
349.644	385.572
353.019	479.805
356.394	389.793
359.769	201.184
363.143	92.3674
366.518	47.6611
369.893	9.50513
373.268	3.85938
376.643	4.69238
380.017	0.559814
383.392	5.60718
386.767	0.950684
390.142	14.981
393.517	10.1377
396.892	3.00244
400.266	10.3062
403.641	28.7136
407.016	43.3804
410.391	59.6145
413.766	80.2617
417.14	129.047
420.515	205.16
423.89	340.4
427.265	604.749
430.64	1080.45
434.014	1528.3
437.389	1231.58
440.764	907.333
444.139	910.391
447.514	888.847
450.889	655.363
454.263	400.229
457.638	257.958
461.013	178.261
464.388	125.508
467.763	80.3354
471.137	75.8
474.512	54.6411
477.887	41.1758
481.262	29.9482
484.637	33.5315
488.012	28.4983
491.386	36.1182
494.761	19.0469
498.136	12.0259
501.511	6.7356
504.886	7.16284
508.26	1.1648
511.635	2.50806
515.01	4.88794
518.385	2.11743
521.76	1.4585
525.135	2.97412
528.509	7.6084
531.884	8.87964
535.259	3.47119
538.634	14.0884
542.009	73.6138
545.384	274.465
548.758	577.403
552.133	134.093
555.508	24.4221
558.883	2.85254
562.258	1.59448
565.632	16.2822
569.007	26.9246
572.382	74.8196
575.757	174.655
579.132	403.362
582.506	815.012
585.881	896.788
589.256	468.491
592.631	221.515
596.006	131.737
599.381	70.6394
602.755	33.24
606.13	20.0491
609.505	35.761
612.88	53.4001
616.255	108.427
619.63	209.461
623.004	340.409
626.379	266.841
629.754	150.397
633.129	108.05
636.504	120.949
639.878	166.291
643.253	253.595
646.628	390.766
650.003	595.211
653.378	830.989
656.752	880.81
660.127	667.494
663.502	418.91
666.877	256.128
670.252	143.535
673.626	86.8362
677.001	40.895
680.376	39.6853
683.751	11.8948
687.126	3.05859
690.501	0.748047
693.875	11.3679
697.25	5.49951
700.625	10.9231
704	3.41992
707.375	1.13647
710.75	2.37207
714.124	6.39014
717.499	6.41748
720.874	5.44409
724.249	25.5276
727.624	16.7053
730.998	18.178
734.373	16.9006
737.748	21.2705
741.123	24.1853
744.498	39.9756
747.872	37.1782
751.247	55.8648
754.622	56.5894
757.997	45.4605
761.372	45.8826
764.747	60.7029
768.121	75.7078
771.496	98.8347
774.871	115.799
778.246	131.68
781.621	130.657
784.995	137.44
788.37	125.027
791.745	107.68
795.12	106.27
798.495	104.085
801.87	107.491
805.244	116.274
808.619	127.33
811.994	95.1726
815.369	68.2764
818.744	56.8132
822.119	56.3528
825.493	34.7339
828.868	16.4016
832.243	18.2251
835.618	6.37842
838.993	10.751
842.367	9.26245
845.742	14.0039
849.117	1.06885
852.492	1.92895
855.867	0.844971
859.241	11.2146
862.616	1.63623
865.991	10.7734
869.366	3.80762
872.741	2.88672
876.115	7.64648
879.49	0.314453
882.865	6.20679
886.24	1.98975
889.615	23.6519
892.99	59.9233
896.364	81.2256
899.739	125.712
903.114	191.934
906.489	273.174
909.864	402.27
913.239	609.902
916.613	843.279
919.988	1164.36
923.363	1540.89
926.738	2011.92
930.113	2629.92
933.487	3639.59
936.862	5266.23
940.237	7778.53
943.612	9955.35
946.987	8709.2
950.361	5462.66
953.736	3268.26
957.111	2144.74
960.486	1705.52
963.861	1700.38
967.236	1597.03
970.61	929.771
973.985	490.872
977.36	288.322
980.735	171.64
984.11	117.361
987.485	88.7432
990.859	82.6758
994.234	116.588
997.609	207.334
1000.98	212.273
1004.36	91.0845
1007.73	20.5542
1011.11	6.51709
1014.48	19.9834
1017.86	22.3931
1021.23	11.7637
1024.61	2.74853
1027.98	57.1343
1031.36	132.89
1034.73	301.363
1038.11	565.922
1041.48	668.448
1044.86	401.883
1048.23	225
1051.61	108.238
1054.98	63.3433
1058.36	47.3887
1061.73	76.0952
1065.11	159.117
1068.48	353.171
1071.86	652.769
1075.23	463.693
1078.6	191.549
1081.98	97.1006
1085.35	42.9062
1088.73	25.3613
1092.1	16.148
1095.48	0.03125
1098.85	4.41943
1102.23	0.730469
1105.6	1.16162
1108.98	3.26514
1112.35	6.06836
1115.73	12.0381
1119.1	8.7666
1122.48	5.27344
1125.85	6.46826
1129.23	3.90967
1132.6	1.49072
1135.98	11.9492
1139.35	17.5034
1142.73	23.3066
1146.1	10.7661
1149.48	22.8564
1152.85	22.1738
1156.22	28.5488
1159.6	15.8955
1162.97	8.28565
1166.35	5.87988
1169.72	5.71045
1173.1	11.9917
1176.47	16.9111
1179.85	12.1826
1183.22	10.9727
1186.6	12.7729
1189.97	5.59863
1193.35	11.7676
1196.72	11.377
1200.1	10.6724
1203.47	8.67383
1206.85	10.2295
1210.22	13.0327
1213.6	16.4199
1216.97	15.4883
1220.35	17.9634
1223.72	30.561
1227.1	13.7827
1230.47	12.2021
1233.85	12.8403
1237.22	31.1367
1240.6	13.1533
1243.97	19.7471
1247.35	23.7114
1250.72	30.8628
1254.1	24.3818
1257.47	26.7383
1260.85	9.73389
1264.22	5.17285
1267.59	1.62891
1270.97	2.88965
1274.34	3.71826
1277.72	6.4043
1281.09	12.4531
1284.47	12.3066
1287.84	17.6992
1291.22	38.1968
1294.59	17.7661
1297.97	10.0903
1301.34	0.058105
