Measurement: Raman, 780 nm, unoriented, Raman Data Processed
Mineral: Messelite
Rruff sample: R140175
Ideal chemistry: Ca_2_Fe^2+^(PO_4_)_2_2H_2_O
Locality: Messel mine, Messel, Darmstadt, Hesse, Germany
Source: Rock Currier
Description: Pale greenish white hemispherical or sheaflike aggregates of lamellar crystals, associated with anapaite (R141081). The cell parameters do not match messelite, but may be a related phase, perhaps a polytype. Needs more work.
Measured chemistry: Ca_1.98_(Fe_0.88_Mg_0.09_)_Ʃ=0.97_(P_1.01_O_4_)_2_·2H_2_O trace amount of Mn
Raman shift (cm-1)	intensity
97.3453	0
100.72	268.022
104.095	101.772
107.47	33.257
110.845	223.001
114.219	110.29
117.594	25.4273
120.969	4.46863
124.344	1.36871
127.719	4.31964
131.094	1.02716
134.468	5.15527
137.843	1.31574
141.218	12.9702
144.593	34.7321
147.968	170.464
151.342	561.011
154.717	276.217
158.092	340.923
161.467	58.307
164.842	20.826
168.216	33.46
171.591	148.325
174.966	48.0602
178.341	6.72418
181.716	22.6095
185.09	91.2379
188.465	91.2155
191.84	28.014
195.215	45.4828
198.59	153.034
201.965	477.863
205.339	362.317
208.714	109.359
212.089	86.5101
215.464	161.452
218.839	413.086
222.214	756.265
225.588	457.433
228.963	246.922
232.338	226.34
235.713	121.847
239.088	50.8641
242.462	34.9575
245.837	49.6591
249.212	34.2233
252.587	2.33258
255.962	10.144
259.336	5.42273
262.711	12.5962
266.086	49.5198
269.461	41.9755
272.836	16.2836
276.211	23.441
279.585	51.0096
282.96	136.374
286.335	302.943
289.71	324.907
293.085	171.375
296.459	95.2158
299.834	83.5359
303.209	78.9161
306.584	39.4512
309.959	22.1148
313.334	11.4769
316.708	15.184
320.083	13.3292
323.458	30.4188
326.833	58.996
330.207	112.445
333.582	184.751
336.957	212.606
340.332	151.247
343.707	95.8182
347.082	89.6973
350.456	106.485
353.831	122.099
357.206	82.4373
360.581	38.7404
363.956	18.8084
367.33	11.0067
370.705	4.81848
374.08	1.00922
377.455	1.79443
380.83	1.97827
384.205	0.091431
387.579	0.108582
390.954	0.82251
394.329	0.801331
397.704	2.68994
401.079	8.06067
404.453	8.49512
407.828	13.3005
411.203	19.3983
414.578	25.6215
417.953	42.8514
421.327	80.4824
424.702	128.328
428.077	250.965
431.452	480.241
434.827	571.523
438.202	387.576
441.576	297.777
444.951	296.397
448.326	261.065
451.701	175.733
455.076	114.244
458.45	71.5228
461.825	50.4719
465.2	39.6594
468.575	32.6431
471.95	27.6349
475.325	21.0124
478.699	14.267
482.074	10.3353
485.449	13.8366
488.824	7.71533
492.199	5.1521
495.573	7.30865
498.948	8.11005
502.323	4.64862
505.698	2.47607
509.073	2.86151
512.447	2.96143
515.822	3.74078
519.197	1.56293
522.572	0.724854
525.947	0.377197
529.322	0.181091
532.696	0.934082
536.071	0.047058
539.446	5.45245
542.821	12.957
546.196	62.2909
549.57	62.2459
552.945	11.4225
556.32	2.02997
559.695	3.32495
563.07	0.481873
566.444	0.375244
569.819	4.43622
573.194	8.8811
576.569	22.6669
579.944	53.7067
583.319	94.9282
586.693	75.7815
590.068	34.8113
593.443	17.6493
596.818	10.3939
600.193	6.29157
603.567	4.73315
606.942	7.95489
610.317	12.529
613.692	24.3731
617.067	41.0028
620.442	79.5463
623.816	105.445
627.191	66.8289
630.566	35.4341
633.941	27.5427
637.316	30.6653
640.69	36.8458
644.065	50.0098
647.44	70.8111
650.815	105.381
654.19	122.761
657.564	114.294
660.939	78.1614
664.314	47.3976
667.689	27.7988
671.064	18.8746
674.439	12.1925
677.813	8.6911
681.188	3.55377
684.563	3.7605
687.938	3.33331
691.313	2.68677
694.688	1.13483
698.062	0.092468
701.437	0.52124
704.812	1.01025
708.187	1.61096
711.562	1.56799
714.936	0.453308
718.311	2.27917
721.686	0.858093
725.061	2.35382
728.436	2.00488
731.81	2.87909
735.185	0.767029
738.56	7.67621
741.935	5.79352
745.31	5.16156
748.684	5.59051
752.059	5.11047
755.434	5.82495
758.809	4.19452
762.184	4.8327
765.559	7.95813
768.933	7.6806
772.308	12.3509
775.683	14.1732
779.058	13.4409
782.433	14.65
785.808	12.1271
789.182	11.674
792.557	12.1473
795.932	9.24536
799.307	10.5587
802.682	10.1186
806.056	14.3126
809.431	11.522
812.806	5.53836
816.181	5.4516
819.556	9.04748
822.93	7.48828
826.305	4.62161
829.68	4.14468
833.055	2.68146
836.43	1.83017
839.804	2.93509
843.179	0.69223
846.554	2.69525
849.929	1.12256
853.304	1.91498
856.679	2.47397
860.053	0.502014
863.428	0.938599
866.803	0.949799
870.178	0.597076
873.553	0.097351
876.927	0.887299
880.302	0.402649
883.677	0.97998
887.052	5.61175
890.427	3.30087
893.802	4.91708
897.176	9.98346
900.551	19.0641
903.926	27.066
907.301	37.8285
910.676	57.5435
914.05	82.2368
917.425	117.676
920.8	153.869
924.175	199.181
927.55	264.391
930.924	363.497
934.299	507.078
937.674	756.462
941.049	1114.05
944.424	1256.45
947.799	944.613
951.173	577.561
954.548	365.811
957.923	271.726
961.298	253.553
964.673	280.119
968.047	229.973
971.422	115.398
974.797	58.7776
978.172	33.3655
981.547	26.0808
984.922	12.6186
988.296	10.2554
991.671	9.22879
995.046	18.0121
998.421	23.5986
1001.8	18.4286
1005.17	6.9068
1008.54	2.48459
1011.92	1.01794
1015.29	2.91162
1018.67	2.07993
1022.04	0.438293
1025.42	3.41305
1028.79	9.43045
1032.17	26.1328
1035.54	56.2016
1038.92	90.7524
1042.29	74.8084
1045.67	43.816
1049.04	27.4463
1052.42	14.9677
1055.79	12.2217
1059.17	19.1141
1062.54	26.6673
1065.92	62.6846
1069.29	118.81
1072.67	140.933
1076.04	68.1678
1079.42	30.3424
1082.79	17.0414
1086.17	13.9309
1089.54	12.1389
1092.92	9.28351
1096.29	0.353943
1099.66	3.31006
1103.04	4.19775
1106.41	2.21451
1109.79	1.91745
1113.16	2.86652
1116.54	2.61307
1119.91	2.44015
1123.29	0.799011
1126.66	2.49039
1130.04	3.06015
1133.41	1.38904
1136.79	3.35489
1140.16	3.07202
1143.54	1.84436
1146.91	5.29965
1150.29	3.38309
1153.66	5.31165
1157.04	3.92972
1160.41	7.2085
1163.79	5.68472
1167.16	6.30505
1170.54	5.69284
1173.91	7.0871
1177.29	14.3662
1180.66	10.8777
1184.04	9.54993
1187.41	13.1371
1190.79	9.23001
1194.16	9.09323
1197.54	4.26279
1200.91	1.88977
1204.28	7.91589
1207.66	1.83487
1211.03	1.70889
1214.41	1.4776
1217.78	3.38278
1221.16	0.800415
1224.53	7.44043
1227.91	3.73618
1231.28	1.04892
1234.66	0.14856
1238.03	1.70587
1241.41	0.819672
1244.78	1.11496
1248.16	1.31876
1251.53	2.6752
1254.91	1.5997
1258.28	1.70129
1261.66	0.901611
1265.03	4.46048
1268.41	2.53403
1271.78	2.20438
1275.16	2.89838
1278.53	0.83313
1281.9	7.7709
