Measurement: Raman, 532 nm, unoriented, Raman Data Processed
Mineral: Metatorbernite
Rruff sample: R130109
Ideal chemistry: Cu(UO_2_)_2_(PO_4_)_2_8H_2_O
Locality: Shinkolobwe mine,Katanga, Zaire
Source: Don Doell
Description: Associated with phosphuranylite R130108
Raman shift (cm-1)	intensity
90.3259	0
93.7007	3.56103
97.0755	0.680084
100.45	6.26648
103.825	3.12524
107.2	7.24841
110.575	10.2399
113.95	10.5281
117.324	13.5985
120.699	18.3706
124.074	18.5896
127.449	16.6058
130.824	12.8576
134.198	10.8811
137.573	8.52048
140.948	0.695145
144.323	0.389153
147.698	5.01758
151.073	2.6281
154.447	0.220078
157.822	1.80675
161.197	4.42839
164.572	6.95972
167.947	10.7015
171.321	7.99297
174.696	12.1951
178.071	26.6013
181.446	52.7219
184.821	78.7082
188.196	120.49
191.57	203.359
194.945	263.088
198.32	153.327
201.695	84.4739
205.07	61.8761
208.445	55.7295
211.819	50.5761
215.194	51.458
218.569	58.4598
221.944	62.1724
225.319	54.2118
228.693	40.3511
232.068	25.8033
235.443	18.1825
238.818	15.8181
242.193	14.7818
245.567	16.099
248.942	17.8637
252.317	19.3233
255.692	12.4083
259.067	7.63054
262.442	5.38042
265.816	6.13218
269.191	8.85517
272.566	12.3435
275.941	19.9513
279.316	29.6674
282.69	35.3332
286.065	37.1481
289.44	34.6726
292.815	28.1631
296.19	22.7141
299.565	21.4896
302.939	20.4824
306.314	18.6028
309.689	14.3749
313.064	9.88183
316.439	5.16942
319.813	2.89927
323.188	0.321609
326.563	0.19352
329.938	0.427711
333.313	0.964722
336.688	1.02647
340.062	0.870415
343.437	0.770218
346.812	0.17907
350.187	0.474648
353.562	2.99438
356.936	0.003693
360.311	0.017532
363.686	1.53649
367.061	1.48888
370.436	2.47141
373.81	2.56689
377.185	4.08727
380.56	4.41241
383.935	5.13117
387.31	7.05946
390.685	9.36388
394.059	15.2162
397.434	27.2211
400.809	37.6126
404.184	42.3044
407.559	48.0838
410.933	26.8434
414.308	12.5247
417.683	8.1894
421.058	7.25157
424.433	7.65864
427.808	13.361
431.182	19.0056
434.557	29.8578
437.932	40.1464
441.307	43.5474
444.682	33.6192
448.057	22.4904
451.431	14.9868
454.806	12.6279
458.181	12.1477
461.556	13.1615
464.93	10.7528
468.305	8.6096
471.68	5.9272
475.055	3.42558
478.43	1.85133
481.805	0.249718
485.179	0.367607
488.554	0.156868
491.929	0.722397
495.304	0.395889
498.679	0.200409
502.053	0.193481
505.428	1.5959
508.803	2.07075
512.178	1.34566
515.553	1.45987
518.928	0.732018
522.302	0.794525
525.677	1.07576
529.052	1.71369
532.427	2.38657
535.802	3.02826
539.177	2.22527
542.551	2.79783
545.926	3.4154
549.301	4.25677
552.676	4.94575
556.051	5.14481
559.425	5.58971
562.8	2.59712
566.175	1.44284
569.55	0.287895
572.925	1.51633
576.299	0.310349
579.674	0.119461
583.049	0.263321
586.424	0.391068
589.799	0.685242
593.174	6.10072
596.548	3.66972
599.923	7.79704
603.298	1.91975
606.673	1.9407
610.048	2.94775
613.423	3.98804
616.797	3.75111
620.172	4.90491
623.547	4.81994
626.922	4.02701
630.297	4.3731
633.671	3.7791
637.046	2.95226
640.421	2.05721
643.796	4.21477
647.171	3.5343
650.545	2.50925
653.92	2.87226
657.295	3.42931
660.67	3.24428
664.045	3.80636
667.42	2.90349
670.794	1.04768
674.169	1.47217
677.544	1.90559
680.919	0.59481
684.294	1.05418
687.668	4.81332
691.043	0.583351
694.418	0.056572
697.793	0.092491
701.168	0.60041
704.543	0.147667
707.917	0.180267
711.292	0.095726
714.667	0.240463
718.042	0.287842
721.417	0.572617
724.791	0.324074
728.166	0.734962
731.541	0.360184
734.916	0.027046
738.291	0.031387
741.665	0.476852
745.04	0.4552
748.415	1.57298
751.79	1.08061
755.165	1.52802
758.54	1.64717
761.914	1.87331
765.289	1.46728
768.664	1.98634
772.039	2.1823
775.414	2.43075
778.788	5.06646
782.163	6.17281
785.538	8.14507
788.913	10.5511
792.288	14.4976
795.663	21.1882
799.037	26.6655
802.412	38.264
805.787	54.2693
809.162	83.6701
812.537	144.369
815.912	265.007
819.286	422.317
822.661	711.533
826.036	1319
829.411	937.971
832.786	297.913
836.16	130.378
839.535	69.4687
842.91	39.134
846.285	22.8469
849.66	13.757
853.034	8.37986
856.409	6.11654
859.784	2.01544
863.159	0.442032
866.534	0.21125
869.909	1.42726
873.283	0.337715
876.658	0.485435
880.033	2.01522
883.408	4.10498
886.783	8.04314
890.158	10.602
893.532	15.5441
896.907	20.2311
900.282	23.2459
903.657	22.9189
907.032	18.0987
910.406	13.7126
913.781	9.00162
917.156	5.79679
920.531	3.74786
923.906	2.23102
927.28	0.973686
930.655	1.26032
934.03	0.976021
937.405	0.174416
940.78	0.024612
944.154	0.652176
947.529	2.43097
950.904	3.05863
954.279	5.96131
957.654	7.70921
961.029	9.87202
964.403	12.1075
967.778	17.0939
971.153	26.1099
974.528	44.4995
977.903	76.4261
981.278	134.365
984.652	232.061
988.027	375.119
991.402	409.203
994.777	368.096
998.152	321.778
1001.53	178.657
1004.9	122.539
1008.28	73.5063
1011.65	34.8036
1015.03	21.2656
1018.4	13.4785
1021.77	9.93205
1025.15	6.86453
1028.53	5.60564
1031.9	3.54721
1035.28	2.4951
1038.65	1.58218
1042.02	1.37199
1045.4	1.31388
1048.77	1.37162
1052.15	0.852234
1055.52	1.27157
1058.9	0.20118
1062.27	0.782288
1065.65	0.458824
1069.02	0.048622
1072.4	0.151535
1075.77	0.762047
1079.15	0.183506
1082.52	0.844048
1085.9	1.49817
1089.27	1.84515
1092.65	1.93114
1096.02	2.39512
1099.4	1.85431
1102.77	2.09745
1106.15	2.331
1109.52	2.19764
1112.89	4.19644
1116.27	2.76599
1119.64	2.32923
1123.02	2.32192
1126.39	1.07149
1129.77	1.40443
1133.14	0.467949
1136.52	0.856628
1139.89	0.234798
1143.27	0.926601
1146.64	0.603546
1150.02	0.998135
1153.39	0.398708
1156.77	3.53256
1160.14	0.159
1163.52	0.106308
1166.89	0.295227
1170.27	0.912376
1173.64	0.871426
1177.02	0.326427
1180.39	0.801609
1183.77	0.746056
1187.14	0.367355
1190.52	0.937763
1193.89	1.36041
1197.27	0.052528
1200.64	1.34136
1204.02	1.20775
1207.39	0.952652
1210.77	1.09792
1214.14	0.52354
1217.52	0.558704
1220.89	1.17431
1224.26	0.896133
1227.64	0.530056
1231.01	0.99094
1234.39	0.989288
1237.76	0.406338
1241.14	0.543552
1244.51	0.483944
1247.89	0.742424
1251.26	0.636246
1254.64	0.925758
1258.01	0.158432
1261.39	0.787418
1264.76	1.54416
1268.14	1.10661
1271.51	1.27033
1274.89	3.38477
1278.26	0.981918
1281.64	0.592957
1285.01	0.950493
1288.39	0.846146
1291.76	0.811035
1295.13	0.880569
1298.51	0.805344
1301.88	0
