Measurement: Raman, 780 nm, unoriented, Raman Data Processed
Mineral: Metamunirite
Rruff sample: R060624
Ideal chemistry: NaV^5+^O_3_
Locality: Big Gypsum Valley, San Miguel County, Colorado, USA
Source: Michael Scott
Description: Tan colored divergent radial spray of bladed crystals
Measured chemistry: (Na_0.98_Ca_0.02_)_Σ=1_(V^5+^_0.99_Al_0.01_)_Σ=1_O_3_
Raman shift (cm-1)	intensity
140.066	0
142.959	12.7423
145.852	24.3301
148.744	31.9647
151.637	21.6361
154.53	13.6017
157.423	4.62585
160.315	0.369202
163.208	5.93964
166.101	10.9188
168.994	10.279
171.886	25.6631
174.779	116.095
177.672	261.391
180.564	466.335
183.457	742.38
186.35	1050.97
189.242	1394.33
192.135	1799.2
195.028	2207.11
197.921	2511.74
200.813	2628.75
203.706	2326.55
206.599	1714.15
209.491	1133.35
212.384	713.906
215.277	449.341
218.169	293.032
221.062	205.898
223.955	177.232
226.847	184.581
229.74	239.219
232.633	335.251
235.526	483.592
238.418	665.464
241.311	853.504
244.204	1040.12
247.096	1264.89
249.989	1503.23
252.882	1703.41
255.774	1753.07
258.667	1602.84
261.56	1407.71
264.453	1293.95
267.345	1260.45
270.238	1317.01
273.131	1440
276.023	1616.45
278.916	1827.61
281.809	1995.33
284.702	2086.94
287.594	2036.62
290.487	1848.48
293.38	1616.74
296.272	1310.8
299.165	907.864
302.058	556.674
304.95	330.59
307.843	194.65
310.736	119.443
313.628	64.3936
316.521	25.107
319.414	2.68912
322.307	12.3927
325.199	18.5319
328.092	21.1522
330.985	18.5989
333.877	17.0542
336.77	11.5671
339.663	6.74663
342.556	1.33522
345.448	3.17912
348.341	11.51
351.234	17.6441
354.126	22.6287
357.019	27.621
359.912	35.2756
362.805	41.3744
365.697	46.5386
368.59	52.9273
371.483	60.6146
374.375	68.6059
377.268	76.289
380.161	81.0361
383.053	80.5932
385.946	82.4128
388.839	81.1573
391.731	84.7008
394.624	86.7946
397.517	94.1036
400.41	105.734
403.302	128.348
406.195	164.586
409.088	234.69
411.98	362.101
414.873	569.866
417.766	766.509
420.659	976.208
423.551	1289.23
426.444	1698.09
429.337	2120.85
432.229	1994.37
435.122	1254.02
438.015	713.256
440.907	460.478
443.8	312.187
446.693	216.176
449.586	145.232
452.478	97.9091
455.371	63.8852
458.264	43.355
461.156	28.7434
464.049	20.5063
466.942	14.9243
469.834	9.29271
472.727	4.70022
475.62	1.88092
478.512	0.955315
481.405	1.23789
484.298	1.59759
487.191	2.25031
490.083	1.26276
492.976	2.63565
495.869	1.30689
498.761	0.217438
501.654	0.424614
504.547	1.31079
507.44	3.28468
510.332	6.64086
513.225	9.63507
516.118	13.0123
519.01	20.105
521.903	28.2891
524.796	35.7945
527.688	49.2062
530.581	68.5213
533.474	98.3986
536.367	138.09
539.259	201.406
542.152	278.843
545.045	366.973
547.937	459.704
550.83	562.788
553.723	642.544
556.615	640.483
559.508	522.877
562.401	356.695
565.294	228.659
568.186	148.067
571.079	99.5013
573.972	67.6486
576.864	47.3466
579.757	31.9332
582.65	19.4076
585.543	13.1127
588.435	7.29739
591.328	5.11018
594.221	2.50664
597.113	0.195656
600.006	8.74873
602.899	0.458908
605.791	3.15637
608.684	3.58858
611.577	2.03653
614.47	2.92081
617.362	2.65511
620.255	2.80593
623.148	3.01759
626.04	4.39926
628.933	3.64847
631.826	3.00021
634.718	5.38207
637.611	4.05176
640.504	1.0095
643.396	0.854179
646.289	0.794731
649.182	0.027046
652.075	1.79099
654.967	2.35606
657.86	2.05137
660.753	1.45884
663.645	1.5231
666.538	1.29506
669.431	0.754715
672.323	1.19315
675.216	3.94003
678.109	7.49323
681.002	9.09071
683.894	13.3439
686.787	18.1922
689.68	25.2088
692.572	32.9169
695.465	41.3548
698.358	52.7153
701.251	68.8624
704.143	88.9918
707.036	118.985
709.929	161.975
712.821	224.08
715.714	313.658
718.607	432.561
721.5	578.033
724.392	749.352
727.285	913.686
730.178	1026.7
733.07	1021.35
735.963	870.639
738.856	675.083
741.748	498.811
744.641	371.393
747.534	274.016
750.427	200.373
753.319	152.027
756.212	114.236
759.105	87.058
761.997	67.8097
764.89	53.6855
767.783	41.9304
770.675	37.6382
773.568	29.0826
776.461	29.0559
779.354	20.0498
782.246	16.943
785.139	17.6936
788.032	10.8599
790.924	10.7854
793.817	9.65177
796.71	8.39901
799.602	5.87247
802.495	7.45478
805.388	4.09269
808.281	2.88169
811.173	1.6049
814.066	0.302608
816.959	0.424149
819.851	1.57604
822.744	1.50378
825.637	1.5992
828.529	1.74458
831.422	1.4189
834.315	1.27932
837.208	1.39115
840.1	0.108883
842.993	0.03775
845.886	0.087242
848.778	2.23902
851.671	1.97044
854.564	2.06707
857.457	0.364491
860.349	3.63295
863.242	2.88057
866.135	5.38832
869.027	10.9272
871.92	20.071
874.813	43.2894
877.705	73.1376
880.598	103.02
883.491	160.032
886.384	246.754
889.276	246.447
892.169	101.723
895.062	45.2681
897.954	43.9569
900.847	53.2442
903.74	67.1988
906.632	93.8911
909.525	135.399
912.418	111.301
915.311	59.9096
918.203	50.7681
921.096	58.6458
923.989	68.613
926.881	84.9799
929.774	120.985
932.667	237.855
935.559	394.149
938.452	556.129
941.345	881.416
944.237	1450.19
947.13	1204.13
950.023	424.642
952.916	182.787
955.808	103.094
958.701	64.6816
961.594	44.2148
964.486	31.1943
967.379	23.8483
970.272	19.4709
973.165	15.2421
976.057	12.4311
978.95	7.52547
981.843	4.88831
984.735	3.14167
987.628	0.358707
990.521	0.601524
993.413	1.03961
996.306	1.23869
999.199	0.596859
1002.09	0.710152
1004.98	0.207123
1007.88	0.328613
1010.77	1.31231
1013.66	0.132717
1016.55	0.398209
1019.45	0.363461
1022.34	1.11656
1025.23	0.388802
1028.13	0.157368
1031.02	0.013588
1033.91	1.35501
1036.8	1.62144
1039.7	2.24776
1042.59	1.94993
1045.48	3.18747
1048.38	3.07759
1051.27	3.917
1054.16	2.46954
1057.05	2.25511
1059.95	2.39702
1062.84	2.7279
1065.73	1.86114
1068.62	1.09902
1071.52	2.29013
1074.41	1.88984
1077.3	1.88636
1080.19	1.97913
1083.09	1.92077
1085.98	0.49147
1088.87	1.47212
1091.77	0.992048
1094.66	0.880047
1097.55	1.24318
1100.44	1.21611
1103.34	1.34296
1106.23	0.077995
1109.12	0.661083
1112.01	0.747442
1114.91	1.60381
1117.8	1.0303
1120.69	1.33658
1123.59	1.01107
1126.48	1.11868
1129.37	1.28713
1132.26	2.04216
1135.16	1.52419
1138.05	1.82298
1140.94	2.36876
1143.83	2.41662
1146.73	3.65836
1149.62	2.63197
1152.51	1.88406
1155.4	0.745506
1158.3	2.04595
1161.19	0.680775
1164.08	1.22557
1166.98	0.626413
1169.87	0.773798
1172.76	1.08025
1175.65	0.4669
1178.55	0.839296
1181.44	0.153383
1184.33	0.095781
1187.22	0.679585
1190.12	1.24343
1193.01	0.210135
1195.9	0.873911
1198.8	0.874554
1201.69	1.14427
1204.58	1.02446
1207.47	0.545753
1210.37	0.682257
1213.26	0.228832
1216.15	0.319717
1219.04	0.240416
1221.94	0.179073
1224.83	0.548069
1227.72	0.722828
1230.62	0.518892
1233.51	1.15776
1236.4	0.425621
1239.29	0.888306
1242.19	0.188648
1245.08	0.908369
1247.97	1.12439
1250.86	1.57291
1253.76	1.07441
1256.65	1.21462
1259.54	0.076382
1262.43	1.01011
1265.33	1.76606
1268.22	0.467541
1271.11	1.16448
1274.01	0.833492
1276.9	0.650829
1279.79	0.538363
1282.68	0.532495
1285.58	1.07574
