Measurement: Raman, 780 nm, unoriented, Raman Data Processed
Mineral: Metatorbernite
Rruff sample: R070686
Ideal chemistry: Cu(UO_2_)_2_(PO_4_)_2_8H_2_O
Locality: Fichtelgebirge, Franconia, Bavaria, Germany
Source: Michael Scott
Description: Green tabular crystals
Raman shift (cm-1)	intensity
134.994	0
137.887	0.026886
140.779	0.397196
143.672	0.271845
146.565	1.39216
149.458	0.796062
152.35	0.625673
155.243	0.164165
158.136	0.41925
161.028	0.082254
163.921	0.192011
166.814	0.131102
169.706	1.53085
172.599	2.37382
175.492	4.0916
178.385	6.52202
181.277	9.71571
184.17	14.4796
187.063	21.6459
189.955	28.6315
192.848	30.0434
195.741	24.9239
198.633	13.5189
201.526	7.30269
204.419	6.04242
207.311	6.27773
210.204	7.87556
213.097	10.4423
215.99	13.068
218.882	16.4729
221.775	17.7114
224.668	14.9448
227.56	11.1998
230.453	6.23307
233.346	4.55353
236.238	2.29738
239.131	1.95295
242.024	0.872216
244.917	1.31726
247.809	1.96094
250.702	1.33635
253.595	1.41646
256.487	1.13974
259.38	0.422668
262.273	0.121967
265.166	0.241471
268.058	0.117456
270.951	0.37195
273.844	1.46921
276.736	2.4753
279.629	3.79131
282.522	4.78783
285.414	5.96295
288.307	6.21188
291.2	5.7541
294.092	4.3782
296.985	3.29137
299.878	2.93953
302.771	2.9477
305.663	2.40437
308.556	1.9005
311.449	2.00568
314.341	1.43555
317.234	0.787561
320.127	0.263053
323.019	0.150087
325.912	0.053644
328.805	0.267216
331.698	0.083906
334.59	0.024382
337.483	0.132005
340.376	0.052787
343.268	0.230924
346.161	0.071576
349.054	0.416386
351.947	0.121634
354.839	0.39563
357.732	0.17279
360.625	0.245991
363.517	0.606073
366.41	0.422242
369.303	0.52439
372.195	0.852077
375.088	0.970573
377.981	1.10793
380.873	1.31185
383.766	2.6705
386.659	3.00095
389.552	5.2531
392.444	9.24092
395.337	16.4096
398.23	28.4094
401.122	34.9697
404.015	40.2288
406.908	46.6848
409.8	29.561
412.693	13.6243
415.586	7.51789
418.479	4.5621
421.371	3.98929
424.264	3.50541
427.157	4.31376
430.049	5.20124
432.942	7.87734
435.835	10.6641
438.728	12.455
441.62	12.3324
444.513	9.63194
447.406	6.4127
450.298	4.42314
453.191	3.69322
456.084	3.41783
458.976	3.75746
461.869	3.04813
464.762	3.07803
467.654	2.07643
470.547	1.54462
473.44	1.66112
476.333	0.285262
479.225	0.090821
482.118	0.246984
485.011	0.048689
487.903	0.160851
490.796	0.315436
493.689	0.089713
496.582	0.032658
499.474	0.131973
502.367	0.252388
505.26	0.096902
508.152	0.368685
511.045	0.353729
513.938	0.387466
516.83	0.237805
519.723	0.229909
522.616	0.016124
525.509	0.704085
528.401	0.858769
531.294	0.524709
534.187	1.21966
537.079	1.17668
539.972	0.596757
542.865	0.761804
545.757	0.713463
548.65	0.542933
551.543	0.712107
554.436	0.853777
557.328	0.472382
560.221	0.614637
563.114	0.100905
566.006	0.21331
568.899	0.208068
571.792	0.210771
574.684	0.043872
577.577	0.175709
580.47	0.025886
583.362	0.664476
586.255	0.425617
589.148	0.668967
592.041	0.71551
594.933	1.17159
597.826	1.08074
600.719	1.40689
603.611	1.6375
606.504	2.00519
609.397	2.30014
612.29	2.51002
615.182	2.89432
618.075	3.2298
620.968	3.20828
623.86	2.94626
626.753	2.69635
629.646	2.70351
632.538	2.6102
635.431	2.00975
638.324	1.6598
641.217	1.56873
644.109	1.36053
647.002	1.50918
649.895	1.18102
652.787	1.536
655.68	1.09351
658.573	1.02376
661.466	0.563741
664.358	1.10778
667.251	1.04012
670.144	0.834898
673.036	0.566554
675.929	0.551082
678.822	0.464625
681.714	0.370844
684.607	0.288286
687.5	0.455877
690.393	0.22736
693.285	0.305938
696.178	0.011846
699.071	0.434702
701.963	0.022944
704.856	0.233464
707.749	0.316385
710.641	0.181413
713.534	0.076888
716.427	0.024459
719.319	0.21238
722.212	0.00686
725.105	0.031405
727.998	0.473791
730.89	0.222368
733.783	0.00738
736.676	0.060653
739.568	0.016472
742.461	0.330873
745.354	0.176389
748.246	0.432051
751.139	0.073881
754.032	0.325993
756.925	0.434608
759.817	0.117599
762.71	0.32681
765.603	0.484803
768.495	0.630935
771.388	0.243975
774.281	0.859261
777.173	1.12988
780.066	1.35884
782.959	1.80166
785.852	1.88659
788.744	2.72416
791.637	3.42884
794.53	4.19383
797.422	5.72811
800.315	6.41199
803.208	8.2716
806.101	10.5845
808.993	14.6494
811.886	21.3324
814.779	31.8732
817.671	51.0311
820.564	89.1986
823.457	157.977
826.349	227.857
829.242	125.317
832.135	50.6172
835.028	26.5617
837.92	16.6477
840.813	11.2009
843.706	6.93976
846.598	4.93575
849.491	4.57953
852.384	4.07852
855.276	2.95607
858.169	2.26504
861.062	0.967016
863.955	0.429436
866.847	0.339132
869.74	0.02075
872.633	0.159777
875.525	0.352445
878.418	0.234059
881.311	0.605552
884.203	1.13278
887.096	1.41026
889.989	1.926
892.881	2.66835
895.774	3.3301
898.667	3.10667
901.56	3.24015
904.452	2.83033
907.345	2.31786
910.238	1.89494
913.13	0.864517
916.023	0.611473
918.916	0.364763
921.808	0.011378
924.701	0.063148
927.594	0.229313
930.487	0.066723
933.379	0.032191
936.272	0.033516
939.165	0.14103
942.057	0.450521
944.95	0.779588
947.843	1.28209
950.736	2.0349
953.628	3.55332
956.521	4.1245
959.414	4.54938
962.306	5.34182
965.199	6.16296
968.092	9.09089
970.984	13.4225
973.877	20.4296
976.77	32.279
979.663	53.1227
982.555	88.4991
985.448	138.942
988.341	188.282
991.233	196.254
994.126	178.592
997.019	155.234
999.911	105.469
1002.8	65.8755
1005.7	49.2437
1008.59	26.7873
1011.48	14.5339
1014.38	9.22289
1017.27	6.73398
1020.16	4.50471
1023.05	3.64577
1025.95	2.81729
1028.84	1.74818
1031.73	1.34479
1034.62	1.2167
1037.52	1.09506
1040.41	0.749149
1043.3	0.676588
1046.19	0.083727
1049.09	0.227498
1051.98	0.455543
1054.87	0.081077
1057.77	0.163782
1060.66	0.001265
1063.55	0.048985
1066.44	0.182352
1069.34	0.031704
1072.23	0.010708
1075.12	0.091638
1078.01	0.398424
1080.91	0.457397
1083.8	0.078691
1086.69	0.318938
1089.59	0.353201
1092.48	0.325166
1095.37	0.095791
1098.26	0.728036
1101.16	0.368568
1104.05	0.282716
1106.94	0.703825
1109.83	0.015945
1112.73	0.564814
1115.62	0.280397
1118.51	0.322514
1121.4	0.408165
1124.3	0.150951
1127.19	0.000124
1130.08	0.498469
1132.98	0.012706
1135.87	0.4079
1138.76	0.312451
1141.65	0.174238
1144.55	0.065178
1147.44	0.740027
1150.33	0.276515
1153.22	0.385354
1156.12	0.132522
1159.01	0.261765
1161.9	0.126176
1164.8	0.505204
1167.69	0.460409
1170.58	0.590958
1173.47	0.210023
1176.37	0.348461
1179.26	0.430868
1182.15	0.544537
1185.04	0.300062
1187.94	0.163676
1190.83	0.474481
1193.72	0.232133
1196.62	0.201293
1199.51	0.341857
1202.4	0.167727
1205.29	0.398978
1208.19	0.382536
1211.08	0.31662
1213.97	0.539113
1216.86	0.421597
1219.76	0.25485
1222.65	0.330278
1225.54	0.381808
1228.43	0.53748
1231.33	0.019351
1234.22	0.569905
1237.11	0.486565
1240.01	0.341531
1242.9	0.397615
1245.79	0.247752
1248.68	0.292795
1251.58	0.257129
1254.47	0.467617
1257.36	0.529315
1260.25	0.089597
1263.15	0.386379
1266.04	0.642632
1268.93	0.096188
1271.83	0.249173
1274.72	0.823827
1277.61	0.284914
1280.5	0.454402
1283.4	0.095265
