Measurement: Raman, 532 nm, unoriented, Raman Data Processed
Mineral: Metarossite
Rruff sample: R060598
Ideal chemistry: CaV^5+^_2_O_6_2H_2_O
Locality: Arrowhead Claim, Slick Rock, San Miguel County, Colorado, USA
Source: Michael Scott
Description: Light yellow massive
Measured chemistry: (Ca_0.96_Al_0.02_[box]_0.02_)_Σ=1_V^5+^_2.00_O_6_·2H_2_O
Raman shift (cm-1)	intensity
90.4922	0
93.867	52.0393
97.2418	171.302
100.617	300.377
103.992	477.755
107.366	549.771
110.741	838.563
114.116	1098.84
117.491	796.74
120.865	502.731
124.24	224.643
127.615	10.2463
130.99	183.953
134.365	275.234
137.74	141.026
141.114	272.792
144.489	395.164
147.864	484.93
151.239	1001.39
154.614	1704.95
157.988	2425.27
161.363	2616.63
164.738	2056.79
168.113	1804.37
171.488	1937.04
174.863	2407.51
178.237	3326.83
181.612	3975.62
184.987	3682.13
188.362	3898.86
191.737	5162.29
195.112	6884.85
198.486	6948.52
201.861	5797.16
205.236	5364.45
208.611	6086.65
211.986	5676.91
215.36	3861.5
218.735	2264.65
222.11	1617.42
225.485	1807.72
228.86	2362.97
232.234	2861.25
235.609	3207.8
238.984	3746.22
242.359	4505.89
245.734	4731.23
249.109	4367.32
252.483	4570.2
255.858	5587.6
259.233	6674.01
262.608	7552.77
265.983	8331.23
269.358	9356.07
272.732	10939.1
276.107	11277.8
279.482	11196.9
282.857	10047.1
286.232	6127.16
289.606	2920.68
292.981	1385.22
296.356	680.375
299.731	380.168
303.106	228.962
306.481	162.339
309.855	87.5923
313.23	10.3018
316.605	66.4885
319.98	152.777
323.355	212.526
326.729	220.8
330.104	180.495
333.479	78.9648
336.854	90.0811
340.229	334.488
343.603	622.045
346.978	955.869
350.353	1307.51
353.728	1619.46
357.103	1795.42
360.478	1722.66
363.852	1467.13
367.227	1147.57
370.602	882.38
373.977	704.051
377.352	572.808
380.726	465.822
384.101	398.06
387.476	360.932
390.851	242.57
394.226	132.059
397.601	167.475
400.975	335.76
404.35	669.846
407.725	1188.86
411.1	1841.86
414.475	2629.08
417.849	3654.45
421.224	4601.3
424.599	4552.44
427.974	3105.59
431.349	1744.71
434.724	1044.63
438.098	753.305
441.473	679.533
444.848	708.814
448.223	774.537
451.598	845.744
454.972	853.814
458.347	886.331
461.722	966.952
465.097	1170.15
468.472	1434.72
471.846	1668
475.221	1653.84
478.596	1262.86
481.971	735.308
485.346	350.128
488.721	118.855
492.095	15.2835
495.47	49.4875
498.845	57.6528
502.22	31.7786
505.595	0.359375
508.969	56.5449
512.344	132.031
515.719	239.336
519.094	377.699
522.469	572.103
525.844	829.648
529.218	1096.03
532.593	1349.3
535.968	1439.11
539.343	1281.57
542.718	1022.22
546.092	811.106
549.467	706.39
552.842	623.704
556.217	536.015
559.592	455.819
562.967	369.031
566.341	294.383
569.716	228.627
573.091	172.569
576.466	121.91
579.841	90.1309
583.216	76.4568
586.59	60.0344
589.965	51.8965
593.34	28.6348
596.715	15.6904
600.09	6.97192
603.464	7.25806
606.839	7.08911
610.214	3.07129
613.589	4.24097
616.964	14.1926
620.338	15.4602
623.713	15.019
627.088	8.31445
630.463	0.702881
633.838	13.5185
637.212	14.0142
640.587	4.76318
643.962	6.65894
647.337	3.00415
650.712	7.78931
654.087	22.5613
657.461	19.4387
660.836	31.3936
664.211	55.7373
667.586	89.7429
670.961	180.891
674.335	283.012
677.71	434.483
681.085	667.985
684.46	1023
687.835	1530.46
691.21	2215.26
694.584	3020.53
697.959	3848.25
701.334	4380.87
704.709	4323.87
708.084	3721.51
711.458	2927.6
714.833	2274.67
718.208	1826.02
721.583	1584.26
724.958	1502.47
728.332	1494.2
731.707	1548.96
735.082	1680.45
738.457	1821.91
741.832	2010.16
745.207	2218.11
748.581	2365
751.956	2420.33
755.331	2254.06
758.706	1919.64
762.081	1470.18
765.456	1049.86
768.83	719.747
772.205	464.95
775.58	306.166
778.955	195.533
782.33	109.76
785.704	67.4878
789.079	31.9348
792.454	14.2207
795.829	5.11597
799.204	17.0676
802.578	12.8928
805.953	28.5051
809.328	24.9248
812.703	29.5898
816.078	26.2136
819.453	16.8777
822.827	10.2527
826.202	5.23486
829.577	2.22119
832.952	26.8008
836.327	39.2
839.702	63.3906
843.076	113.324
846.451	191.47
849.826	313.707
853.201	548.778
856.576	1029.58
859.95	1985.55
863.325	3243.44
866.7	5324.88
870.075	8094.62
873.45	8179.44
876.824	5516.65
880.199	4957.03
883.574	5810.61
886.949	6387.7
890.324	4749.38
893.698	2464.07
897.073	1271.28
900.448	716.984
903.823	425.852
907.198	253.453
910.573	179.141
913.947	165.688
917.322	271.035
920.697	561.245
924.072	1084.87
927.447	1757.85
930.822	3153.71
934.196	4520.8
937.571	3180.05
940.946	3243.45
944.321	5470.32
947.696	8486.85
951.07	14690.6
954.445	19801.2
957.82	9957.74
961.195	3135.31
964.57	1295.81
967.944	637.783
971.319	339.546
974.694	191.004
978.069	96.3103
981.444	49.0566
984.819	20.4807
988.193	0.500732
991.568	9.2981
994.943	26.0388
998.318	35.7424
1001.69	20.948
1005.07	12.1377
1008.44	4.72827
1011.82	9.19995
1015.19	21.7891
1018.57	11.1951
1021.94	31.4861
1025.32	20.2752
1028.69	49.8347
1032.07	50.353
1035.44	58.6006
1038.82	53.2739
1042.19	52.4922
1045.57	57.0547
1048.94	63.1526
1052.32	62.3916
1055.69	63.0615
1059.07	54.9343
1062.44	47.1802
1065.81	31.0373
1069.19	25.0769
1072.56	28.9949
1075.94	44.6323
1079.31	41.9839
1082.69	32.956
1086.06	30.5857
1089.44	24.4668
1092.81	38.9905
1096.19	33.8857
1099.56	23.1694
1102.94	25.6995
1106.31	25.3416
1109.69	19.0911
1113.06	19.3555
1116.44	15.1543
1119.81	18.8772
1123.19	20.668
1126.56	4.40552
1129.94	6.15064
1133.31	8.69922
1136.68	13.9202
1140.06	9.14355
1143.43	20.8052
1146.81	7.25195
1150.18	14.9719
1153.56	18.5286
1156.93	19.1787
1160.31	6.85718
1163.68	2.22559
1167.06	6.41992
1170.43	6.34912
1173.81	5.76245
1177.18	3.72144
1180.56	1.53906
1183.93	3.72095
1187.31	7.34766
1190.68	0.350342
1194.06	0.327637
1197.43	13.3477
1200.81	5.24561
1204.18	0.329834
1207.56	3.14868
1210.93	11.2539
1214.31	11.7991
1217.68	10.6843
1221.06	9.76831
1224.43	1.85547
1227.81	0.439941
1231.18	3.23022
1234.56	7.45215
1237.93	5.04468
1241.31	2.23657
1244.68	3.2959
1248.05	7.39502
1251.43	16.9148
1254.8	15.2983
1258.18	9.98608
1261.55	5.00513
1264.93	11.8086
1268.3	20.7942
1271.68	13.761
1275.05	7.20312
1278.43	3.78979
1281.8	11.1404
1285.18	0.054932
1288.55	2.54663
1291.93	4.75122
1295.3	14.3003
1298.68	18.928
1302.05	9.64331
