Measurement: Raman, 532 nm, unoriented, Raman Data Processed
Mineral: Metamunirite
Rruff sample: R060624
Ideal chemistry: NaV^5+^O_3_
Locality: Big Gypsum Valley, San Miguel County, Colorado, USA
Source: Michael Scott
Description: Tan colored divergent radial spray of bladed crystals
Measured chemistry: (Na_0.98_Ca_0.02_)_Σ=1_(V^5+^_0.99_Al_0.01_)_Σ=1_O_3_
Raman shift (cm-1)	intensity
140.666	0
144.041	23.7865
147.416	54.5934
150.79	33.4425
154.165	56.4122
157.54	61.4581
160.915	31.8793
164.29	9.8252
167.664	45.9574
171.039	28.7756
174.414	106.725
177.789	418.954
181.164	898.879
184.538	1615.67
187.913	2550.73
191.288	3753.74
194.663	4993.48
198.038	5891.95
201.412	6105.95
204.787	4902.58
208.162	3190.2
211.537	1931.4
214.912	1173.35
218.287	744.902
221.661	533.576
225.036	476.341
228.411	540.2
231.786	741.63
235.161	1111.13
238.536	1627.11
241.91	2263.62
245.285	2945.66
248.66	3731.96
252.035	4537.31
255.41	4865.72
258.784	4473.88
262.159	3853.29
265.534	3416.22
268.909	3256.77
272.284	3406.95
275.659	3837.14
279.033	4482.68
282.408	5135.76
285.783	5488.04
289.158	5433.9
292.533	5091.45
295.907	4289.58
299.282	2827.62
302.657	1582.88
306.032	879.904
309.407	499.905
312.781	265.925
316.156	119.49
319.531	33.1267
322.906	17.638
326.281	43.6681
329.656	49.3435
333.03	47.5389
336.405	41.0101
339.78	26.3716
343.155	9.64368
346.53	5.68045
349.904	20.8265
353.279	37.8531
356.654	55.2676
360.029	73.2814
363.404	94.3607
366.779	112.061
370.153	133.685
373.528	164.592
376.903	193.339
380.278	211.647
383.653	222.615
387.027	237.372
390.402	250.574
393.777	276.034
397.152	306.891
400.527	360.953
403.901	457.893
407.276	621.896
410.651	950.185
414.026	1623.4
417.401	2698.88
420.776	3954.54
424.15	5918.36
427.525	8669.44
430.9	10010.9
434.275	6626.67
437.65	3349.94
441.024	1926.13
444.399	1224.62
447.774	789.168
451.149	491.113
454.524	303.45
457.899	193.905
461.273	127.428
464.648	82.0925
468.023	48.4317
471.398	26.9096
474.773	11.9514
478.147	3.99918
481.522	0.391479
484.897	2.66968
488.272	8.58582
491.647	9.60113
495.022	8.35113
498.396	3.95914
501.771	1.17328
505.146	5.7775
508.521	13.9015
511.896	27.1463
515.27	49.6179
518.645	74.6865
522.02	109.295
525.395	159.68
528.77	229.521
532.145	335.667
535.519	510.49
538.894	777.975
542.269	1196.3
545.644	1725.69
549.019	2371.7
552.394	3004.38
555.768	3215.84
559.143	2647.37
562.518	1721.97
565.893	1041.53
569.268	652.869
572.642	412.947
576.017	273.664
579.392	179.237
582.767	117.121
586.142	73.2198
589.516	47.4973
592.891	25.559
596.266	17.4943
599.641	12.3993
603.016	11.5045
606.39	10.6276
609.765	14.237
613.14	12.1519
616.515	13.0438
619.89	11.6611
623.265	13.8226
626.639	14.8098
630.014	16.16
633.389	21.0377
636.764	21.146
640.139	18.0437
643.514	8.85626
646.888	4.33606
650.263	1.62656
653.638	6.04135
657.013	8.19006
660.388	7.84146
663.762	8.27011
667.137	4.48703
670.512	1.60922
673.887	4.66876
677.262	17.5605
680.636	30.0406
684.011	49.4592
687.386	66.4764
690.761	94.6194
694.136	125.175
697.511	163.387
700.885	225.879
704.26	299.38
707.635	416.546
711.01	590.258
714.385	868.165
717.76	1293.16
721.134	1894.16
724.509	2642.87
727.884	3376.84
731.259	3700.68
734.634	3313.65
738.008	2511.06
741.383	1765.53
744.758	1222.36
748.133	855.331
751.508	607.702
754.882	440.582
758.257	330.031
761.632	248.138
765.007	195.477
768.382	159.849
771.756	131.556
775.131	109.041
778.506	91.9672
781.881	76.7315
785.256	61.7957
788.631	51.3273
792.005	43.2199
795.38	40.5406
798.755	33.0741
802.13	24.294
805.505	19.0963
808.88	9.25868
812.254	3.98039
815.629	3.37648
819.004	5.79422
822.379	7.90292
825.754	8.789
829.128	8.29723
832.503	7.10193
835.878	5.68346
839.253	0.913773
842.628	4.03957
846.003	4.91725
849.377	4.4507
852.752	3.25455
856.127	4.17877
859.502	4.88013
862.877	10.8892
866.251	22.8094
869.626	53.2788
873.001	131.8
876.376	339.097
879.751	638.374
883.125	1184.04
886.5	1927.66
889.875	1608.55
893.25	455.605
896.625	221.717
900	263.897
903.374	350.316
906.749	563.484
910.124	763.592
913.499	447.56
916.874	248.309
920.249	256.424
923.623	297.348
926.998	353.521
930.373	513.439
933.748	1228.97
937.123	2304.43
940.497	4476.85
943.872	7924.66
947.247	6089.85
950.622	1758.19
953.997	733.215
957.371	400.041
960.746	244.373
964.121	157.671
967.496	106.472
970.871	76.7747
974.245	58.0691
977.62	41.6938
980.995	28.2326
984.37	11.4607
987.745	1.49883
991.12	5.14859
994.494	6.6032
997.869	4.20048
1001.24	2.87535
1004.62	2.72597
1007.99	0.395218
1011.37	1.362
1014.74	2.44478
1018.12	0.221603
1021.49	2.14525
1024.87	3.02629
1028.24	3.51828
1031.62	1.73926
1034.99	4.95801
1038.37	5.92421
1041.74	7.68323
1045.12	10.6505
1048.49	11.7098
1051.87	12.988
1055.24	12.5581
1058.62	11.3455
1061.99	10.0324
1065.37	9.11125
1068.74	6.78885
1072.12	8.02838
1075.49	10.1759
1078.87	8.95841
1082.24	8.04736
1085.62	9.36264
1088.99	7.31918
1092.36	6.77029
1095.74	5.24049
1099.11	5.3633
1102.49	6.67264
1105.86	6.71664
1109.24	5.6566
1112.61	6.06247
1115.99	12.9468
1119.36	8.55725
1122.74	9.33133
1126.11	10.0756
1129.49	11.6231
1132.86	11.9161
1136.24	13.1163
1139.61	15.886
1142.99	13.0755
1146.36	12.5524
1149.74	13.1949
1153.11	12.7537
1156.49	9.86784
1159.86	9.81959
1163.23	5.57806
1166.61	5.40755
1169.98	3.49067
1173.36	2.4434
1176.73	2.1668
1180.11	2.45042
1183.48	0.227997
1186.86	1.17702
1190.23	0.478287
1193.61	1.18046
1196.98	0.319794
1200.36	1.9733
1203.73	2.47801
1207.11	0.764603
1210.48	0.164482
1213.86	0.495422
1217.23	0.155083
1220.61	2.52816
1223.98	0.127014
1227.36	0.777267
1230.73	0.645813
1234.11	2.35248
1237.48	2.87392
1240.86	1.96747
1244.23	2.66641
1247.61	3.76469
1250.98	3.1708
1254.36	3.92945
1257.73	5.69156
1261.11	3.98998
1264.48	4.68652
1267.86	4.144
1271.23	5.96891
1274.6	3.12906
1277.98	2.83228
1281.35	3.66401
1284.73	1.6618
1288.1	1.07911
1291.48	1.38729
1294.85	1.24623
1298.23	0.834572
1301.6	1.41848
