Measurement: Raman, 780 nm, unoriented, Raman Data Processed
Mineral: Metatorbernite
Rruff sample: R140872
Ideal chemistry: Cu(UO_2_)_2_(PO_4_)_2_8H_2_O
Locality: Roland mine, Wölsendorf East District, Wölsendorf Fluorite mining District, Schwandorf, Upper Palatinate, Bavaria, Germany
Source: Stefan Schorn
Description: Green platy crystals, associated with fluorite, quartz, chrysocolla, and chalcopyrite.
Raman shift (cm-1)	intensity
99.2738	0
102.649	0.105225
106.023	6.59979
109.398	21.7778
112.773	20.1464
116.148	4.57373
119.523	0.613892
122.897	12.3781
126.272	17.851
129.647	15.6888
133.022	10.395
136.397	9.24551
139.772	9.00992
143.146	7.42957
146.521	5.69641
149.896	1.06381
153.271	1.57953
156.646	3.07559
160.02	2.53326
163.395	0.270996
166.77	1.16501
170.145	3.00433
173.52	4.86691
176.894	9.49509
180.269	14.886
183.644	24.8937
187.019	42.806
190.394	65.7053
193.769	84.9824
197.143	50.9928
200.518	21.562
203.893	16.2953
207.268	18.0123
210.643	19.6517
214.018	28.1989
217.392	35.485
220.767	46.4719
224.142	42.8463
227.517	31.6548
230.892	15.0651
234.266	10.614
237.641	8.59775
241.016	10.7662
244.391	12.4801
247.766	17.5661
251.14	23.9416
254.515	14.2042
257.89	6.57535
261.265	1.98254
264.64	6.8671
268.014	3.26444
271.389	5.80731
274.764	9.63705
278.139	15.0478
281.514	19.5413
284.889	23.3329
288.263	22.4298
291.638	21.7644
295.013	14.6349
298.388	19.6155
301.763	10.3254
305.137	10.188
308.512	8.60336
311.887	4.74136
315.262	3.90701
318.637	2.10922
322.012	0.703766
325.386	0.019562
328.761	2.35773
332.136	0.592194
335.511	0.568695
338.886	0.133606
342.26	0.701721
345.635	0.659698
349.01	0.991821
352.385	1.07254
355.76	0.981628
359.135	0.282013
362.509	1.45044
365.884	2.3653
369.259	1.46448
372.634	2.74417
376.009	3.3429
379.383	2.47708
382.758	4.28195
386.133	4.42474
389.508	7.93344
392.883	13.7176
396.257	25.3655
399.632	40.1225
403.007	45.6847
406.382	55.5969
409.757	34.5655
413.132	15.917
416.506	9.323
419.881	7.07455
423.256	8.45734
426.631	11.2378
430.006	17.5117
433.38	23.2273
436.755	35.6704
440.13	41.5804
443.505	34.5393
446.88	24.1345
450.255	15.0457
453.629	13.9946
457.004	12.8228
460.379	14.3344
463.754	12.6605
467.129	10.849
470.503	8.87613
473.878	3.79849
477.253	2.37347
480.628	1.95584
484.003	1.20682
487.377	0.572937
490.752	1.17194
494.127	1.02716
497.502	2.03458
500.877	1.40601
504.252	0.933258
507.626	0.405396
511.001	0.957611
514.376	0.999573
517.751	0.667847
521.126	0.496094
524.5	1.26294
527.875	0.949402
531.25	2.72568
534.625	0.690979
538	3.04034
541.375	2.49454
544.749	2.24899
548.124	2.96719
551.499	3.85471
554.874	3.03897
558.249	4.21436
561.623	1.57754
564.998	1.9639
568.373	2.12051
571.748	1.66757
575.123	0.89209
578.497	1.62094
581.872	0.52298
585.247	0.18338
588.622	0.995697
591.997	1.10226
595.371	2.11233
598.746	1.41702
602.121	2.85135
605.496	5.09537
608.871	4.45218
612.246	6.20505
615.62	7.45108
618.995	6.46631
622.37	6.3118
625.745	6.54688
629.12	7.15903
632.494	5.74585
635.869	6.25775
639.244	5.01975
642.619	5.21628
645.994	4.34305
649.369	4.59051
652.743	4.49023
656.118	4.93161
659.493	5.18076
662.868	2.685
666.243	4.87045
669.617	3.95712
672.992	4.7323
676.367	3.55521
679.742	2.97986
683.117	1.64581
686.491	2.24277
689.866	0.450043
693.241	0.297638
696.616	1.47903
699.991	0.623352
703.366	0.815552
706.74	0.398071
710.115	0.003998
713.49	1.29962
716.865	0.314545
720.24	0.047729
723.614	0.753876
726.989	0.682831
730.364	2.07269
733.739	0.053802
737.114	0.852417
740.489	1.66193
743.863	0.787384
747.238	1.40552
750.613	1.92096
753.988	1.93323
757.363	0.036011
760.737	0.004333
764.112	6.97607
767.487	0.620941
770.862	0.847412
774.237	0.747711
777.611	2.89148
780.986	2.88272
784.361	3.36618
787.736	4.89414
791.111	6.13022
794.486	10.247
797.86	12.8743
801.235	18.7372
804.61	26.1546
807.985	37.338
811.36	53.3366
814.734	89.0987
818.109	159.323
821.484	321.423
824.859	632.952
828.234	582.2
831.609	180.766
834.983	74.7406
838.358	39.9625
841.733	23.5166
845.108	13.9667
848.483	9.68063
851.857	6.57968
855.232	2.6199
858.607	2.61758
861.982	2.54034
865.357	0.908325
868.731	1.11258
872.106	0.010193
875.481	0.720917
878.856	1.45914
882.231	2.3049
885.606	4.77853
888.98	5.69479
892.355	8.75507
895.73	11.6019
899.105	11.596
902.48	11.468
905.854	9.51892
909.229	8.04306
912.604	4.07419
915.979	1.27469
919.354	0.151855
922.729	0.216675
926.103	1.09332
929.478	0.01413
932.853	0.461548
936.228	1.20511
939.603	0.664917
942.977	1.6893
946.352	4.40949
949.727	5.62674
953.102	8.84638
956.477	13.2225
959.851	15.3696
963.226	15.822
966.601	20.5087
969.976	26.3394
973.351	40.2022
976.726	65.6126
980.1	115.673
983.475	207.875
986.85	353.858
990.225	437.996
993.6	390.419
996.974	350.518
1000.35	212.085
1003.72	146.003
1007.1	94.2439
1010.47	42.5732
1013.85	25.8389
1017.22	15.1043
1020.6	9.81158
1023.97	8.20047
1027.35	5.70288
1030.72	4.05924
1034.1	2.62851
1037.47	3.70837
1040.85	0.744263
1044.22	1.00894
1047.6	1.4332
1050.97	0.165985
1054.35	1.31247
1057.72	0.359833
1061.1	1.74432
1064.47	1.69806
1067.85	0.10495
1071.22	0.811676
1074.6	1.09396
1077.97	0.482178
1081.35	1.38751
1084.72	1.70047
1088.09	0.931885
1091.47	0.695953
1094.84	0.190704
1098.22	1.50244
1101.59	2.77707
1104.97	0.881836
1108.34	1.03705
1111.72	1.49863
1115.09	1.87375
1118.47	0.528412
1121.84	0.776306
1125.22	0.33606
1128.59	0.796295
1131.97	0.075836
1135.34	1.16528
1138.72	2.06345
1142.09	2.71091
1145.47	0.950653
1148.84	3.65079
1152.22	2.01758
1155.59	2.30383
1158.97	0.482422
1162.34	3.10037
1165.71	1.21524
1169.09	3.11212
1172.46	2.90851
1175.84	2.13455
1179.21	2.1889
1182.59	3.112
1185.96	1.76801
1189.34	2.09116
1192.71	2.82147
1196.09	2.62439
1199.46	3.41443
1202.84	3.01453
1206.21	2.75757
1209.59	2.25269
1212.96	2.92996
1216.34	2.50082
1219.71	0.461578
1223.09	0.480255
1226.46	1.45389
1229.84	0.542908
1233.21	1.29984
1236.59	1.12766
1239.96	0.159271
1243.34	1.46152
1246.71	1.14941
1250.09	1.60071
1253.46	0.080292
1256.84	0.974274
1260.21	2.30893
1263.59	1.93793
1266.96	2.68027
1270.33	1.41437
1273.71	0.098389
1277.08	0.158356
1280.46	1.73349
1283.83	0.130981
