Measurement: Raman, 780 nm, unoriented, Raman Data Processed
Mineral: Meta-autunite
Rruff sample: R060434
Ideal chemistry: Ca(UO_2_)_2_(PO_4_)_2_6H_2_O
Locality: Hyverneresse, Creuse, France
Source: Michael Scott
Description: Yellow thin tabular crystal
Measured chemistry: (Ca_0.88_Sr_0.10_)_∑=0.98_(UO_2_)_1.96_(PO_4_)_2.05_·3.60H_2_O
Raman shift (cm-1)	intensity
195.707	0
198.6	5.13399
201.492	3.3424
204.385	3.63689
207.278	0.799278
210.17	0.586319
213.063	0.142693
215.956	3.31297
218.848	3.62685
221.741	2.97349
224.634	2.01186
227.526	2.00895
230.419	0.476807
233.312	0.036827
236.205	1.09983
239.097	1.13551
241.99	0.511078
244.883	0.085701
247.775	1.68057
250.668	0.035469
253.561	0.775345
256.454	3.5686
259.346	3.41725
262.239	4.89148
265.132	6.49417
268.024	7.85749
270.917	5.92264
273.81	7.70746
276.702	9.39582
279.595	9.30284
282.488	10.5792
285.38	8.77953
288.273	8.85804
291.166	7.5756
294.059	6.83226
296.951	5.37611
299.844	3.40331
302.737	3.0683
305.629	4.25275
308.522	2.73477
311.415	2.15837
314.308	2.6022
317.2	2.84211
320.093	0.548172
322.986	1.61455
325.878	0.736542
328.771	1.95568
331.664	0.473248
334.556	1.17949
337.449	0.272121
340.342	0.677563
343.234	0.132759
346.127	0.3605
349.02	0.766228
351.913	1.94528
354.805	2.01011
357.698	0.919769
360.591	2.68466
363.483	4.51967
366.376	4.98699
369.269	7.27157
372.161	8.2612
375.054	7.90775
377.947	12.1583
380.839	12.9004
383.732	12.8233
386.625	11.4659
389.518	11.9865
392.41	7.00518
395.303	7.0854
398.196	3.58743
401.088	2.0202
403.981	1.06321
406.874	1.44429
409.767	0.733704
412.659	0.225254
415.552	1.6124
418.445	1.09498
421.337	0.973911
424.23	0.234875
427.123	1.60146
430.015	2.58494
432.908	1.67188
435.801	2.7511
438.693	2.38973
441.586	2.87214
444.479	1.51799
447.372	2.64768
450.264	3.05138
453.157	3.12468
456.05	1.42138
458.942	2.37771
461.835	1.12558
464.728	1.33998
467.62	0.21703
470.513	0.22464
473.406	0.634327
476.299	0.169975
479.191	1.33262
482.084	0.161053
484.977	0.527592
487.869	1.70202
490.762	1.41016
493.655	1.50768
496.547	2.72321
499.44	2.1816
502.333	1.81119
505.226	1.30326
508.118	1.03258
511.011	3.04677
513.904	2.7434
516.796	1.07732
519.689	0.118526
522.582	1.63391
525.474	2.97252
528.367	0.724522
531.26	3.1327
534.153	3.47786
537.045	3.90742
539.938	3.21296
542.831	3.61442
545.723	5.68544
548.616	6.57371
551.509	7.13442
554.401	4.49738
557.294	2.79153
560.187	2.3422
563.08	0.152573
565.972	0.775017
568.865	0.603954
571.758	0.18541
574.65	1.38658
577.543	0.758476
580.436	0.204689
583.328	0.34127
586.221	0.183395
589.114	1.92621
592.006	1.00585
594.899	3.13761
597.792	2.5466
600.685	2.67747
603.577	2.81947
606.47	4.26703
609.363	4.62136
612.255	6.53409
615.148	5.631
618.041	7.31945
620.933	7.09224
623.826	6.92067
626.719	8.38979
629.611	8.51876
632.504	8.2093
635.397	8.50596
638.29	9.4487
641.182	9.27431
644.075	7.96928
646.968	8.74163
649.86	10.1597
652.753	9.57405
655.646	10.1321
658.538	8.76313
661.431	8.98197
664.324	6.6993
667.217	5.09911
670.109	3.46262
673.002	3.8808
675.895	2.89845
678.787	2.99645
681.68	2.8519
684.573	1.87078
687.466	0.689602
690.358	1.18925
693.251	1.74781
696.144	0.255638
699.036	0.812325
701.929	0.151634
704.822	0.693039
707.714	0.367062
710.607	0.192352
713.5	1.02042
716.393	1.04142
719.285	0.578316
722.178	0.001862
725.071	0.000912
727.963	0.781693
730.856	0.282955
733.749	0.434612
736.641	0.620316
739.534	1.07508
742.427	0.587189
745.319	0.12149
748.212	0.189846
751.105	1.61333
753.998	0.62608
756.89	0.330475
759.783	1.19799
762.676	1.43111
765.568	2.15752
768.461	2.62825
771.354	2.86574
774.246	4.77779
777.139	6.04042
780.032	8.40683
782.925	13.3483
785.817	17.72
788.71	21.6123
791.603	31.2416
794.495	44.1052
797.388	57.5402
800.281	74.6641
803.173	97.1397
806.066	122.863
808.959	145.309
811.851	172.429
814.744	211.292
817.637	273.184
820.53	347.221
823.422	438.233
826.315	507.396
829.208	583.24
832.1	650.216
834.993	631.951
837.886	452.702
840.779	220.158
843.671	96.4082
846.564	47.5289
849.457	26.6806
852.349	15.8773
855.242	9.15038
858.135	6.28209
861.027	2.94914
863.92	2.10934
866.813	2.38189
869.706	2.09279
872.598	3.07516
875.491	1.99828
878.384	1.18194
881.276	2.56339
884.169	1.36114
887.062	0.320557
889.954	0.211327
892.847	1.61729
895.74	0.311718
898.632	0.732971
901.525	1.34537
904.418	0.404484
907.311	1.35929
910.203	0.47831
913.096	0.898888
915.989	0.830009
918.881	0.268501
921.774	0.429951
924.667	1.0649
927.559	1.68499
930.452	0.60849
933.345	0.634781
936.237	0.481621
939.13	0.409573
942.023	2.32949
944.916	4.54999
947.808	7.67797
950.701	10.8122
953.594	16.0433
956.486	24.085
959.379	34.9624
962.272	47.6384
965.164	68.3474
968.057	97.1117
970.95	141.543
973.843	202.832
976.735	275.157
979.628	350.481
982.521	412.988
985.413	459.348
988.306	457.443
991.199	408.521
994.091	363.102
996.984	375.198
999.877	446.459
1002.77	544.788
1005.66	617.834
1008.55	651.678
1011.45	631.519
1014.34	545.84
1017.23	413.378
1020.13	283.757
1023.02	190.966
1025.91	135.743
1028.8	99.2744
1031.7	74.6832
1034.59	57.1333
1037.48	44.1475
1040.38	32.6361
1043.27	23.6959
1046.16	18.1626
1049.05	12.7337
1051.94	7.83532
1054.84	6.42141
1057.73	3.25668
1060.62	1.34377
1063.52	1.4436
1066.41	1.27628
1069.3	0.019024
1072.19	0.215084
1075.09	1.25199
1077.98	2.57104
1080.87	0.982346
1083.77	0.547291
1086.66	0.918953
1089.55	0.193398
1092.44	1.0178
1095.34	1.59905
1098.23	1.14307
1101.12	0.733318
1104.01	2.01895
1106.91	2.05071
1109.8	2.95022
1112.69	2.14665
1115.59	1.53992
1118.48	2.36503
1121.37	2.36597
1124.26	1.29813
1127.16	2.27596
1130.05	2.73628
1132.94	3.29201
1135.83	3.05449
1138.73	3.57761
1141.62	4.7422
1144.51	3.51206
1147.4	1.55993
1150.3	0.996784
1153.19	0.249638
1156.08	0.516607
1158.97	0.105442
1161.87	0.572287
1164.76	0.180847
1167.65	2.40341
1170.55	0.525581
1173.44	1.42312
1176.33	0.135557
1179.22	2.12438
1182.12	2.05491
1185.01	1.38496
1187.9	1.66073
1190.8	2.68847
1193.69	3.49806
1196.58	2.63325
1199.47	2.06131
1202.37	1.69325
1205.26	3.38364
1208.15	3.68202
1211.04	4.54314
1213.94	2.69108
1216.83	3.38404
1219.72	2.73314
1222.62	2.30492
1225.51	3.35209
1228.4	2.23203
1231.29	1.4148
1234.18	2.14413
1237.08	2.11138
1239.97	0.92024
1242.86	1.66716
1245.76	1.29497
1248.65	1.89469
1251.54	0.177946
1254.43	0.197268
1257.33	1.42516
1260.22	1.61355
1263.11	2.60325
1266.01	1.44834
1268.9	0.453384
1271.79	0.883247
1274.68	1.02142
1277.58	0.429472
1280.47	1.15815
1283.36	0.366684
