Measurement: Raman, 780 nm, unoriented, Raman Data Processed
Mineral: Metatorbernite
Rruff sample: R130109
Ideal chemistry: Cu(UO_2_)_2_(PO_4_)_2_8H_2_O
Locality: Shinkolobwe mine,Katanga, Zaire
Source: Don Doell
Description: Associated with phosphuranylite R130108
Raman shift (cm-1)	intensity
90.2353	0
93.6102	16.9248
96.985	24.1861
100.36	3.27482
103.735	0.353802
107.109	3.96686
110.484	8.27898
113.859	8.467
117.234	4.94963
120.609	11.0152
123.984	16.0484
127.358	7.01225
130.733	2.05946
134.108	0.105171
137.483	0.349382
140.858	1.36878
144.232	0.871092
147.607	0.053783
150.982	0.401897
154.357	0.630615
157.732	0.298506
161.107	0.476835
164.481	0.9398
167.856	2.33316
171.231	4.87064
174.606	6.7995
177.981	12.2318
181.355	20.6562
184.73	33.4397
188.105	57.1285
191.48	84.1578
194.855	79.8077
198.229	31.9319
201.604	15.6319
204.979	9.66543
208.354	7.3198
211.729	5.83147
215.103	5.10365
218.478	3.89378
221.853	3.76033
225.228	2.56217
228.603	1.43614
231.978	0.428238
235.352	1.12096
238.727	0.207276
242.102	0.511796
245.477	0.708162
248.852	0.928188
252.226	0.983851
255.601	0.498046
258.976	0.27054
262.351	0.176614
265.726	0.496575
269.101	0.776657
272.475	1.65214
275.85	3.17013
279.225	4.75518
282.6	4.80283
285.975	4.9272
289.349	4.48738
292.724	3.57443
296.099	2.93835
299.474	3.50317
302.849	2.78017
306.224	3.02897
309.598	1.72131
312.973	2.02966
316.348	0.575788
319.723	0.576666
323.098	0.053714
326.472	0.088539
329.847	0.227038
333.222	0.480263
336.597	0.146896
339.972	0.125695
343.346	0.145932
346.721	0.560402
350.096	0.365734
353.471	0.103044
356.846	0.125456
360.221	0.500827
363.595	0.371616
366.97	0.231872
370.345	0.913168
373.72	0.698832
377.095	1.1551
380.469	0.774394
383.844	0.989966
387.219	1.42328
390.594	1.10596
393.969	2.11852
397.344	3.3825
400.718	3.91898
404.093	5.0669
407.468	4.15997
410.843	2.35903
414.217	1.26152
417.592	1.26688
420.967	0.130774
424.342	0.801362
427.717	1.3153
431.092	1.31143
434.466	2.7012
437.841	3.08575
441.216	2.91311
444.591	2.33547
447.966	1.74783
451.341	1.13433
454.715	1.2396
458.09	0.691585
461.465	0.99913
464.84	0.974299
468.215	0.502716
471.589	0.830283
474.964	0.057082
478.339	0.344773
481.714	0.167441
485.089	0.169061
488.463	1.33781
491.838	0.175604
495.213	0.513618
498.588	0.104674
501.963	0.100649
505.337	0.321298
508.712	0.072685
512.087	0.557652
515.462	0.551988
518.837	0.809827
522.212	0.684977
525.586	0.30274
528.961	0.565501
532.336	0.514258
535.711	0.462125
539.086	1.01325
542.46	0.600269
545.835	0.216401
549.21	1.10464
552.585	0.871156
555.96	0.969651
559.335	0.69628
562.709	1.03442
566.084	0.844918
569.459	0.2713
572.834	0.083134
576.209	0.141777
579.583	0.274042
582.958	0.202595
586.333	0.713086
589.708	0.844387
593.083	0.223138
596.457	0.368401
599.832	0.597633
603.207	0.766458
606.582	0.169421
609.957	1.18931
613.332	0.932113
616.706	0.724108
620.081	1.14395
623.456	0.728348
626.831	0.573458
630.206	0.513958
633.58	0.452138
636.955	0.190629
640.33	0.534927
643.705	0.00023
647.08	0.87746
650.455	0.852822
653.829	0.6035
657.204	1.04699
660.579	0.367018
663.954	1.12863
667.329	0.484171
670.703	0.926518
674.078	0.843935
677.453	0.562285
680.828	0.947793
684.203	0.955953
687.577	0.484126
690.952	0.511568
694.327	0.776775
697.702	0.285476
701.077	0.078259
704.452	0.048813
707.826	0.069263
711.201	0.339437
714.576	0.539178
717.951	0.203975
721.326	0.748336
724.7	0.607066
728.075	0.024271
731.45	0.087628
734.825	0.169499
738.2	0.075114
741.574	0.436473
744.949	0.040592
748.324	0.016229
751.699	0.827688
755.074	0.606929
758.449	0.053365
761.823	0.579016
765.198	0.959268
768.573	0.059005
771.948	0.268603
775.323	0.395683
778.697	0.024628
782.072	0.485151
785.447	0.812095
788.822	1.07289
792.197	0.887135
795.572	1.71211
798.946	3.16682
802.321	4.35727
805.696	6.56444
809.071	10.7043
812.446	18.4642
815.82	34.6322
819.195	70.4506
822.57	151.019
825.945	208.008
829.32	78.8978
832.694	28.5877
836.069	14.4675
839.444	8.17274
842.819	4.67537
846.194	3.02111
849.569	2.44843
852.943	1.30059
856.318	1.02338
859.693	0.532753
863.068	0.313051
866.443	0.067101
869.817	0.357046
873.192	0.032078
876.567	0.754531
879.942	0.19809
883.317	0.037573
886.692	0.949801
890.066	1.53652
893.441	2.04027
896.816	2.56831
900.191	2.39278
903.566	3.05159
906.94	1.71841
910.315	1.89317
913.69	1.95546
917.065	0.753884
920.44	0.864496
923.814	0.697378
927.189	0.154852
930.564	0.365526
933.939	0.421889
937.314	0.372584
940.689	0.278065
944.063	0.071206
947.438	0.265933
950.813	0.734792
954.188	0.597604
957.563	0.924362
960.937	0.587908
964.312	1.0751
967.687	1.89555
971.062	2.17499
974.437	3.81592
977.812	6.52495
981.186	11.8966
984.561	22.2361
987.936	32.0496
991.311	30.2519
994.686	29.44
998.06	20.5135
1001.43	11.8688
1004.81	8.29887
1008.18	4.43293
1011.56	3.15877
1014.93	1.69096
1018.31	1.48788
1021.68	1.37146
1025.06	0.739808
1028.43	0.491579
1031.81	0.187322
1035.18	0.197095
1038.56	0.292097
1041.93	0.678407
1045.31	0.516936
1048.68	0.568952
1052.06	0.501316
1055.43	0.283123
1058.81	0.375226
1062.18	0.178591
1065.56	0.429358
1068.93	0.554584
1072.31	0.180787
1075.68	0.42989
1079.06	0.7042
1082.43	0.376889
1085.81	0.423179
1089.18	0.929578
1092.56	0.288545
1095.93	0.739668
1099.31	0.224127
1102.68	0.755857
1106.05	0.744853
1109.43	0.809398
1112.8	0.52822
1116.18	0.444968
1119.55	0.359762
1122.93	0.058622
1126.3	0.362099
1129.68	0.660529
1133.05	0.422317
1136.43	0.472029
1139.8	0.688242
1143.18	0.737782
1146.55	0.206443
1149.93	0.265798
1153.3	0.12302
1156.68	0.518843
1160.05	0.822225
1163.43	0.012398
1166.8	0.922707
1170.18	0.643131
1173.55	0.864568
1176.93	0.859757
1180.3	0.561464
1183.67	0.090271
1187.05	0.376116
1190.42	0.900278
1193.8	0.223165
1197.17	0.681242
1200.55	0.134942
1203.92	0.393254
1207.3	0.168004
1210.67	0.494026
1214.05	0.000777
1217.42	0.867519
1220.8	0.555879
1224.17	0.336997
1227.55	0.666869
1230.92	0.694146
1234.3	0.398232
1237.67	0.451088
1241.05	0.036008
1244.42	0.478671
1247.8	0.770526
1251.17	0.322438
1254.55	0.676872
1257.92	0.459765
1261.3	0.613604
1264.67	0.65852
1268.05	0.356181
1271.42	0.725709
1274.8	0.436242
1278.17	0.599393
1281.55	0.541184
