Measurement: Raman, 532 nm, unoriented, Raman Data Processed
Mineral: Metavariscite
Rruff sample: R050461
Ideal chemistry: AlPO_4_2H_2_O
Locality: Utahlite Hill, Lucin, Utah, USA
Source: University of Arizona Mineral Museum
Description: Group of pale green acicular bladed crystals
Measured chemistry: Al_1.00_P_1.00_O_4_Â·2H_2_O
Raman shift (cm-1)	intensity
135.845	0
139.22	20.2045
142.594	0.226685
145.969	6.6864
149.344	34.1625
152.719	55.8266
156.094	16.7059
159.468	2.51062
162.843	0.68396
166.218	1.88861
169.593	2.94757
172.968	0.08728
176.343	2.70142
179.717	5.42425
183.092	3.86658
186.467	5.37866
189.842	8.15405
193.217	9.12836
196.591	11.7159
199.966	12.6013
203.341	13.2241
206.716	16.9056
210.091	16.5099
213.465	7.82043
216.84	11.2628
220.215	12.5093
223.59	11.6287
226.965	7.96332
230.339	4.05347
233.714	5.25275
237.089	11.3186
240.464	11.8284
243.839	19.0037
247.214	20.5571
250.588	22.6863
253.963	22.8649
257.338	21.208
260.713	28.2708
264.088	31.0947
267.462	33.9703
270.837	18.9085
274.212	12.7593
277.587	8.11487
280.962	6.56329
284.337	4.95142
287.711	5.10449
291.086	6.38501
294.461	2.43927
297.836	4.32318
301.211	0.606567
304.586	1.06506
307.96	1.59991
311.335	1.55621
314.71	2.28503
318.085	2.56409
321.46	1.52991
324.834	1.23523
328.209	5.30042
331.584	15.7693
334.959	9.07568
338.334	0.532837
341.709	6.37903
345.083	1.85046
348.458	14.6917
351.833	31.3817
355.208	52.7495
358.583	78.6174
361.957	117.055
365.332	133.793
368.707	95.3227
372.082	65.5273
375.457	68.8257
378.832	102.843
382.206	166.279
385.581	225.24
388.956	269.999
392.331	322.478
395.705	402.587
399.08	412.224
402.455	302.173
405.83	173.626
409.205	101.16
412.58	63.4815
415.954	50.7132
419.329	43.0587
422.704	51.4245
426.079	50.9616
429.454	53.8959
432.829	40.9265
436.203	25.464
439.578	21.4581
442.953	23.0386
446.328	15.3456
449.703	17.4544
453.077	24.9217
456.452	28.1645
459.827	27.1324
463.202	11.5069
466.577	5.35028
469.952	4.35266
473.326	1.8609
476.701	3.91931
480.076	11.7856
483.451	18.4492
486.826	27.4811
490.2	32.1862
493.575	36.4436
496.95	30.5189
500.325	21.2361
503.7	10.9582
507.075	1.10455
510.449	2.87524
513.824	5.96545
517.199	5.83832
520.574	2.33301
523.949	1.72955
527.323	11.2697
530.698	16.8704
534.073	33.431
537.448	54.6043
540.823	77.7109
544.197	104.589
547.572	112.132
550.947	99.9822
554.322	81.4043
557.697	65.0475
561.072	70.4614
564.446	76.8202
567.821	92.451
571.196	110.461
574.571	125.497
577.946	134.253
581.321	132.292
584.695	116.703
588.07	100.649
591.445	72.5481
594.82	56.5652
598.194	39.1828
601.569	29.0149
604.944	20.1238
608.319	15.7646
611.694	12.7323
615.069	11.1382
618.443	8.72003
621.818	4.57867
625.193	6.66779
628.568	11.7424
631.943	13.7678
635.317	8.67053
638.692	12.4058
642.067	7.40503
645.442	2.21277
648.817	1.58868
652.192	0.565979
655.566	1.38532
658.941	0.549927
662.316	2.41717
665.691	0.335632
669.066	0.136047
672.441	2.31543
675.815	2.76385
679.19	0.175903
682.565	4.68243
685.94	3.05066
689.315	0.268494
692.689	3.00763
696.064	2.33496
699.439	1.95892
702.814	4.06213
706.189	4.56628
709.563	5.31811
712.938	9.56268
716.313	10.6398
719.688	6.30469
723.063	8.61536
726.438	4.93628
729.812	8.86011
733.187	3.42499
736.562	0.338867
739.937	0.872375
743.312	4.86883
746.687	0.513062
750.061	0.774719
753.436	1.37714
756.811	1.59192
760.186	3.73291
763.561	4.12237
766.935	2.0899
770.31	7.44031
773.685	8.63971
777.06	10.2269
780.435	9.76385
783.809	7.49292
787.184	9.9754
790.559	1.84283
793.934	8.98346
797.309	5.09521
800.683	6.31274
804.058	10.3596
807.433	13.5806
810.808	13.7048
814.183	10.9218
817.558	5.10077
820.932	9.54761
824.307	7.33374
827.682	1.57404
831.057	6.5368
834.432	5.95172
837.807	6.79218
841.181	6.38532
844.556	4.2179
847.931	1.19373
851.306	1.82556
854.681	2.51062
858.055	2.48779
861.43	5.6438
864.805	6.02356
868.18	1.17248
871.555	3.74786
874.929	3.53088
878.304	1.5907
881.679	0.054626
885.054	1.2005
888.429	0.628113
891.804	3.88062
895.178	1.91363
898.553	0.006836
901.928	2.46912
905.303	5.23657
908.678	5.00739
912.053	6.50067
915.427	3.45673
918.802	7.76434
922.177	7.1825
925.552	10.059
928.927	5.46686
932.301	3.65338
935.676	4.51251
939.051	4.91986
942.426	3.18298
945.801	0.715088
949.176	0.187866
952.55	0.372192
955.925	0.796936
959.3	1.25812
962.675	0.349548
966.05	1.90686
969.424	2.86505
972.799	5.13251
976.174	3.42578
979.549	2.60522
982.924	8.00549
986.298	8.71435
989.673	7.89929
993.048	12.5872
996.423	15.418
999.798	26.8408
1003.17	33.645
1006.55	58.7518
1009.92	96.4426
1013.3	143.248
1016.67	199.319
1020.05	204.304
1023.42	144.663
1026.8	85.459
1030.17	50.5983
1033.55	39.2864
1036.92	28.449
1040.3	23.1593
1043.67	18.2967
1047.05	21.3726
1050.42	23.9943
1053.8	35.6542
1057.17	48.8674
1060.54	62.6059
1063.92	85.8063
1067.29	117.839
1070.67	168.578
1074.04	243.737
1077.42	331.641
1080.79	348.372
1084.17	246.228
1087.54	130.241
1090.92	63.6184
1094.29	40.2953
1097.67	24.9638
1101.04	21.5248
1104.42	12.5438
1107.79	6.99121
1111.17	0.897217
1114.54	0.843567
1117.92	0.294739
1121.29	1.1872
1124.67	2.07721
1128.04	3.06348
1131.42	0.37561
1134.79	5.43414
1138.16	5.94098
1141.54	1.67236
1144.91	4.62195
1148.29	2.91699
1151.66	6.28882
1155.04	5.96088
1158.41	3.33362
1161.79	0.26001
1165.16	4.6593
1168.54	6.61017
1171.91	0.788574
1175.29	5.74957
1178.66	1.62183
1182.04	2.37482
1185.41	1.29791
1188.79	1.89795
1192.16	4.03265
1195.54	0.01416
1198.91	3.1521
1202.29	2.56165
1205.66	4.63098
1209.04	4.01208
1212.41	1.73547
1215.79	6.21625
1219.16	4.11401
1222.54	4.90326
1225.91	6.18207
1229.29	2.39642
1232.66	1.18603
1236.04	0.741333
1239.41	3.57861
1242.79	3.55731
1246.16	2.74268
1249.53	5.2511
1252.91	2.15271
1256.28	3.95642
1259.66	5.77637
1263.03	5.43384
1266.41	2.61755
1269.78	4.59668
1273.16	3.42554
1276.53	5.12891
1279.91	5.41467
1283.28	4.78027
1286.66	4.24085
1290.03	3.9574
1293.41	2.41101
1296.78	4.45105
1300.16	2.09399
1303.53	0
