Measurement: Raman, 532 nm, unoriented, Raman Data Processed
Mineral: Metazeunerite
Rruff sample: R060301
Ideal chemistry: Cu^2+^(U^6+^O_2_)_2_(As^5+^O_4_)_2_8H_2_O
Locality: Joachimstal, Bohemia, Czech Republic
Source: University of Arizona Mineral Museum
Description: Green blocky dipyramidal single crystals associated with yellow walpurgite, R050573
Raman shift (cm-1)	intensity
171.488	0
174.381	0.348755
177.273	7.65881
180.166	17.5986
183.059	39.2489
185.951	45.1017
188.844	50.1591
191.737	45.9762
194.629	33.0964
197.522	32.8729
200.415	33.1794
203.308	40.05
206.2	41.2451
209.093	44.1915
211.986	35.4193
214.878	40.6774
217.771	44.3368
220.664	39.7494
223.556	37.7406
226.449	31.5759
229.342	30.1642
232.234	27.8867
235.127	23.8706
238.02	19.7174
240.913	19.89
243.805	13.7873
246.698	10.0533
249.591	12.4845
252.483	7.5769
255.376	16.0249
258.269	7.25561
261.161	3.73401
264.054	5.31848
266.947	3.79224
269.84	9.13464
272.732	0.821167
275.625	1.70471
278.518	5.66235
281.41	2.20752
284.303	0.652344
287.196	5.19543
290.089	9.26611
292.981	11.2736
295.874	5.16211
298.767	11.4553
301.659	8.16589
304.552	8.63367
307.445	7.18274
310.337	16.8164
313.23	17.4951
316.123	30.181
319.015	31.464
321.908	24.2679
324.801	11.2667
327.694	4.00452
330.586	3.59741
333.479	0.248169
336.372	4.72729
339.264	4.78174
342.157	5.07324
345.05	5.49841
347.942	11.6848
350.835	2.63806
353.728	4.31201
356.621	11.0465
359.513	7.44751
362.406	8.79895
365.299	7.4491
368.191	1.06616
371.084	2.18701
373.977	5.47729
376.87	1.4729
379.762	5.17041
382.655	2.87097
385.548	8.06494
388.44	9.72095
391.333	11.7609
394.226	6.96802
397.118	13.5749
400.011	13.0153
402.904	16.3873
405.796	16.0725
408.689	8.31799
411.582	10.4794
414.475	11.3196
417.367	9.68945
420.26	4.91931
423.153	5.22766
426.045	5.12146
428.938	7.62952
431.831	10.6027
434.724	19.2508
437.616	17.6931
440.509	20.7479
443.402	15.7306
446.294	24.1392
449.187	18.8434
452.08	13.1394
454.972	13.7859
457.865	6.8396
460.758	12.3335
463.651	12.2316
466.543	14.765
469.436	14.0411
472.329	10.186
475.221	4.62024
478.114	1.92554
481.007	3.1615
483.899	4.49536
486.792	3.97144
489.685	0.902954
492.577	0.313599
495.47	0.968262
498.363	5.49854
501.256	7.20532
504.148	11.279
507.041	5.65808
509.934	4.82776
512.826	4.75793
515.719	2.31921
518.612	0.536621
521.505	4.7063
524.397	5.76147
527.29	5.78149
530.183	1.19153
533.075	2.23987
535.968	5.47827
538.861	0.052979
541.753	4.40332
544.646	1.67529
547.539	0.898071
550.432	1.76819
553.324	0.11731
556.217	2.03357
559.11	5.23572
562.002	6.81885
564.895	6.56409
567.788	12.6699
570.68	6.97937
573.573	5.64905
576.466	5.1322
579.359	0.140625
582.251	4.16516
585.144	7.20667
588.037	10.1019
590.929	9.97925
593.822	4.24109
596.715	6.09119
599.607	7.52893
602.5	6.07666
605.393	8.46802
608.285	6.15698
611.178	8.8031
614.071	5.6145
616.964	5.21362
619.856	2.05066
622.749	6.1272
625.642	1.52515
628.534	0.73645
631.427	1.58032
634.32	5.75708
637.212	6.11304
640.105	4.39575
642.998	0.469604
645.891	0.832397
648.783	7.03162
651.676	9.3794
654.569	4.5614
657.461	5.26172
660.354	6.20496
663.247	9.87231
666.139	5.73254
669.032	6.89526
671.925	1.42639
674.818	6.6936
677.71	2.18518
680.603	2.98096
683.496	7.42114
686.388	7.07446
689.281	8.39587
692.174	8.83398
695.067	0.3479
697.959	6.42383
700.852	5.14319
703.745	3.4939
706.637	1.59961
709.53	11.301
712.423	5.57458
715.315	1.84436
718.208	6.36719
721.101	0.667725
723.994	6.01318
726.886	0.352661
729.779	7.7229
732.672	9.77759
735.564	4.64832
738.457	3.41943
741.35	0.413452
744.242	1.11755
747.135	1.78955
750.028	5.03711
752.92	2.38916
755.813	1.72974
758.706	3.67322
761.599	4.09131
764.491	2.63208
767.384	1.16956
770.277	2.70947
773.169	15.2673
776.062	11.6632
778.955	10.9506
781.847	10.7344
784.74	17.5448
787.633	19.4558
790.526	48.2559
793.418	62.0958
796.311	69.7629
799.204	99.2292
802.096	144.636
804.989	196.724
807.882	263.366
810.774	351.055
813.667	444.112
816.56	487.084
819.453	387.357
822.345	242.73
825.238	157.73
828.131	109.393
831.023	66.2236
833.916	37.5867
836.809	19.4244
839.702	8.85486
842.594	8.4613
845.487	3.63843
848.38	6.01355
851.272	7.14368
854.165	12.3035
857.058	14.9614
859.95	19.876
862.843	17.7024
865.736	17.2094
868.629	11.026
871.521	12.2462
874.414	32.9131
877.307	26.6584
880.199	26.11
883.092	28.4731
885.985	29.3171
888.877	26.5093
891.77	22.4128
894.663	19.0494
897.556	13.4773
900.448	17.2933
903.341	10.9507
906.234	8.05188
909.126	9.23279
912.019	3.78809
914.912	2.75842
917.804	5.17371
920.697	2.36145
923.59	1.65283
926.482	2.23279
929.375	2.29773
932.268	2.58716
935.161	3.19629
938.053	2.27087
940.946	0.320801
943.839	0.941895
946.731	0.535645
949.624	2.66443
952.517	4.41602
955.409	7.89465
958.302	9.9967
961.195	4.68127
964.088	3.08606
966.98	14.2789
969.873	14.6279
972.766	18.5402
975.658	36.6249
978.551	49.5057
981.444	58.8671
984.337	75.3025
987.229	89.4771
990.122	83.323
993.015	71.5408
995.907	55.8372
998.8	41.0247
1001.69	28.5753
1004.59	20.193
1007.48	16.3605
1010.37	11.1024
1013.26	13.6663
1016.16	15.3658
1019.05	11.0195
1021.94	12.2709
1024.83	7.78955
1027.73	13.2906
1030.62	9.4823
1033.51	14.9496
1036.4	16.3346
1039.3	8.40381
1042.19	7.06213
1045.08	10.3457
1047.98	5.41309
1050.87	9.13733
1053.76	10.2427
1056.65	10.1152
1059.55	7.19678
1062.44	2.82349
1065.33	0.042969
1068.22	0.266113
1071.12	5.09375
1074.01	0.850464
1076.9	4.21851
1079.8	8.67822
1082.69	5.5553
1085.58	2.67835
1088.47	2.05945
1091.37	3.46289
1094.26	5.43848
1097.15	3.97217
1100.04	0.727905
1102.94	2.75574
1105.83	2.55835
1108.72	5.3894
1111.62	11.7118
1114.51	5.98486
1117.4	6.78943
1120.29	8.42248
1123.19	7.36499
1126.08	3.66821
1128.97	0.509521
1131.86	0.383911
1134.76	13.286
1137.65	17.9254
1140.54	4.40271
1143.43	3.19312
1146.33	10.1191
1149.22	4.40051
1152.11	4.1897
1155.01	6.67419
1157.9	4.46643
1160.79	0.622314
1163.68	2.59998
1166.58	4.297
1169.47	7.06323
1172.36	6.23755
1175.26	6.6261
1178.15	5.73621
1181.04	4.18543
1183.93	1.73071
1186.83	4.15015
1189.72	2.40137
1192.61	1.50085
1195.5	6.01269
1198.4	5.69739
1201.29	8.67065
1204.18	7.33008
1207.07	0.906738
1209.97	4.91602
1212.86	9.81641
1215.75	6.44202
1218.64	4.14929
1221.54	5.43323
1224.43	3.7135
1227.32	4.32873
1230.22	3.11426
1233.11	4.35767
1236	5.15759
1238.89	1.25049
1241.79	3.69958
1244.68	5.0437
1247.57	4.08936
1250.46	6.01306
1253.36	7.11963
1256.25	6.49915
1259.14	5.09961
1262.04	5.44128
1264.93	4.06043
1267.82	6.27734
1270.71	7.62195
1273.61	4.38049
1276.5	8.02087
1279.39	6.45935
1282.29	2.94702
1285.18	0.822021
1288.07	0.378784
1290.96	0.576172
1293.86	7.85095
1296.75	6.39307
1299.64	8.8634
1302.53	2.53406
