Measurement: Raman, 785 nm, unoriented, Raman Data Processed
Mineral: Metacinnabar
Rruff sample: R060950
Ideal chemistry: HgS
Locality: Ryan mine, Contra Costa County, California, USA
Source: Bob Jenkins
Description: Dark orange brown submetallic crystals
Measured chemistry: Hg_0.95_Fe_0.03_S
Raman shift (cm-1)	intensity
207.827	0
210.72	231.356
213.612	13.1367
216.505	454.074
219.398	892.629
222.29	1574.23
225.183	2490.21
228.076	3559.9
230.969	5148.01
233.861	7398.38
236.754	10573.6
239.647	14582.9
242.539	19055.8
245.432	22288.5
248.325	23633.8
251.217	21409.3
254.11	16437.9
257.003	11427.2
259.895	7743.81
262.788	5358.1
265.681	3921.24
268.574	3002.15
271.466	2524.62
274.359	2260.47
277.252	2295.6
280.144	2332.55
283.037	2097.93
285.93	1729.99
288.822	1013.3
291.715	477.445
294.608	39.3906
297.5	51.7578
300.393	40.5117
303.286	355.496
306.179	451.246
309.071	501.246
311.964	424.039
314.857	370.297
317.749	204.957
320.642	435.461
323.535	1102.64
326.428	2064.61
329.32	3220.27
332.213	4285.07
335.106	5642.22
337.998	6260.22
340.891	5840.8
343.784	4682.08
346.676	3376.84
349.569	2814.48
352.462	2009.81
355.354	1435.95
358.247	558.82
361.14	143.219
364.033	97.0312
366.925	124.445
369.818	26.9648
372.711	244.188
375.603	305.914
378.496	317.676
381.389	57.375
384.281	17.3242
387.174	87.0586
390.067	23.7188
392.96	160.34
395.852	368.457
398.745	525.902
401.638	289.301
404.53	177.863
407.423	15.125
410.316	60.7266
413.209	143.957
416.101	542.375
418.994	501.023
421.887	525.453
424.779	463.172
427.672	248.652
430.565	254.047
433.457	176.875
436.35	135.027
439.243	289.219
442.135	428.246
445.028	292.883
447.921	436.156
450.813	292.84
453.706	182.809
456.599	180.336
459.492	326.688
462.384	220.785
465.277	270.199
468.17	270.922
471.062	371
473.955	222.871
476.848	205.961
479.74	79.6484
482.633	67.6914
485.526	180.75
488.419	472.109
491.311	424.363
494.204	436.957
497.097	346.996
499.989	144.586
502.882	99.5625
505.775	2.04297
508.668	268.383
511.56	228.305
514.453	414.918
517.346	401.41
520.238	290.863
523.131	283.648
526.024	334.707
528.916	242.18
531.809	163.066
534.702	305.102
537.595	379.805
540.487	220.938
543.38	134.219
546.273	268.481
549.165	75.9727
552.058	172.34
554.951	319.914
557.843	254.086
560.736	374.519
563.629	340.125
566.521	204.617
569.414	149.746
572.307	83.6406
575.2	104.297
578.092	27.3867
580.985	96.2383
583.878	200.328
586.77	278.613
589.663	53.0859
592.556	74.4492
595.448	153.703
598.341	131.492
601.234	149.219
604.126	218.617
607.019	309.961
609.912	486.941
612.805	291.59
615.697	277.769
618.59	229.137
621.483	334.34
624.375	374.391
627.268	487.742
630.161	338.434
633.053	315.906
635.946	314.438
638.839	633.293
641.732	449.273
644.624	234.484
647.517	219.512
650.41	65.2305
653.302	277.316
656.195	286.875
659.088	406.988
661.981	133.07
664.873	130.391
667.766	58.7578
670.659	24.9023
673.551	135.602
676.444	232.977
679.337	206.074
682.229	193.492
685.122	103.695
688.015	179.086
690.908	70.4492
693.8	135.332
696.693	244.586
699.586	439.508
702.478	260.996
705.371	113.934
708.264	0.386719
711.156	11.1914
714.049	0.523438
716.942	174.582
719.835	157.637
722.727	0.59375
725.62	6.24609
728.513	127.898
731.405	5.32031
734.298	14.8555
737.191	46.9062
740.083	70.4688
742.976	25.1445
745.869	125.535
748.761	215.109
751.654	130.738
754.547	308.109
757.44	198.68
760.332	49.0312
763.225	119.41
766.118	66.7891
769.01	312.422
771.903	223.566
774.796	269.371
777.688	88.25
780.581	88.6445
783.474	264.356
786.366	264.184
789.259	390.981
792.152	500.594
795.045	216.981
797.937	257.988
800.83	270.051
803.723	377.41
806.615	440.891
809.508	464.07
812.401	444.688
815.293	720.508
818.186	496.453
821.079	354.461
823.972	461.246
826.864	246.32
829.757	353.203
832.65	254.617
835.542	204.609
838.435	149.441
841.328	40.6797
844.221	165.945
847.113	28.8008
850.006	110.023
852.899	118.684
855.791	159.098
858.684	70.4375
861.577	67.0664
864.469	139.426
867.362	100.832
870.255	138.047
873.148	77.3555
876.04	13.9141
878.933	195.352
881.826	208.625
884.718	134.277
887.611	253.133
890.504	109.535
893.396	239.941
896.289	89.8828
899.182	221.609
902.074	232.648
904.967	219.637
907.86	277.289
910.753	261.992
913.645	358.027
916.538	284.797
919.431	231.543
922.323	183.742
925.216	105.434
928.109	203.477
931.001	399.777
933.894	203.914
936.787	180.137
939.68	62.043
942.572	7.60547
945.465	97.3555
948.358	171.195
951.25	70.1406
954.143	340.777
957.036	153.758
959.928	192.219
962.821	190.18
965.714	335.453
968.606	253.379
971.499	185.902
974.392	163.625
977.285	142.336
980.177	151.516
983.07	79.1289
985.963	8.4375
988.855	69.1836
991.748	35.8281
994.641	55.0234
997.534	161.215
1000.43	263.488
1003.32	292.316
1006.21	142.488
1009.1	221.465
1012	120.062
1014.89	177.023
1017.78	240.754
1020.67	35.5625
1023.57	121.281
1026.46	49.5781
1029.35	120.75
1032.25	110.539
1035.14	126.113
1038.03	220.676
1040.92	202.465
1043.82	27.3711
1046.71	71.1328
1049.6	175.902
1052.49	67.293
1055.39	161.398
1058.28	95.4102
1061.17	95.2812
1064.07	104.996
1066.96	80.4609
1069.85	91.9805
1072.74	428.059
1075.64	171.066
1078.53	5.78516
1081.42	86.5195
1084.31	71.2109
1087.21	13
1090.1	145.043
1092.99	151.906
1095.88	218.297
1098.78	212.309
1101.67	198.668
1104.56	0.667969
1107.46	190.945
1110.35	211.699
1113.24	295.703
1116.13	264.217
1119.03	165.603
1121.92	133.133
1124.81	182.959
1127.7	162.891
1130.6	252.652
1133.49	150.857
1136.38	174.832
1139.28	112.557
1142.17	115.035
1145.06	139.721
1147.95	158.609
1150.85	152.166
1153.74	168.734
1156.63	476.685
1159.53	322.039
1162.42	167.754
1165.31	78.2969
1168.2	163.699
1171.1	78.8691
1173.99	119.672
1176.88	84.6816
1179.77	46.1543
1182.67	8.92188
1185.56	24.0879
1188.45	131.83
1191.34	180.85
1194.24	180.553
1197.13	245.623
1200.02	83.6758
1202.91	115.348
1205.81	95.9824
1208.7	62.375
1211.59	140.81
1214.49	146.178
1217.38	209.967
1220.27	249.91
1223.16	48.2227
1226.06	209.752
1228.95	56.127
1231.84	11.4883
1234.73	198.514
1237.63	196.725
1240.52	197.367
1243.41	147.711
1246.31	180.691
1249.2	173.158
1252.09	157.721
1254.98	82.1309
1257.88	76.2793
1260.77	205.018
1263.66	187.926
