Measurement: Raman, 532 nm, unoriented, Raman Data Processed
Mineral: Metatorbernite
Rruff sample: R070686
Ideal chemistry: Cu(UO_2_)_2_(PO_4_)_2_8H_2_O
Locality: Fichtelgebirge, Franconia, Bavaria, Germany
Source: Michael Scott
Description: Green tabular crystals
Raman shift (cm-1)	intensity
184.023	0
186.916	7.65051
189.808	25.0794
192.701	40.8977
195.594	38.1805
198.486	13.6462
201.379	0.126266
204.272	0.338181
207.164	5.9843
210.057	14.7455
212.95	25.5595
215.843	38.9921
218.735	50.8459
221.628	56.4326
224.521	49.3348
227.413	34.1799
230.306	18.9586
233.199	10.224
236.091	5.87404
238.984	5.54817
241.877	6.88082
244.769	11.2402
247.662	17.702
250.555	19.5269
253.448	15.5859
256.34	7.24298
259.233	1.95924
262.126	1.02132
265.018	1.55006
267.911	0.79303
270.804	2.85549
273.697	5.37372
276.589	11.0636
279.482	13.6792
282.375	18.9143
285.267	21.8192
288.16	20.8719
291.053	18.3559
293.945	14.4666
296.838	11.1558
299.731	9.38833
302.623	8.71893
305.516	8.0033
308.409	6.16731
311.302	5.73562
314.194	4.69232
317.087	2.3551
319.98	1.49663
322.872	0.986244
325.765	0.064804
328.658	0.851868
331.55	0.188568
334.443	0.084892
337.336	0.714905
340.229	0.034821
343.121	0.256027
346.014	0.249382
348.907	0.423172
351.799	0.069504
354.692	1.0164
357.585	1.08238
360.478	1.23802
363.37	1.6284
366.263	2.06055
369.156	2.64162
372.048	2.91043
374.941	2.85634
377.834	3.62335
380.726	4.29389
383.619	5.97046
386.512	7.7633
389.404	9.94905
392.297	16.3735
395.19	25.6508
398.083	40.8178
400.975	52.0157
403.868	56.1472
406.761	64.7521
409.653	45.6809
412.546	23.7192
415.439	15.5044
418.332	11.8097
421.224	11.9725
424.117	15.2033
427.01	19.3813
429.902	26.3726
432.795	35.4393
435.688	47.0129
438.58	55.7094
441.473	52.3386
444.366	42.5656
447.259	31.1666
450.151	20.9177
453.044	18.8381
455.937	16.7544
458.829	17.354
461.722	16.7207
464.615	14.374
467.507	9.80706
470.4	6.66782
473.293	4.9975
476.185	2.25256
479.078	1.5712
481.971	0.5243
484.864	0.442116
487.756	1.27685
490.649	0.812828
493.542	0.104912
496.434	0.495308
499.327	0.0961
502.22	2.45879
505.113	2.9178
508.005	1.81582
510.898	1.9987
513.791	1.25731
516.683	0.954819
519.576	0.871506
522.469	0.141228
525.361	0.566391
528.254	1.22355
531.147	1.24391
534.04	1.07383
536.932	1.29115
539.825	1.39912
542.718	2.19227
545.61	1.16099
548.503	1.67882
551.396	1.40572
554.288	1.05613
557.181	1.1266
560.074	1.47649
562.967	0.371658
565.859	0.138855
568.752	0.714043
571.645	0.6735
574.537	1.14877
577.43	0.770409
580.323	0.227028
583.216	0.833755
586.108	1.25508
589.001	1.57085
591.894	1.6913
594.786	2.5969
597.679	3.23085
600.572	3.62714
603.464	3.30522
606.357	3.69421
609.25	4.47446
612.142	5.90507
615.035	5.00697
617.928	5.91384
620.821	6.24249
623.713	5.84262
626.606	6.25687
629.499	5.84956
632.391	6.07458
635.284	5.45323
638.177	5.3802
641.069	4.14349
643.962	4.43238
646.855	4.53777
649.747	3.28219
652.64	3.52631
655.533	3.14059
658.426	3.33143
661.318	2.7042
664.211	2.68574
667.104	2.15206
669.996	2.01657
672.889	1.61518
675.782	1.48885
678.674	0.615295
681.567	1.76852
684.46	1.75705
687.353	1.36831
690.245	1.06255
693.138	1.66135
696.031	0.662064
698.923	0.913902
701.816	0.764442
704.709	0.227989
707.601	1.80226
710.494	0.307365
713.387	0.505684
716.28	0.118721
719.172	1.07261
722.065	0.05265
724.958	0.160118
727.85	0.148376
730.743	0.605988
733.636	0.63723
736.529	0.047546
739.421	0.232658
742.314	0.81636
745.207	0.883537
748.099	0.111336
750.992	0.556816
753.885	0.877922
756.777	2.02866
759.67	1.04528
762.563	2.6563
765.456	2.7016
768.348	4.42986
771.241	6.14352
774.134	6.73209
777.026	8.08283
779.919	9.59056
782.812	12.3313
785.704	14.1126
788.597	17.7568
791.49	22.4919
794.383	27.8781
797.275	36.1862
800.168	45.326
803.061	57.6935
805.953	75.2727
808.846	103.834
811.739	155.311
814.631	250.675
817.524	377.714
820.417	573.825
823.309	936.043
826.202	1312.15
829.095	877.386
831.988	367.396
834.88	190.13
837.773	115.12
840.666	75.2365
843.558	45.7568
846.451	29.3904
849.344	21.0247
852.236	15.9035
855.129	11.4799
858.022	8.45242
860.915	3.56757
863.807	1.1194
866.7	0.499977
869.593	1.25706
872.485	0.840675
875.378	0.67968
878.271	1.50091
881.163	4.06313
884.056	5.84448
886.949	8.91149
889.842	12.4383
892.734	15.7573
895.627	18.6719
898.52	22.3843
901.412	22.5897
904.305	20.8643
907.198	18.0343
910.091	13.9728
912.983	9.42786
915.876	6.23965
918.769	4.30436
921.661	1.85996
924.554	1.28971
927.447	0.458557
930.339	0.133316
933.232	1.23567
936.125	0.812309
939.018	0.352272
941.91	1.0939
944.803	1.60226
947.696	3.66882
950.588	5.90423
953.481	7.88656
956.374	15.0467
959.266	13.2546
962.159	16.2489
965.052	20.6216
967.944	27.2744
970.837	40.5409
973.73	60.4626
976.623	96.7478
979.515	155.554
982.408	239.537
985.301	363.455
988.193	504.219
991.086	547.785
993.979	508.477
996.871	440.445
999.764	320.036
1002.66	210.569
1005.55	161.887
1008.44	98.7033
1011.34	52.1587
1014.23	31.2576
1017.12	20.559
1020.01	14.7956
1022.91	11.1251
1025.8	8.1119
1028.69	5.45692
1031.58	4.38252
1034.48	2.76814
1037.37	2.99737
1040.26	1.86691
1043.15	1.46256
1046.05	1.77782
1048.94	1.40823
1051.83	1.21204
1054.73	1.26281
1057.62	1.741
1060.51	0.38298
1063.4	0.301056
1066.3	0.927933
1069.19	0.017113
1072.08	0.611649
1074.97	0.22094
1077.87	0.129982
1080.76	0.408051
1083.65	0.045723
1086.55	1.33606
1089.44	1.58736
1092.33	2.0892
1095.22	3.05132
1098.12	2.9408
1101.01	3.31716
1103.9	2.91685
1106.79	4.27554
1109.69	3.34384
1112.58	3.04901
1115.47	4.58871
1118.37	2.92683
1121.26	2.75497
1124.15	2.16158
1127.04	1.97863
1129.94	2.13602
1132.83	0.643257
1135.72	1.2411
1138.61	0.111801
1141.51	1.07223
1144.4	0.641258
1147.29	1.0421
1150.18	0.851608
1153.08	0.802231
1155.97	2.3806
1158.86	0.294563
1161.76	1.76462
1164.65	0.714653
1167.54	0.599297
1170.43	0.035568
1173.33	0.281075
1176.22	1.28964
1179.11	1.29817
1182	0.769417
1184.9	0.981552
1187.79	0.387863
1190.68	0.360924
1193.58	0.937599
1196.47	0.187187
1199.36	0.437546
1202.25	0.345261
1205.15	1.35749
1208.04	2.09988
1210.93	1.48293
1213.82	1.62443
1216.72	0.768143
1219.61	1.11656
1222.5	0.536247
1225.39	0.969467
1228.29	1.42007
1231.18	1.15879
1234.07	0.05954
1236.97	0.836479
1239.86	0.368919
1242.75	0.498451
1245.64	0.199921
1248.54	0.491531
1251.43	1.00863
1254.32	0.906342
1257.21	0.121689
1260.11	1.64227
1263	1.75668
1265.89	1.78125
1268.79	1.31779
1271.68	0.867546
1274.57	1.26052
1277.46	0.943733
1280.36	0.220284
1283.25	0.226204
1286.14	0.260849
1289.03	0.750435
1291.93	0.770287
1294.82	0.813782
1297.71	0.505035
1300.61	1.23627
