Measurement: Raman, 532 nm, unoriented, Raman Data Processed
Mineral: Metarauchite
Rruff sample: R120114
Ideal chemistry: Ni^2+^(U^6+^O_2_)_2_(As^5+^O_4_)_2_8H_2_O
Locality: Schweizer vein, 90 level, Eduard mine, Jachymov, Krusne Hory Mts., Czech Republic
Source: Dr Peter Kolesar
Description: Aggregates of yellow play crystals, associated with green platy metazeunerite
Raman shift (cm-1)	intensity
182.577	0
185.469	36.1493
188.362	124.985
191.255	208.997
194.147	262.188
197.04	284.515
199.933	304.941
202.825	316.837
205.718	313.26
208.611	281.611
211.504	216.282
214.396	150.861
217.289	90.9474
220.182	50.1855
223.074	28.449
225.967	12.5114
228.86	4.61026
231.752	2.84271
234.645	3.95978
237.538	6.18286
240.43	9.19589
243.323	7.63422
246.216	2.40515
249.109	12.4704
252.001	20.3898
254.894	30.4356
257.787	37.8334
260.679	49.5555
263.572	61.2619
266.465	67.9195
269.358	76.8217
272.25	86.3578
275.143	93.0661
278.036	95.0768
280.928	95.4956
283.821	87.1981
286.714	79.1328
289.606	68.4307
292.499	58.5495
295.392	44.7581
298.284	33.2032
301.177	24.1
304.07	19.3373
306.963	16.2104
309.855	24.0197
312.748	22.749
315.641	26.3347
318.533	30.721
321.426	30.6877
324.319	35.0923
327.212	34.0412
330.104	25.1091
332.997	16.357
335.89	6.301
338.782	2.41708
341.675	2.67685
344.568	1.15613
347.46	2.7482
350.353	2.68173
353.246	0.542053
356.139	3.00406
359.031	1.7833
361.924	3.14432
364.817	3.22238
367.709	4.8208
370.602	9.74515
373.495	12.4634
376.387	16.438
379.28	20.8799
382.173	25.5742
385.065	32.0841
387.958	37.5094
390.851	38.3039
393.744	30.7159
396.636	26.6337
399.529	20.0059
402.422	14.3623
405.314	13.3128
408.207	10.9646
411.1	13.6274
413.993	11.9527
416.885	8.91284
419.778	8.46408
422.671	9.96893
425.563	13.4689
428.456	19.621
431.349	22.0377
434.241	24.5992
437.134	27.3047
440.027	30.7162
442.92	32.4977
445.812	34.7218
448.705	33.8425
451.598	30.7476
454.49	29.6529
457.383	29.7396
460.276	25.2102
463.168	22.2215
466.061	20.1452
468.954	14.9688
471.846	13.4319
474.739	11.9306
477.632	9.51636
480.525	7.80441
483.417	3.82532
486.31	4.87277
489.203	5.6619
492.095	3.84903
494.988	1.89282
497.881	3.67722
500.774	1.49029
503.666	0.092163
506.559	1.28101
509.452	1.42435
512.344	0.042847
515.237	0.298004
518.13	0.695099
521.022	0.053253
523.915	1.32962
526.808	2.44592
529.701	1.84848
532.593	1.38779
535.486	0.207489
538.379	0.389038
541.271	1.29065
544.164	1.53625
547.057	3.75082
549.949	4.48731
552.842	4.66287
555.735	4.78744
558.628	6.99207
561.52	7.32251
564.413	6.36737
567.306	6.5098
570.198	6.09229
573.091	6.94794
575.984	5.46741
578.876	7.45297
581.769	10.1675
584.662	9.81345
587.554	10.4229
590.447	11.6121
593.34	11.5835
596.232	9.68152
599.125	11.5171
602.018	11.4261
604.911	9.32748
607.803	10.7084
610.696	9.97482
613.589	11.3915
616.481	10.4351
619.374	11.8135
622.267	10.3135
625.159	9.93863
628.052	9.86371
630.945	11.99
633.838	13.1602
636.73	14.7295
639.623	13.7979
642.516	15.8097
645.408	14.0146
648.301	15.2423
651.194	15.2973
654.087	16.0458
656.979	15.4413
659.872	12.4938
662.765	9.46539
665.657	7.45019
668.55	8.28348
671.443	6.63037
674.335	8.39438
677.228	4.36346
680.121	4.5123
683.014	3.37427
685.906	0.682373
688.799	1.13861
691.692	1.15192
694.584	1.33136
697.477	0.371643
700.37	3.74585
703.263	4.9809
706.155	5.26654
709.048	4.11053
711.941	3.07281
714.833	1.86206
717.726	1.91803
720.619	1.13776
723.511	7.63739
726.404	13.1421
729.297	24.7103
732.189	29.8879
735.082	40.9034
737.975	50.3023
740.868	66.691
743.76	76.9424
746.653	96.7757
749.546	118.479
752.438	154.107
755.331	190.878
758.224	243.954
761.116	305.904
764.009	390.255
766.902	502.394
769.795	624.59
772.687	759.618
775.58	888.442
778.473	989.881
781.365	1046.06
784.258	1054.14
787.151	1066.1
790.043	1174.99
792.936	1405.08
795.829	1728.36
798.722	2147.15
801.614	2572.52
804.507	2715.34
807.4	2419.99
810.292	2008.12
813.185	1621.6
816.078	1223.43
818.971	869.345
821.863	618.014
824.756	443.636
827.649	336.3
830.541	265.415
833.434	211.589
836.327	163.021
839.219	114.299
842.112	76.5247
845.005	47.8516
847.898	24.6542
850.79	4.75427
853.683	8.25195
856.576	14.273
859.468	14.2568
862.361	6.36163
865.254	4.82324
868.146	19.9127
871.039	43.9647
873.932	75.1618
876.824	110.317
879.717	150.965
882.61	195.816
885.503	251.717
888.395	310.061
891.288	362.508
894.181	381.659
897.073	346.097
899.966	281.133
902.859	244.326
905.751	257.311
908.644	264.437
911.537	210.767
914.43	130.761
917.322	77.054
920.215	45.3885
923.108	30.9138
926	24.7833
928.893	18.3688
931.786	18.2752
934.678	2.8963
937.571	0.251282
940.464	2.48328
943.357	1.73108
946.249	0.974548
949.142	1.67456
952.035	1.50671
954.927	3.23041
957.82	2.82172
960.713	1.52801
963.606	3.60248
966.498	2.81921
969.391	4.95459
972.284	3.69598
975.176	4.99347
978.069	4.7384
980.962	9.10931
983.854	9.09845
986.747	8.03455
989.64	10.6314
992.533	9.73041
995.425	10.25
998.318	8.92218
1001.21	5.30804
1004.1	4.289
1007	6.59723
1009.89	8.53644
1012.78	5.35449
1015.67	4.22943
1018.57	4.16803
1021.46	6.77625
1024.35	4.58508
1027.24	3.823
1030.14	6.51294
1033.03	5.84424
1035.92	5.02972
1038.82	6.24329
1041.71	2.81677
1044.6	2.90332
1047.49	2.50232
1050.39	3.29602
1053.28	3.76166
1056.17	4.17145
1059.07	2.84717
1061.96	1.73212
1064.85	2.55347
1067.74	2.48163
1070.63	1.53601
1073.53	0.742615
1076.42	0.723877
1079.31	2.03864
1082.21	1.23236
1085.1	0.828369
1087.99	0.85498
1090.88	0.241455
1093.78	2.85608
1096.67	3.0744
1099.56	1.8606
1102.45	1.69379
1105.35	1.17834
1108.24	2.59271
1111.13	1.89673
1114.03	2.89166
1116.92	1.13776
1119.81	0.635681
1122.7	2.41473
1125.6	1.60022
1128.49	0.842163
1131.38	0.368103
1134.28	0.504578
1137.17	2.6521
1140.06	0.531738
1142.95	0.527466
1145.85	0.190796
1148.74	4.39819
1151.63	1.53021
1154.52	2.4433
1157.42	1.79944
1160.31	1.29571
1163.2	2.69342
1166.09	2.9729
1168.99	1.92987
1171.88	4.15112
1174.77	3.43042
1177.66	4.53204
1180.56	2.95319
1183.45	2.03455
1186.34	4.62396
1189.24	4.53851
1192.13	4.14569
1195.02	1.78076
1197.91	4.4787
1200.81	3.33551
1203.7	2.16364
1206.59	3.81891
1209.48	4.31201
1212.38	7.22107
1215.27	5.7193
1218.16	1.33661
1221.06	1.6023
1223.95	3.20508
1226.84	4.42609
1229.73	3.07672
1232.63	0.882202
1235.52	0.318237
1238.41	0.188049
1241.31	1.5191
1244.2	3.04358
1247.09	3.21277
1249.98	2.96094
1252.88	2.37561
1255.77	0.499756
1258.66	3.53815
1261.55	4.75555
1264.45	5.09076
1267.34	2.06921
1270.23	3.23737
1273.12	0.670044
1276.02	5.42267
1278.91	2.28473
1281.8	1.78125
1284.69	0.922729
1287.59	2.54901
1290.48	3.59723
1293.37	0.091919
1296.27	1.91943
1299.16	5.1626
1302.05	1.20782
