Measurement: Raman, 532 nm, unoriented, Raman Data Processed
Mineral: Metatorbernite
Rruff sample: R140872
Ideal chemistry: Cu(UO_2_)_2_(PO_4_)_2_8H_2_O
Locality: Roland mine, Wölsendorf East District, Wölsendorf Fluorite mining District, Schwandorf, Upper Palatinate, Bavaria, Germany
Source: Stefan Schorn
Description: Green platy crystals, associated with fluorite, quartz, chrysocolla, and chalcopyrite.
Raman shift (cm-1)	intensity
124.978	0
128.352	1.55449
131.727	0.08461
135.102	2.00857
138.477	2.50261
141.852	3.50592
145.227	6.40418
148.601	5.94026
151.976	3.90495
155.351	4.08716
158.726	0.825027
162.101	1.59703
165.476	0.354675
168.85	1.16319
172.225	1.21152
175.6	7.40347
178.975	14.8676
182.35	22.5158
185.724	33.1482
189.099	50.0589
192.474	65.5388
195.849	57.7489
199.224	27.1813
202.599	16.2069
205.973	17.0742
209.348	20.8123
212.723	30.0464
216.098	37.7793
219.473	50.1501
222.847	52.9072
226.222	40.2424
229.597	24.4993
232.972	12.6118
236.347	5.87608
239.721	4.17487
243.096	2.66888
246.471	3.48407
249.846	6.1349
253.221	5.65732
256.596	0.935364
259.97	0.750778
263.345	0.031418
266.72	2.27246
270.095	3.79929
273.47	7.48581
276.844	9.98059
280.219	14.5531
283.594	16.0186
286.969	20.5149
290.344	18.4267
293.719	16.1037
297.093	12.2211
300.468	9.73505
303.843	7.73389
307.218	8.43449
310.593	6.90653
313.967	4.65982
317.342	2.95644
320.717	1.2708
324.092	0.210938
327.467	0.015472
330.842	0.280212
334.216	0.959427
337.591	0.066742
340.966	0.495468
344.341	0.020569
347.716	3.85507
351.091	0.963959
354.465	0.210938
357.84	0.981796
361.215	7.24557
364.59	7.60051
367.964	2.36594
371.339	2.74539
374.714	4.55229
378.089	6.84297
381.464	7.42957
384.839	12.9031
388.213	20.8739
391.588	36.8053
394.963	63.4105
398.338	102.454
401.713	126.59
405.087	147.55
408.462	137.27
411.837	61.5568
415.212	29.2762
418.587	18.8998
421.962	17.0058
425.336	17.0168
428.711	21.4253
432.086	27.7493
435.461	37.6039
438.836	47.3156
442.211	45.4284
445.585	32.8091
448.96	21.4784
452.335	16.2765
455.71	13.8142
459.085	14.7082
462.459	15.7803
465.834	14.2163
469.209	12.7675
472.584	10.7951
475.959	9.60004
479.334	6.81311
482.708	2.70754
486.083	1.98138
489.458	0.848221
492.833	0.236374
496.208	0.887909
499.582	0.17894
502.957	1.07457
506.332	0.010696
509.707	0.583801
513.082	0.916016
516.457	0.911392
519.831	0.457596
523.206	1.49736
526.581	0.680588
529.956	3.04806
533.331	4.40189
536.705	3.92308
540.08	4.22856
543.455	4.64914
546.83	3.20773
550.205	4.54564
553.58	3.29488
556.954	1.98907
560.329	1.1279
563.704	1.85194
567.079	0.036682
570.454	0.825974
573.828	0.253723
577.203	0.550369
580.578	1.01822
583.953	1.12039
587.328	2.26771
590.702	3.26439
594.077	2.21455
597.452	3.04558
600.827	5.9626
604.202	6.60597
607.577	8.20404
610.951	7.68578
614.326	10.2256
617.701	10.6914
621.076	10.1067
624.451	9.72383
627.825	8.64477
631.2	8.05727
634.575	6.1116
637.95	6.24649
641.325	5.03903
644.699	3.8132
648.074	3.85878
651.449	3.64865
654.824	4.65584
658.199	4.14815
661.574	3.49271
664.948	4.38481
668.323	3.02351
671.698	3.3632
675.073	2.72844
678.448	1.94545
681.822	2.23012
685.197	1.46202
688.572	0.989822
691.947	0.831619
695.322	0.544464
698.697	0.064514
702.071	0.111649
705.446	0.847229
708.821	0.486801
712.196	1.14166
715.571	0.316498
718.946	1.05444
722.32	0.147552
725.695	0.413422
729.07	0.180054
732.445	0.274734
735.82	0.024078
739.194	0.795685
742.569	0.513641
745.944	2.53316
749.319	1.13654
752.694	4.44785
756.068	1.83041
759.443	3.19592
762.818	0.78215
766.193	3.39523
769.568	3.18913
772.943	3.58649
776.317	2.5669
779.692	5.29289
783.067	8.67375
786.442	10.525
789.817	13.8397
793.192	19.0402
796.566	26.2474
799.941	34.6065
803.316	49.9363
806.691	70.5989
810.066	103.209
813.44	184.429
816.815	322.731
820.19	503.172
823.565	868.911
826.94	1274.61
830.314	578.258
833.689	203.667
837.064	100.581
840.439	57.9843
843.814	36.1745
847.188	23.1659
850.563	18.572
853.938	12.0156
857.313	7.94525
860.688	3.95783
864.063	0.145844
867.437	0.086426
870.812	1.09905
874.187	0.347
877.562	0.32608
880.937	1.336
884.312	8.84514
887.686	8.39809
891.061	11.6596
894.436	16.7108
897.811	18.6169
901.186	19.4448
904.56	16.7855
907.935	12.761
911.31	5.89987
914.685	4.35707
918.06	1.77325
921.434	0.320221
924.809	0.030853
928.184	0.36673
931.559	1.52988
934.934	0.748703
938.309	1.10663
941.683	5.94048
945.058	13.7606
948.433	19.0506
951.808	29.9286
955.183	42.0534
958.558	51.6288
961.932	58.2979
965.307	68.4901
968.682	94.4828
972.057	141.304
975.432	230.961
978.806	396.971
982.181	649.952
985.556	1039.92
988.931	1474.15
992.306	1441.47
995.681	1355.21
999.055	1068.74
1002.43	545.63
1005.8	332.286
1009.18	184.054
1012.55	106.818
1015.93	68.3962
1019.3	48.3239
1022.68	35.8448
1026.05	26.5113
1029.43	17.6186
1032.8	13.1758
1036.18	10.1175
1039.55	6.80109
1042.93	6.38771
1046.3	4.00024
1049.68	3.3718
1053.05	3.01677
1056.43	0.880066
1059.8	0.858032
1063.18	0.361877
1066.55	0.623932
1069.93	0.120255
1073.3	1.99052
1076.68	0.08194
1080.05	0.428345
1083.43	0.149475
1086.8	0.162979
1090.17	0.464035
1093.55	1.98048
1096.92	2.48918
1100.3	2.36824
1103.67	2.6407
1107.05	1.53091
1110.42	3.85986
1113.8	3.15323
1117.17	3.14291
1120.55	1.60841
1123.92	2.26607
1127.3	2.28281
1130.67	0.811127
1134.05	0.957886
1137.42	0.895218
1140.8	0.418442
1144.17	1.08876
1147.55	1.0385
1150.92	1.28917
1154.3	4.0286
1157.67	2.02415
1161.05	2.12312
1164.42	2.08429
1167.8	1.06834
1171.17	2.3472
1174.55	1.95091
1177.92	0.655746
1181.3	2.21631
1184.67	1.36652
1188.05	1.23938
1191.42	0.744339
1194.8	1.00621
1198.17	1.11154
1201.54	0.106522
1204.92	1.35483
1208.29	0.833832
1211.67	0.700912
1215.04	1.35416
1218.42	2.07967
1221.79	1.63208
1225.17	0.417664
1228.54	0.826584
1231.92	1.24834
1235.29	1.67087
1238.67	0.735062
1242.04	0.188812
1245.42	1.61505
1248.79	1.91553
1252.17	1.31946
1255.54	0.819382
1258.92	2.38898
1262.29	2.88211
1265.67	0.852448
1269.04	0.837814
1272.42	1.18979
1275.79	0.448547
1279.16	0.81723
1282.54	0.075409
1285.91	1.08128
1289.29	0.896835
1292.66	2.62285
1296.04	1.82182
1299.41	0.458603
