Measurement: Raman, 780 nm, unoriented, Raman Data Processed
Mineral: Metarauchite
Rruff sample: R120114
Ideal chemistry: Ni^2+^(U^6+^O_2_)_2_(As^5+^O_4_)_2_8H_2_O
Locality: Schweizer vein, 90 level, Eduard mine, Jachymov, Krusne Hory Mts., Czech Republic
Source: Dr Peter Kolesar
Description: Aggregates of yellow play crystals, associated with green platy metazeunerite
Raman shift (cm-1)	intensity
142.708	0
145.601	0.816406
148.493	13.0562
151.386	28.6245
154.279	88.7749
157.171	107.464
160.064	163.046
162.957	235.811
165.85	267.681
168.742	282.612
171.635	342.753
174.528	402.392
177.42	492.297
180.313	587.729
183.206	693.882
186.098	802.966
188.991	898.075
191.884	978.392
194.776	1041.7
197.669	1040.06
200.562	1028
203.455	1006.92
206.347	948.884
209.24	784.595
212.133	585.222
215.025	415.458
217.918	263.652
220.811	157.588
223.703	89.8501
226.596	62.7993
229.489	24.3848
232.382	5.00488
235.274	17.1992
238.167	0.484863
241.06	22.2075
243.952	7
246.845	36.9194
249.738	61.4648
252.631	66.3369
255.523	78.5166
258.416	98.4312
261.309	136.353
264.201	149.052
267.094	144.404
269.987	136.866
272.879	129.559
275.772	108.621
278.665	126.285
281.558	122.644
284.45	103.39
287.343	97.7803
290.236	110.539
293.128	84.7812
296.021	81.021
298.914	85.0523
301.806	85.7852
304.699	111.049
307.592	157.534
310.485	172.16
313.377	180.649
316.27	207.804
319.163	197.285
322.055	186.161
324.948	167.568
327.841	152.857
330.733	110.953
333.626	80.479
336.519	65.144
339.411	50.9717
342.304	53.8877
345.197	53.3603
348.09	53.7549
350.982	16.3418
353.875	9.98584
356.768	5.78076
359.66	15.0713
362.553	0.333496
365.446	13.7505
368.339	0.758301
371.231	20.7007
374.124	12.8565
377.017	19.2817
379.909	16.0386
382.802	27.355
385.695	42.1514
388.587	72.52
391.48	44.2925
394.373	63.9678
397.265	39.3384
400.158	28.3452
403.051	28.8608
405.944	68.916
408.836	68.876
411.729	80.1426
414.622	77.5913
417.514	60.0264
420.407	50.7974
423.3	76.6826
426.192	63.5708
429.085	57.8076
431.978	69.563
434.871	64.4321
437.763	81.5791
440.656	98.7607
443.549	98.8203
446.441	105.845
449.334	108.117
452.227	123.93
455.12	114.062
458.012	113.166
460.905	128.382
463.798	128.26
466.69	105.084
469.583	124.665
472.476	84.3726
475.368	103.07
478.261	94.9228
481.154	86.4136
484.046	59.8716
486.939	61.7217
489.832	69.085
492.725	42.9434
495.617	68.0107
498.51	49.7505
501.403	27.8662
504.295	51.5147
507.188	28.2651
510.081	42.4663
512.973	26.7329
515.866	31.4058
518.759	13.2212
521.652	7.72852
524.544	1.26807
527.437	11.6479
530.33	1.44824
533.222	0.769531
536.115	8.44043
539.008	15.1821
541.9	12.2827
544.793	12.2729
547.686	3.79981
550.579	1.24951
553.471	3.65185
556.364	5.12598
559.257	13.0254
562.149	43.0483
565.042	28.4077
567.935	7.19287
570.827	21.9111
573.72	10.831
576.613	29.7583
579.506	22.3809
582.398	35.9502
585.291	42.2378
588.184	27.6094
591.076	27.2505
593.969	65.0161
596.862	37.8433
599.755	69.2222
602.647	69.709
605.54	58.9072
608.433	50.2602
611.325	60.9971
614.218	67.2647
617.111	65.4463
620.003	58.5933
622.896	86.832
625.789	72.7285
628.682	83.1851
631.574	82.1187
634.467	97.6533
637.36	76.7861
640.252	98.915
643.145	110.638
646.038	94.3691
648.93	84.7627
651.823	82.7407
654.716	59.7388
657.609	60.1655
660.501	73.0542
663.394	42.395
666.287	35.9961
669.179	47.5752
672.072	30.6782
674.965	24.4033
677.857	20.498
680.75	21.9844
683.643	22.9009
686.535	3.46826
689.428	6.99463
692.321	0.412598
695.214	18.6177
698.106	32.2676
700.999	19.9961
703.892	16.4971
706.784	4.77393
709.677	2.36133
712.57	8.4082
715.462	13.1787
718.355	3.34424
721.248	0.548828
724.141	13.2588
727.033	56.9414
729.926	64.2495
732.819	112.145
735.711	98.1079
738.604	120.351
741.497	141.297
744.389	183.107
747.282	228.259
750.175	320.746
753.068	385.38
755.96	496.799
758.853	657.999
761.746	874.838
764.638	1121.68
767.531	1477.37
770.424	1761.29
773.317	2075.42
776.209	2305.14
779.102	2431.07
781.995	2434.77
784.887	2490.25
787.78	2751.41
790.673	3266.67
793.565	4074.98
796.458	5030.11
799.351	6051.26
802.244	6648.61
805.136	6585.75
808.029	6260.46
810.922	5694.97
813.814	4603.87
816.707	3438.41
819.6	2486.61
822.492	1821.69
825.385	1350.13
828.278	1070.74
831.17	845.783
834.063	688.985
836.956	554.372
839.849	456.411
842.741	330.607
845.634	235.996
848.527	124.061
851.419	49.1367
854.312	21.1123
857.205	48.5298
860.097	41.064
862.99	26.8965
865.883	7.48096
868.776	37.9219
871.668	105.086
874.561	206.057
877.454	299.542
880.346	390.959
883.239	540.731
886.132	705.871
889.024	781.536
891.917	810.571
894.81	727.342
897.703	569.19
900.595	585.898
903.488	625.927
906.381	721.653
909.273	683.533
912.166	504.474
915.059	364.573
917.952	284.509
920.844	232.317
923.737	194.721
926.63	152.136
929.522	96.7124
932.415	77.3184
935.308	27.167
938.2	4.06494
941.093	2.33984
943.986	25.1191
946.879	19.8491
949.771	3.95166
952.664	16.2466
955.557	23.5317
958.449	14.3062
961.342	32.3247
964.235	13.9565
967.127	30.0439
970.02	27.0142
972.913	8.91748
975.806	4.85303
978.698	14.6123
981.591	42.1904
984.484	39.773
987.376	28.8345
990.269	56.9316
993.162	38.7563
996.054	45.5767
998.947	67.9121
1001.84	52.2466
1004.73	34.3242
1007.62	25.6123
1010.52	52.9165
1013.41	38.3223
1016.3	69.686
1019.2	62.4482
1022.09	37.1435
1024.98	30.2407
1027.87	26.1401
1030.77	54.3779
1033.66	44.5215
1036.55	90.7329
1039.44	66.3999
1042.34	46.7036
1045.23	58.7495
1048.12	47.1216
1051.02	20.209
1053.91	19.5523
1056.8	34.731
1059.69	48.0586
1062.59	53.1309
1065.48	69.2886
1068.37	62.6201
1071.27	43.4331
1074.16	44.8633
1077.05	27.4722
1079.94	12.9829
1082.84	44.2676
1085.73	41.0283
1088.62	65.2881
1091.51	20.1211
1094.41	61.606
1097.3	23.6504
1100.19	4.63818
1103.08	16.6899
1105.98	2.11963
1108.87	8.7876
1111.76	8.10693
1114.65	17.7837
1117.55	15.2373
1120.44	3.88672
1123.33	15.5264
1126.23	8.06543
1129.12	14.4644
1132.01	10.4751
1134.9	15.4756
1137.8	32.4316
1140.69	44.1621
1143.58	43.9194
1146.47	49.0425
1149.37	50.5288
1152.26	50.7319
1155.15	39.9648
1158.05	48.5322
1160.94	64.7578
1163.83	49.0508
1166.72	44.6065
1169.62	49.273
1172.51	46.4858
1175.4	33.6577
1178.3	43.0688
1181.19	56.4355
1184.08	50.1606
1186.97	43.9976
1189.87	70.5732
1192.76	68.6279
1195.65	71.0552
1198.54	49.04
1201.44	55.9985
1204.33	51.5562
1207.22	33.8325
1210.11	34.7334
1213.01	31.4302
1215.9	41.9312
1218.79	50.8154
1221.68	0.805176
1224.58	8.68066
1227.47	18.1177
1230.36	22.8638
1233.26	24.1465
1236.15	11.6587
1239.04	16.3672
1241.93	6.69629
1244.83	10.4614
1247.72	35.7251
1250.61	0.945801
1253.51	6.12012
1256.4	10.2168
1259.29	31.8501
1262.18	68.3018
1265.08	66.4067
1267.97	40.5557
1270.86	10.6909
1273.75	27.6128
1276.65	1.46436
1279.54	18.3545
1282.43	10.729
1285.32	0
