Measurement: Raman, 780 nm, unoriented, Raman Data Processed
Mineral: Meta-autunite
Rruff sample: R060476
Ideal chemistry: Ca(UO_2_)_2_(PO_4_)_2_6H_2_O
Locality: San Pedro mine, Malacheta, Minas Gerais, Brazil
Source: Michael Scott
Description: Book of yellowish-green thin tabular crystals
Measured chemistry: (Ca_0.87_Sr_0.05_Ba_0.04_)_∑=0.96_(UO_2_)_1.95_(PO_4_)_2.08_·4.10H_2_O
Raman shift (cm-1)	intensity
153.763	0
156.655	3.39389
159.548	3.50415
162.441	1.84985
165.333	3.20123
168.226	4.30399
171.119	5.77154
174.012	11.2118
176.904	22.5806
179.797	28.5305
182.69	37.9989
185.582	49.9479
188.475	64.64
191.368	79.3803
194.261	94.7554
197.153	101.58
200.046	90.3479
202.939	72.6368
205.831	57.7056
208.724	40.5257
211.617	21.8574
214.509	14.5302
217.402	10.6803
220.295	2.10382
223.188	6.93436
226.08	4.93872
228.973	1.91727
231.866	0.418427
234.758	2.29373
237.651	0.856415
240.544	0.433167
243.436	0.397186
246.329	2.58005
249.222	5.32471
252.114	6.72122
255.007	7.8981
257.9	8.18402
260.793	10.1063
263.685	8.12712
266.578	11.7303
269.471	13.4746
272.363	13.7458
275.256	13.1625
278.149	17.1096
281.041	17.5026
283.934	17.6667
286.827	21.1371
289.719	16.7212
292.612	16.3081
295.505	15.2955
298.398	12.236
301.29	9.68004
304.183	11.9544
307.076	8.25682
309.968	9.32161
312.861	6.85614
315.754	5.60368
318.647	9.71265
321.539	6.91913
324.432	6.7047
327.325	4.04224
330.217	2.3362
333.11	2.61674
336.003	1.24965
338.895	1.05554
341.788	2.27219
344.681	0.355682
347.574	0.154053
350.466	1.79045
353.359	0.758865
356.252	3.79883
359.144	3.24904
362.037	4.2319
364.93	6.93425
367.822	7.13406
370.715	15.2751
373.608	11.3369
376.5	13.1237
379.393	13.7299
382.286	13.3703
385.179	14.1644
388.071	13.2348
390.964	12.6687
393.857	13.1618
396.749	11.9066
399.642	10.3647
402.535	4.91902
405.427	3.54073
408.32	1.13168
411.213	0.102127
414.106	2.7917
416.998	1.4436
419.891	2.35245
422.784	1.44595
425.676	1.99522
428.569	5.3376
431.462	6.80701
434.354	5.97168
437.247	6.31778
440.14	5.69701
443.033	8.22177
445.925	6.0849
448.818	5.9427
451.711	7.4491
454.603	9.10869
457.496	6.70017
460.389	6.18596
463.281	8.28751
466.174	2.31862
469.067	0.65097
471.959	1.96269
474.852	2.58406
477.745	3.72168
480.638	1.46992
483.53	4.18658
486.423	5.29541
489.316	2.6848
492.208	0.97023
495.101	0.850723
497.994	2.11729
500.887	2.46036
503.779	3.60658
506.672	3.73238
509.565	3.91853
512.457	3.75211
515.35	4.90431
518.243	5.80669
521.135	3.56371
524.028	5.79251
526.921	6.80968
529.813	7.28349
532.706	7.82933
535.599	10.3544
538.492	12.2784
541.384	12.9803
544.277	12.7428
547.17	13.2674
550.062	15.8599
552.955	14.1867
555.848	16.0689
558.74	14.4416
561.633	12.2029
564.526	15.3659
567.418	13.2006
570.311	13.9549
573.204	16.5743
576.097	15.5475
578.989	12.7665
581.882	16.4508
584.775	14.4407
587.667	15.6715
590.56	16.2982
593.453	13.4636
596.346	11.6967
599.238	12.3592
602.131	11.0692
605.024	10.1842
607.916	7.45358
610.809	8.04846
613.702	5.431
616.594	2.74339
619.487	3.56169
622.38	1.46612
625.273	1.96083
628.165	0.157181
631.058	1.37952
633.951	3.34343
636.843	0.674469
639.736	0.328934
642.629	2.1857
645.521	1.16011
648.414	0.894424
651.307	2.16904
654.199	1.56873
657.092	2.74066
659.985	0.533142
662.878	0.600143
665.77	0.079742
668.663	3.16945
671.556	2.97699
674.448	4.18204
677.341	9.39963
680.234	10.7515
683.126	16.0935
686.019	23.6381
688.912	32.9162
691.805	43.997
694.697	58.1661
697.59	71.6806
700.483	80.4751
703.375	86.5123
706.268	94.1295
709.161	97.3045
712.053	111.254
714.946	120.101
717.839	126.155
720.731	133.157
723.624	134.621
726.517	134.401
729.41	130.753
732.302	120.697
735.195	109.202
738.088	101.729
740.98	96.7165
743.873	92.0363
746.766	87.5936
749.659	78.831
752.551	69.2844
755.444	60.2026
758.337	54.2775
761.229	47.3817
764.122	39.3625
767.015	36.6146
769.907	27.4502
772.8	20.2609
775.693	17.9899
778.586	11.4256
781.478	7.05444
784.371	4.70105
787.264	5.18365
790.156	12.6802
793.049	23.1827
795.942	34.0949
798.834	63.648
801.727	97.8521
804.62	152.157
807.513	214
810.405	296.843
813.298	417.589
816.191	564.339
819.083	685.373
821.976	813.785
824.869	962.68
827.761	1156.72
830.654	1263.5
833.547	987.397
836.439	543.044
839.332	250.78
842.225	105.942
845.118	45.6501
848.01	18.2796
850.903	10.0841
853.796	0.150146
856.688	2.31966
859.581	3.50922
862.474	4.22279
865.366	5.76555
868.259	1.86389
871.152	1.82617
874.044	1.95113
876.937	4.79787
879.83	7.35729
882.723	9.47754
885.615	13.2367
888.508	11.7495
891.401	11.958
894.293	14.4058
897.186	11.7538
900.079	14.1016
902.971	13.1674
905.864	15.85
908.757	13.2646
911.65	12.3
914.542	9.91287
917.435	9.15761
920.328	6.16007
923.22	2.1918
926.113	1.66244
929.006	0.691208
931.899	0.574387
934.791	1.15877
937.684	1.04051
940.577	1.15913
943.469	0.831512
946.362	5.42938
949.255	9.00557
952.147	11.1082
955.04	19.0955
957.933	32.8599
960.825	49.5798
963.718	73.3556
966.611	115.212
969.504	174.359
972.396	252.065
975.289	346.73
978.182	450.236
981.074	567.376
983.967	638.687
986.86	605.342
989.752	530.948
992.645	488.04
995.538	511.039
998.431	594.162
1001.32	693.982
1004.22	795.053
1007.11	857.618
1010	837.802
1012.89	752.052
1015.79	627.321
1018.68	490.669
1021.57	368.61
1024.46	274.07
1027.36	212.432
1030.25	172.229
1033.14	133.625
1036.04	108.373
1038.93	85.6721
1041.82	58.2919
1044.71	43.7685
1047.61	30.6166
1050.5	23.1464
1053.39	15.1054
1056.29	6.6695
1059.18	4.64041
1062.07	4.27864
1064.96	5.07776
1067.86	0.910202
1070.75	1.571
1073.64	0.23439
1076.53	0.853333
1079.43	1.65131
1082.32	2.37248
1085.21	2.77142
1088.1	1.26454
1091	0.324631
1093.89	0.655014
1096.78	0.322739
1099.67	1.76906
1102.57	5.76814
1105.46	0.294968
1108.35	3.42534
1111.25	6.33424
1114.14	1.89932
1117.03	3.67377
1119.92	2.36127
1122.82	0.846306
1125.71	3.33949
1128.6	3.19915
1131.49	3.29588
1134.39	1.21121
1137.28	4.71151
1140.17	2.20538
1143.07	2.60326
1145.96	2.81497
1148.85	3.21832
1151.74	3.86907
1154.64	3.29896
1157.53	0.421303
1160.42	0.304573
1163.31	0.05925
1166.21	1.72376
1169.1	1.95016
1171.99	6.2729
1174.88	4.36396
1177.78	4.0119
1180.67	4.24481
1183.56	2.2369
1186.46	4.70042
1189.35	4.54056
1192.24	5.44162
1195.13	6.14166
1198.03	4.36289
1200.92	5.14232
1203.81	4.32265
1206.7	6.76905
1209.6	6.76764
1212.49	7.51282
1215.38	7.6131
1218.28	5.81738
1221.17	4.53217
1224.06	3.72184
1226.95	4.71993
1229.85	3.50845
1232.74	1.8837
1235.63	5.51809
1238.53	3.49418
1241.42	4.38476
1244.31	4.17897
1247.2	5.51334
1250.1	2.91693
1252.99	4.79912
1255.88	5.14706
1258.77	1.40942
1261.67	4.21958
1264.56	1.39553
1267.45	1.21818
1270.34	0.911575
1273.24	1.25535
1276.13	3.21516
1279.02	2.7458
1281.91	4.58156
1284.81	0
