Measurement: Raman, 780 nm, unoriented, Raman Data Processed
Mineral: Metazeunerite
Rruff sample: R110205
Ideal chemistry: Cu^2+^(U^6+^O_2_)_2_(As^5+^O_4_)_2_8H_2_O
Locality: Roter Berg District, Schneeberg District, Erzgebirge, Saxony, Germany
Source: Michael Scott
Description: Pale green platy crystals associated with cobaltlotharmeyerite R070400. Cell parameters indicate that this has a disordered structure.
Raman shift (cm-1)	intensity
178.867	0
181.759	18.991
184.652	49.2223
187.545	48.0194
190.437	22.9113
193.33	6.75211
196.223	0.994717
199.115	1.18009
202.008	0.341518
204.901	2.08165
207.794	4.78309
210.686	7.8136
213.579	12.0319
216.472	14.7094
219.364	13.5336
222.257	9.36181
225.15	4.75748
228.042	1.50725
230.935	0.083122
233.828	0.463303
236.721	0.593678
239.613	2.75304
242.506	3.40195
245.399	2.95509
248.291	2.69707
251.184	2.31309
254.077	1.23159
256.969	0.818447
259.862	0.93088
262.755	2.37584
265.648	3.08812
268.54	4.69306
271.433	6.92788
274.326	7.64225
277.218	7.92666
280.111	7.28535
283.004	5.1459
285.897	3.67748
288.789	3.31265
291.682	2.77623
294.575	2.73419
297.467	1.96327
300.36	3.75959
303.253	4.29277
306.145	6.28584
309.038	8.00858
311.931	11.7684
314.824	19.8639
317.716	34.7502
320.609	48.9813
323.502	36.2601
326.394	13.5751
329.287	5.67926
332.18	2.67075
335.072	1.12866
337.965	0.844069
340.858	0.493855
343.75	0.079128
346.643	0.004166
349.536	0.220461
352.429	0.033279
355.321	0.609743
358.214	0.369614
361.107	0.117603
364	0.673304
366.892	0.26738
369.785	0.028908
372.678	0.103727
375.57	0.017235
378.463	0.395475
381.356	1.0278
384.248	1.74227
387.141	2.38824
390.034	3.2039
392.926	4.67732
395.819	4.92465
398.712	5.40664
401.605	6.29013
404.497	5.38979
407.39	4.16734
410.283	1.90302
413.175	1.16045
416.068	1.06254
418.961	0.61581
421.853	1.62977
424.746	2.34569
427.639	3.54831
430.532	5.40348
433.424	8.11135
436.317	11.1208
439.21	15.6107
442.102	20.6972
444.995	25.8024
447.888	28.0436
450.781	27.6402
453.673	23.7192
456.566	21.7297
459.459	20.1681
462.351	21.847
465.244	20.2312
468.137	15.1835
471.029	12.6024
473.922	10.5176
476.815	8.32118
479.707	7.51144
482.6	5.79548
485.493	3.95844
488.386	3.14776
491.278	2.5063
494.171	2.02523
497.064	1.57832
499.956	1.32216
502.849	1.59099
505.742	1.01816
508.635	0.779331
511.527	0.209944
514.42	0.659163
517.313	0.436644
520.205	0.574394
523.098	0.239578
525.991	0.238951
528.883	0.083059
531.776	0.893391
534.669	0.260977
537.562	0.28413
540.454	0.110891
543.347	0.051708
546.24	0.048702
549.132	0.19413
552.025	0.186539
554.918	0.084095
557.81	0.159946
560.703	0.063234
563.596	0.083887
566.489	0.145605
569.381	0.008581
572.274	0.16721
575.167	0.485968
578.059	0.061323
580.952	0.032913
583.845	0.696199
586.737	0.40909
589.63	0.679193
592.523	0.550257
595.415	1.36097
598.308	0.84993
601.201	0.924648
604.094	0.751259
606.986	1.22667
609.879	0.786116
612.772	1.17314
615.664	0.912716
618.557	1.38369
621.45	1.14855
624.342	1.58969
627.235	1.49544
630.128	1.59601
633.021	1.43647
635.913	1.58232
638.806	1.85883
641.699	1.79122
644.591	1.66995
647.484	2.43435
650.377	1.72432
653.269	1.94122
656.162	1.61826
659.055	2.08229
661.948	1.80995
664.84	2.16941
667.733	1.54719
670.626	1.86126
673.518	1.39787
676.411	1.53807
679.304	2.01118
682.197	1.64998
685.089	1.30748
687.982	0.826586
690.875	0.868423
693.767	1.56031
696.66	1.36296
699.553	0.323156
702.445	0.33918
705.338	1.06755
708.231	0.859634
711.124	0.089659
714.016	0.056805
716.909	0.075254
719.802	0.223564
722.694	0.049734
725.587	0.106201
728.48	0.275946
731.372	0.07163
734.265	0.344103
737.158	0.464651
740.051	0.057583
742.943	0.292763
745.836	0.043097
748.729	0.302589
751.621	0.436617
754.514	1.01687
757.407	0.927172
760.299	1.06219
763.192	3.10231
766.085	4.6088
768.977	5.57044
771.87	7.31577
774.763	9.94453
777.656	12.5372
780.548	15.5901
783.441	19.5522
786.334	25.5536
789.226	35.4697
792.119	50.64
795.012	72.2713
797.904	101.767
800.797	141.481
803.69	208.418
806.583	333.442
809.475	424.438
812.368	328.618
815.261	222.494
818.153	179.256
821.046	158.007
823.939	111.915
826.832	63.2082
829.724	35.0937
832.617	20.7395
835.51	11.9465
838.402	7.94598
841.295	4.61644
844.188	2.42846
847.08	1.43233
849.973	0.064819
852.866	0.297159
855.759	0.226776
858.651	0.146952
861.544	0.137411
864.437	1.01559
867.329	2.05489
870.222	4.26242
873.115	6.79801
876.007	10.8798
878.9	17.565
881.793	26.6139
884.686	33.7814
887.578	35.9308
890.471	30.4354
893.364	24.7375
896.256	17.5414
899.149	11.9374
902.042	7.99826
904.934	6.43901
907.827	4.70022
910.72	3.6422
913.612	3.87323
916.505	2.62971
919.398	2.12918
922.291	1.30774
925.183	0.17083
928.076	0.202764
930.969	0.341176
933.861	0.194872
936.754	0.454749
939.647	0.261249
942.539	0.360179
945.432	0.468226
948.325	0.108553
951.218	0.076502
954.11	0.667539
957.003	0.557213
959.896	1.13949
962.788	0.962771
965.681	0.665701
968.574	0.840137
971.466	0.973442
974.359	0.894263
977.252	1.55929
980.145	1.42255
983.037	1.56632
985.93	1.61504
988.823	2.10589
991.715	1.7022
994.608	1.37258
997.501	1.13788
1000.39	1.28035
1003.29	0.850954
1006.18	0.798592
1009.07	1.01632
1011.96	0.735576
1014.86	0.808515
1017.75	0.416698
1020.64	1.09758
1023.53	0.33875
1026.43	0.941183
1029.32	0.504428
1032.21	0.892493
1035.11	1.14297
1038	0.472379
1040.89	0.534136
1043.78	0.254952
1046.68	0.450414
1049.57	0.682699
1052.46	0.329634
1055.36	0.56521
1058.25	0.694352
1061.14	0.575657
1064.03	0.834948
1066.93	0.678907
1069.82	0.325355
1072.71	0.651671
1075.6	0.687643
1078.5	0.129788
1081.39	0.171175
1084.28	0.604426
1087.17	0.346354
1090.07	0.369754
1092.96	0.412831
1095.85	0.602149
1098.74	0.209893
1101.64	0.463644
1104.53	0.282319
1107.42	0.642928
1110.32	0.36721
1113.21	0.460219
1116.1	0.322108
1118.99	0.345547
1121.89	0.039043
1124.78	0.278837
1127.67	0.704691
1130.57	0.047666
1133.46	0.6438
1136.35	0.294792
1139.24	0.178234
1142.14	0.295218
1145.03	0.323819
1147.92	0.185434
1150.81	0.80625
1153.71	0.119212
1156.6	0.164156
1159.49	0.371223
1162.38	0.39027
1165.28	0.411463
1168.17	0.304873
1171.06	0.397814
1173.96	0.804557
1176.85	0.140141
1179.74	0.205399
1182.63	0.621592
1185.53	0.79568
1188.42	0.417004
1191.31	0.592718
1194.2	0.067928
1197.1	0.616798
1199.99	0.766125
1202.88	0.704488
1205.78	0.370019
1208.67	1.10046
1211.56	0.024459
1214.45	0.783977
1217.35	0.713024
1220.24	0.416505
1223.13	0.661173
1226.02	0.32128
1228.92	0.854673
1231.81	0.81566
1234.7	0.434525
1237.6	0.334624
1240.49	0.788397
1243.38	0.10323
1246.27	0.528708
1249.17	0.514631
1252.06	0.051126
1254.95	0.967948
1257.84	0.637959
1260.74	0.46419
1263.63	0.268517
1266.52	0.74922
1269.41	0.617589
1272.31	0.711943
1275.2	0.467887
1278.09	0.116265
1280.98	0.479863
1283.88	0.189984
