Measurement: Raman, 532 nm, unoriented, Raman Data Processed
Mineral: Metazeunerite
Rruff sample: R070314
Ideal chemistry: Cu^2+^(U^6+^O_2_)_2_(As^5+^O_4_)_2_8H_2_O
Locality: Mylar mine, Majuba Hill, Antelope District, Pershing County, Nevada, USA
Source: James Shigley
Description: Green tabular crystals in quartz
Raman shift (cm-1)	intensity
157.376	0
160.268	27.3213
163.161	26.2852
166.054	257.469
168.946	691.592
171.839	1423.62
174.732	2304.01
177.625	3285.75
180.517	4433.48
183.41	5684.87
186.303	6096.15
189.195	4234.82
192.088	2184.52
194.981	1346.46
197.874	1041.53
200.766	920.258
203.659	848.563
206.552	1008.15
209.444	1217.75
212.337	1340.77
215.23	1390.47
218.122	1370.11
221.015	1049.23
223.908	782.253
226.8	475.272
229.693	338.758
232.586	170.356
235.479	123.789
238.371	139.248
241.264	135.872
244.157	180.815
247.049	79.5615
249.942	28.4805
252.835	68.6367
255.727	19.1504
258.62	82.8066
261.513	42.209
264.406	235.838
267.298	414.065
270.191	562.121
273.084	844.088
275.976	770.742
278.869	756.104
281.762	571.021
284.655	391.211
287.547	252.654
290.44	359.152
293.333	234.66
296.225	324.285
299.118	368.932
302.011	444.666
304.904	796.291
307.796	1257.97
310.689	2067.17
313.582	3282.57
316.474	4662.4
319.367	5809.51
322.26	5044.67
325.152	2298.12
328.045	1069.16
330.938	524.289
333.83	246.438
336.723	50.6758
339.616	10.416
342.509	33.5234
345.401	143.756
348.294	30.9082
351.187	28.8809
354.079	6.52734
356.972	39.8574
359.865	21.373
362.757	56.1562
365.65	94.6113
368.543	14.3867
371.436	53.0566
374.328	134.098
377.221	81.5723
380.114	178.674
383.006	214.523
385.899	332.799
388.792	436.779
391.685	530.332
394.577	733.311
397.47	725.838
400.363	775.721
403.255	773.24
406.148	557.113
409.041	382.865
411.933	237.435
414.826	215.178
417.719	151.471
420.611	293.031
423.504	382.385
426.397	622.438
429.29	847.43
432.182	1206.25
435.075	1831.37
437.968	2410.7
440.86	2982.2
443.753	3588.04
446.646	3805.3
449.538	3589.23
452.431	3147.7
455.324	2620.18
458.217	2004.67
461.109	1644.88
464.002	1407.5
466.895	1018.55
469.787	951.156
472.68	717.606
475.573	570.783
478.466	456.44
481.358	392.603
484.251	254.049
487.144	216.914
490.036	257.869
492.929	186.102
495.822	282.502
498.714	241.201
501.607	176.889
504.5	94.6816
507.393	271.244
510.285	160.883
513.178	188.697
516.071	54.4277
518.963	53.1855
521.856	103.357
524.749	91.2656
527.641	11.2109
530.534	13.1836
533.427	31.3438
536.32	51.791
539.212	26.8086
542.105	22.7363
544.998	56.082
547.89	3.72266
550.783	81.0332
553.676	69.9531
556.568	38.3262
559.461	11.3223
562.354	17.9062
565.247	108.022
568.139	85.2871
571.032	51.4922
573.925	49.4785
576.817	121.551
579.71	33.25
582.603	74.2305
585.495	83.084
588.388	25.2988
591.281	6.08203
594.174	140.83
597.066	164.492
599.959	176.658
602.852	192.744
605.744	239.986
608.637	191.484
611.53	243.639
614.423	286.978
617.315	249.574
620.208	233.508
623.101	296.635
625.993	278.963
628.886	304.772
631.779	322.59
634.671	453.203
637.564	347.873
640.457	442.693
643.35	354.455
646.242	360.623
649.135	298.363
652.028	306.268
654.92	429.076
657.813	350.383
660.706	344.324
663.598	369.076
666.491	356.119
669.384	354.15
672.277	323.131
675.169	277.291
678.062	342.348
680.955	355.275
683.847	319.004
686.74	243.607
689.633	56.0703
692.525	252.223
695.418	189.644
698.311	186.754
701.204	148.199
704.096	168.928
706.989	178.062
709.882	93.6992
712.774	0.8125
715.667	63.0645
718.56	23.3613
721.452	24.6973
724.345	141.344
727.238	2.52148
730.131	57.5078
733.023	4.26758
735.916	76.9199
738.809	65.1269
741.701	47.9961
744.594	17.916
747.487	103.768
750.38	194.228
753.272	222.385
756.165	265.565
759.058	571.473
761.95	691.047
764.843	934.141
767.736	1262.24
770.628	1761.2
773.521	2194.92
776.414	2744.97
779.307	3326.35
782.199	4292.26
785.092	5600.66
787.985	7649.03
790.877	10275.1
793.77	14342
796.663	20740
799.555	30599.7
802.448	43476.4
805.341	57366.3
808.234	69451.4
811.126	66867.6
814.019	51315
816.912	39867.7
819.804	33578.7
822.697	25892.4
825.59	16318
828.482	9263.56
831.375	5311.85
834.268	3081.43
837.16	1985.64
840.053	946.039
842.946	617.631
845.839	185.168
848.731	82.1992
851.624	84.6133
854.517	20.4434
857.409	95.0117
860.302	12.6777
863.195	254.117
866.087	389.238
868.98	901.812
871.873	1287.89
874.766	2107.21
877.658	2908.69
880.551	3466.4
883.444	3973
886.337	3977.55
889.229	3485.56
892.122	2921.45
895.015	2279.6
897.907	1647.11
900.8	1340.19
903.693	1061.74
906.585	863.371
909.478	607.625
912.371	391.834
915.264	303.106
918.156	161.435
921.049	31.1289
923.942	4.89453
926.834	32.0039
929.727	22.9297
932.62	13.7422
935.512	78.4316
938.405	38.6797
941.298	10.6191
944.191	60.6758
947.083	31.4004
949.976	18.709
952.869	119.875
955.761	139.252
958.654	153.135
961.547	83.8535
964.439	230.576
967.332	213.894
970.225	255.9
973.117	280.338
976.01	540.893
978.903	618.846
981.796	673.387
984.688	629.58
987.581	541.748
990.474	735.125
993.366	454.35
996.259	271.465
999.152	132.152
1002.04	193.828
1004.94	359.586
1007.83	232.897
1010.72	238.051
1013.62	355.531
1016.51	429.176
1019.4	512.574
1022.29	696.172
1025.19	750.856
1028.08	715.221
1030.97	620.42
1033.86	621.51
1036.76	565.293
1039.65	352.143
1042.54	341.791
1045.43	250.543
1048.33	226.264
1051.22	168.221
1054.11	154.91
1057.01	209.518
1059.9	150.59
1062.79	56.5039
1065.68	93.9434
1068.58	203.086
1071.47	29.4121
1074.36	94.3477
1077.26	65.6836
1080.15	72.2383
1083.04	193.443
1085.93	111.814
1088.83	114.234
1091.72	80.3125
1094.61	123.553
1097.5	87.1562
1100.4	49.6797
1103.29	101.469
1106.18	1.59766
1109.07	130.391
1111.97	7.1582
1114.86	134.133
1117.75	121.586
1120.64	102.902
1123.54	111.33
1126.43	132.685
1129.32	98.3047
1132.22	177.773
1135.11	87
1138	7.24219
1140.89	219.24
1143.79	90.4238
1146.68	89.4316
1149.57	167.127
1152.46	93.1523
1155.36	127.551
1158.25	202.727
1161.14	63.6484
1164.04	138.535
1166.93	170.059
1169.82	194.445
1172.71	62.8516
1175.61	204.805
1178.5	185.934
1181.39	100.723
1184.29	173.555
1187.18	72.1094
1190.07	85.3828
1192.96	71.9727
1195.86	25.418
1198.75	48.3281
1201.64	246.297
1204.53	79.2305
1207.43	141.445
1210.32	87.2148
1213.21	167.125
1216.1	33.2344
1219	198.785
1221.89	99.7109
1224.78	81.0938
1227.67	118.262
1230.57	106.086
1233.46	175.371
1236.35	121.324
1239.25	89.8203
1242.14	180.543
1245.03	126.742
1247.92	235.812
1250.82	131.375
1253.71	24.0508
1256.6	186.812
1259.49	174.906
1262.39	91.4062
1265.28	123.555
1268.17	178.098
1271.07	183.543
1273.96	305.469
1276.85	189.566
1279.74	105.156
1282.64	171.176
1285.53	124.734
1288.42	251.391
1291.32	242.008
1294.21	228.086
1297.1	168.664
1299.99	141.938
1302.88	195.672
1305.78	189.789
1308.67	45.0859
