Measurement: Raman, 780 nm, unoriented, Raman Data Processed
Mineral: Metauranocircite-I
Rruff sample: R050575
Ideal chemistry: Ba(UO_2_)_2_(PO_4_)_2_8H_2_O
Locality: Voightland, Saxony, Germany
Source: University of Arizona Mineral Museum
Description: Yellow platy crystals with minor intergrown quartz
Measured chemistry: (Ba_0.98_Ca_0.02_)_Σ=1_(U_1.00_O_2_)_2_(P_1.00_O_4_)_2_·6.13H_2_O
Raman shift (cm-1)	intensity
145.034	0
147.927	0.01976
150.82	0.455505
153.713	2.27837
156.605	2.70019
159.498	3.42516
162.391	6.13413
165.283	7.46957
168.176	8.41319
171.069	10.214
173.961	11.6066
176.854	14.4897
179.747	17.0757
182.639	18.7947
185.532	21.0739
188.425	23.4121
191.318	24.5375
194.21	24.3612
197.103	25.1004
199.996	25.4284
202.888	23.8566
205.781	19.9674
208.674	14.3836
211.566	8.95637
214.459	5.67623
217.352	4.19385
220.245	2.32612
223.137	1.24232
226.03	1.1925
228.923	1.19189
231.815	0.043922
234.708	0.977455
237.601	0.70153
240.494	0.754784
243.386	0.165741
246.279	1.43002
249.172	1.41478
252.064	1.36378
254.957	2.87357
257.85	2.46463
260.742	2.86902
263.635	2.6504
266.528	3.15153
269.42	4.30153
272.313	4.16791
275.206	5.16042
278.099	4.32491
280.991	5.44453
283.884	5.78514
286.777	5.69462
289.669	5.67648
292.562	5.4633
295.455	4.23565
298.347	3.03946
301.24	2.83527
304.133	2.62247
307.026	1.37065
309.918	1.12865
312.811	0.635391
315.704	0.761208
318.596	0.818542
321.489	0.190231
324.382	1.11665
327.274	0.188606
330.167	0.421486
333.06	0.813683
335.952	0.368454
338.845	0.520233
341.738	0.041603
344.631	0.052078
347.523	0.205559
350.416	0.08416
353.309	0.141342
356.201	1.12279
359.094	0.025391
361.987	1.11835
364.88	0.249519
367.772	0.973381
370.665	1.77498
373.558	0.868019
376.45	1.85597
379.343	3.34259
382.236	6.21687
385.128	7.75827
388.021	9.12068
390.914	9.9175
393.807	12.373
396.699	11.5347
399.592	12.4802
402.485	10.8124
405.377	7.96378
408.27	5.04013
411.163	5.08155
414.055	5.15459
416.948	4.39919
419.841	4.65785
422.733	5.0075
425.626	5.31251
428.519	4.99303
431.412	5.24849
434.304	6.35926
437.197	5.38432
440.09	5.30145
442.982	5.305
445.875	6.64061
448.768	5.50655
451.661	4.3664
454.553	5.55315
457.446	4.80573
460.339	5.60357
463.231	4.48322
466.124	3.93878
469.017	4.12729
471.909	3.75713
474.802	3.68616
477.695	3.44111
480.587	2.48669
483.48	2.83133
486.373	1.7513
489.266	1.58021
492.158	1.88741
495.051	0.845146
497.944	1.25649
500.836	0.794037
503.729	0.379204
506.622	0.702736
509.514	0.16748
512.407	0.218651
515.3	1.09579
518.193	0.199013
521.085	0.17289
523.978	0.558601
526.871	0.672997
529.763	0.569962
532.656	1.52566
535.549	1.71548
538.442	1.83386
541.334	2.38763
544.227	3.36899
547.12	4.11147
550.012	4.63255
552.905	5.02461
555.798	4.10599
558.69	3.34138
561.583	2.42824
564.476	1.97607
567.369	2.19724
570.261	1.90884
573.154	1.36104
576.047	1.04451
578.939	0.285423
581.832	0.771202
584.725	0.501404
587.617	0.897293
590.51	1.84303
593.403	2.12366
596.295	2.75355
599.188	1.94978
602.081	2.17593
604.973	2.64812
607.866	1.05756
610.759	0.817131
613.652	1.71555
616.544	2.01011
619.437	2.09865
622.33	2.08395
625.222	3.10218
628.115	2.87751
631.008	2.75898
633.9	2.10567
636.793	2.59684
639.686	2.97849
642.579	3.35522
645.471	3.07022
648.364	2.08668
651.257	2.44984
654.149	1.91944
657.042	1.66373
659.935	3.0834
662.827	1.09139
665.72	2.37378
668.613	2.17238
671.506	1.30293
674.398	0.185539
677.291	1.26325
680.184	0.026108
683.076	0.151283
685.969	0.739029
688.862	0.262482
691.755	0.394379
694.647	0.499268
697.54	0.441734
700.433	0.042572
703.325	0.145248
706.218	0.184555
709.111	0.44915
712.003	0.727562
714.896	0.580177
717.789	0.373009
720.682	0.536888
723.574	1.09712
726.467	0.228806
729.36	0.85659
732.252	0.067917
735.145	0.729813
738.038	0.38636
740.93	0.446365
743.823	0.128311
746.716	0.333664
749.609	0.596992
752.501	0.256538
755.394	0.83223
758.287	1.27565
761.179	1.52426
764.072	2.45911
766.965	2.72281
769.857	4.19971
772.75	6.75155
775.643	8.08928
778.535	10.7879
781.428	13.4568
784.321	17.4772
787.214	24.1366
790.106	34.0072
792.999	48.1208
795.892	63.3621
798.784	77.5987
801.677	90.2456
804.57	103.005
807.462	113.023
810.355	109.787
813.248	117.488
816.141	140.191
819.033	160.947
821.926	171.794
824.819	177.416
827.711	165.441
830.604	130.94
833.497	74.7603
836.389	34.02
839.282	17.6142
842.175	10.2862
845.068	6.63261
847.96	5.21017
850.853	2.56548
853.746	3.07465
856.638	2.35806
859.531	1.908
862.424	0.678902
865.317	1.14525
868.209	1.24965
871.102	0.835197
873.995	0.006783
876.887	0.290627
879.78	0.459015
882.673	0.034111
885.565	0.546059
888.458	0.103561
891.351	0.489784
894.243	0.415085
897.136	0.162048
900.029	0.341721
902.922	0.438644
905.814	0.157883
908.707	0.514923
911.6	1.0137
914.492	0.524185
917.385	0.277344
920.278	0.081184
923.17	0.49929
926.063	0.430496
928.956	0.894646
931.848	1.70702
934.741	2.81366
937.634	3.86433
940.527	5.43852
943.419	6.69072
946.312	8.05903
949.205	10.8993
952.097	14.4656
954.99	18.734
957.883	27.1372
960.775	38.5773
963.668	53.4721
966.561	67.3677
969.454	80.8684
972.346	86.98
975.239	87.7616
978.132	78.6712
981.024	77.3363
983.917	84.01
986.81	96.7088
989.702	111.663
992.595	120.753
995.488	128.818
998.381	128.385
1001.27	116.409
1004.17	98.9262
1007.06	87.2867
1009.95	74.6242
1012.84	55.2835
1015.74	37.5641
1018.63	26.9305
1021.52	20.9507
1024.41	15.9702
1027.31	9.66817
1030.2	7.63045
1033.09	3.09981
1035.99	2.74865
1038.88	1.23272
1041.77	0.108017
1044.66	0.505768
1047.56	0.538177
1050.45	0.147156
1053.34	0.317711
1056.23	0.517647
1059.13	0.052147
1062.02	0.845108
1064.91	0.562805
1067.81	1.27534
1070.7	1.28939
1073.59	1.05679
1076.48	2.40026
1079.38	2.47708
1082.27	3.03825
1085.16	4.11304
1088.05	4.18429
1090.95	4.13464
1093.84	5.1489
1096.73	5.61482
1099.62	4.92546
1102.52	5.89201
1105.41	6.52554
1108.3	7.7146
1111.2	8.08387
1114.09	7.8809
1116.98	7.14519
1119.87	6.56267
1122.77	5.63733
1125.66	3.12237
1128.55	2.48458
1131.44	2.75747
1134.34	0.912132
1137.23	0.843376
1140.12	0.819359
1143.02	0.313263
1145.91	0.379288
1148.8	1.09422
1151.69	0.386292
1154.59	0.329628
1157.48	0.12606
1160.37	1.03213
1163.26	0.311661
1166.16	0.682854
1169.05	0.70639
1171.94	0.931526
1174.84	0.598671
1177.73	0.709229
1180.62	0.238991
1183.51	0.084351
1186.41	0.56324
1189.3	0.733536
1192.19	1.27496
1195.08	1.52152
1197.98	1.33984
1200.87	1.23079
1203.76	2.20247
1206.65	1.5721
1209.55	2.94768
1212.44	1.94188
1215.33	1.84337
1218.23	2.23883
1221.12	2.01857
1224.01	2.65802
1226.9	1.60318
1229.8	2.55533
1232.69	2.49527
1235.58	3.83254
1238.47	3.50084
1241.37	3.19862
1244.26	3.03702
1247.15	2.67938
1250.05	2.00171
1252.94	1.49175
1255.83	1.44557
1258.72	1.05322
1261.62	1.20348
1264.51	1.27159
1267.4	1.43184
1270.29	0.640945
1273.19	0.991257
1276.08	1.37228
1278.97	0.665436
1281.87	1.05925
1284.76	0.710632
