Measurement: Raman, 532 nm, unoriented, Raman Data Processed
Mineral: Metacinnabar
Rruff sample: R060950
Ideal chemistry: HgS
Locality: Ryan mine, Contra Costa County, California, USA
Source: Bob Jenkins
Description: Dark orange brown submetallic crystals
Measured chemistry: Hg_0.95_Fe_0.03_S
Raman shift (cm-1)	intensity
156.315	0
159.208	2.3237
162.101	3.65996
164.993	7.0999
167.886	7.99893
170.779	6.70322
173.672	3.70952
176.564	7.53444
179.457	4.63878
182.35	0.186646
185.242	3.6658
188.135	4.25861
191.028	2.86104
193.92	1.31547
196.813	0.979965
199.706	1.85387
202.599	2.75676
205.491	2.85776
208.384	1.68861
211.277	1.88997
214.169	2.32559
217.062	10.3509
219.955	12.5882
222.847	17.8017
225.74	26.4988
228.633	39.0319
231.525	62.6227
234.418	92.0995
237.311	139.943
240.204	191.573
243.096	246.787
245.989	318.39
248.882	416.462
251.774	520.409
254.667	553.593
257.56	411.39
260.452	245.159
263.345	138.133
266.238	91.3441
269.131	63.9947
272.023	51.9576
274.916	44.5476
277.809	42.6773
280.701	46.0558
283.594	34.8945
286.487	38.6343
289.38	41.0706
292.272	35.9761
295.165	14.2904
298.058	15.7512
300.95	4.77019
303.843	6.12581
306.736	4.15376
309.628	2.26839
312.521	0.225998
315.414	4.34874
318.307	5.66418
321.199	1.40208
324.092	6.79536
326.985	7.87775
329.877	11.9928
332.77	14.7589
335.663	28.0923
338.555	30.8899
341.448	45.2228
344.341	50.5978
347.233	36.629
350.126	25.3528
353.019	16.7709
355.912	13.6171
358.804	10.1969
361.697	3.58736
364.59	0.742126
367.482	1.85484
370.375	2.15437
373.268	1.97479
376.161	0.6875
379.053	1.95801
381.946	4.18947
384.839	2.70401
387.731	2.66411
390.624	4.36411
393.517	0.717316
396.409	2.03244
399.302	4.46277
402.195	5.52481
405.087	5.94934
407.98	2.31061
410.873	0.648636
413.766	3.60088
416.658	2.61835
419.551	6.71905
422.444	5.00937
425.336	3.35289
428.229	4.34152
431.122	2.69429
434.014	3.29544
436.907	0.741074
439.8	3.46704
442.693	1.84883
445.585	1.97284
448.478	4.86133
451.371	1.20184
454.263	3.86099
457.156	5.67586
460.049	3.82283
462.942	1.23004
465.834	2.68388
468.727	2.78152
471.62	1.03886
474.512	0.345978
477.405	8.09587
480.298	4.15051
483.19	7.22815
486.083	7.64078
488.976	5.16876
491.868	7.21892
494.761	6.177
497.654	7.61964
500.547	2.90362
503.439	7.19153
506.332	3.7059
509.225	4.50655
512.117	2.95154
515.01	1.63885
517.903	0.206161
520.795	0.497345
523.688	4.25534
526.581	5.72531
529.474	0.494598
532.366	2.35115
535.259	2.64752
538.152	0.347946
541.044	2.21294
543.937	2.16263
546.83	3.5072
549.722	3.62927
552.615	3.06213
555.508	2.94928
558.401	0.289001
561.293	1.7923
564.186	4.32224
567.079	4.03708
569.971	5.99515
572.864	1.73285
575.757	0.297729
578.649	2.30557
581.542	1.97406
584.435	0.75528
587.328	4.76691
590.22	3.93777
593.113	2.21976
596.006	5.57639
598.898	4.80029
601.791	4.30576
604.684	2.87866
607.577	4.52771
610.469	6.08493
613.362	3.47665
616.255	4.56766
619.147	4.23526
622.04	6.34723
624.933	3.17667
627.825	9.44919
630.718	8.41892
633.611	3.42386
636.504	6.57904
639.396	5.67029
642.289	7.88614
645.182	7.41415
648.074	2.09659
650.967	5.32483
653.86	2.0701
656.752	2.33752
659.645	1.56903
662.538	5.27884
665.431	1.2341
668.323	2.35074
671.216	4.44565
674.109	4.24951
677.001	3.26544
679.894	1.81152
682.787	6.88605
685.679	2.18256
688.572	0.809631
691.465	2.12585
694.357	2.98416
697.25	2.13831
700.143	0.684998
703.036	1.69189
705.928	3.19098
708.821	4.08072
711.714	3.21933
714.606	2.86328
717.499	1.13168
720.392	4.24182
723.284	2.86285
726.177	5.07886
729.07	3.79752
731.963	1.60028
734.855	3.00287
737.748	1.9957
740.641	0.100647
743.533	5.01407
746.426	0.829926
749.319	0.602173
752.212	4.5191
755.104	2.25198
757.997	2.26187
760.89	1.28885
763.782	1.79013
766.675	4.89587
769.568	0.002502
772.46	2.96408
775.353	2.73593
778.246	2.55493
781.139	3.3602
784.031	3.50543
786.924	1.4917
789.817	7.16177
792.709	5.14182
795.602	2.02182
798.495	3.44894
801.388	3.45416
804.28	0.576172
807.173	5.77264
810.066	3.22263
812.958	3.2337
815.851	7.30121
818.744	4.28238
821.636	5.42899
824.529	1.63135
827.422	4.27884
830.314	2.23849
833.207	2.25501
836.1	3.09128
838.993	5.36319
841.885	8.40222
844.778	5.02966
847.671	4.39523
850.563	3.12399
853.456	3.04623
856.349	7.28256
859.241	7.36545
862.134	5.54822
865.027	7.52487
867.92	3.95178
870.812	6.05499
873.705	5.36728
876.598	4.92633
879.49	6.29492
882.383	3.19867
885.276	2.74759
888.168	3.56802
891.061	4.93463
893.954	4.90961
896.847	7.75848
899.739	4.10992
902.632	3.22687
905.525	8.12277
908.417	4.23645
911.31	3.69614
914.203	2.00183
917.096	2.86169
919.988	1.86081
922.881	1.05032
925.774	2.16196
928.666	1.48358
931.559	2.22992
934.452	2.4389
937.344	5.12118
940.237	4.35104
943.13	3.05011
946.023	5.81839
948.915	3.99219
951.808	5.91122
954.701	2.73898
957.593	2.08124
960.486	4.49054
963.379	8.85031
966.271	0.199738
969.164	4.41663
972.057	2.96774
974.949	5.99322
977.842	4.72278
980.735	6.63077
983.628	4.04681
986.52	6.86017
989.413	4.84134
992.306	2.64194
995.198	4.43961
998.091	3.06226
1000.98	1.22205
1003.88	3.50598
1006.77	0.813568
1009.66	6.01645
1012.55	1.58832
1015.45	1.83377
1018.34	5.58392
1021.23	2.67365
1024.12	5.28522
1027.02	0.147034
1029.91	0.353699
1032.8	2.82895
1035.7	4.30844
1038.59	5.18622
1041.48	3.64838
1044.37	3.40228
1047.27	3.5628
1050.16	1.47165
1053.05	4.935
1055.94	3.87555
1058.84	0.335022
1061.73	6.1781
1064.62	1.90619
1067.52	6.19391
1070.41	2.33377
1073.3	4.71326
1076.19	0.36676
1079.09	2.02545
1081.98	4.21216
1084.87	1.88263
1087.77	1.66019
1090.66	3.62714
1093.55	0.938293
1096.44	0.693665
1099.34	3.87445
1102.23	1.1842
1105.12	4.73044
1108.01	3.61764
1110.91	0.723267
1113.8	3.27383
1116.69	4.78491
1119.58	3.83221
1122.48	6.03967
1125.37	6.98077
1128.26	1.6069
1131.15	0.790955
1134.05	3.79401
1136.94	0.347992
1139.83	2.71317
1142.73	2.22525
1145.62	3.27304
1148.51	4.96292
1151.4	2.11585
1154.3	4.04175
1157.19	4.60883
1160.08	4.40231
1162.97	0.403656
1165.87	6.81729
1168.76	2.34268
1171.65	2.77478
1174.55	5.22232
1177.44	6.77423
1180.33	5.59839
1183.22	1.3783
1186.12	7.51312
1189.01	0.37973
1191.9	4.8006
1194.8	6.90299
1197.69	2.98181
1200.58	3.18225
1203.47	2.4389
1206.37	5.10129
1209.26	2.29553
1212.15	3.647
1215.04	1.23453
1217.94	3.68417
1220.83	0.992188
1223.72	7.05933
1226.61	2.66464
1229.51	2.18591
1232.4	6.27191
1235.29	1.5834
1238.18	1.94147
1241.08	5.95126
1243.97	0.485931
1246.86	3.31967
1249.76	1.49356
1252.65	0.043793
1255.54	3.44095
1258.43	1.65475
1261.33	2.03107
1264.22	1.54898
1267.11	3.17563
1270.01	5.77502
1272.9	4.4809
1275.79	4.08255
1278.68	3.85675
1281.58	1.53915
1284.47	1.27301
1287.36	3.97009
1290.25	0.338318
1293.15	3.77542
1296.04	0.383148
1298.93	2.9306
1301.83	0
