Measurement: Raman, 780 nm, unoriented, Raman Data Processed
Mineral: Metazeunerite
Rruff sample: R050524
Ideal chemistry: Cu^2+^(U^6+^O_2_)_2_(As^5+^O_4_)_2_8H_2_O
Locality: Majuba Hill mine, Pershing County, Nevada
Source: University of Arizona Mineral Museum
Description: Green tabular crystal, cell parameters indicate a disordered structure
Raman shift (cm-1)	intensity
144.928	0
147.82	0.794685
150.713	0.623047
153.606	0.040733
156.499	0.508251
159.391	1.39134
162.284	2.3458
165.177	5.83826
168.069	10.3718
170.962	13.1911
173.855	15.7348
176.747	19.4485
179.64	24.6802
182.533	29.8057
185.425	34.5503
188.318	29.6074
191.211	15.6277
194.104	8.21726
196.996	5.21
199.889	5.40829
202.782	6.46382
205.674	7.74413
208.567	8.03616
211.46	9.54126
214.352	10.3227
217.245	9.3139
220.138	7.31297
223.03	4.67316
225.923	2.37059
228.816	1.75785
231.709	0.828465
234.601	1.28793
237.494	1.25
240.387	1.35093
243.279	0.674885
246.172	0.450352
249.065	0.097176
251.958	0.342777
254.85	0.065781
257.743	0.529747
260.636	0.701473
263.528	1.38261
266.421	2.30615
269.314	2.89865
272.207	4.03402
275.099	4.48632
277.992	3.82636
280.885	3.97005
283.777	2.21195
286.67	2.42369
289.563	2.5527
292.455	2.80726
295.348	3.67398
298.241	5.66677
301.134	9.28219
304.026	13.5127
306.919	15.3977
309.812	17.4214
312.704	21.1798
315.597	24.7092
318.49	27.1986
321.382	22.905
324.275	10.7272
327.168	4.87148
330.06	2.17657
332.953	1.10124
335.846	0.239565
338.739	0.256037
341.631	0.286436
344.524	0.164612
347.417	0.18269
350.309	0.28664
353.202	0.587765
356.095	0.020908
358.987	0.077816
361.88	0.234453
364.773	0.080025
367.666	0.732164
370.558	0.368019
373.451	1.01113
376.344	2.02243
379.236	2.47499
382.129	3.27475
385.022	3.7958
387.914	4.44525
390.807	5.30271
393.7	5.87042
396.592	5.582
399.485	5.88343
402.378	5.80594
405.271	3.19545
408.163	2.54452
411.056	2.46638
413.949	2.5572
416.841	2.56773
419.734	3.31395
422.627	4.6654
425.519	7.34095
428.412	8.3949
431.305	11.2983
434.198	13.9136
437.09	16.1202
439.983	18.7697
442.876	20.9017
445.768	20.887
448.661	20.2282
451.554	17.5386
454.447	14.5345
457.339	12.0402
460.232	9.89554
463.125	7.76873
466.017	5.77721
468.91	4.75404
471.803	4.05214
474.695	3.41572
477.588	2.11571
480.481	2.5507
483.373	2.61482
486.266	1.23738
489.159	1.67416
492.052	1.17322
494.944	1.46831
497.837	0.582342
500.73	0.625296
503.622	0.54213
506.515	0.513733
509.408	0.065523
512.301	0.612431
515.193	0.919319
518.086	0.18342
520.979	0.126438
523.871	0.051554
526.764	0.203651
529.657	0.315847
532.549	0.319883
535.442	0.344933
538.335	0.126917
541.227	0.033073
544.12	0.143126
547.013	0.244492
549.906	0.24655
552.798	0.307606
555.691	0.227167
558.584	0.524397
561.476	0.364067
564.369	0.015116
567.262	0.569563
570.154	0.664755
573.047	0.180695
575.94	0.155321
578.833	0.697929
581.725	0.119911
584.618	0.238541
587.511	0.921791
590.403	0.782906
593.296	0.191311
596.189	0.330153
599.082	1.00814
601.974	0.673779
604.867	0.833504
607.76	1.03597
610.652	1.3263
613.545	1.25011
616.438	1.14073
619.33	2.03694
622.223	1.86237
625.116	1.8614
628.009	1.29168
630.901	2.4755
633.794	2.92304
636.687	1.6775
639.579	1.71584
642.472	2.07851
645.365	1.89743
648.257	1.86556
651.15	1.98742
654.043	1.84028
656.936	1.72451
659.828	1.84484
662.721	1.83743
665.614	1.33316
668.506	1.5392
671.399	1.09327
674.292	1.45678
677.184	1.65996
680.077	1.54824
682.97	1.62041
685.862	1.42002
688.755	2.20281
691.648	1.22386
694.541	1.66644
697.433	0.875116
700.326	0.945097
703.219	0.701532
706.111	0.64913
709.004	0.342817
711.897	0.932343
714.789	1.17179
717.682	0.466871
720.575	0.268772
723.468	0.36133
726.36	0.640802
729.253	0.054453
732.146	0.035997
735.038	0.42766
737.931	0.067566
740.824	0.279457
743.716	0.296648
746.609	0.215429
749.502	0.371351
752.395	0.237169
755.287	0.265686
758.18	1.22975
761.073	1.00291
763.965	3.14069
766.858	2.872
769.751	4.51098
772.644	5.86823
775.536	8.43277
778.429	12.669
781.322	15.7018
784.214	21.552
787.107	30.7335
790	43.3979
792.892	63.2719
795.785	94.8795
798.678	134.478
801.571	173.586
804.463	214.793
807.356	259.488
810.249	278.554
813.141	231.876
816.034	155.321
818.927	116.04
821.819	91.7386
824.712	63.494
827.605	35.9492
830.497	19.3946
833.39	10.4051
836.283	5.77437
839.176	2.28817
842.068	1.05124
844.961	0.18117
847.854	0.319229
850.746	0.145939
853.639	0.884859
856.532	1.68503
859.424	2.76023
862.317	3.97594
865.21	6.2714
868.103	9.38149
870.995	13.4913
873.888	17.4278
876.781	23.1194
879.673	26.1542
882.566	29.4193
885.459	28.8435
888.351	24.7172
891.244	18.7237
894.137	14.0488
897.03	10.2221
899.922	6.96768
902.815	5.60049
905.708	4.89633
908.6	4.465
911.493	3.21812
914.386	2.65325
917.278	0.930664
920.171	0.627388
923.064	0.224339
925.957	0.253071
928.849	0.258158
931.742	0.035557
934.635	0.240551
937.527	0.089544
940.42	0.502605
943.313	0.146463
946.205	0.13233
949.098	0.049557
951.991	0.606737
954.884	0.719908
957.776	0.865629
960.669	0.948881
963.562	1.71866
966.454	1.75112
969.347	3.34379
972.24	4.37553
975.132	6.03468
978.025	8.14588
980.918	9.48827
983.811	10.2952
986.703	10.1941
989.596	9.43061
992.489	7.44428
995.381	5.11167
998.274	3.00275
1001.17	2.05616
1004.06	1.86456
1006.95	1.83583
1009.85	2.1402
1012.74	2.49146
1015.63	3.41136
1018.52	4.78735
1021.42	4.36459
1024.31	5.14032
1027.2	5.33826
1030.09	4.85983
1032.99	4.92247
1035.88	3.87551
1038.77	3.29804
1041.66	2.52953
1044.56	2.00099
1047.45	1.72209
1050.34	1.53002
1053.23	0.897968
1056.13	1.29929
1059.02	1.01505
1061.91	0.110464
1064.81	0.625864
1067.7	0.498772
1070.59	0.206205
1073.48	0.65201
1076.38	0.222729
1079.27	0.210629
1082.16	0.571228
1085.06	0.035809
1087.95	0.54373
1090.84	0.400852
1093.73	0.074903
1096.63	1.16856
1099.52	0.682753
1102.41	0.096901
1105.3	0.601717
1108.2	0.180436
1111.09	0.217389
1113.98	0.194033
1116.88	0.280291
1119.77	0.116519
1122.66	0.043061
1125.55	0.138581
1128.45	0.074839
1131.34	0.412274
1134.23	0.330482
1137.12	0.175049
1140.02	0.056842
1142.91	0.53274
1145.8	0.253384
1148.69	0.611285
1151.59	0.155793
1154.48	0.000826
1157.37	0.04275
1160.27	0.662538
1163.16	0.918643
1166.05	0.715669
1168.94	0.245159
1171.84	0.368739
1174.73	0.732357
1177.62	0.787439
1180.51	1.03847
1183.41	0.502217
1186.3	1.14833
1189.19	0.459458
1192.09	1.00899
1194.98	1.15146
1197.87	0.911786
1200.76	0.874228
1203.66	0.818383
1206.55	1.0228
1209.44	0.677145
1212.33	1.45923
1215.23	0.943521
1218.12	1.08141
1221.01	0.319395
1223.9	0.615143
1226.8	0.281266
1229.69	0.834697
1232.58	0.404593
1235.47	0.983453
1238.37	0.799431
1241.26	0.248466
1244.15	0.294272
1247.05	0.754236
1249.94	0.357554
1252.83	0.639752
1255.72	0.280019
1258.62	0.212854
1261.51	0.753853
1264.4	0.237194
1267.3	0.077332
1270.19	0.661423
1273.08	0.451048
1275.97	0.012346
1278.87	0.258495
1281.76	0.267647
1284.65	0.823736
