Measurement: Raman, 532 nm, unoriented, Raman Data Processed
Mineral: Metazeunerite
Rruff sample: R110205
Ideal chemistry: Cu^2+^(U^6+^O_2_)_2_(As^5+^O_4_)_2_8H_2_O
Locality: Roter Berg District, Schneeberg District, Erzgebirge, Saxony, Germany
Source: Michael Scott
Description: Pale green platy crystals associated with cobaltlotharmeyerite R070400. Cell parameters indicate that this has a disordered structure.
Raman shift (cm-1)	intensity
179.202	0
182.094	11.1522
184.987	27.1077
187.88	27.0681
190.773	8.88258
193.665	0.419731
196.558	0.361542
199.451	4.24497
202.343	10.0513
205.236	13.9417
208.129	17.8762
211.021	22.0958
213.914	24.3096
216.807	26.0157
219.699	24.8775
222.592	18.1227
225.485	11.1784
228.377	5.61573
231.27	1.56504
234.163	0.191223
237.056	0.29837
239.948	0.847084
242.841	0.046135
245.734	0.982773
248.626	0.077084
251.519	0.165321
254.412	0.789612
257.305	1.3746
260.197	3.33338
263.09	4.36601
265.983	7.73368
268.875	7.43404
271.768	8.48724
274.661	10.1699
277.553	11.5771
280.446	10.4634
283.339	7.59122
286.232	5.66009
289.124	3.57174
292.017	3.51645
294.91	3.60849
297.802	4.55874
300.695	4.70785
303.588	8.33615
306.481	14.774
309.373	22.8151
312.266	32.5043
315.159	49.4145
318.051	81.83
320.944	105.331
323.837	89.723
326.729	33.6928
329.622	13.9432
332.515	7.73465
335.408	4.19484
338.3	2.63317
341.193	2.09375
344.086	1.61738
346.978	0.635944
349.871	1.17815
352.764	2.11552
355.656	3.4371
358.549	1.58977
361.442	0.214645
364.334	0.124786
367.227	0.146072
370.12	0.878613
373.012	0.016262
375.905	0.558998
378.798	0.338043
381.691	0.529564
384.583	0.111038
387.476	1.20471
390.369	2.11073
393.261	3.60246
396.154	3.61231
399.047	3.81229
401.94	4.81647
404.832	4.98628
407.725	2.83115
410.618	1.18547
413.51	0.156067
416.403	0.236916
419.296	1.15839
422.188	1.90517
425.081	3.85959
427.974	6.99974
430.866	12.0985
433.759	18.9969
436.652	27.5196
439.545	39.8822
442.437	53.4633
445.33	67.0434
448.223	78.7295
451.115	83.0789
454.008	80.7247
456.901	80.0749
459.793	87.8622
462.686	103.182
465.579	108.451
468.472	78.3371
471.364	47.5636
474.257	30.9148
477.15	23.2985
480.042	16.9801
482.935	12.4393
485.828	9.85555
488.721	8.92664
491.613	9.20094
494.506	6.95429
497.399	7.03542
500.291	7.04678
503.184	7.096
506.077	6.02219
508.969	5.49516
511.862	5.1572
514.755	4.03036
517.648	3.74069
520.54	2.96509
523.433	2.32937
526.326	1.95116
529.218	1.21168
532.111	1.3476
535.004	1.60337
537.896	0.536209
540.789	0.191238
543.682	0.792648
546.575	0.196701
549.467	0.855568
552.36	0.698708
555.253	0.48325
558.145	0.061085
561.038	0.718307
563.931	0.331104
566.823	1.01133
569.716	0.400326
572.609	0.181805
575.502	0.3311
578.394	0.271057
581.287	0.865242
584.18	0.593388
587.072	1.48063
589.965	0.751087
592.858	1.48394
595.75	0.682644
598.643	1.39726
601.536	1.37637
604.428	1.72759
607.321	1.90638
610.214	2.0448
613.107	2.09513
615.999	2.29922
618.892	2.74315
621.785	2.65033
624.677	2.50155
627.57	2.97145
630.463	3.10349
633.356	3.05393
636.248	3.25104
639.141	3.53146
642.034	4.23772
644.926	3.26635
647.819	3.39002
650.712	3.22096
653.604	4.01147
656.497	4.26773
659.39	3.74361
662.283	4.04855
665.175	3.69926
668.068	4.28263
670.961	3.68638
673.853	3.74893
676.746	2.52322
679.639	3.09385
682.531	3.25699
685.424	3.27166
688.317	3.04497
691.21	2.86855
694.102	2.11801
696.995	2.3157
699.888	2.13903
702.78	1.44059
705.673	1.13677
708.566	1.01018
711.458	0.595451
714.351	0.397057
717.244	0.325653
720.136	0.300644
723.029	0.039635
725.922	0.609161
728.815	0.6222
731.707	0.148354
734.6	0.319717
737.493	2.89646
740.385	0.083763
743.278	0.159233
746.171	0.047203
749.063	0.00174
751.956	1.07125
754.849	1.19164
757.742	1.83833
760.634	3.30219
763.527	5.42482
766.42	7.43266
769.312	10.7115
772.205	14.2377
775.098	18.2756
777.99	23.7926
780.883	30.5884
783.776	39.7649
786.669	53.2971
789.561	73.804
792.454	102.899
795.347	150.467
798.239	225.968
801.132	334.931
804.025	483.021
806.918	696.684
809.81	899.503
812.703	849.508
815.596	633.264
818.488	510.358
821.381	452.196
824.274	351.057
827.166	209.236
830.059	114.858
832.952	66.3553
835.845	40.4231
838.737	25.6236
841.63	16.0592
844.523	10.5923
847.415	6.16611
850.308	3.01322
853.201	1.26746
856.093	0.356071
858.986	0.21698
861.879	0.447723
864.771	0.832321
867.664	2.24367
870.557	4.84764
873.45	10.3019
876.342	17.2879
879.235	27.0517
882.128	36.9459
885.02	48.6324
887.913	50.1169
890.806	42.4101
893.698	34.5123
896.591	24.3874
899.484	16.8107
902.377	10.4677
905.269	7.78316
908.162	6.25989
911.055	5.27601
913.947	5.52129
916.84	3.08315
919.733	2.14788
922.625	1.01375
925.518	0.362579
928.411	0.038338
931.304	0.828003
934.196	1.27463
937.089	0.632683
939.982	0.572701
942.875	0.531715
945.767	0.479568
948.66	0.069786
951.553	0.508148
954.445	1.58498
957.338	1.41411
960.231	1.81662
963.123	2.05723
966.016	1.89532
968.909	3.20429
971.802	3.40686
974.694	3.07249
977.587	3.52484
980.48	3.55301
983.372	3.31058
986.265	4.01771
989.158	2.67936
992.05	2.95148
994.943	3.39362
997.836	2.45914
1000.73	3.32729
1003.62	2.26469
1006.51	2.12543
1009.41	1.99755
1012.3	1.49977
1015.19	1.34578
1018.09	1.58324
1020.98	1.77582
1023.87	2.64854
1026.76	1.17938
1029.66	2.68029
1032.55	1.78435
1035.44	2.0066
1038.33	1.14854
1041.23	1.23665
1044.12	0.748802
1047.01	1.08668
1049.9	0.369286
1052.8	0.810165
1055.69	1.05696
1058.58	1.62952
1061.47	1.14837
1064.37	2.02645
1067.26	2.1943
1070.15	1.60843
1073.05	1.51405
1075.94	1.69144
1078.83	2.02488
1081.72	2.11253
1084.62	2.28817
1087.51	0.917458
1090.4	0.484695
1093.3	1.15252
1096.19	0.56424
1099.08	0.299286
1101.97	1.16411
1104.87	0.893944
1107.76	0.311577
1110.65	0.770027
1113.54	0.698273
1116.44	0.524078
1119.33	0.82
1122.22	0.653183
1125.12	0.66378
1128.01	0.341667
1130.9	0.336502
1133.79	0.571571
1136.68	0.3069
1139.58	0.234978
1142.47	0.150261
1145.36	0.279045
1148.26	0.189392
1151.15	0.905319
1154.04	0.990685
1156.93	1.2969
1159.83	2.3138
1162.72	1.62135
1165.61	1.27657
1168.51	0.261574
1171.4	0.393509
1174.29	0.509216
1177.18	0.948074
1180.08	0.290344
1182.97	0.097466
1185.86	0.898926
1188.75	0.106544
1191.65	0.325317
1194.54	0.422249
1197.43	0.782333
1200.33	0.072472
1203.22	0.349403
1206.11	0.401871
1209	0.540596
1211.9	0.83564
1214.79	0.59832
1217.68	0.548744
1220.57	0.078041
1223.47	0.417145
1226.36	0.399681
1229.25	1.36329
1232.14	0.355202
1235.04	0.246025
1237.93	0.215317
1240.82	0.430984
1243.71	0.924026
1246.61	0.556648
1249.5	0.586395
1252.39	0.03434
1255.29	0.687698
1258.18	0.747704
1261.07	0.744774
1263.96	0.669731
1266.86	0.66391
1269.75	0.732254
1272.64	0.446861
1275.54	1.25337
1278.43	1.09292
1281.32	0.282883
1284.21	1.08791
1287.11	0.965927
1290	1.72974
1292.89	1.79143
1295.78	1.41368
1298.68	1.29987
1301.57	0.008987
