Measurement: Raman, 532 nm, unoriented, Raman Data Processed
Mineral: Metazeunerite
Rruff sample: R050524
Ideal chemistry: Cu^2+^(U^6+^O_2_)_2_(As^5+^O_4_)_2_8H_2_O
Locality: Majuba Hill mine, Pershing County, Nevada
Source: University of Arizona Mineral Museum
Description: Green tabular crystal, cell parameters indicate a disordered structure
Raman shift (cm-1)	intensity
144.923	0
148.298	0.370926
151.673	1.02296
155.048	3.6247
158.422	0.650162
161.797	6.9131
165.172	17.731
168.547	33.631
171.922	54.581
175.297	74.3068
178.671	99.9368
182.046	140.096
185.421	185.68
188.796	163.302
192.171	73.8461
195.545	34.4722
198.92	23.0824
202.295	25.357
205.67	31.3824
209.045	39.6354
212.419	50.7896
215.794	62.1643
219.169	61.0752
222.544	43.0464
225.919	22.8124
229.293	11.3578
232.668	4.16824
236.043	1.94556
239.418	4.76654
242.793	6.4872
246.168	4.7243
249.542	1.86365
252.917	1.82904
256.292	0.925629
259.667	0.864807
263.042	3.63728
266.416	10.0141
269.791	14.8851
273.166	21.5028
276.541	27.6518
279.916	26.9121
283.291	19.9922
286.665	13.7957
290.04	10.8827
293.415	12.2955
296.79	15.5043
300.165	23.7764
303.539	42.1746
306.914	62.9221
310.289	83.3568
313.664	120.334
317.039	181.33
320.414	219.742
323.788	128.853
327.163	42.9639
330.538	19.6103
333.913	9.29907
337.288	5.07535
340.662	4.1049
344.037	0.492249
347.412	0.356781
350.787	0.770859
354.162	1.52704
357.536	0.568054
360.911	0.156036
364.286	1.17432
367.661	0.974548
371.036	2.45842
374.411	3.60594
377.785	7.05557
381.16	10.3465
384.535	14.6706
387.91	20.4326
391.285	26.3364
394.659	30.7049
398.034	32.5006
401.409	31.7742
404.784	24.3379
408.159	15.9083
411.534	9.78023
414.908	7.82039
418.283	9.86218
421.658	15.328
425.033	22.0624
428.408	33.0291
431.783	48.1042
435.157	69.0348
438.532	89.581
441.907	115.993
445.282	134.384
448.657	141.841
452.031	128.501
455.406	105.562
458.781	78.84
462.156	59.5384
465.531	44.6848
468.906	34.9874
472.28	27.2562
475.655	20.3112
479.03	15.5893
482.405	10.2721
485.779	7.81355
489.154	6.71422
492.529	6.23447
495.904	6.91328
499.279	7.4595
502.654	6.72116
506.028	4.15634
509.403	4.33
512.778	4.16197
516.153	2.78526
519.528	1.78026
522.903	2.07915
526.277	0.964813
529.652	0.02356
533.027	0.495148
536.402	0.061401
539.777	0.281296
543.151	1.29939
546.526	0.858002
549.901	0.371857
553.276	0.052399
556.651	0.470474
560.025	0.363434
563.4	0.05249
566.775	0.339218
570.15	0.266373
573.525	1.01416
576.9	1.81235
580.274	1.38873
583.649	2.11881
587.024	1.79863
590.399	2.79027
593.774	3.13034
597.148	3.83571
600.523	3.58156
603.898	3.70091
607.273	4.00465
610.648	6.12852
614.023	5.94014
617.397	7.84465
620.772	7.71565
624.147	8.82706
627.522	10.9563
630.897	10.1881
634.271	10.7151
637.646	9.81447
641.021	11.8579
644.396	11.5215
647.771	12.1277
651.145	11.0808
654.52	11.3294
657.895	12.0354
661.27	11.3478
664.645	10.6235
668.02	10.9791
671.394	10.4358
674.769	9.58499
678.144	8.85706
681.519	8.84157
684.894	10.1679
688.269	7.57205
691.643	7.62422
695.018	6.41235
698.393	5.33493
701.768	3.89296
705.143	5.03636
708.517	4.52347
711.892	3.31418
715.267	2.99104
718.642	2.94553
722.017	2.37288
725.391	1.05737
728.766	0.499252
732.141	0.154587
735.516	0.89006
738.891	1.05138
742.266	3.30797
745.64	1.00873
749.015	0.376907
752.39	0.848816
755.765	2.27301
759.14	6.08466
762.514	13.2084
765.889	19.7888
769.264	29.8282
772.639	41.0693
776.014	56.1991
779.389	80.6591
782.763	111.675
786.138	160.452
789.513	236.609
792.888	362.308
796.263	562.034
799.637	877.874
803.012	1284.99
806.387	1877.23
809.762	2524.58
813.137	2381.45
816.511	1486.56
819.886	1048.28
823.261	819.171
826.636	496.865
830.011	242.893
833.386	117.113
836.76	58.5341
840.135	27.6352
843.51	10.6426
846.885	0.818481
850.26	1.15442
853.635	0.992081
857.009	4.85071
860.384	9.62816
863.759	17.9134
867.134	33.2782
870.509	53.7649
873.883	88.0251
877.258	126.612
880.633	169.88
884.008	191.12
887.383	176.492
890.757	144.122
894.132	106.222
897.507	70.1453
900.882	48.7767
904.257	38.0063
907.631	28.9878
911.006	23.3336
914.381	17.9301
917.756	12.68
921.131	6.00295
924.506	1.58324
927.88	0.485001
931.255	1.98923
934.63	1.67938
938.005	0.686142
941.38	0.564972
944.755	0.553619
948.129	0.375305
951.504	0.415024
954.879	1.92433
958.254	2.74341
961.629	5.37984
965.003	5.98479
968.378	9.45784
971.753	15.7293
975.128	24.3318
978.503	39.9461
981.877	52.9686
985.252	62.8389
988.627	65.299
992.002	53.3334
995.377	36.662
998.751	22.0085
1002.13	13.1881
1005.5	10.0303
1008.88	9.24751
1012.25	10.3563
1015.63	15.5093
1019	21.3935
1022.38	30.19
1025.75	36.2072
1029.12	37.0866
1032.5	35.5939
1035.88	30.6609
1039.25	22.6075
1042.62	15.8025
1046	11.1192
1049.37	9.84166
1052.75	6.92616
1056.12	5.01575
1059.5	3.77615
1062.87	2.22388
1066.25	1.95006
1069.62	1.40218
1073	0.835739
1076.37	0.365982
1079.75	0.207336
1083.12	1.28792
1086.5	0.137817
1089.87	0.372757
1093.25	0.515137
1096.62	0.031586
1100	0.952682
1103.37	0.727142
1106.75	1.89757
1110.12	1.97403
1113.49	1.14899
1116.87	1.18388
1120.24	1.52753
1123.62	0.810074
1126.99	0.35173
1130.37	0.247116
1133.74	1.78584
1137.12	0.800629
1140.49	0.067459
1143.87	0.42157
1147.24	1.55824
1150.62	0.04332
1153.99	0.412872
1157.37	1.09764
1160.74	0.585571
1164.12	1.41264
1167.49	0.655777
1170.87	1.09817
1174.24	1.53795
1177.62	0.345474
1180.99	1.20412
1184.37	1.36859
1187.74	1.34355
1191.12	0.089005
1194.49	0.582443
1197.87	1.59537
1201.24	0.786819
1204.62	0.148163
1207.99	0.107071
1211.37	1.14145
1214.74	1.25473
1218.12	1.95602
1221.49	1.11864
1224.86	0.22905
1228.24	0.836395
1231.61	1.42363
1234.99	0.659592
1238.36	2.24049
1241.74	0.980469
1245.11	0.019775
1248.49	0.921127
1251.86	1.01473
1255.24	0.517639
1258.61	0.19841
1261.99	0.278748
1265.36	0.256424
1268.74	1.55629
1272.11	2.35956
1275.49	0.662094
1278.86	1.27779
1282.24	1.35373
1285.61	2.75822
1288.99	1.71591
1292.36	1.0206
1295.73	1.47949
1299.11	0.663589
1302.48	0.346527
