Measurement: Raman, 785 nm, unoriented, Raman Data Processed
Mineral: Metatorbernite
Rruff sample: R040171
Ideal chemistry: Cu(UO_2_)_2_(PO_4_)_2_8H_2_O
Locality: La Luz de Cobre, Sonora, Mexico
Source: University of Arizona Mineral Museum
Description: Green thin tabular crystals
Measured chemistry: (Cu_0.80_[box]_0.20_)_Σ=1_(U_1.00_O_2_)_2_(P_1.00_O_4_)_2_·8((H_2_O)_0.95_(H_3_O)^+^_0.05_)
Raman shift (cm-1)	intensity
127.668	0
130.56	25.986
133.453	83.2052
136.346	83.4621
139.238	80.3654
142.131	53.0552
145.024	154.338
147.916	234.6
150.809	230.336
153.702	169.599
156.595	75.7604
159.487	48.0912
162.38	74.5508
165.273	57.189
168.165	24.9869
171.058	12.635
173.951	2.26358
176.843	4.1608
179.736	44.8277
182.629	98.2654
185.522	104.657
188.414	130.77
191.307	214.155
194.2	238.122
197.092	122.786
199.985	41.8643
202.878	9.44537
205.77	16.7939
208.663	14.6014
211.556	50.3942
214.448	62.5588
217.341	92.997
220.234	126.08
223.127	117.991
226.019	82.7951
228.912	57.003
231.805	5.43506
234.697	11.9842
237.59	3.77759
240.483	6.8862
243.375	6.76669
246.268	27.0439
249.161	26.3609
252.054	38.3491
254.946	22.5986
257.839	1.47957
260.732	6.00461
263.624	3.35962
266.517	12.0598
269.41	8.11275
272.302	30.1159
275.195	42.2801
278.088	21.5244
280.981	58.3934
283.873	53.2452
286.766	63.5468
289.659	72.7976
292.551	59.6746
295.444	40.8062
298.337	60.9144
301.229	29.7945
304.122	35.3785
307.015	45.0589
309.908	29.5414
312.8	27.295
315.693	12.9787
318.586	11.0945
321.478	11.3595
324.371	18.5337
327.264	6.90025
330.156	28.1021
333.049	9.90463
335.942	1.25708
338.834	4.70784
341.727	8.83452
344.62	15.7796
347.513	7.69986
350.405	18.3469
353.298	18.3951
356.191	14.8151
359.083	4.97093
361.976	4.30763
364.869	11.773
367.762	12.3361
370.654	9.55748
373.547	6.7748
376.44	11.3188
379.332	24.1912
382.225	4.29835
385.118	24.3399
388.01	53.9057
390.903	79.6766
393.796	130.75
396.688	192.065
399.581	241.226
402.474	267.608
405.367	311.914
408.259	284.067
411.152	161.756
414.045	86.9806
416.937	47.6996
419.83	34.593
422.723	27.7822
425.615	46.6841
428.508	51.5851
431.401	53.7808
434.293	87.7424
437.186	99.8587
440.079	121.518
442.972	125.139
445.864	88.5104
448.757	49.1519
451.65	40.9536
454.542	35.7998
457.435	41.8908
460.328	47.4244
463.221	39.6722
466.113	51.3887
469.006	23.6662
471.899	27.6177
474.791	10.4701
477.684	8.52232
480.577	15.5306
483.469	2.99963
486.362	7.30305
489.255	10.2806
492.147	12.4119
495.04	13.6946
497.933	3.08311
500.826	8.49263
503.718	13.5637
506.611	11.7052
509.504	13.9707
512.396	3.32368
515.289	7.84518
518.182	6.93343
521.074	10.4445
523.967	4.71133
526.86	21.6727
529.753	18.0974
532.645	21.3769
535.538	12.3388
538.431	23.8641
541.323	27.6591
544.216	13.7767
547.109	0.81102
550.001	23.3237
552.894	20.2104
555.787	17.7518
558.68	14.2245
561.572	11.5819
564.465	1.67976
567.358	1.9306
570.25	1.96138
573.143	12.5844
576.036	6.61162
578.928	8.58452
581.821	17.0447
584.714	19.0311
587.607	11.0915
590.499	10.2881
593.392	17.3378
596.285	11.3715
599.177	23.4263
602.07	22.0923
604.963	22.4678
607.856	22.234
610.748	27.1583
613.641	42.7837
616.534	21.6793
619.426	45.0314
622.319	30.5719
625.212	28.2631
628.104	32.6148
630.997	39.2379
633.89	24.1333
636.782	31.2777
639.675	33.4142
642.568	21.6828
645.461	23.1518
648.353	25.4615
651.246	30.4872
654.139	10.5927
657.031	18.9502
659.924	9.17291
662.817	14.9629
665.709	32.9582
668.602	12.2161
671.495	13.9296
674.388	24.3722
677.28	12.5906
680.173	10.0527
683.066	3.67967
685.958	1.75563
688.851	6.24263
691.744	1.7861
694.636	24.7262
697.529	5.4442
700.422	6.49872
703.314	8.79013
706.207	6.17339
709.1	1.6543
711.993	7.28343
714.885	10.4956
717.778	8.28236
720.671	1.18333
723.563	0.030823
726.456	0.141663
729.349	5.59871
732.241	11.9747
735.134	1.65015
738.027	16.2229
740.92	4.30806
743.812	3.83275
746.705	3.43497
749.598	8.96034
752.49	12.8577
755.383	10.4815
758.276	1.14214
761.168	8.48651
764.061	1.84685
766.954	11.3224
769.847	3.78989
772.739	8.95705
775.632	8.08391
778.525	20.0515
781.417	32.4814
784.31	10.9375
787.203	19.1788
790.096	12.3049
792.988	35.8194
795.881	33.6094
798.774	52.7544
801.666	90.801
804.559	92.5205
807.452	109.579
810.344	168.657
813.237	272.857
816.13	449.059
819.023	765.502
821.915	1276.66
824.808	1862.98
827.701	1769.14
830.593	854.193
833.486	358.201
836.379	204.581
839.271	139.999
842.164	83.9117
845.057	54.0114
847.949	32.7069
850.842	15.0942
853.735	6.70525
856.628	4.70674
859.52	3.27789
862.413	4.04823
865.306	1.12506
868.198	7.08315
871.091	4.66454
873.984	3.91861
876.876	11.5618
879.769	6.77396
882.662	11.4818
885.554	19.5767
888.447	35.5562
891.34	22.2807
894.233	35.1952
897.125	44.7233
900.018	50.2027
902.911	38.9862
905.803	32.9759
908.696	29.4209
911.589	17.7961
914.481	7.77559
917.374	9.66353
920.267	12.6123
923.16	2.16122
926.052	10.0823
928.945	10.4286
931.838	4.42481
934.73	8.73848
937.623	9.52791
940.516	0.093414
943.408	6.34264
946.301	3.83369
949.194	8.33502
952.087	11.8007
954.979	15.3041
957.872	28.8813
960.765	43.9779
963.657	56.1372
966.55	64.5672
969.443	108.003
972.335	177.772
975.228	283.921
978.121	500.019
981.014	848.278
983.906	1322.25
986.799	1977.29
989.692	2283.85
992.584	2173.87
995.477	1944.99
998.37	1539.82
1001.26	968.962
1004.15	647.215
1007.05	390.769
1009.94	206.167
1012.83	119.799
1015.73	67.783
1018.62	57.2554
1021.51	32.1876
1024.4	33.256
1027.3	39.4463
1030.19	22.8564
1033.08	22.8872
1035.97	15.3742
1038.87	21.6575
1041.76	20.103
1044.65	7.01021
1047.55	13.9975
1050.44	8.33173
1053.33	8.56251
1056.22	14.2151
1059.12	5.59138
1062.01	16.5936
1064.9	9.30661
1067.8	3.35335
1070.69	5.31545
1073.58	12.0635
1076.47	9.31851
1079.37	4.52148
1082.26	16.8619
1085.15	7.26464
1088.04	16.0507
1090.94	15.5971
1093.83	18.4287
1096.72	9.07019
1099.61	2.70706
1102.51	25.2127
1105.4	24.8851
1108.29	19.4458
1111.18	18.8773
1114.08	3.4509
1116.97	13.5313
1119.86	13.3063
1122.76	26.1142
1125.65	13.7041
1128.54	18.8387
1131.43	19.9535
1134.33	20.6882
1137.22	13.5856
1140.11	18.631
1143.01	28.2128
1145.9	6.84596
1148.79	14.8054
1151.68	14.5511
1154.58	20.7016
1157.47	10.2995
1160.36	0.467041
1163.25	9.98689
1166.15	12.5931
1169.04	20.9797
1171.93	9.87611
1174.82	11.7184
1177.72	10.8766
1180.61	7.87096
1183.5	6.33612
1186.39	5.7081
1189.29	9.54822
1192.18	1.82442
1195.07	4.80209
1197.97	12.1936
1200.86	9.99854
1203.75	9.62776
1206.64	4.84347
1209.54	10.4382
1212.43	13.2323
1215.32	28.5186
1218.21	12.5422
1221.11	11.1895
1224	2.53698
1226.89	1.37848
1229.79	7.265
1232.68	8.75407
1235.57	33.0406
1238.46	1.96486
1241.36	18.3461
1244.25	16.7145
1247.14	13.2584
1250.04	12.7204
1252.93	9.29491
1255.82	1.59444
