Measurement: Raman, 532 nm, unoriented, Raman Data Processed
Mineral: Metatorbernite
Rruff sample: R040171
Ideal chemistry: Cu(UO_2_)_2_(PO_4_)_2_8H_2_O
Locality: La Luz de Cobre, Sonora, Mexico
Source: University of Arizona Mineral Museum
Description: Green thin tabular crystals
Measured chemistry: (Cu_0.80_[box]_0.20_)_Σ=1_(U_1.00_O_2_)_2_(P_1.00_O_4_)_2_·8((H_2_O)_0.95_(H_3_O)^+^_0.05_)
Raman shift (cm-1)	intensity
140.502	0
143.394	8.47119
146.287	41.1074
149.18	1.67358
152.072	29.097
154.965	84.722
157.858	100.468
160.75	82.9928
163.643	138.533
166.536	190.589
169.429	340.606
172.321	514.02
175.214	837.385
178.107	1296.28
180.999	1959.79
183.892	2730.77
186.785	3698.06
189.678	4686.86
192.57	5079.56
195.463	4324.37
198.356	2351.11
201.248	1287.7
204.141	1009.2
207.034	1002.99
209.926	1089.04
212.819	1314.6
215.712	1538.36
218.605	1736.65
221.497	1591.62
224.39	1357.33
227.283	883.764
230.175	528.639
233.068	317.518
235.961	222.758
238.853	147.363
241.746	150.691
244.639	233.791
247.532	300.731
250.424	265.855
253.317	175.753
256.21	83.7786
259.102	20.5364
261.995	5.75928
264.888	9.16455
267.781	90.0657
270.673	201.834
273.566	340.6
276.459	497.703
279.351	690.904
282.244	829.27
285.137	873.507
288.029	855
290.922	751.201
293.815	592.98
296.707	455.685
299.6	444.064
302.493	383.243
305.386	318.39
308.278	248.731
311.171	227.678
314.064	163.934
316.956	74.0527
319.849	80.4665
322.742	28.8132
325.635	9.85962
328.527	3.69556
331.42	29.5408
334.313	16.6502
337.205	29.1658
340.098	8.88037
342.991	5.76929
345.883	32.3008
348.776	4.38672
351.669	28.7065
354.562	0.557129
357.454	30.5991
360.347	38.1631
363.24	74.0752
366.132	87.2227
369.025	125.242
371.918	142.747
374.81	141.954
377.703	176.747
380.596	181.036
383.488	315.371
386.381	560.263
389.274	1009.7
392.167	1713.58
395.059	2658.91
397.952	3930.42
400.845	4584.78
403.737	4770.36
406.63	4775.36
409.523	3236.31
412.416	1623.55
415.308	939.64
418.201	614.997
421.094	550.758
423.986	570.498
426.879	714.881
429.772	950.597
432.664	1201.73
435.557	1470
438.45	1554.53
441.343	1440.44
444.235	1109.97
447.128	837.156
450.021	591.027
452.913	567.906
455.806	541.535
458.699	505.062
461.591	529.485
464.484	494.894
467.377	431.668
470.27	315.211
473.162	259.304
476.055	173.745
478.948	82.5188
481.84	46.4058
484.733	15.4607
487.626	8.73657
490.519	26.6182
493.411	35.833
496.304	23.811
499.197	5.97534
502.089	39.5928
504.982	7.94458
507.875	11.3845
510.767	27.0349
513.66	12.3118
516.553	17.2053
519.446	11.0754
522.338	56.0361
525.231	32.5713
528.124	93.3391
531.016	86.665
533.909	168.837
536.802	128.34
539.694	130.628
542.587	108.364
545.48	95.8108
548.372	101.351
551.265	109.77
554.158	96.9534
557.051	97.1077
559.943	58.5215
562.836	73.9045
565.729	32.2461
568.621	9.88501
571.514	3.68994
574.407	56.8757
577.299	37.521
580.192	54.1411
583.085	70.9231
585.978	95.749
588.87	119.194
591.763	146.434
594.656	194.237
597.548	208.382
600.441	234.086
603.334	273.575
606.227	319.94
609.119	348.498
612.012	373.062
614.905	433.778
617.797	444.327
620.69	450.803
623.583	331.016
626.476	373.191
629.368	367.054
632.261	287.281
635.154	296.665
638.046	261.535
640.939	201.021
643.832	148.541
646.724	157.045
649.617	127.202
652.51	107.587
655.403	98.7883
658.295	79.1453
661.188	72.3665
664.081	64.4358
666.973	73.7336
669.866	100.695
672.759	36.3733
675.651	28.1665
678.544	21.9421
681.437	7.15845
684.33	1.70142
687.222	4.7749
690.115	14.4783
693.008	11.0586
695.9	17.5723
698.793	42.7
701.686	20.3772
704.578	15.2268
707.471	78.1375
710.364	40.4622
713.256	19.9868
716.149	14.8528
719.042	23.813
721.935	29.3276
724.827	21.1326
727.72	18.4521
730.613	6.11987
733.505	31.9893
736.398	18.8882
739.291	45.8181
742.183	15.5159
745.076	6.48779
747.969	29.1829
750.862	22.6499
753.754	5.90015
756.647	37.1728
759.54	46.603
762.432	59.3848
765.325	96.6758
768.218	138.815
771.111	156.798
774.003	157.574
776.896	214.465
779.789	255.697
782.681	390.518
785.574	477.123
788.467	593.949
791.359	790.37
794.252	1025.06
797.145	1298.08
800.038	1660.55
802.93	2123.14
805.823	2796.53
808.716	3829.41
811.608	5981.33
814.501	11118.6
817.394	19822.2
820.286	28593.7
823.179	37372.8
826.072	40022
828.965	23529
831.857	9822.68
834.75	4882.99
837.643	3211.55
840.535	2097.72
843.428	1213.65
846.321	701.386
849.213	377.73
852.106	209.024
854.999	128.695
857.891	89.7534
860.784	20.7405
863.677	5.77466
866.57	37.9116
869.462	18.5464
872.355	0.880127
875.248	4.7063
878.14	47.1362
881.033	165.919
883.926	195.286
886.819	326.384
889.711	489.521
892.604	613.133
895.497	679.113
898.389	833.3
901.282	785.765
904.175	634.308
907.067	547.191
909.96	428.349
912.853	300.532
915.746	188.276
918.638	117.976
921.531	37.9751
924.424	19.4541
927.316	2.35059
930.209	78.2778
933.102	27.5898
935.995	16.5303
938.887	7.51514
941.78	44.5737
944.673	153.818
947.565	238.242
950.458	391.813
953.351	610.264
956.243	789.207
959.136	1094.31
962.029	1495.4
964.922	2143.02
967.814	3272.82
970.707	5131.09
973.6	8420.98
976.492	14622.2
979.385	24551.4
982.278	37500
985.17	51221.8
988.063	60272.2
990.956	58188.2
993.848	51401.8
996.741	41786.9
999.634	27406.2
1002.53	15871.5
1005.42	9588.77
1008.31	5962.05
1011.21	3532.76
1014.1	2419.58
1016.99	1775.96
1019.88	1293.24
1022.78	1010.38
1025.67	777.84
1028.56	583.33
1031.45	526.535
1034.35	416.517
1037.24	400.881
1040.13	340.633
1043.02	261.047
1045.92	254.878
1048.81	230.116
1051.7	218.267
1054.6	148.184
1057.49	112.195
1060.38	91.6428
1063.27	41.0415
1066.17	12.5635
1069.06	24.2263
1071.95	48.1028
1074.84	14.0352
1077.74	7.47681
1080.63	19.8367
1083.52	10.7722
1086.41	14.3621
1089.31	23.3013
1092.2	57.5232
1095.09	87.8633
1097.99	99.3245
1100.88	110.729
1103.77	123.183
1106.66	125.31
1109.56	126.236
1112.45	67.7441
1115.34	101.693
1118.23	121.746
1121.13	118.45
1124.02	122.754
1126.91	102.724
1129.81	87.6045
1132.7	62.5054
1135.59	69.2129
1138.48	36.1846
1141.38	64.6977
1144.27	7.11011
1147.16	6.93408
1150.05	37.1135
1152.95	32.1948
1155.84	15.1509
1158.73	27.248
1161.62	30.79
1164.52	27.4641
1167.41	7.23999
1170.3	12.5796
1173.2	34.3179
1176.09	5.44287
1178.98	42.4665
1181.87	53.0039
1184.77	18.3513
1187.66	48.1807
1190.55	75.3423
1193.44	51.3726
1196.34	24.9495
1199.23	10.1956
1202.12	39.2715
1205.02	38.5701
1207.91	55.7847
1210.8	25.5195
1213.69	40.9368
1216.59	61.8701
1219.48	40.095
1222.37	47.7534
1225.27	58.5293
1228.16	4.30908
1231.05	7.11011
1233.94	68.6731
1236.84	10.3574
1239.73	27.708
1242.62	45.6814
1245.51	50.3491
1248.41	45.9619
1251.3	42.6448
1254.19	22.6865
1257.08	43.4236
1259.98	16.1304
1262.87	70.0415
1265.76	39.4136
1268.65	54.4221
1271.55	21.3064
1274.44	25.6111
1277.33	18.0005
1280.23	50.2998
1283.12	61.6765
1286.01	50.4094
1288.9	0.764648
1291.8	45.2415
1294.69	65.1663
