Measurement: Raman, 532 nm, unoriented, Raman Data Processed
Mineral: Metatorbernite
Rruff sample: R120014
Ideal chemistry: Cu(UO_2_)_2_(PO_4_)_2_8H_2_O
Locality: Governor's Lake pegmatite, Halifax County, Nova Scotia, Canada
Source: Donald Doell
Description: Green tabular crystals associated with anatase R120013
Raman shift (cm-1)	intensity
161.363	0
164.256	0.750664
167.149	3.1517
170.041	20.2249
172.934	41.1067
175.827	69.1036
178.72	115.873
181.612	167.598
184.505	241.712
187.398	344.83
190.29	470.33
193.183	566.013
196.076	491.83
198.968	300.39
201.861	204.879
204.754	164.357
207.647	146.982
210.539	134.732
213.432	124.624
216.325	118.109
219.217	111.292
222.11	102.534
225.003	91.486
227.895	74.2455
230.788	60.0122
233.681	51.1056
236.573	42.8196
239.466	35.6385
242.359	29.4932
245.252	26.9413
248.144	25.3616
251.037	23.373
253.93	19.5547
256.822	13.3266
259.715	10.4542
262.608	6.51086
265.5	10.0344
268.393	12.1127
271.286	18.6481
274.179	26.4013
277.071	32.6427
279.964	41.0002
282.857	42.8214
285.75	39.7176
288.642	38.3841
291.535	30.3637
294.428	27.1645
297.32	25.8006
300.213	21.8703
303.106	21.9838
305.998	18.5046
308.891	14.5621
311.784	11.4233
314.676	5.59192
317.569	4.63229
320.462	2.88339
323.355	0.29892
326.247	3.19296
329.14	2.90088
332.033	2.04932
334.925	2.63001
337.818	0.508118
340.711	0.932831
343.603	3.37482
346.496	2.18845
349.389	1.4024
352.281	1.10394
355.174	0.964935
358.067	0.270142
360.96	2.97559
363.852	0.279846
366.745	2.15338
369.638	3.53458
372.53	5.10815
375.423	4.54108
378.316	3.96243
381.209	6.32248
384.101	6.70581
386.994	10.0468
389.887	16.2618
392.779	22.5714
395.672	34.634
398.565	51.2307
401.457	59.6934
404.35	65.0918
407.243	60.3581
410.135	35.5396
413.028	18.3581
415.921	9.17642
418.814	3.76715
421.706	2.74438
424.599	2.23425
427.492	6.77957
430.384	10.9883
433.277	17.2892
436.17	23.967
439.062	23.5792
441.955	21.5443
444.848	16.6154
447.741	11.4984
450.633	8.27658
453.526	9.02991
456.419	8.84662
459.311	8.73245
462.204	8.48462
465.097	7.25089
467.99	3.31128
470.882	0.135529
473.775	1.185
476.668	1.30176
479.56	2.83051
482.453	0.229858
485.346	2.29407
488.238	5.75061
491.131	6.58417
494.024	6.61737
496.916	10.3235
499.809	9.53979
502.702	10.7429
505.595	10.132
508.487	11.9804
511.38	12.4221
514.273	9.77838
517.165	10.9285
520.058	11.1314
522.951	12.0388
525.844	13.8289
528.736	12.6352
531.629	12.7333
534.522	9.48364
537.414	8.43591
540.307	9.08411
543.2	9.95727
546.092	10.0351
548.985	12.1257
551.878	14.1193
554.771	13.3588
557.663	13.1135
560.556	12.0043
563.449	4.34589
566.341	3.68097
569.234	4.67566
572.127	0.550171
575.019	0.216248
577.912	1.2207
580.805	2.05042
583.697	0.046387
586.59	2.48853
589.483	0.931274
592.376	2.31717
595.268	1.4985
598.161	0.309723
601.054	0.632507
603.946	0.008911
606.839	0.170685
609.732	2.54269
612.625	2.71732
615.517	1.203
618.41	3.54364
621.303	1.26337
624.195	3.02493
627.088	0.582642
629.981	1.75156
632.873	0.198364
635.766	1.52832
638.659	0.310791
641.552	0.485535
644.444	0.529083
647.337	0.825806
650.23	0.472839
653.122	0.642609
656.015	0.445343
658.908	0.647858
661.8	0.991364
664.693	2.99121
667.586	1.80963
670.479	8.08752
673.371	1.10181
676.264	3.60626
679.157	2.98877
682.049	4.63757
684.942	4.32095
687.835	2.98123
690.727	7.56421
693.62	5.77881
696.513	5.13672
699.405	5.71698
702.298	2.62207
705.191	2.19974
708.084	3.7301
710.976	3.2568
713.869	2.75555
716.762	2.8674
719.654	0.032166
722.547	0.424225
725.44	0.542786
728.332	1.04688
731.225	2.41208
734.118	2.20358
737.011	4.37903
739.903	0.332031
742.796	0.16922
745.689	0.475525
748.581	0.091827
751.474	1.43033
754.367	1.00272
757.26	0.424896
760.152	0.168457
763.045	0.956818
765.938	1.73022
768.83	2.65143
771.723	2.81656
774.616	6.83249
777.508	8.72482
780.401	13.3942
783.294	17.7266
786.187	25.0333
789.079	32.3999
791.972	45.5944
794.865	63.5686
797.757	80.0882
800.65	99.8212
803.543	129.3
806.435	174.941
809.328	252.231
812.221	384.279
815.114	609.559
818.006	884.378
820.899	1298.36
823.792	1857.39
826.684	1962.25
829.577	984.547
832.47	455.754
835.362	288.697
838.255	220.231
841.148	164.9
844.04	104.753
846.933	74.5462
849.826	59.5184
852.719	51.5222
855.611	38.348
858.504	29.2496
861.397	16.3644
864.289	7.6536
867.182	2.84717
870.075	0.476624
872.967	2.18533
875.86	0.275085
878.753	3.6059
881.646	4.43768
884.538	9.15185
887.431	14.4646
890.324	18.8758
893.216	20.9536
896.109	23.4858
899.002	28.0315
901.894	29.4377
904.787	29.7428
907.68	24.0614
910.573	20.8233
913.465	14.9838
916.358	13.5835
919.251	8.74972
922.143	4.77707
925.036	3.85998
927.929	3.29654
930.822	0.769562
933.714	1.40906
936.607	1.33319
939.5	0.497528
942.392	2.28906
945.285	0.285217
948.178	1.89691
951.07	3.3078
953.963	5.5267
956.856	9.0773
959.749	12.738
962.641	17.0411
965.534	25.2915
968.427	36.7138
971.319	53.8488
974.212	79.7706
977.105	121.287
979.997	181.391
982.89	251.815
985.783	367.317
988.676	458.858
991.568	466.009
994.461	444.319
997.354	389.929
1000.25	280.186
1003.14	190.123
1006.03	128.766
1008.92	81.982
1011.82	50.973
1014.71	34.6401
1017.6	23.7546
1020.5	19.3295
1023.39	14.0491
1026.28	9.93243
1029.17	6.81442
1032.07	4.25952
1034.96	4.10501
1037.85	1.7532
1040.74	2.30393
1043.64	0.265564
1046.53	0.137085
1049.42	1.58353
1052.32	1.01691
1055.21	0.424713
1058.1	2.21695
1060.99	1.96478
1063.89	0.960663
1066.78	1.12711
1069.67	2.29242
1072.56	0.431946
1075.46	1.0545
1078.35	0.20343
1081.24	0.299561
1084.13	1.70358
1087.03	3.98321
1089.92	0.843628
1092.81	1.8804
1095.7	0.452698
1098.6	1.646
1101.49	2.70114
1104.38	0.83429
1107.28	2.3259
1110.17	2.73923
1113.06	2.84891
1115.95	6.92188
1118.85	5.80273
1121.74	0.291626
1124.63	0.410889
1127.53	2.52524
1130.42	0.406281
1133.31	0.154846
1136.2	0.032379
1139.1	0.666656
1141.99	2.57007
1144.88	0.01474
1147.77	1.36792
1150.67	1.53278
1153.56	1.69363
1156.45	1.95468
1159.35	0.478943
1162.24	2.9928
1165.13	0.69278
1168.02	0.970612
1170.92	0.343079
1173.81	1.79742
1176.7	2.04236
1179.59	2.0235
1182.49	1.70908
1185.38	3.26935
1188.27	4.38425
1191.16	3.00049
1194.06	3.43521
1196.95	0.733398
1199.84	2.09134
1202.73	1.56448
1205.63	3.08646
1208.52	3.67828
1211.41	4.07034
1214.31	4.35568
1217.2	1.00543
1220.09	2.2699
1222.98	1.63779
1225.88	5.31708
1228.77	3.6163
1231.66	2.3129
1234.56	1.29712
1237.45	1.24869
1240.34	0.450653
1243.23	2.65442
1246.13	0.484497
1249.02	0.067017
1251.91	2.13422
1254.8	2.12131
1257.7	2.27685
1260.59	2.66165
1263.48	4.72189
1266.38	4.08795
1269.27	4.63727
1272.16	2.08319
1275.05	2.28262
1277.95	4.7587
1280.84	1.33499
1283.73	0.412567
1286.62	3.63992
1289.52	2.69376
1292.41	0.325073
1295.3	0.248535
1298.19	1.98227
1301.09	1.34705
