Measurement: Raman, 532 nm, unoriented, Raman Data Processed
Mineral: Metatorbernite
Rruff sample: R070683
Ideal chemistry: Cu(UO_2_)_2_(PO_4_)_2_8H_2_O
Locality: Chalk Mountain mine, Spruce Pine, Spruce Pine District, Mitchell County, North Carolina, USA
Source: Michael Scott
Description: Emerald-green tabular crystals associated with quartz and muscovite
Raman shift (cm-1)	intensity
183.541	0
186.433	8.57133
189.326	25.345
192.219	42.9421
195.112	46.7253
198.004	22.8012
200.897	3.36779
203.79	0.991196
206.682	3.47522
209.575	10.8595
212.468	20.8569
215.36	30.8126
218.253	41.143
221.146	45.2775
224.038	39.697
226.931	28.7347
229.824	15.8905
232.717	9.05841
235.609	3.75745
238.502	1.65144
241.395	1.74801
244.287	4.16552
247.18	6.04741
250.073	6.289
252.965	6.82871
255.858	2.77255
258.751	0.171852
261.644	2.08253
264.536	1.78004
267.429	0.830414
270.322	2.32288
273.214	5.65825
276.107	9.66598
279	13.5979
281.892	19.0901
284.785	19.0979
287.678	20.502
290.571	18.1263
293.463	16.1323
296.356	13.8576
299.249	11.2021
302.141	21.7185
305.034	8.39286
307.927	7.29623
310.82	5.76863
313.712	4.83641
316.605	3.83543
319.498	1.48973
322.39	0.910339
325.283	1.17593
328.176	0.377296
331.068	0.237122
333.961	0.48587
336.854	0.564575
339.747	0.68045
342.639	0.135536
345.532	0.15554
348.425	0.099289
351.317	1.10349
354.21	1.58571
357.103	1.33862
359.995	1.21736
362.888	1.62357
365.781	2.59319
368.673	3.31596
371.566	4.18811
374.459	4.02692
377.352	4.24997
380.244	4.21803
383.137	6.7485
386.03	9.36903
388.922	15.0193
391.815	25.6184
394.708	42.8329
397.601	67.7225
400.493	94.1632
403.386	103.867
406.279	121.432
409.171	97.7327
412.064	50.1921
414.957	27.9804
417.849	18.4974
420.742	14.9957
423.635	15.8303
426.527	17.2992
429.42	23.4441
432.313	29.8345
435.206	38.1086
438.098	44.1977
440.991	45.8468
443.884	37.686
446.776	27.1527
449.669	19.9005
452.562	16.5484
455.454	13.7397
458.347	14.6753
461.24	12.9993
464.133	12.0624
467.025	8.51793
469.918	6.32075
472.811	5.08675
475.703	3.09235
478.596	0.868546
481.489	0.257019
484.382	0.294922
487.274	1.71401
490.167	0.031494
493.06	0.553131
495.952	0.453613
498.845	0.402222
501.738	0.272491
504.63	2.3248
507.523	2.0566
510.416	1.69257
513.308	0.557083
516.201	1.86217
519.094	0.949921
521.987	1.11934
524.879	1.0148
527.772	3.50767
530.665	2.5927
533.557	3.06636
536.45	3.06899
539.343	2.10982
542.236	2.94217
545.128	1.91556
548.021	3.40388
550.914	2.55206
553.806	1.94418
556.699	1.69719
559.592	2.61151
562.484	0.671204
565.377	1.70235
568.27	0.067108
571.163	0.020096
574.055	0.368088
576.948	0.588104
579.841	1.94403
582.733	1.92819
585.626	2.74281
588.519	2.02583
591.411	2.62239
594.304	4.12427
597.197	3.20857
600.09	3.804
602.982	4.18314
605.875	5.41841
608.768	6.46401
611.66	6.17676
614.553	7.11404
617.446	7.1781
620.338	8.16119
623.231	7.83635
626.124	7.35703
629.016	7.07616
631.909	6.42339
634.802	4.912
637.695	4.9231
640.587	4.27284
643.48	3.87421
646.373	2.17439
649.265	2.85512
652.158	2.65831
655.051	3.75371
657.943	3.10644
660.836	2.71294
663.729	3.21555
666.622	0.749741
669.514	1.48991
672.407	1.23509
675.3	0.048553
678.192	0.924026
681.085	1.27861
683.978	2.01364
686.87	1.43639
689.763	0.080322
692.656	1.33615
695.549	1.4774
698.441	1.64117
701.334	0.656494
704.227	0.077866
707.119	0.560287
710.012	1.01802
712.905	0.15947
715.798	0.692642
718.69	0.533493
721.583	0.16069
724.476	0.54097
727.368	1.68089
730.261	0.598892
733.154	0.180923
736.046	0.505234
738.939	0.401001
741.832	0.281693
744.725	0.285202
747.617	0.341873
750.51	0.995148
753.403	1.55394
756.295	2.81825
759.188	1.67209
762.081	2.27515
764.973	2.58272
767.866	4.16682
770.759	4.50365
773.652	6.02464
776.544	5.95845
779.437	9.19829
782.33	9.21159
785.222	11.3386
788.115	13.5639
791.008	18.0985
793.9	23.1818
796.793	28.6635
799.686	36.1618
802.578	44.7479
805.471	59.0091
808.364	79.6997
811.257	114.501
814.149	183.485
817.042	282.908
819.935	435.182
822.827	708.344
825.72	1070.21
828.613	860.134
831.505	349.247
834.398	168.052
837.291	99.8862
840.184	65.4297
843.076	36.8472
845.969	21.7895
848.862	13.0367
851.754	8.22133
854.647	5.24832
857.54	3.50468
860.433	1.65167
863.325	1.07144
866.218	0.776779
869.111	0.699066
872.003	1.4361
874.896	0.875381
877.789	1.02432
880.681	2.00732
883.574	4.19798
886.467	7.17293
889.36	10.06
892.252	11.5046
895.145	14.0715
898.038	16.2731
900.93	17.3243
903.823	17.4289
906.716	15.4203
909.608	11.9629
912.501	9.03445
915.394	5.44392
918.287	4.02844
921.179	2.15813
924.072	0.463043
926.965	0.015442
929.857	1.43671
932.75	1.59689
935.643	0.416504
938.535	0.31929
941.428	0.819229
944.321	5.01602
947.213	5.76926
950.106	10.1072
952.999	14.2851
955.892	18.6377
958.784	26.2111
961.677	32.4558
964.57	40.4601
967.462	54.1078
970.355	76.6624
973.248	113.389
976.14	177.576
979.033	284.685
981.926	438.529
984.819	676.613
987.711	952.378
990.604	1033.28
993.497	940.353
996.389	851.192
999.282	621.218
1002.17	367.817
1005.07	243.582
1007.96	162.194
1010.85	94.3654
1013.75	62.7232
1016.64	43.4998
1019.53	31.2468
1022.42	23.853
1025.32	16.7167
1028.21	13.3423
1031.1	9.46547
1033.99	9.36969
1036.89	8.80463
1039.78	6.24193
1042.67	3.83313
1045.57	2.56862
1048.46	3.02997
1051.35	3.29028
1054.24	3.21996
1057.14	2.15915
1060.03	1.98865
1062.92	0.610321
1065.81	0.523712
1068.71	0.24968
1071.6	0.309036
1074.49	1.95581
1077.38	1.17081
1080.28	0.142242
1083.17	0.12114
1086.06	0.787216
1088.96	0.1521
1091.85	0.09111
1094.74	1.95248
1097.63	1.57379
1100.53	2.1571
1103.42	3.32632
1106.31	2.43076
1109.2	2.29059
1112.1	4.07002
1114.99	3.81412
1117.88	3.17879
1120.78	3.46721
1123.67	2.82028
1126.56	3.00159
1129.45	2.54782
1132.35	2.42313
1135.24	1.07193
1138.13	1.2946
1141.02	0.693909
1143.92	1.67725
1146.81	1.41538
1149.7	1.98543
1152.6	2.18953
1155.49	0.191711
1158.38	1.1311
1161.27	1.01476
1164.17	1.28514
1167.06	0.065887
1169.95	0.050598
1172.84	0.907303
1175.74	0.876617
1178.63	0.046814
1181.52	2.90268
1184.41	1.0052
1187.31	0.90274
1190.2	1.86946
1193.09	1.73377
1195.99	0.64241
1198.88	1.5928
1201.77	2.17233
1204.66	2.61868
1207.56	3.18799
1210.45	6.04329
1213.34	3.03828
1216.23	2.06958
1219.13	1.30772
1222.02	1.6591
1224.91	2.30492
1227.81	2.27667
1230.7	1.71678
1233.59	0.945129
1236.48	0.765976
1239.38	0.951843
1242.27	0.424316
1245.16	2.34802
1248.05	1.84839
1250.95	2.71875
1253.84	1.85644
1256.73	0.571411
1259.62	1.38013
1262.52	0.784149
1265.41	1.87347
1268.3	1.69308
1271.2	1.39667
1274.09	1.18121
1276.98	1.45453
1279.87	1.88965
1282.77	1.6687
1285.66	1.57266
1288.55	1.21393
1291.44	0.817108
1294.34	1.46256
1297.23	0.983276
1300.12	0.818481
1303.02	0
