Measurement: Raman, 532 nm, unoriented, Raman Data Processed
Mineral: Metavoltine
Rruff sample: R060835
Ideal chemistry: K_2_Na_6_Fe^2+^Fe^3+^_6_O_2_(SO_4_)_12_18H_2_O
Locality: Cetine mine, Siena Province, Tuscany, Italy
Source: Bob Jenkins
Description: Yellowish-brown granular aggregate
Raman shift (cm-1)	intensity
155.271	0
158.164	3.77808
161.057	0.338867
163.949	21.7158
166.842	46.4653
169.735	147.363
172.627	76.1431
175.52	224.19
178.413	383.405
181.305	471.546
184.198	621.302
187.091	784.595
189.983	834.495
192.876	783.539
195.769	685.552
198.662	535.852
201.554	355.149
204.447	275.197
207.34	184.176
210.232	216.864
213.125	175.603
216.018	234.554
218.911	271.219
221.803	399.723
224.696	499.531
227.589	620.676
230.481	720.57
233.374	917.339
236.267	1158.1
239.159	1396.84
242.052	1714.16
244.945	2024.47
247.838	2278.51
250.73	2464.9
253.623	2757.87
256.516	3284.47
259.408	4207.4
262.301	5337.91
265.194	6469.07
268.086	7009.39
270.979	6270.65
273.872	4411.31
276.764	2856.55
279.657	1712.39
282.55	1029.46
285.442	627
288.335	346.122
291.228	232.756
294.121	166.547
297.013	70.5023
299.906	59.9548
302.799	74.3384
305.691	2.71594
308.584	5.12183
311.477	47.9989
314.37	5.96704
317.262	30.9056
320.155	22.3702
323.048	33.8765
325.94	2.08838
328.833	31.8068
331.726	17.3928
334.618	75.4341
337.511	83.3483
340.404	118.433
343.296	101.804
346.189	171.54
349.082	153.4
351.975	178.911
354.867	180.273
357.76	200.848
360.653	201.916
363.545	200.786
366.438	183.945
369.331	196.367
372.224	156.289
375.116	152.086
378.009	154.109
380.902	121.864
383.794	76.4834
386.687	97.4695
389.58	90.2952
392.472	76.0644
395.365	42.3798
398.258	33.6675
401.151	4.24963
404.043	15.6008
406.936	13.3512
409.829	12.1332
412.721	14.0101
415.614	3.15173
418.507	29.3042
421.399	54.126
424.292	115.368
427.185	235.762
430.077	432.633
432.97	639.673
435.863	875.742
438.755	1198.77
441.648	1331.69
444.541	1374.99
447.434	1305.67
450.326	1181.88
453.219	1075.02
456.112	714.054
459.004	471.621
461.897	311.124
464.79	240.859
467.683	218.387
470.575	264.414
473.468	255.555
476.361	280.747
479.253	316.561
482.146	386.727
485.039	437.433
487.931	517.035
490.824	567.356
493.717	606.519
496.61	677.692
499.502	719.045
502.395	735.172
505.288	781.421
508.18	716.787
511.073	606.195
513.966	424.788
516.858	289.329
519.751	130.103
522.644	37.126
525.536	1.0304
528.429	16.061
531.322	24.3199
534.215	29.8975
537.107	94.9346
540	178.122
542.893	302.111
545.785	419.956
548.678	474.076
551.571	518.105
554.463	482.85
557.356	445.147
560.249	362.903
563.141	299.307
566.034	248.274
568.927	242.2
571.82	125.325
574.712	68.7251
577.605	35.1057
580.498	23.8683
583.39	1.08044
586.283	17.6227
589.176	67.2087
592.068	114.906
594.961	186.555
597.854	196.488
600.747	256.331
603.639	340.741
606.532	382.773
609.425	462.917
612.317	478.93
615.21	477.535
618.103	386.824
620.995	353.027
623.888	284.818
626.781	211.522
629.673	79.5831
632.566	37.5151
635.459	11.4162
638.352	6.86383
641.244	19.6407
644.137	15.2647
647.03	52.9548
649.922	5.349
652.815	51.9566
655.708	70.4348
658.601	84.9134
661.493	86.2247
664.386	117.58
667.279	138.197
670.171	112.332
673.064	37.2593
675.957	64.0557
678.849	47.3261
681.742	86.0997
684.635	81.2908
687.528	89.6133
690.42	64.4584
693.313	54.3843
696.206	41.4392
699.098	72.0515
701.991	59.9636
704.884	49.0544
707.776	49.1017
710.669	65.6777
713.562	26.1737
716.455	50.7435
719.347	18.3793
722.24	6.07458
725.133	48.2105
728.025	41.4286
730.918	78.1018
733.811	12.0253
736.703	6.5094
739.596	76.5328
742.489	34.5279
745.381	0.939148
748.274	13.5764
751.167	3.31604
754.059	14.624
756.952	0.354553
759.845	6.48322
762.738	5.10809
765.63	18.2214
768.523	43.4141
771.416	51.769
774.308	58.1162
777.201	42.4463
780.094	63.0245
782.986	49.6224
785.879	24.1351
788.772	26.5079
791.665	36.8338
794.557	24.9764
797.45	13.2291
800.343	29.6372
803.235	19.8885
806.128	67.8825
809.021	41.1022
811.913	43.3682
814.806	39.9396
817.699	51.91
820.592	19.5861
823.484	73.9875
826.377	14.2957
829.27	31.4221
832.162	4.78839
835.055	39.4244
837.948	21.3571
840.841	28.3767
843.733	41.2123
846.626	44.0604
849.519	27.6168
852.411	44.9483
855.304	51.9909
858.197	59.3177
861.089	50.4512
863.982	24.1211
866.875	43.5754
869.767	55.4621
872.66	70.3843
875.553	56.3905
878.446	70.1451
881.338	62.1361
884.231	82.5488
887.124	83.54
890.016	87.5731
892.909	93.6221
895.802	52.551
898.694	33.038
901.587	82.4583
904.48	26.7194
907.372	12.1883
910.265	18.22
913.158	39.9517
916.051	2.62604
918.943	26.2219
921.836	6.57697
924.729	19.3321
927.621	11.0389
930.514	5.3913
933.407	7.04999
936.299	18.4473
939.192	34.5389
942.085	36.9547
944.977	22.3498
947.87	8.84601
950.763	28.4959
953.656	51.9639
956.548	80.877
959.441	115.744
962.334	160.957
965.226	222.094
968.119	368.964
971.012	463.501
973.904	689.074
976.797	753.247
979.69	837.604
982.583	850.746
985.475	874.936
988.368	878.904
991.261	904.821
994.153	873.462
997.046	961.283
999.939	1170.2
1002.83	1598.73
1005.72	2235.95
1008.62	2897.22
1011.51	2626.08
1014.4	1678.36
1017.29	912.333
1020.19	489.633
1023.08	293.216
1025.97	155.271
1028.87	108.442
1031.76	89.0596
1034.65	180.713
1037.54	223.407
1040.44	450.495
1043.33	616.412
1046.22	898.222
1049.12	1352.22
1052.01	1676.04
1054.9	1851
1057.79	1666.05
1060.68	1314.74
1063.58	852.751
1066.47	556.865
1069.36	332.418
1072.26	179.213
1075.15	69.24
1078.04	54.2318
1080.93	23.928
1083.83	21.8158
1086.72	46.2621
1089.61	40.113
1092.51	27.5704
1095.4	3.29797
1098.29	21.8993
1101.18	97.6624
1104.08	234.7
1106.97	396.382
1109.86	595.562
1112.75	818.32
1115.65	914.043
1118.54	922.393
1121.43	667.025
1124.33	509.228
1127.22	427.376
1130.11	405.998
1133	493.373
1135.9	512.685
1138.79	590.202
1141.68	694.145
1144.57	627.606
1147.47	418.732
1150.36	315.03
1153.25	216.194
1156.14	129.977
1159.04	160.281
1161.93	194.579
1164.82	337.847
1167.71	608.738
1170.61	861.222
1173.5	1192.26
1176.39	1491.52
1179.29	1495.19
1182.18	1267.85
1185.07	792.585
1187.96	477.695
1190.86	256.795
1193.75	92.9435
1196.64	27.6266
1199.54	42.1676
1202.43	27.4043
1205.32	81.8495
1208.21	192.911
1211.11	269.069
1214	369.448
1216.89	458.807
1219.78	485.627
1222.68	483.381
1225.57	465.346
1228.46	413.718
1231.36	473.297
1234.25	593.509
1237.14	815.038
1240.03	979.44
1242.92	1152.74
1245.82	1210.81
1248.71	1053.23
1251.6	702.739
1254.5	468.195
1257.39	268.663
1260.28	144.629
1263.17	69.3507
1266.07	7.41345
1268.96	28.5133
1271.85	36.8394
1274.74	0.668152
1277.64	36.3239
1280.53	47.5722
1283.42	24.3159
1286.32	86.0661
1289.21	58.6547
1292.1	80.8038
1294.99	31.9101
1297.89	13.2367
1300.78	0
