Measurement: Raman, 780 nm, unoriented, Raman Data Processed
Mineral: Metatyuyamunite
Rruff sample: R120020
Ideal chemistry: Ca(UO_2_)_2_(VO_4_)_2_3H_2_O
Locality: Monument #2 mine, Apache Co., Arizona, USA
Source: Dr. JÃ¼rgen Wachsmuth
Description: Clusters of platy canary-yellow crystals  RAMAN MATCHES VANURALITE, TYUYAMUNITE, FRANCEVILLITE, CARNOTITE, STRELKINITE
Raman shift (cm-1)	intensity
106.067	0
109.442	15.3712
112.817	55.4379
116.192	59.8317
119.566	37.6942
122.941	28.4038
126.316	23.8326
129.691	23.0319
133.066	7.01813
136.44	7.31696
139.815	2.07275
143.19	5.52887
146.565	0.734985
149.94	1.19824
153.315	2.8299
156.689	7.37933
160.064	5.31305
163.439	8.12408
166.814	12.9627
170.189	18.9436
173.563	24.6688
176.938	27.2358
180.313	25.2533
183.688	24.3419
187.063	23.3105
190.437	20.3782
193.812	24.2057
197.187	29.4949
200.562	36.6426
203.937	40.0007
207.311	46.9288
210.686	43.831
214.061	36.9841
217.436	31.2856
220.811	26.0679
224.186	22.0739
227.56	29.4962
230.935	33.2944
234.31	33.6543
237.685	44.8321
241.06	42.3484
244.435	46.5651
247.809	50.9828
251.184	51.7709
254.559	55.2214
257.934	53.7809
261.309	45.5766
264.683	29.1959
268.058	18.362
271.433	6.36444
274.808	0.835327
278.183	2.62744
281.558	5.30731
284.932	7.59613
288.307	5.78613
291.682	3.70807
295.057	1.77515
298.432	19.5842
301.806	38.0309
305.181	78.7524
308.556	109.455
311.931	122.289
315.306	124.368
318.68	108.04
322.055	89.5619
325.43	66.8507
328.805	52.2225
332.18	47.9688
335.555	57.0854
338.929	74.7983
342.304	88.204
345.679	114.206
349.054	152.521
352.429	196.253
355.803	250.602
359.178	297.505
362.553	332.395
365.928	354.454
369.303	372.183
372.678	371.64
376.052	352.211
379.427	316.47
382.802	269.135
386.177	214.129
389.552	167.539
392.926	141.904
396.301	130.435
399.676	135.751
403.051	152.432
406.426	166.74
409.8	167.968
413.175	152.742
416.55	125.004
419.925	83.8769
423.3	49.8605
426.675	18.3207
430.049	5.32312
433.424	12.0622
436.799	13.5436
440.174	7.35413
443.549	9.80512
446.923	23.5578
450.298	41.0575
453.673	63.0268
457.048	80.1865
460.423	98.7489
463.798	110.564
467.172	113.406
470.547	109.507
473.922	101.07
477.297	89.2805
480.672	81.5571
484.046	69.55
487.421	60.5123
490.796	46.1215
494.171	36.3828
497.546	23.6893
500.921	18.1621
504.295	20.7021
507.67	27.3944
511.045	37.0068
514.42	53.4189
517.795	72.9024
521.169	92.8124
524.544	113.861
527.919	131.674
531.294	141.158
534.669	142.019
538.044	131.908
541.418	122.704
544.793	101.707
548.168	94.4979
551.543	84.4215
554.918	81.7623
558.293	74.8578
561.667	70.854
565.042	65.9862
568.417	57.9622
571.792	51.3996
575.167	43.195
578.541	28.5018
581.916	21.067
585.291	14.3462
588.666	5.23746
592.041	0.209381
595.415	1.62808
598.79	4.94669
602.165	2.46698
605.54	1.49472
608.915	3.86746
612.29	0.467987
615.664	3.28064
619.039	6.47836
622.414	12.0409
625.789	14.4927
629.164	15.8026
632.538	22.1013
635.913	22.0724
639.288	27.532
642.663	30.468
646.038	34.1213
649.413	35.0751
652.787	32.8765
656.162	27.9004
659.537	19.8413
662.912	9.09259
666.287	5.34332
669.661	0.367401
673.036	3.83518
676.411	5.52942
679.786	2.41458
683.161	2.36276
686.535	5.05337
689.91	14.7855
693.285	20.4238
696.66	36.2949
700.035	56.7327
703.41	87.5872
706.784	123.074
710.159	174.115
713.534	238.906
716.909	320.423
720.284	424.115
723.659	528.108
727.033	628.637
730.408	720.37
733.783	784.827
737.158	841.15
740.533	870.428
743.907	866.41
747.282	821.297
750.657	731.272
754.032	625.337
757.407	517.66
760.782	426.976
764.156	347.213
767.531	277.079
770.906	210.068
774.281	156.773
777.656	118.521
781.03	78.704
784.405	53.2496
787.78	32.9355
791.155	20.2343
794.53	7.10214
797.904	0.762482
801.279	3.66229
804.654	6.89825
808.029	2.83283
811.404	13.7476
814.779	23.7062
818.153	42.5966
821.528	62.998
824.903	75.3282
828.278	82.6091
831.653	80.3427
835.028	71.3219
838.402	59.9529
841.777	45.9051
845.152	36.8855
848.527	29.6848
851.902	23.4324
855.276	13.7319
858.651	8.26602
862.026	7.89639
865.401	5.88446
868.776	0.501404
872.15	0.597778
875.525	1.99615
878.9	1.02774
882.275	0.420898
885.65	1.16492
889.024	1.56107
892.399	3.72418
895.774	3.13849
899.149	0.016754
902.524	2.49307
905.899	1.80484
909.273	2.3371
912.648	5.22092
916.023	8.75235
919.398	15.8743
922.773	15.909
926.148	21.2835
929.522	24.3996
932.897	33.6584
936.272	49.3321
939.647	64.4881
943.022	88.9812
946.396	123.525
949.771	147.482
953.146	156.075
956.521	164.142
959.896	170.784
963.27	142.806
966.645	118.515
970.02	96.6374
973.395	93.371
976.77	77.926
980.145	68.7794
983.519	66.6592
986.894	55.985
990.269	54.622
993.644	51.232
997.019	48.4746
1000.39	47.0883
1003.77	51.0263
1007.14	45.3668
1010.52	42.6573
1013.89	31.3586
1017.27	26.4446
1020.64	18.7675
1024.02	9.8669
1027.39	5.89504
1030.77	3.26291
1034.14	3.13512
1037.52	1.94223
1040.89	2.36331
1044.27	0.94577
1047.64	1.3963
1051.02	1.31276
1054.39	3.1573
1057.77	0.099533
1061.14	2.33803
1064.52	0.393158
1067.89	0.260803
1071.27	3.73067
1074.64	3.10828
1078.01	1.98498
1081.39	4.22569
1084.76	5.53731
1088.14	8.08427
1091.51	2.94765
1094.89	9.40994
1098.26	2.48062
1101.64	5.92236
1105.01	4.17027
1108.39	6.65932
1111.76	4.30135
1115.14	0.80806
1118.51	5.48872
1121.89	6.96417
1125.26	0.695419
1128.64	2.8457
1132.01	2.50096
1135.39	0.572769
1138.76	3.58731
1142.14	3.02931
1145.51	2.28113
1148.88	3.57834
1152.26	4.04707
1155.63	3.02293
1159.01	5.34055
1162.38	3.7402
1165.76	4.89169
1169.13	4.16362
1172.51	4.97446
1175.88	4.05324
1179.26	0.081146
1182.63	3.00005
1186.01	5.07648
1189.38	2.76466
1192.76	3.47842
1196.13	0.546417
1199.51	4.23173
1202.88	0.757065
1206.26	2.0459
1209.63	2.38998
1213.01	2.08406
1216.38	4.06665
1219.76	1.99497
1223.13	0.973083
1226.51	7.31441
1229.88	0.932968
1233.26	0.904343
1236.63	1.92439
1240.01	2.46068
1243.38	1.41769
1246.76	2.22154
1250.13	2.62225
1253.51	1.51102
1256.88	3.74132
1260.25	4.65419
1263.63	2.99004
1267	4.70694
1270.38	0.284134
1273.75	3.40315
1277.13	2.53272
1280.5	2.24304
1283.88	1.57916
