Measurement: Raman, 780 nm, unoriented, Raman Data Processed
Mineral: Metatorbernite
Rruff sample: R070683
Ideal chemistry: Cu(UO_2_)_2_(PO_4_)_2_8H_2_O
Locality: Chalk Mountain mine, Spruce Pine, Spruce Pine District, Mitchell County, North Carolina, USA
Source: Michael Scott
Description: Emerald-green tabular crystals associated with quartz and muscovite
Raman shift (cm-1)	intensity
118.12	0
121.495	1.24882
124.87	4.23087
128.244	2.98756
131.619	0.709384
134.994	0.132084
138.369	0.762601
141.744	1.60554
145.119	1.15707
148.493	0.60241
151.868	0.273406
155.243	0.658688
158.618	0.062633
161.993	0.690372
165.367	0.842064
168.742	0.773045
172.117	1.06137
175.492	2.87479
178.867	5.58474
182.242	8.91911
185.616	16.2221
188.991	25.8346
192.366	33.444
195.741	30.8099
199.115	13.7858
202.49	7.40585
205.865	6.57466
209.24	7.83943
212.615	10.108
215.99	13.8104
219.364	18.2172
222.739	19.0228
226.114	14.9849
229.489	9.01763
232.864	5.34967
236.238	3.24221
239.613	2.44145
242.988	2.62387
246.363	3.62854
249.738	5.03515
253.113	3.73047
256.487	2.36322
259.862	0.633181
263.237	0.696925
266.612	0.233794
269.987	0.69735
273.361	1.68721
276.736	2.50163
280.111	4.06501
283.486	5.66294
286.861	6.05427
290.236	5.30222
293.61	4.67277
296.985	3.63566
300.36	2.79865
303.735	2.48828
307.11	2.248
310.485	1.80656
313.859	1.23546
317.234	0.686539
320.609	0.360263
323.984	0.25093
327.359	0.137816
330.733	0.251903
334.108	0.235418
337.483	0.392471
340.858	0.25235
344.233	0.161564
347.608	0.034095
350.982	0.19994
354.357	0.025749
357.732	0.204888
361.107	0.435828
364.482	0.722805
367.856	0.766535
371.231	1.25317
374.606	0.666173
377.981	0.875024
381.356	1.17037
384.731	1.50411
388.105	2.43546
391.48	4.85513
394.855	9.87836
398.23	19.2676
401.605	24.8291
404.979	30.4977
408.354	30.2241
411.729	13.0468
415.104	6.12708
418.479	3.79987
421.853	3.15998
425.228	3.21718
428.603	4.36572
431.978	7.11262
435.353	10.0012
438.728	14.1036
442.102	13.6655
445.477	9.98924
448.852	6.45664
452.227	4.29443
455.602	3.59308
458.976	4.3129
462.351	3.39601
465.726	3.28221
469.101	2.1
472.476	1.59656
475.851	0.448319
479.225	0.408382
482.6	0.082562
485.975	0.009066
489.35	0.126512
492.725	0.319291
496.099	0.093083
499.474	0.221198
502.849	1.1741
506.224	0.339313
509.599	0.650917
512.973	0.173077
516.348	0.293046
519.723	0.604093
523.098	0.24671
526.473	0.384239
529.848	0.440243
533.222	0.854866
536.597	0.404814
539.972	0.89076
543.347	0.684947
546.722	0.430385
550.096	0.51696
553.471	0.924919
556.846	1.06924
560.221	0.611619
563.596	0.506186
566.971	0.310334
570.345	0.009852
573.72	0.092279
577.095	0.025806
580.47	0.060505
583.845	0.542246
587.22	0.501654
590.594	0.306611
593.969	0.793095
597.344	0.659545
600.719	0.85642
604.094	1.23711
607.468	1.55599
610.843	1.52328
614.218	2.28934
617.593	1.89783
620.968	2.51298
624.342	2.25094
627.717	2.46888
631.092	1.85596
634.467	1.93153
637.842	1.62061
641.217	1.19147
644.591	0.84327
647.966	1.12581
651.341	1.08523
654.716	1.39707
658.091	1.24351
661.466	1.36658
664.84	0.858442
668.215	1.05622
671.59	0.848782
674.965	0.54614
678.34	0.551833
681.714	0.60117
685.089	0.531491
688.464	0.475763
691.839	0.183884
695.214	0.562866
698.588	0.435653
701.963	0.1135
705.338	0.550138
708.713	0.035073
712.088	0.31684
715.462	0.087977
718.837	0.283965
722.212	0.138096
725.587	0.233204
728.962	0.229784
732.337	0.007185
735.711	0.036008
739.086	0.047532
742.461	0.144387
745.836	0.014983
749.211	0.409116
752.586	0.149645
755.96	0.24893
759.335	0.186456
762.71	0.555863
766.085	0.381271
769.46	0.153437
772.834	0.762105
776.209	1.41971
779.584	1.18079
782.959	1.43357
786.334	1.83584
789.708	2.55533
793.083	3.48344
796.458	4.58126
799.833	6.06886
803.208	7.54124
806.583	10.2954
809.957	15.232
813.332	23.4527
816.707	40.4642
820.082	78.3991
823.457	165.502
826.832	263.147
830.206	107.94
833.581	39.8454
836.956	21.5177
840.331	13.2973
843.706	6.83919
847.08	3.26858
850.455	2.00065
853.83	1.3319
857.205	0.81749
860.58	0.276293
863.955	0.28476
867.329	0.114651
870.704	0.01385
874.079	0.054608
877.454	0.352925
880.829	0.282351
884.203	1.06777
887.578	1.516
890.953	1.70001
894.328	2.91586
897.703	4.05155
901.077	4.34685
904.452	4.19039
907.827	2.92176
911.202	1.73067
914.577	1.02382
917.952	0.791756
921.326	0.137243
924.701	0.089656
928.076	0.237432
931.451	0.124762
934.826	0.463098
938.2	0.010329
941.575	0.563781
944.95	0.466256
948.325	0.750258
951.7	1.69907
955.074	2.42913
958.449	3.20403
961.824	3.99196
965.199	5.11273
968.574	7.73049
971.949	11.4048
975.323	21.1101
978.698	38.2433
982.073	71.2071
985.448	131.23
988.823	192.403
992.197	189.172
995.572	169.901
998.947	126.13
1002.32	69.8682
1005.7	50.95
1009.07	23.6596
1012.45	11.9186
1015.82	6.81984
1019.2	4.59291
1022.57	3.6234
1025.95	2.50797
1029.32	1.8447
1032.69	0.7366
1036.07	0.558432
1039.44	0.269861
1042.82	0.70496
1046.19	0.840401
1049.57	1.10998
1052.94	0.690993
1056.32	0.400925
1059.69	0.216652
1063.07	0.238769
1066.44	0.244503
1069.82	0.029395
1073.19	0.236126
1076.57	0.314929
1079.94	0.168281
1083.32	0.508998
1086.69	0.169408
1090.07	0.356567
1093.44	0.559452
1096.82	1.06587
1100.19	0.715032
1103.57	0.425268
1106.94	0.774042
1110.32	0.999318
1113.69	0.782572
1117.07	0.324526
1120.44	0.688378
1123.82	0.521199
1127.19	0.63154
1130.57	0.102228
1133.94	0.364978
1137.32	0.274278
1140.69	0.086934
1144.06	0.574168
1147.44	0.515978
1150.81	0.463524
1154.19	0.311565
1157.56	0.339752
1160.94	0.827029
1164.31	0.311352
1167.69	0.282506
1171.06	0.514295
1174.44	0.027159
1177.81	0.370549
1181.19	0.032282
1184.56	0.374119
1187.94	0.301649
1191.31	0.438938
1194.69	0.455922
1198.06	0.447781
1201.44	0.736696
1204.81	0.164831
1208.19	0.311956
1211.56	0.554712
1214.93	0.453602
1218.31	0.079842
1221.68	0.576155
1225.06	0.364946
1228.43	0.323545
1231.81	0.626877
1235.18	0.088254
1238.56	0.375077
1241.93	0.150142
1245.31	1.04935
1248.68	0.775047
1252.06	0.337425
1255.43	0.693419
1258.81	0.411262
1262.18	0.387568
1265.56	0.156156
1268.93	0.000237
1272.31	0.408394
1275.68	0.007306
1279.06	0.002848
1282.43	0.021788
