Measurement: Raman, 785 nm, unoriented, Raman Data Processed
Mineral: Metatorbernite
Rruff sample: R070509
Ideal chemistry: Cu(UO_2_)_2_(PO_4_)_2_8H_2_O
Locality: Musonoi mine, Kolwezi, Katanga, Congo
Source: James Shigley
Description: Dark green platy crystals
Raman shift (cm-1)	intensity
141.649	0
144.542	8.70215
147.434	70.0864
150.327	136.114
153.22	129.437
156.112	102.502
159.005	98.1288
161.898	102.176
164.791	161.498
167.683	285.551
170.576	479.451
173.469	966.045
176.361	1734.92
179.254	2650.51
182.147	3729.75
185.039	4856.98
187.932	6507.93
190.825	8752.99
193.718	10412
196.61	8153.81
199.503	3768.17
202.396	1914.88
205.288	1150.38
208.181	871.227
211.074	786.528
213.966	743.887
216.859	792.586
219.752	876.878
222.644	846.931
225.537	673.953
228.43	405.045
231.322	188.638
234.215	46.518
237.108	0.550964
240.001	4.69769
242.893	0.484009
245.786	75.4206
248.679	100.925
251.571	133.26
254.464	103.388
257.357	7.21942
260.25	40.0814
263.142	9.49695
266.035	47.9822
268.928	129.219
271.82	271.412
274.713	427.02
277.606	590.605
280.498	722.358
283.391	805.337
286.284	829.129
289.176	804.236
292.069	672.976
294.962	554.38
297.855	488.724
300.747	458.62
303.64	449.225
306.533	384.224
309.425	314.603
312.318	222.811
315.211	133.922
318.103	79.5981
320.996	23.0614
323.889	7.18286
326.782	0.263
329.674	9.06201
332.567	41.5541
335.46	38.7967
338.352	81.0517
341.245	116.104
344.138	127.592
347.031	188.523
349.923	75.0966
352.816	28.917
355.709	0.039368
358.601	20.6278
361.494	15.4831
364.387	14.3658
367.279	19.7846
370.172	22.0915
373.065	35.6141
375.957	48.3387
378.85	59.9618
381.743	90.2569
384.635	166.035
387.528	248.09
390.421	407.83
393.314	643.122
396.206	1017.61
399.099	1433.56
401.992	1549.52
404.884	1815.82
407.777	1824.94
410.67	1064.18
413.562	567.58
416.455	364.344
419.348	286.065
422.241	257.113
425.133	316.733
428.026	402.372
430.919	492.352
433.811	662.515
436.704	833.949
439.597	914.087
442.49	839.238
445.382	630.416
448.275	437.708
451.168	317.513
454.06	283.72
456.953	272.591
459.846	250.052
462.738	277.622
465.631	209.582
468.524	145.819
471.416	109.158
474.309	48.4197
477.202	29.627
480.095	15.246
482.987	5.42572
485.88	0.539276
488.773	6.98178
491.665	3.85669
494.558	4.18661
497.451	0.63382
500.344	3.00845
503.236	11.2072
506.129	31.0486
509.022	37.1934
511.914	33.6598
514.807	25.7793
517.7	26.8988
520.592	35.1093
523.485	27.7389
526.378	64.6696
529.27	80.8792
532.163	92.1685
535.056	98.5076
537.948	128.015
540.841	144.135
543.734	132.78
546.627	105.05
549.519	106.633
552.412	131.915
555.305	157.83
558.197	126.612
561.09	106.587
563.983	52.2866
566.875	13.9304
569.768	5.41596
572.661	3.9133
575.554	5.5679
578.446	0.212555
581.339	4.21558
584.232	17.9518
587.124	20.1493
590.017	34.3539
592.91	50.9031
595.803	48.172
598.695	61.0703
601.588	77.26
604.481	82.5326
607.373	112.141
610.266	124.447
613.159	132.924
616.051	152.609
618.944	150.436
621.837	162.013
624.73	146.102
627.622	167.302
630.515	146.507
633.408	130.301
636.3	116.807
639.193	108.225
642.086	86.4791
644.978	91.1773
647.871	77.8577
650.764	93.7719
653.657	87.156
656.549	86.4573
659.442	59.9348
662.335	54.3473
665.227	67.8846
668.12	56.2522
671.013	45.8627
673.905	56.835
676.798	43.2808
679.691	41.3928
682.583	34.3425
685.476	29.3704
688.369	25.8689
691.261	3.22369
694.154	7.34051
697.047	10.5167
699.94	1.11295
702.832	7.2832
705.725	0.615234
708.618	7.18887
711.51	5.45868
714.403	4.89987
717.296	7.08286
720.188	6.23413
723.081	8.09454
725.974	3.11182
728.867	5.14121
731.759	0.144867
734.652	10.4772
737.545	12.2259
740.437	0.82663
743.33	8.95236
746.223	6.22006
749.115	6.61926
752.008	8.10477
754.901	9.18683
757.794	17.497
760.686	11.2835
763.579	42.9378
766.472	51.9471
769.364	44.1336
772.257	45.2353
775.15	69.8153
778.043	89.3386
780.935	105.691
783.828	126.947
786.721	180.91
789.613	252.948
792.506	291.336
795.399	413.474
798.291	557.269
801.184	733.222
804.077	1017.34
806.97	1469.93
809.862	2210.07
812.755	3802.97
815.648	6719.77
818.54	10047
821.433	14730.6
824.326	22859.8
827.218	27046.2
830.111	14209.7
833.004	5271.49
835.896	2457.12
838.789	1347.58
841.682	817.569
844.575	542.088
847.467	371.535
850.36	240.636
853.253	148.311
856.145	115.494
859.038	65.6859
861.931	28.5873
864.823	3.0593
867.716	10.404
870.609	21.2812
873.501	0.468384
876.394	15.9742
879.287	43.7975
882.18	85.0803
885.072	139.066
887.965	198.944
890.858	268.64
893.75	339.578
896.643	431.582
899.536	464.563
902.428	459.959
905.321	413.595
908.214	345.799
911.107	245.05
913.999	162.879
916.892	89.5025
919.785	79.553
922.677	45.0656
925.57	3.81769
928.463	5.03803
931.356	13.667
934.248	24.1749
937.141	0.42865
940.034	1.90826
942.926	23.3726
945.819	38.2785
948.712	83.784
951.604	145.742
954.497	222.551
957.39	255.521
960.283	340.771
963.175	410.286
966.068	481.589
968.961	671.115
971.853	988.396
974.746	1610.56
977.639	2711.52
980.531	4413.27
983.424	6754.85
986.317	9915.23
989.21	12057.4
992.102	11529
994.995	10452.6
997.888	8692.34
1000.78	5351.71
1003.67	3571.9
1006.57	2547.55
1009.46	1394.2
1012.35	768.219
1015.24	513.214
1018.14	384.086
1021.03	297.545
1023.92	225.517
1026.82	172.885
1029.71	137.616
1032.6	101.295
1035.49	80.1711
1038.38	83.7302
1041.28	63.6778
1044.17	43.5114
1047.06	40.9465
1049.96	27.1064
1052.85	40.1402
1055.74	20.5522
1058.63	16.2531
1061.53	2.51514
1064.42	10.8103
1067.31	8.80926
1070.2	6.19363
1073.1	4.99383
1075.99	2.92395
1078.88	6.38794
1081.78	1.11935
1084.67	7.40265
1087.56	10.054
1090.45	12.7866
1093.35	23.3422
1096.24	40.0432
1099.13	50.3723
1102.03	50.5662
1104.92	25.5909
1107.81	40.7899
1110.7	55.0698
1113.6	53.9714
1116.49	48.2107
1119.38	46.0898
1122.27	20.9231
1125.17	35.7743
1128.06	26.6129
1130.95	29.8168
1133.84	24.6405
1136.74	2.71185
1139.63	2.82315
1142.52	7.56644
1145.41	21.397
1148.31	0.936035
1151.2	7.53482
1154.09	10.909
1156.99	5.60442
1159.88	16.2065
1162.77	8.02783
1165.66	0.684799
1168.56	22.0278
1171.45	22.4877
1174.34	7.59531
1177.23	9.98708
1180.13	3.66219
1183.02	5.45221
1185.91	26.0871
1188.81	14.7633
1191.7	11.4572
1194.59	3.6176
1197.48	8.52707
1200.38	8.06297
1203.27	7.50433
1206.16	18.5419
1209.06	1.87338
1211.95	14.4443
1214.84	23.4017
1217.73	13.4438
1220.62	7.5251
1223.52	20.9954
1226.41	2.26495
1229.3	15.1373
1232.2	2.65385
1235.09	12.939
1237.98	25.79
1240.87	15.4291
1243.77	14.335
1246.66	20.2259
1249.55	0.48024
1252.44	9.31566
1255.34	20.2094
1258.23	15.7004
