Measurement: Raman, 780 nm, unoriented, Raman Data Processed
Mineral: Metarossite
Rruff sample: R060598
Ideal chemistry: CaV^5+^_2_O_6_2H_2_O
Locality: Arrowhead Claim, Slick Rock, San Miguel County, Colorado, USA
Source: Michael Scott
Description: Light yellow massive
Measured chemistry: (Ca_0.96_Al_0.02_[box]_0.02_)_Σ=1_V^5+^_2.00_O_6_·2H_2_O
Raman shift (cm-1)	intensity
91.5332	0
94.908	388.667
98.2828	699.228
101.658	450.382
105.032	82.2627
108.407	23.7162
111.782	40.0518
115.157	252.019
118.532	574.268
121.907	894.966
125.281	933.455
128.656	659.225
132.031	771.631
135.406	1133.32
138.781	1336.65
142.155	723.149
145.53	284.514
148.905	173.496
152.28	256.898
155.655	458.011
159.03	704.756
162.404	383.137
165.779	85.4447
169.154	164.54
172.529	7.06067
175.904	349.589
179.278	751.696
182.653	852.136
186.028	792.635
189.403	1156.35
192.778	1836.53
196.153	2384.6
199.527	2188.22
202.902	1900
206.277	2015.45
209.652	2429.38
213.027	2001.27
216.401	1180.8
219.776	640.93
223.151	529.718
226.526	641.896
229.901	850.299
233.275	1067.75
236.65	1279.07
240.025	1617.48
243.4	1944.81
246.775	1959.79
250.15	1889.55
253.524	2180.16
256.899	2636.08
260.274	3009.21
263.649	3351.76
267.024	3526.11
270.399	3967.65
273.773	4471.14
277.148	4357.85
280.523	4284.44
283.898	3337.21
287.273	1770.53
290.647	836.446
294.022	424.831
297.397	241.364
300.772	167.713
304.147	124.6
307.522	95.7473
310.896	67.6986
314.271	25.9971
317.646	17.7596
321.021	52.9104
324.396	63.2753
327.77	63.5389
331.145	45.7307
334.52	3.03961
337.895	58.2884
341.27	136.473
344.644	226.633
348.019	327.93
351.394	428.777
354.769	506.002
358.144	519.431
361.519	462.031
364.893	374.001
368.268	298.247
371.643	242.491
375.018	205.783
378.393	167.869
381.767	145.906
385.142	143.645
388.517	121.47
391.892	61.8017
395.267	40.316
398.642	73.9771
402.016	173.087
405.391	317.473
408.766	490.384
412.141	677.841
415.516	928.044
418.89	1220.18
422.265	1436.21
425.64	1206.62
429.015	715.523
432.39	375.423
435.765	226.616
439.139	167.063
442.514	157.811
445.889	163.129
449.264	185.311
452.639	196.652
456.014	202.953
459.388	201.137
462.763	219.234
466.138	265.42
469.513	325.391
472.887	365.633
476.262	337.274
479.637	218.065
483.012	100.508
486.387	33.6464
489.762	7.63095
493.136	18.6566
496.511	17.4004
499.886	13.3012
503.261	3.21576
506.636	23.5524
510.01	47.5987
513.385	82.8861
516.76	136.077
520.135	200.473
523.51	281.705
526.885	367.617
530.259	467.428
533.634	539.106
537.009	534.117
540.384	440.376
543.759	338.928
547.134	260.818
550.508	218.426
553.883	184.995
557.258	156.36
560.633	127.35
564.008	108.013
567.382	86.1603
570.757	67.2983
574.132	50.795
577.507	41.9081
580.882	31.8559
584.256	19.4714
587.631	21.7341
591.006	13.0553
594.381	8.521
597.756	5.20779
601.131	1.35916
604.505	2.75659
607.88	0.624664
611.255	2.07773
614.63	1.95032
618.005	1.15814
621.38	3.47083
624.754	7.0762
628.129	3.56631
631.504	3.32809
634.879	1.58282
638.254	3.38571
641.628	0.972473
645.003	0.825989
648.378	3.54202
651.753	6.71591
655.128	5.81561
658.503	17.5233
661.877	22.3824
665.252	33.9423
668.627	55.4098
672.002	81.6803
675.377	124.15
678.751	181.984
682.126	272.919
685.501	408.045
688.876	569.826
692.251	778.607
695.625	1001.49
699	1212.88
702.375	1312.45
705.75	1226.89
709.125	997.644
712.5	771.848
715.874	606.324
719.249	512.904
722.624	459.845
725.999	441.447
729.374	444.353
732.749	475.158
736.123	518.503
739.498	565.674
742.873	616.124
746.248	660.851
749.623	685.68
752.997	678.111
756.372	615.064
759.747	499.037
763.122	372.882
766.497	258.104
769.871	168.701
773.246	108.876
776.621	70.0688
779.996	45.3738
783.371	23.8374
786.745	18.8951
790.12	6.95795
793.495	2.04285
796.87	2.7439
800.245	3.62235
803.62	8.24893
806.994	7.35507
810.369	7.98151
813.744	7.17383
817.119	3.79608
820.494	2.55258
823.869	1.61813
827.243	0.494232
830.618	5.22824
833.993	8.68198
837.368	16.4727
840.743	25.6821
844.117	49.1255
847.492	75.7768
850.867	137.276
854.242	253.884
857.617	508.853
860.991	790.051
864.366	1175.04
867.741	1859.31
871.116	2635.61
874.491	2057.84
877.866	1433.81
881.24	1428.62
884.615	1702.17
887.99	1645.03
891.365	982.818
894.74	480.188
898.115	250.441
901.489	142.329
904.864	85.4723
908.239	53.1452
911.614	41.8089
914.989	57.1583
918.363	116.856
921.738	247.766
925.113	367.215
928.488	583.615
931.863	1034.84
935.237	1232.56
938.612	951.73
941.987	1407.64
945.362	1925.03
948.737	2911.19
952.112	4784.06
955.486	4800.85
958.861	1614.62
962.236	554.085
965.611	253.16
968.986	130.878
972.361	71.9684
975.735	34.8931
979.11	12.4451
982.485	3.89589
985.86	1.70931
989.235	2.91736
992.609	3.34375
995.984	4.95181
999.359	5.17517
1002.73	0.46579
1006.11	2.78542
1009.48	0.214844
1012.86	3.53316
1016.23	4.14134
1019.61	8.32272
1022.98	7.86964
1026.36	10.2644
1029.73	12.485
1033.11	14.6503
1036.48	16.4438
1039.86	19.3995
1043.23	19.1695
1046.61	16.1176
1049.98	20.5453
1053.36	18.3047
1056.73	18.0223
1060.11	15.2159
1063.48	12.2676
1066.86	15.1254
1070.23	11.1628
1073.61	12.2142
1076.98	9.21939
1080.36	8.89163
1083.73	10.9371
1087.1	8.14143
1090.48	7.62834
1093.85	5.25256
1097.23	7.40837
1100.6	7.92784
1103.98	6.39015
1107.35	5.22996
1110.73	4.46878
1114.1	3.93057
1117.48	1.23624
1120.85	1.91746
1124.23	4.50938
1127.6	2.30006
1130.98	1.91835
1134.35	1.90759
1137.73	2.31668
1141.1	1.99948
1144.48	1.89163
1147.85	2.92299
1151.23	0.653519
1154.6	3.15935
1157.97	1.60626
1161.35	4.7816
1164.72	2.0217
1168.1	3.03061
1171.47	0.968903
1174.85	3.04465
1178.22	0.683197
1181.6	0.495422
1184.97	3.70761
1188.35	0.807556
1191.72	5.16136
1195.1	2.3569
1198.47	0.571533
1201.85	2.18764
1205.22	1.14841
1208.6	3.9933
1211.97	1.56093
1215.35	1.58391
1218.72	0.289383
1222.1	0.086655
1225.47	1.98842
1228.85	1.44399
1232.22	2.19624
1235.6	2.27045
1238.97	0.41713
1242.35	1.16888
1245.72	1.91869
1249.1	0.23613
1252.47	2.58163
1255.85	3.87074
1259.22	4.26448
1262.6	3.79263
1265.97	0.422516
1269.34	3.53943
1272.72	1.21782
1276.09	2.16017
1279.47	2.50693
1282.84	0.368332
