Measurement: Raman, 785 nm, unoriented, Raman Data Processed
Mineral: Metaheinrichite
Rruff sample: R060778
Ideal chemistry: Ba(U^6+^O_2_)_2_(As^5+^O_4_)_2_8H_2_O
Locality: Schmiedestoll, Wittichen, Schwarzwald, Germany
Source: Michael Scott
Description: Pale green thin tabular crystals with rectangular outline
Raman shift (cm-1)	intensity
159.133	0
162.025	51.28
164.918	333.187
167.811	720.478
170.704	913.953
173.596	1038.21
176.489	1110.86
179.382	1373.29
182.274	1759.24
185.167	2367.56
188.06	2892.32
190.952	3254.27
193.845	3086.26
196.738	2405.7
199.631	1698.36
202.523	1170.01
205.416	853.33
208.309	650.294
211.201	546.73
214.094	505.88
216.987	472.741
219.88	435.906
222.772	341.949
225.665	255.02
228.558	161.708
231.45	116.697
234.343	472.596
237.236	155.958
240.128	240.362
243.021	292.602
245.914	249.4
248.807	245.937
251.699	256.626
254.592	212.317
257.485	185.392
260.377	188.564
263.27	209.896
266.163	127.572
269.055	184.901
271.948	194.513
274.841	227.256
277.733	229.221
280.626	210.57
283.519	174.11
286.412	74.868
289.304	48.905
292.197	55.809
295.09	95.161
297.982	77.662
300.875	4.608
303.768	147.234
306.66	354.914
309.553	797.009
312.446	1446.5
315.339	2560.1
318.231	4160.38
321.124	4929.77
324.017	3714.52
326.909	1909.99
329.802	1012.3
332.695	551.227
335.587	357.013
338.48	168.542
341.373	17.564
344.266	33.637
347.158	3.134
350.051	19.055
352.944	29.472
355.836	7.765
358.729	6.864
361.622	31.544
364.514	36.231
367.407	45.076
370.3	126.505
373.193	247.954
376.085	371.166
378.978	482.092
381.871	554.244
384.763	661.954
387.656	732.44
390.549	848.156
393.441	896.193
396.334	960.472
399.227	852.84
402.12	744.539
405.012	502.112
407.905	352.08
410.798	240.3
413.69	248.691
416.583	259.96
419.476	293.162
422.368	376.222
425.261	489.035
428.154	460.687
431.047	539.145
433.939	709.636
436.832	905.381
439.725	1154.77
442.617	1399.69
445.51	1632.66
448.403	1829.85
451.296	1996.7
454.188	2008.05
457.081	2041.08
459.974	2019.9
462.866	1859.12
465.759	1630.98
468.652	1309.53
471.544	1079.06
474.437	842.818
477.33	682.544
480.223	516.429
483.115	346.874
486.008	300.713
488.901	264.466
491.793	193.495
494.686	148.68
497.579	95.171
500.471	72.161
503.364	32.407
506.257	0.263
509.15	27.629
512.042	4.054
514.935	6.516
517.828	14.961
520.72	38.417
523.613	31.715
526.506	78.707
529.398	88.238
532.291	77.314
535.184	72.995
538.076	182.047
540.969	72.191
543.862	90.614
546.755	63.144
549.647	44.612
552.54	88.223
555.433	37.58
558.325	87.495
561.218	7.66
564.111	17.054
567.003	2.044
569.896	34.541
572.789	15.775
575.682	13.38
578.574	64.018
581.467	61.225
584.36	54.462
587.252	26.642
590.145	87.02
593.038	81.737
595.93	77.368
598.823	114.583
601.716	35.701
604.609	132.949
607.501	164.148
610.394	96.788
613.287	167.652
616.179	209.625
619.072	184.769
621.965	195.872
624.857	218.377
627.75	242.67
630.643	249.45
633.536	264.367
636.428	236.697
639.321	266.584
642.214	219.559
645.106	222.18
647.999	242.694
650.892	225.446
653.784	252.025
656.677	197.834
659.57	251.551
662.463	169.475
665.355	217.63
668.248	182.854
671.141	179.198
674.033	260.685
676.926	260.178
679.819	222.876
682.711	227.948
685.604	180.932
688.497	187.71
691.39	191.643
694.282	295.131
697.175	166.3
700.068	128.675
702.96	82.243
705.853	53.389
708.746	18.47
711.638	53.243
714.531	27.864
717.424	92.143
720.317	22.539
723.209	27.863
726.102	39.072
728.995	33.199
731.887	57.659
734.78	61.757
737.673	35.219
740.565	22.544
743.458	55.616
746.351	107.657
749.244	67.265
752.136	85.626
755.029	126.367
757.922	246.432
760.814	294.968
763.707	394.897
766.6	574.118
769.492	749.173
772.385	1000.18
775.278	1359.57
778.171	1758.6
781.063	2254.69
783.956	2896.52
786.849	3940.78
789.741	5330.6
792.634	7221.67
795.527	10155.1
798.419	14706.8
801.312	22232.4
804.205	33983.8
807.098	48166.3
809.99	55849.9
812.883	47511
815.776	39587.5
818.668	34553
821.561	26057.8
824.454	16497.6
827.346	9204.08
830.239	5300.35
833.132	3335.24
836.024	2189.35
838.917	1469.31
841.81	1275.24
844.703	743.111
847.595	537.243
850.488	440.985
853.381	405.151
856.273	440.746
859.166	375.447
862.059	305.436
864.951	241.848
867.844	190.975
870.737	232.944
873.63	439.981
876.522	853.949
879.415	1566.78
882.308	2402.41
885.2	2712.49
888.093	2171.23
890.986	1783.46
893.878	1965.15
896.771	2408.52
899.664	2865.16
902.557	2650.98
905.449	2003.92
908.342	1235.7
911.235	606.691
914.127	223.551
917.02	35.338
919.913	11.425
922.805	105.931
925.698	88.439
928.591	66.507
931.484	44.82
934.376	7.026
937.269	1.129
940.162	40.534
943.054	1.516
945.947	4.684
948.84	38.192
951.732	25.646
954.625	63.959
957.518	57.369
960.411	79.066
963.303	101.243
966.196	94.44
969.089	138.693
971.981	182.077
974.874	162.642
977.767	230.81
980.659	273.774
983.552	376.167
986.445	545.287
989.338	546.47
992.23	288.167
995.123	213.838
998.016	207.247
1000.91	193.823
1003.8	170.095
1006.69	218.896
1009.59	126.503
1012.48	52.9
1015.37	112.404
1018.26	64.75
1021.16	31.569
1024.05	24.667
1026.94	31.44
1029.84	87.25
1032.73	36.296
1035.62	22.414
1038.51	15.705
1041.41	20.842
1044.3	38.391
1047.19	6.738
1050.08	34.303
1052.98	6.695
1055.87	47.735
1058.76	74.681
1061.65	82.739
1064.55	52.315
1067.44	105.43
1070.33	160.551
1073.23	156.379
1076.12	165.823
1079.01	202.612
1081.9	256.314
1084.8	340.106
1087.69	381.996
1090.58	524.497
1093.47	604.348
1096.37	773.288
1099.26	871.168
1102.15	993.117
1105.05	1165.15
1107.94	1292.42
1110.83	1569.25
1113.72	1753.41
1116.62	2035.4
1119.51	2260.34
1122.4	2517.31
1125.3	2931.95
1128.19	3192.07
1131.08	3363.65
1133.97	3588.91
1136.87	3881.97
1139.76	4030.53
1142.65	4122.33
1145.54	4352.98
1148.44	4391.9
1151.33	4197.78
1154.22	3994.9
1157.11	3852.94
1160.01	3531.79
1162.9	3058.55
1165.79	2854.54
1168.68	2374.74
1171.58	2120.66
1174.47	1754.57
1177.36	1360.29
1180.26	1130.85
1183.15	832.978
1186.04	601.769
1188.93	448.087
1191.83	268.712
1194.72	23.753
1197.61	16.407
1200.51	133.775
1203.4	84.297
1206.29	90.289
1209.18	114.627
1212.08	57.605
1214.97	356.92
1217.86	717.195
1220.75	983.176
1223.65	1510.99
1226.54	1999.67
1229.43	2592.38
1232.32	3012.92
1235.22	3444.51
1238.11	3652.34
1241	3732.94
1243.89	3903.45
1246.79	3771.14
1249.68	3460.14
1252.57	2989.94
1255.47	2458.32
1258.36	1907.76
1261.25	1318.09
1264.14	651.135
1267.04	280.279
1269.93	0
