Measurement: Raman, 532 nm, unoriented, Raman Data Processed
Mineral: Metatorbernite
Rruff sample: R070509
Ideal chemistry: Cu(UO_2_)_2_(PO_4_)_2_8H_2_O
Locality: Musonoi mine, Kolwezi, Katanga, Congo
Source: James Shigley
Description: Dark green platy crystals
Raman shift (cm-1)	intensity
140.031	0
142.924	52.359
145.816	173.72
148.709	118.529
151.602	86.1248
154.494	79.2922
157.387	109.999
160.28	89.734
163.173	64.8818
166.065	94.9657
168.958	150.425
171.851	265.113
174.743	437.281
177.636	748.461
180.529	1197.82
183.421	1877.87
186.314	3080.88
189.207	4745.76
192.1	6031.39
194.992	5503.23
197.885	2534.78
200.778	1132.03
203.67	692.933
206.563	554.244
209.456	589.837
212.348	640.171
215.241	813.568
218.134	1002.49
221.026	1133.36
223.919	1066.15
226.812	725.045
229.705	453.023
232.597	212.02
235.49	90.1161
238.383	41.587
241.275	34.035
244.168	31.9396
247.061	116.392
249.954	164.804
252.846	138.107
255.739	60.0172
258.632	3.18897
261.524	47.1367
264.417	23.3317
267.31	20.5315
270.202	77.5665
273.095	149.086
275.988	295.328
278.881	468.992
281.773	566.194
284.666	681.997
287.559	693.122
290.451	603.584
293.344	491.651
296.237	416.651
299.13	347.052
302.022	337.584
304.915	331.468
307.808	285.604
310.7	232.901
313.593	158.3
316.486	109.876
319.378	70.4773
322.271	43.7281
325.164	16.0787
328.057	7.18805
330.949	12.7317
333.842	11.0147
336.735	2.66748
339.627	6.05267
342.52	17.7403
345.413	11.22
348.305	6.74707
351.198	21.9353
354.091	24.9996
356.983	23.1523
359.876	5.58942
362.769	2.40021
365.662	50.2615
368.554	54.9849
371.447	45.491
374.34	60.253
377.232	96.8925
380.125	129.429
383.018	113.378
385.911	189.991
388.803	360.274
391.696	638.003
394.589	1108.94
397.481	1834.01
400.374	2372.45
403.267	2530.59
406.159	3015.06
409.052	2094.14
411.945	985.384
414.837	535.835
417.73	338.734
420.623	272.829
423.516	246.623
426.408	292.041
429.301	403.841
432.194	506.192
435.086	725.171
437.979	937.804
440.872	938.793
443.764	730.947
446.657	470.522
449.55	354.429
452.443	259.776
455.335	295.364
458.228	287.055
461.121	284.195
464.014	267.774
466.906	202.441
469.799	130.692
472.692	88.5236
475.584	35.3197
478.477	21.605
481.37	30.4703
484.262	21.3634
487.155	4.13324
490.048	15.0085
492.94	11.6476
495.833	31.9178
498.726	11.5722
501.619	8.01111
504.511	20.0682
507.404	41.682
510.297	30.3035
513.189	3.78003
516.082	23.9691
518.975	6.2666
521.867	34.808
524.76	38.5542
527.653	42.8522
530.546	99.0227
533.438	88.9821
536.331	95.6352
539.224	108.085
542.116	76.0145
545.009	90.9982
547.902	104.874
550.794	72.5476
553.687	85.281
556.58	84.9071
559.473	84.007
562.365	53.7865
565.258	36.0583
568.151	16.3822
571.043	7.57068
573.936	11.1611
576.829	31.3978
579.721	32.9731
582.614	15.0854
585.507	33.2981
588.4	14.6517
591.292	32.5619
594.185	41.8638
597.078	74.6958
599.97	57.6154
602.863	63.1802
605.756	96.2593
608.649	120.349
611.541	150.208
614.434	147.039
617.327	176.177
620.219	152.145
623.112	155.841
626.005	145.855
628.897	138.354
631.79	131.691
634.683	115.117
637.576	90.3356
640.468	73.4891
643.361	52.5983
646.254	83.1976
649.146	33.2073
652.039	75.4882
654.932	52.0613
657.824	51.131
660.717	54.1301
663.61	56.8749
666.503	52.3414
669.395	29.7551
672.288	14.7277
675.181	37.9105
678.073	38.6509
680.966	39.81
683.859	0.4552
686.751	27.2988
689.644	33.0496
692.537	3.17419
695.43	5.02838
698.322	8.36377
701.215	8.51373
704.108	2.72833
707	13.6879
709.893	9.07416
712.786	6.68835
715.678	10.7961
718.571	2.43622
721.464	17.2974
724.357	4.72101
727.249	2.29645
730.142	16.7971
733.035	10.3724
735.927	8.70306
738.82	23.5333
741.713	2.32086
744.606	24.5328
747.498	45.7585
750.391	20.5102
753.284	40.4243
756.176	48.501
759.069	42.0095
761.962	50.9714
764.854	33.1713
767.747	48.1462
770.64	43.7554
773.533	53.3073
776.425	91.6268
779.318	108.614
782.211	126.87
785.103	149.891
787.996	178.924
790.889	221.511
793.781	300.036
796.674	393.217
799.567	504.375
802.46	686.889
805.352	916.873
808.245	1220.59
811.138	1783.8
814.03	2879.72
816.923	5125.27
819.816	9141.59
822.708	15360.3
825.601	23534.7
828.494	17802.4
831.386	6537.17
834.279	2614.36
837.172	1354.15
840.065	817.122
842.957	504.488
845.85	368.835
848.743	249.002
851.635	177.623
854.528	154.453
857.421	77.2445
860.313	39.9379
863.206	13.4038
866.099	9.95636
868.992	16.5232
871.884	4.38873
874.777	3.54449
877.67	14.823
880.562	30.5277
883.455	56.7505
886.348	99.4338
889.24	177.842
892.133	259.893
895.026	305.21
897.919	358.765
900.811	373.928
903.704	346.47
906.597	266.611
909.489	196.77
912.382	155.896
915.275	75.1699
918.168	32.3836
921.06	33.6747
923.953	8.00275
926.846	1.7522
929.738	9.05102
932.631	32.6364
935.524	8.21118
938.416	9.07398
941.309	81.7937
944.202	111.031
947.095	170.606
949.987	268.924
952.88	360.589
955.773	460.128
958.665	547.786
961.558	655.63
964.451	731.986
967.343	904.926
970.236	1238.6
973.129	1910.82
976.021	3125.26
978.914	5416.63
981.807	9405.39
984.7	15252.4
987.592	21363.4
990.485	22256.3
993.378	19836
996.27	18649.6
999.163	12776.8
1002.06	6718.51
1004.95	4223.49
1007.84	2511.78
1010.73	1489.25
1013.63	982.484
1016.52	724.592
1019.41	541.702
1022.3	436.784
1025.2	320.998
1028.09	283.078
1030.98	205.682
1033.88	143.306
1036.77	127.307
1039.66	100.55
1042.55	88.5554
1045.45	43.7777
1048.34	75.103
1051.23	76.5734
1054.12	44.9499
1057.02	15.1985
1059.91	6.88959
1062.8	4.08508
1065.69	1.94171
1068.59	5.31525
1071.48	8.75116
1074.37	21.157
1077.27	3.37415
1080.16	21.8577
1083.05	10.0828
1085.94	16.1237
1088.84	26.3265
1091.73	2.6142
1094.62	31.8764
1097.52	36.029
1100.41	39.9894
1103.3	25.2675
1106.19	22.9626
1109.09	40.3226
1111.98	44.3349
1114.87	44.1285
1117.76	51.7333
1120.66	44.5723
1123.55	24.9748
1126.44	27.1301
1129.34	22.501
1132.23	17.0759
1135.12	12.8248
1138.01	22.6273
1140.91	11.9132
1143.8	23.4946
1146.69	26.6169
1149.58	27.2386
1152.48	3.43469
1155.37	24.1335
1158.26	12.1688
1161.15	14.0406
1164.05	14.8114
1166.94	23.7596
1169.83	23.6433
1172.72	11.3044
1175.62	23.3304
1178.51	20.0764
1181.4	7.75879
1184.3	1.91119
1187.19	28.0102
1190.08	6.6261
1192.97	17.8077
1195.87	21.3639
1198.76	1.68341
1201.65	6.5033
1204.55	15.0188
1207.44	5.7854
1210.33	17.251
1213.22	16.546
1216.12	33.9249
1219.01	23.6931
1221.9	22.5248
1224.79	22.5043
1227.69	11.8834
1230.58	8.89905
1233.47	21.6872
1236.37	4.64185
1239.26	16.8433
1242.15	22.3439
1245.04	17.0189
1247.94	12.1274
1250.83	15.7859
1253.72	20.2267
1256.61	13.6885
1259.51	18.4313
1262.4	33.0301
1265.29	19.4388
1268.18	8.78174
1271.08	5.39343
1273.97	13.6533
1276.86	16.3889
1279.76	13.7279
1282.65	6.04242
1285.54	2.72882
1288.43	1.48419
