Measurement: Raman, 532 nm, unoriented, Raman Data Processed
Mineral: Metatyuyamunite
Rruff sample: R120020
Ideal chemistry: Ca(UO_2_)_2_(VO_4_)_2_3H_2_O
Locality: Monument #2 mine, Apache Co., Arizona, USA
Source: Dr. JÃ¼rgen Wachsmuth
Description: Clusters of platy canary-yellow crystals  RAMAN MATCHES VANURALITE, TYUYAMUNITE, FRANCEVILLITE, CARNOTITE, STRELKINITE
Raman shift (cm-1)	intensity
189.808	0
192.701	0.144531
195.594	0.675354
198.486	2.67835
201.379	4.03748
204.272	10.042
207.164	15.9908
210.057	27.2261
212.95	31.4959
215.843	36.1501
218.735	40.0685
221.628	45.8793
224.521	64.3829
227.413	82.0888
230.306	98.3106
233.199	115.986
236.091	121.392
238.984	120.84
241.877	127.516
244.769	142.345
247.662	179.795
250.555	213.531
253.448	234.725
256.34	210.649
259.233	174.148
262.126	122.508
265.018	81.4806
267.911	54.176
270.804	27.1808
273.697	13.8132
276.589	2.54394
279.482	7.3501
282.375	14.8058
285.267	6.89905
288.16	1.96094
291.053	25.8933
293.945	54.2402
296.838	100.752
299.731	165.221
302.623	233.818
305.516	308.161
308.409	346.323
311.302	332.715
314.194	266.748
317.087	179.918
319.98	101.308
322.872	53.0183
325.765	25.7333
328.658	28.5826
331.55	42.8427
334.443	73.1033
337.336	119.722
340.229	169.066
343.121	204.539
346.014	231.381
348.907	253.909
351.799	274.898
354.692	313.301
357.585	376.148
360.478	460.009
363.37	557.048
366.263	648.755
369.156	696.964
372.048	666.036
374.941	562.958
377.834	432.237
380.726	303.633
383.619	205.322
386.512	135.149
389.404	92.2919
392.297	58.2883
395.19	44.7913
398.083	43.2005
400.975	45.6529
403.868	63.17
406.761	84.138
409.653	103.327
412.546	115.291
415.439	112.49
418.332	88.3489
421.224	61.2117
424.117	33.2999
427.01	16.403
429.902	3.24506
432.795	7.57251
435.688	10.92
438.58	14.1962
441.473	9.27197
444.366	8.80499
447.259	2.99078
450.151	12.7911
453.044	28.3731
455.937	48.53
458.829	77.7929
461.722	105.527
464.615	124.734
467.507	144.84
470.4	144.356
473.293	136.994
476.185	112.614
479.078	90.0505
481.971	64.6399
484.864	48.1221
487.756	30.9417
490.649	17.1195
493.542	9.62335
496.434	3.4162
499.327	3.69958
502.22	4.76007
505.113	15.5254
508.005	40.9894
510.898	77.3004
513.791	116.266
516.683	160.66
519.576	204.052
522.469	244.785
525.361	277.758
528.254	301.535
531.147	298.375
534.04	278.369
536.932	230.021
539.825	182.532
542.718	137.009
545.61	102.326
548.503	87.7095
551.396	78.5161
554.288	82.6267
557.181	96.5022
560.074	120.383
562.967	143.639
565.859	181.62
568.752	206.707
571.645	227.842
574.537	228.617
577.43	221.621
580.323	198.947
583.216	169.401
586.108	138.384
589.001	112.113
591.894	89.2084
594.786	71.6091
597.679	53.8329
600.572	43.5987
603.464	27.2351
606.357	20.1772
609.25	8.72846
612.142	3.55572
615.035	2.94147
617.928	6.39947
620.821	8.69379
623.713	6.62939
626.606	1.38324
629.499	9.88757
632.391	30.7351
635.284	54.0759
638.177	82.9205
641.069	117.548
643.962	158.899
646.855	202.875
649.747	236.581
652.64	261.372
655.533	261.835
658.426	240.984
661.318	193.986
664.211	145.343
667.104	97.683
669.996	67.7236
672.889	32.8914
675.782	16.9356
678.674	2.86768
681.567	4.63727
684.46	7.89551
687.353	4.93842
690.245	2.46728
693.138	14.7412
696.031	28.0418
698.923	49.6823
701.816	75.1044
704.709	106.042
707.601	149.66
710.494	206.986
713.387	276.046
716.28	361.495
719.172	475.536
722.065	624.886
724.958	830.536
727.85	1088.45
730.743	1396.12
733.636	1744.58
736.529	2091.56
739.421	2372.2
742.314	2493.99
745.207	2436.29
748.099	2213.46
750.992	1889.74
753.885	1561.67
756.777	1243.94
759.67	974.463
762.563	747.931
765.456	568.932
768.348	429.382
771.241	320.822
774.134	236.218
777.026	170.845
779.919	117.537
782.812	72.0182
785.704	39.306
788.597	16.2678
791.49	2.36383
794.383	7.48126
797.275	6.81049
800.168	6.42407
803.061	12.2906
805.953	20.7806
808.846	48.9285
811.739	91.5472
814.631	153.532
817.524	224.924
820.417	288.843
823.309	329.697
826.202	338.838
829.095	317.006
831.988	276.256
834.88	221.874
837.773	173.667
840.666	134.174
843.558	103.139
846.451	83.7526
849.344	70.3489
852.236	57.3185
855.129	40.1658
858.022	31.3236
860.915	24.7418
863.807	20.038
866.7	14.1499
869.593	8.75327
872.485	5.51578
875.378	4.15482
878.271	1.63248
881.163	0.767822
884.056	0.932465
886.949	0.250092
889.842	0.430511
892.734	1.03622
895.627	1.35196
898.52	0.740753
901.412	1.7612
904.305	1.91833
907.198	3.1044
910.091	7.81372
912.983	4.41553
915.876	9.69363
918.769	10.6116
921.661	12.0988
924.554	15.3414
927.447	18.3088
930.339	23.0576
933.232	26.3158
936.125	26.3582
939.018	33.0777
941.91	36.8114
944.803	45.6356
947.696	54.9664
950.588	72.9886
953.481	91.6779
956.374	107.186
959.266	128.565
962.159	151.74
965.052	171.048
967.944	180.363
970.837	166.803
973.73	137.393
976.623	103.141
979.515	77.2537
982.408	54.4028
985.301	37.9627
988.193	25.4311
991.086	19.6875
993.979	12.4067
996.871	8.49264
999.764	5.80365
1002.66	2.46759
1005.55	1.56888
1008.44	3.57736
1011.34	2.12262
1014.23	4.15128
1017.12	1.29016
1020.01	2.48587
1022.91	1.47125
1025.8	0.546021
1028.69	1.00726
1031.58	0.128265
1034.48	2.62445
1037.37	2.76984
1040.26	1.16678
1043.15	0.328766
1046.05	1.82272
1048.94	0.849915
1051.83	2.12558
1054.73	2.08301
1057.62	5.15344
1060.51	5.65204
1063.4	5.85867
1066.3	7.14716
1069.19	4.04596
1072.08	3.53131
1074.97	3.91959
1077.87	4.00464
1080.76	3.55206
1083.65	7.01712
1086.55	5.61386
1089.44	5.89145
1092.33	6.33389
1095.22	6.05868
1098.12	4.8179
1101.01	6.92487
1103.9	6.05112
1106.79	3.23578
1109.69	3.71603
1112.58	4.65399
1115.47	3.54208
1118.37	4.49301
1121.26	3.02811
1124.15	2.05658
1127.04	2.49631
1129.94	4.55868
1132.83	0.950653
1135.72	3.7735
1138.61	6.44379
1141.51	1.15128
1144.4	1.16721
1147.29	1.04648
1150.18	4.17065
1153.08	1.59839
1155.97	1.20892
1158.86	1.84564
1161.76	0.847015
1164.65	3.11569
1167.54	4.29291
1170.43	0.726471
1173.33	2.84744
1176.22	2.27173
1179.11	2.42593
1182	3.42673
1184.9	6.36566
1187.79	4.57532
1190.68	3.85632
1193.58	2.86652
1196.47	1.53394
1199.36	3.29779
1202.25	6.27655
1205.15	3.60358
1208.04	7.74286
1210.93	5.54511
1213.82	5.69998
1216.72	2.23572
1219.61	4.07227
1222.5	3.32501
1225.39	1.935
1228.29	5.62979
1231.18	2.56696
1234.07	0.553772
1236.97	1.15805
1239.86	3.70175
1242.75	1.92267
1245.64	0.831818
1248.54	2.42837
1251.43	2.14478
1254.32	1.58902
1257.21	2.48291
1260.11	3.16455
1263	0.829926
1265.89	2.10587
1268.79	3.22961
1271.68	3.00665
1274.57	2.94626
1277.46	3.67148
1280.36	1.68463
1283.25	12.8626
1286.14	0.571075
1289.03	2.85642
1291.93	0.152924
1294.82	3.03394
1297.71	0.822906
1300.61	0.984467
