Measurement: Raman, 780 nm, unoriented, Raman Data Processed
Mineral: Meta-autunite
Rruff sample: R050612
Ideal chemistry: Ca(UO_2_)_2_(PO_4_)_2_6H_2_O
Locality: Daybreak mine, Mt. Spokane, Spokane County, Washington, USA
Source: Dave Bunk Minerals
Description: Green thin tabular crystal
Measured chemistry: (Ca_0.85_[box]_0.15_)_Σ=1_(U_1.00_O_2_)_2_(P_1.00_O_4_)_2_·3((H_2_O)_0.90_(H_3_O)^+^_0.10_)
Raman shift (cm-1)	intensity
149.919	0
152.812	1.93036
155.705	4.0289
158.597	13.1812
161.49	27.5493
164.383	54.9264
167.276	73.4461
170.168	105.133
173.061	158.394
175.954	213.653
178.846	287.269
181.739	370.967
184.632	458.453
187.524	558.42
190.417	665.702
193.31	764.941
196.203	804.937
199.095	746.538
201.988	587.238
204.881	404.154
207.773	266.663
210.666	166.193
213.559	106.752
216.451	68.4504
219.344	42.4698
222.237	24.8854
225.13	13.0534
228.022	5.53488
230.915	0.235809
233.808	4.76585
236.7	6.71997
239.593	2.86232
242.486	0.07019
245.378	5.34184
248.271	13.9169
251.164	20.0458
254.056	31.2614
256.949	33.6111
259.842	41.7685
262.735	47.7778
265.627	54.9129
268.52	62.3994
271.413	65.7587
274.305	72.7786
277.198	71.3528
280.091	72.5852
282.983	75.3638
285.876	76.2509
288.769	71.176
291.662	62.6754
294.554	51.9927
297.447	39.9598
300.34	28.6921
303.232	21.2509
306.125	15.3137
309.018	11.459
311.911	10.0934
314.803	6.41894
317.696	8.17609
320.589	5.66738
323.481	7.81359
326.374	4.7131
329.267	6.96403
332.159	5.12386
335.052	5.5593
337.945	2.50436
340.837	2.81372
343.73	0.333839
346.623	1.15105
349.516	2.47128
352.408	1.17875
355.301	2.11541
358.194	1.63496
361.086	1.85486
363.979	2.2953
366.872	3.25748
369.764	6.17548
372.657	8.13956
375.55	9.49559
378.442	8.88809
381.335	11.9173
384.228	14.2127
387.121	12.4248
390.013	11.5871
392.906	10.4639
395.799	11.3857
398.691	8.01434
401.584	5.2116
404.477	2.45257
407.37	1.01876
410.262	1.91032
413.155	0.974411
416.048	0.510132
418.94	0.134666
421.833	1.65502
424.726	2.32965
427.618	2.31659
430.511	6.45373
433.404	8.31461
436.296	9.11901
439.189	12.9459
442.082	14.3725
444.975	18.2964
447.867	22.3539
450.76	24.4708
453.653	27.4551
456.545	27.9098
459.438	26.5324
462.331	23.2889
465.224	16.2451
468.116	12.8116
471.009	6.45348
473.902	5.11393
476.794	2.46524
479.687	0.325714
482.58	0.558464
485.472	0.06546
488.365	0.555992
491.258	0.430473
494.151	0.726341
497.043	0.837105
499.936	1.21416
502.829	0.57534
505.721	1.02432
508.614	1.80839
511.507	0.624329
514.399	2.77851
517.292	0.786682
520.185	1.02172
523.077	2.39532
525.97	2.0329
528.863	1.27446
531.756	1.64394
534.648	2.76628
537.541	4.19224
540.434	3.43075
543.326	5.21308
546.219	3.69792
549.112	6.0475
552.004	6.45785
554.897	7.50307
557.79	5.12077
560.683	3.6312
563.575	5.03958
566.468	1.40196
569.361	1.90288
572.253	1.52641
575.146	0.251007
578.039	2.01718
580.931	1.98921
583.824	0.391289
586.717	0.243675
589.61	0.605965
592.502	0.911148
595.395	1.58274
598.288	3.4042
601.18	3.68562
604.073	7.31401
606.966	9.86202
609.858	12.8167
612.751	12.8774
615.644	9.5916
618.537	5.29298
621.429	4.45684
624.322	4.00627
627.215	5.45699
630.107	5.06908
633	6.2134
635.893	6.89682
638.785	7.96919
641.678	6.51987
644.571	6.88856
647.463	7.88076
650.356	8.98153
653.249	8.31343
656.141	9.52029
659.034	10.367
661.927	9.33366
664.82	9.31646
667.712	6.29209
670.605	4.63754
673.498	4.86182
676.39	2.6354
679.283	3.18032
682.176	2.00641
685.068	2.41316
687.961	0.792278
690.854	1.6645
693.747	0.265606
696.639	0.109974
699.532	1.72765
702.425	0.774685
705.317	0.530186
708.21	0.347214
711.103	0.344997
713.995	0.606171
716.888	0.614063
719.781	0.1003
722.674	0.726692
725.566	0.272007
728.459	1.63102
731.352	0.435364
734.244	1.26285
737.137	1.30747
740.03	1.40317
742.923	0.543652
745.815	0.311581
748.708	0.56654
751.601	1.01493
754.493	0.510113
757.386	0.707264
760.279	0.760868
763.171	0.072723
766.064	2.39871
768.957	3.36727
771.85	5.16085
774.742	6.80762
777.635	9.99783
780.528	14.0968
783.42	19.4372
786.313	24.303
789.206	35.0292
792.098	47.6778
794.991	65.63
797.884	87.915
800.776	120.269
803.669	162.491
806.562	219.841
809.455	289.496
812.347	380.372
815.24	511.887
818.133	686.158
821.025	873.847
823.918	1102.5
826.811	1385.54
829.703	1545.33
832.596	1269.83
835.489	727.716
838.381	418.913
841.274	304.171
844.167	256.754
847.06	214.002
849.952	165.133
852.845	114.54
855.738	68.318
858.63	31.6607
861.523	14.4217
864.416	8.92859
867.308	4.12159
870.201	2.98779
873.094	2.57708
875.987	0.006248
878.879	0.131687
881.772	1.14253
884.665	2.29157
887.557	4.8531
890.45	5.95064
893.343	7.16892
896.236	5.91852
899.128	5.95221
902.021	3.45329
904.914	2.00317
907.806	1.34905
910.699	1.0942
913.592	2.44733
916.484	1.39478
919.377	1.76329
922.27	2.28574
925.163	2.34017
928.055	1.43518
930.948	1.495
933.841	0.894783
936.733	1.38477
939.626	1.94239
942.519	5.00203
945.411	9.4258
948.304	14.1134
951.197	21.3768
954.09	33.2975
956.982	43.8714
959.875	59.2156
962.768	77.9955
965.66	107.918
968.553	153.434
971.446	217.54
974.338	300.416
977.231	403.038
980.124	526.665
983.016	648.892
985.909	671.315
988.802	575.107
991.694	468.597
994.587	422.526
997.48	455.531
1000.37	548.639
1003.26	670.673
1006.16	791.013
1009.05	850.037
1011.94	799.254
1014.84	687.741
1017.73	561.793
1020.62	428.055
1023.51	314.508
1026.41	230.151
1029.3	172.652
1032.19	135.26
1035.09	109.686
1037.98	91.8216
1040.87	71.5637
1043.76	49.3962
1046.66	35.9028
1049.55	25.6324
1052.44	15.6126
1055.33	10.8101
1058.23	7.70636
1061.12	3.87389
1064.01	1.63782
1066.9	0.72686
1069.8	0.014938
1072.69	0.497299
1075.58	0.145836
1078.47	2.1099
1081.37	1.75575
1084.26	2.04533
1087.15	1.146
1090.05	2.549
1092.94	0.237347
1095.83	0.238754
1098.72	0.665836
1101.62	1.1381
1104.51	2.97498
1107.4	4.85342
1110.3	3.92787
1113.19	5.17941
1116.08	5.0176
1118.97	5.36791
1121.87	5.91056
1124.76	7.40736
1127.65	4.78707
1130.54	5.96096
1133.44	4.92717
1136.33	4.22422
1139.22	4.35832
1142.12	3.03006
1145.01	3.68157
1147.9	1.98796
1150.79	1.26729
1153.69	1.63434
1156.58	1.52633
1159.47	1.02844
1162.36	1.33921
1165.26	2.10337
1168.15	1.66935
1171.04	2.28934
1173.93	1.53733
1176.83	3.21642
1179.72	2.13086
1182.61	3.59887
1185.51	4.23454
1188.4	4.74147
1191.29	4.19746
1194.18	3.69064
1197.08	4.53118
1199.97	6.50368
1202.86	4.82247
1205.75	4.93163
1208.65	5.76068
1211.54	5.92975
1214.43	5.31103
1217.33	5.17959
1220.22	2.98203
1223.11	2.09878
1226	2.43087
1228.9	1.18454
1231.79	1.17819
1234.68	1.41498
1237.57	0.762081
1240.47	0.453526
1243.36	0.714348
1246.25	0.370018
1249.14	0.474228
1252.04	1.91216
1254.93	1.51051
1257.82	2.17866
1260.71	1.7809
1263.61	2.27413
1266.5	3.00504
1269.39	1.74951
1272.29	2.26798
1275.18	0.870205
1278.07	1.56373
1280.96	2.19256
1283.86	0.403671
