Measurement: Raman, 780 nm, unoriented, Raman Data Processed
Mineral: Meyerhofferite
Rruff sample: R050671
Ideal chemistry: CaB_3_O_3_(OH)_5_H_2_O
Locality: Inyo County, California, USA
Source: University of Arizona Mineral Museum
Description: Colorless prismatic single crystals
Measured chemistry: Ca_1.00_B_3_O_3_(OH)_5_Â·H_2_O ; B not measured but estimated by charge balance
Raman shift (cm-1)	intensity
113.239	0
116.613	36.3402
119.988	54.9588
123.363	28.1113
126.738	12.7846
130.113	2.59912
133.487	7.98529
136.862	32.0855
140.237	49.3037
143.612	5.90655
146.987	3.37512
150.362	0.312378
153.736	8.96155
157.111	18.8503
160.486	36.9728
163.861	53.69
167.236	31.2779
170.61	33.6841
173.985	55.2105
177.36	76.1406
180.735	60.2512
184.11	69.5117
187.484	109.827
190.859	94.0031
194.234	43.7068
197.609	27.9701
200.984	31.0989
204.358	36.7504
207.733	21.6457
211.108	14.0519
214.483	12.6422
217.858	20.9288
221.233	32.2504
224.607	51.3639
227.982	59.2098
231.357	31.3524
234.732	33.0996
238.107	18.2909
241.482	11.9239
244.856	11.0274
248.231	12.0923
251.606	15.0115
254.981	12.3031
258.356	6.14526
261.73	4.72443
265.105	3.46808
268.48	1.59528
271.855	0.230103
275.23	0.380493
278.604	0.179504
281.979	0.403931
285.354	3.05542
288.729	1.52679
292.104	1.10187
295.478	0.958008
298.853	0.610046
302.228	4.02338
305.603	4.0979
308.978	2.0282
312.353	2.94397
315.727	5.01477
319.102	10.4077
322.477	17.15
325.852	28.2806
329.227	46.9138
332.601	67.0352
335.976	88.8489
339.351	94.8518
342.726	91.0986
346.101	81.9259
349.476	48.2403
352.85	25.7064
356.225	21.6102
359.6	25.8158
362.975	35.9872
366.35	43.9132
369.724	50.2394
373.099	62.0928
376.474	88.1044
379.849	111.331
383.224	107.956
386.599	80.9932
389.973	72.7662
393.348	83.3179
396.723	102.244
400.098	93.4359
403.473	62.7424
406.847	40.7849
410.222	18.8231
413.597	9.07159
416.972	8.07886
420.347	3.87994
423.721	10.1291
427.096	17.7916
430.471	25.6971
433.846	35.9423
437.221	26.9699
440.596	9.90875
443.97	1.16196
447.345	1.64648
450.72	3.7774
454.095	1.8475
457.47	0.835144
460.844	6.57916
464.219	10.0847
467.594	16.7258
470.969	32.2778
474.344	42.7405
477.719	35.7621
481.093	36.3404
484.468	51.1537
487.843	75.7143
491.218	128.098
494.592	139.643
497.967	70.3839
501.342	28.1422
504.717	13.0626
508.092	7.44727
511.467	5.63068
514.841	4.40155
518.216	1.65631
521.591	2.25232
524.966	1.0817
528.341	1.00549
531.716	0.288605
535.09	1.20389
538.465	1.23523
541.84	3.61514
545.215	3.37619
548.59	3.91272
551.964	6.02789
555.339	11.886
558.714	15.154
562.089	19.4926
565.464	21.2206
568.838	27.9595
572.213	25.8242
575.588	20.4923
578.963	20.9671
582.338	24.9813
585.712	33.8676
589.087	42.3875
592.462	59.6463
595.837	85.6308
599.212	129.509
602.587	214.938
605.961	356.912
609.336	474.122
612.711	312.155
616.086	129.861
619.461	57.3149
622.836	31.0994
626.21	15.8646
629.585	11.3262
632.96	7.99704
636.335	8.32681
639.71	4.58209
643.084	2.5722
646.459	0.201385
649.834	0.445953
653.209	0.090851
656.584	0.272491
659.958	0.106812
663.333	0.784302
666.708	0.012207
670.083	0.406189
673.458	3.27005
676.832	0.811371
680.207	5.29111
683.582	4.40784
686.957	7.47433
690.332	7.91275
693.707	13.018
697.081	16.7044
700.456	19.0956
703.831	24.6417
707.206	24.6583
710.581	28.4526
713.955	26.7646
717.33	30.0861
720.705	33.2012
724.08	39.0644
727.455	44.0737
730.83	38.2478
734.204	27.7814
737.579	19.9254
740.954	18.0083
744.329	13.5901
747.704	13.3347
751.078	13.779
754.453	10.2426
757.828	9.55853
761.203	6.99606
764.578	5.12228
767.952	5.19989
771.327	1.76694
774.702	1.53418
778.077	0.567993
781.452	0.098389
784.827	0.967407
788.201	0.430328
791.576	0.465942
794.951	4.30002
798.326	1.11893
801.701	0.683868
805.075	1.42468
808.45	2.7493
811.825	4.87701
815.2	5.64246
818.575	6.73279
821.949	6.0961
825.324	3.57236
828.699	2.3121
832.074	4.05078
835.449	4.42569
838.824	6.10184
842.198	6.09857
845.573	4.52264
848.948	4.19934
852.323	3.77777
855.698	4.26053
859.072	4.87018
862.447	3.66244
865.822	6.7197
869.197	8.31778
872.572	11.3192
875.947	14.4853
879.321	16.6408
882.696	17.8373
886.071	19.3408
889.446	11.1249
892.821	6.23025
896.195	3.73262
899.57	2.21483
902.945	1.42259
906.32	0.168884
909.695	1.62112
913.069	0.430038
916.444	1.07544
919.819	0.397919
923.194	1.12814
926.569	0.812668
929.944	0.501129
933.318	1.68686
936.693	0.270874
940.068	2.27567
943.443	2.78293
946.818	2.28557
950.192	4.5406
953.567	6.54269
956.942	6.10016
960.317	7.40546
963.692	7.92444
967.067	5.29317
970.441	5.41325
973.816	3.74615
977.191	3.73654
980.566	3.81476
983.941	7.48271
987.315	7.5849
990.69	12.0101
994.065	14.8025
997.44	22.5508
1000.82	22.4588
1004.19	19.1943
1007.56	13.5677
1010.94	9.88974
1014.31	5.73587
1017.69	4.12032
1021.06	0.244064
1024.44	0.0858
1027.81	0.037155
1031.19	3.72592
1034.56	2.10059
1037.94	4.91333
1041.31	7.35448
1044.69	10.6015
1048.06	9.34393
1051.44	6.48012
1054.81	5.23201
1058.19	6.53801
1061.56	5.37433
1064.94	2.79434
1068.31	2.98796
1071.69	3.57072
1075.06	1.09685
1078.43	2.16684
1081.81	2.15007
1085.18	2.51982
1088.56	2.44461
1091.93	3.33243
1095.31	1.25102
1098.68	0.123291
1102.06	0.076767
1105.43	1.87904
1108.81	1.58293
1112.18	0.582728
1115.56	0.221176
1118.93	1.06333
1122.31	2.71108
1125.68	1.11024
1129.06	3.25824
1132.43	1.95187
1135.81	3.33647
1139.18	2.95242
1142.56	3.14232
1145.93	1.92464
1149.31	1.05095
1152.68	0.759705
1156.06	1.29768
1159.43	1.63716
1162.81	0.001877
1166.18	0.085709
1169.56	2.79939
1172.93	1.17253
1176.31	2.62955
1179.68	1.44782
1183.06	1.74701
1186.43	1.50685
1189.8	0.819855
1193.18	2.87701
1196.55	2.86233
1199.93	2.75516
1203.3	1.97565
1206.68	1.55343
1210.05	1.10966
1213.43	1.74887
1216.8	0.883972
1220.18	1.14188
1223.55	-0.0506935
1226.93	0.168947
1230.3	0.577132
1233.68	0.790985
1237.05	1.73428
1240.43	1.67761
1243.8	0.407974
1247.18	2.02049
1250.55	0.978409
1253.93	4.55429
1257.3	1.30926
1260.67	1.30434
1264.05	1.61566
1267.42	1.91551
1270.8	0.572113
1274.17	2.61174
1277.55	0.648544
1280.92	0.752563
1284.3	0.986572
