Measurement: Raman, 532 nm, unoriented, Raman Data Processed
Mineral: Meyerhofferite
Rruff sample: R050671
Ideal chemistry: CaB_3_O_3_(OH)_5_H_2_O
Locality: Inyo County, California, USA
Source: University of Arizona Mineral Museum
Description: Colorless prismatic single crystals
Measured chemistry: Ca_1.00_B_3_O_3_(OH)_5_Â·H_2_O ; B not measured but estimated by charge balance
Raman shift (cm-1)	intensity
112.923	0
116.298	18.2648
119.673	3.77423
123.048	33.091
126.422	104.53
129.797	138.266
133.172	240.71
136.547	425.041
139.922	531.251
143.297	525.615
146.671	588.472
150.046	702.511
153.421	762.516
156.796	776.974
160.171	799.227
163.546	817.306
166.92	780.838
170.295	822.112
173.67	883.092
177.045	903.211
180.42	824.691
183.794	815.263
187.169	859.624
190.544	759.346
193.919	533.483
197.294	452.104
200.668	428.875
204.043	400.003
207.418	335.997
210.793	302.528
214.168	287.477
217.543	294.038
220.917	311.88
224.292	340.223
227.667	322.962
231.042	220.036
234.417	171.476
237.792	135.56
241.166	104.134
244.541	84.5338
247.916	73.1465
251.291	71.491
254.666	64.194
258.041	46.9699
261.415	28.0275
264.79	19.2427
268.165	12.5701
271.54	5.40686
274.915	6.67651
278.289	10.4689
281.664	11.9911
285.039	15.0455
288.414	6.22351
291.789	5.46228
295.163	5.74475
298.538	1.54517
301.913	6.46826
305.288	2.42322
308.663	1.31775
312.038	14.9177
315.412	25.6202
318.787	58.7041
322.162	102.909
325.537	164.172
328.912	235.133
332.287	313.132
335.661	354.462
339.036	327.455
342.411	300.377
345.786	245.677
349.161	149.038
352.536	95.4683
355.91	85.0872
359.285	103.413
362.66	144.196
366.035	180.863
369.41	207.682
372.784	254.446
376.159	317.856
379.534	379.121
382.909	362.828
386.284	315.516
389.659	309.635
393.033	354.332
396.408	373.423
399.783	314.745
403.158	204.164
406.533	113.887
409.907	65.8394
413.282	43.8723
416.657	42.7759
420.032	52.4797
423.407	70.3406
426.782	87.2185
430.156	117.591
433.531	111.914
436.906	77.0591
440.281	29.4648
443.656	3.24365
447.031	11.1958
450.405	10.5188
453.78	6.95215
457.155	32.4949
460.53	61.499
463.905	93.9062
467.279	142.687
470.654	204.234
474.029	219.068
477.404	197.67
480.779	229.036
484.154	285.364
487.528	376.938
490.903	478.584
494.278	443.687
497.653	205.279
501.028	96.761
504.402	49.9038
507.777	25.7856
511.152	14.8323
514.527	13.2012
517.902	0.021484
521.277	2.86743
524.651	3.41919
528.026	5.44067
531.401	0.5271
534.776	1.97144
538.151	1.75391
541.525	8.56226
544.9	14.9817
548.275	30.1763
551.65	38.3782
555.025	46.5701
558.399	64.3044
561.774	75.4961
565.149	84.4946
568.524	98.0081
571.899	85.2339
575.274	70.3831
578.649	78.6545
582.023	98.4009
585.398	133.969
588.773	199.58
592.148	348.263
595.523	595.427
598.897	872.393
602.272	1226.36
605.647	1654.49
609.022	1770.38
612.397	1039.39
615.771	431.377
619.146	200.269
622.521	112.341
625.896	63.9968
629.271	48.2427
632.646	34.313
636.02	25.2405
639.395	9.72876
642.77	0.182129
646.145	10.2502
649.52	1.43848
652.894	2.68091
656.269	8.50928
659.644	7.81128
663.019	8.33472
666.394	0.275879
669.769	5.92603
673.144	2.73413
676.518	2.08228
679.893	1.59912
683.268	12.0093
686.643	23.1511
690.018	38.3972
693.392	49.9724
696.767	73.4431
700.142	88.3552
703.517	93.2661
706.892	99.9863
710.266	109.994
713.641	119.549
717.016	139.64
720.391	155.052
723.766	176.099
727.141	166.682
730.515	141.315
733.89	113.174
737.265	85.7104
740.64	79.8987
744.015	72.9602
747.389	66.4702
750.764	49.8286
754.139	53.7607
757.514	51.6208
760.889	43.0295
764.264	32.5029
767.639	24.1599
771.013	8.32983
774.388	10.9951
777.763	0.299561
781.138	0.374512
784.513	1.62915
787.887	0.183594
791.262	2.53076
794.637	1.1438
798.012	1.7334
801.387	2.34961
804.761	3.30518
808.136	13.0112
811.511	3.20142
814.886	7.16162
818.261	0.292969
821.636	3.02417
825.01	3.95166
828.385	10.1047
831.76	10.2437
835.135	13.0276
838.51	10.1921
841.885	13.8054
845.259	6.92627
848.634	1.40064
852.009	5.58081
855.384	9.97876
858.759	7.06494
862.134	12.0273
865.508	17.8899
868.883	29.6179
872.258	55.7119
875.633	64.2734
879.008	75.9968
882.382	70.7432
885.757	58.324
889.132	37.8049
892.507	15.2959
895.882	11.4219
899.256	12.0418
902.631	11.0867
906.006	4.01245
909.381	7.09326
912.756	5.45239
916.131	10.5063
919.505	1.21387
922.88	0.29541
926.255	1.27173
929.63	2.21411
933.005	4.60669
936.38	8.39624
939.754	16.8115
943.129	23.0808
946.504	30.4827
949.879	31.5662
953.254	36.9812
956.629	41.7871
960.003	51.8943
963.378	42.4937
966.753	33.7434
970.128	32.1406
973.503	37.1453
976.877	42.595
980.252	46.6543
983.627	58.0283
987.002	64.1169
990.377	86.9661
993.751	104.439
997.126	122.077
1000.5	124.66
1003.88	90.2317
1007.25	58.4111
1010.63	33.7058
1014	16.2146
1017.38	5.19263
1020.75	2.32227
1024.12	0.950684
1027.5	13.6199
1030.88	9.29297
1034.25	16.8059
1037.62	23.6182
1041	25.1575
1044.37	35.2141
1047.75	36.5542
1051.12	27.844
1054.5	24.8149
1057.87	19.7153
1061.25	18.251
1064.62	15.1167
1068	15.176
1071.37	23.5791
1074.75	15.9404
1078.12	7.31738
1081.5	4.96436
1084.87	8.11206
1088.25	6.37158
1091.62	3.66406
1095	2.42969
1098.37	0.207764
1101.75	5.33545
1105.12	3.87329
1108.49	1.97681
1111.87	5.61572
1115.24	7.70215
1118.62	5.20776
1121.99	10.6816
1125.37	6.77026
1128.74	15.4221
1132.12	16.9121
1135.49	16.2705
1138.87	17.6743
1142.24	10.4402
1145.62	15.4661
1148.99	14.8999
1152.37	9.60523
1155.74	2.01196
1159.12	2.37622
1162.49	3.89624
1165.87	3.60449
1169.24	2.08569
1172.62	6.01538
1175.99	7.5979
1179.37	3.96191
1182.74	6.82129
1186.12	6.59375
1189.49	16.8398
1192.87	21.366
1196.24	23.238
1199.62	22.8179
1202.99	23.7239
1206.37	26.1396
1209.74	18.7051
1213.12	12.3633
1216.49	22.4387
1219.87	16.6001
1223.24	16.0059
1226.61	10.7808
1229.99	17.0369
1233.36	13.9673
1236.74	9.8103
1240.11	2.20679
1243.49	3.63745
1246.86	5.23047
1250.24	4.02417
1253.61	4.57739
1256.99	0.832031
1260.36	0.200439
1263.74	0.900146
1267.11	9.79053
1270.49	11.4304
1273.86	13.6003
1277.24	6.46021
1280.61	8.96143
1283.99	0.187988
1287.36	5.27441
1290.74	5.42529
1294.11	9.06421
1297.48	1.052
1300.86	7.08691
