Measurement: Raman, 532 nm, unoriented, Raman Data Processed
Mineral: Miargyrite
Rruff sample: R050440
Ideal chemistry: AgSbS_2_
Locality: Saint Andreasberg, Harz Mountains, Niedersachsen, Germany
Source: University of Arizona Mineral Museum
Description: Black prismatic crystals
Measured chemistry: Ag_1.00_Sb_1.00_S_2.00_
Raman shift (cm-1)	intensity
140.666	0
143.559	0.578763
146.451	0.314221
149.344	0.036259
152.237	0.255993
155.129	0.777278
158.022	1.28533
160.915	1.75003
163.807	2.74478
166.7	3.99169
169.593	6.19217
172.486	7.72955
175.378	9.14721
178.271	8.52339
181.164	7.79131
184.056	8.97886
186.949	10.9315
189.842	11.6759
192.734	8.75378
195.627	4.5375
198.52	1.84965
201.412	1.20838
204.305	1.08114
207.198	0.251144
210.091	0.458
212.983	0.156397
215.876	0.426426
218.769	0.412081
221.661	0.979467
224.554	2.02684
227.447	1.47757
230.339	2.55809
233.232	3.54352
236.125	4.52355
239.018	6.41104
241.91	8.26222
244.803	9.98894
247.696	13.236
250.588	14.727
253.481	15.2359
256.374	14.7957
259.267	19.0799
262.159	23.7453
265.052	27.0152
267.945	24.2804
270.837	22.9163
273.73	25.3273
276.623	30.5507
279.515	26.7
282.408	16.2046
285.301	9.39985
288.193	7.66104
291.086	9.55337
293.979	12.2492
296.872	14.5263
299.764	19.8375
302.657	28.3709
305.55	37.1718
308.442	41.935
311.335	28.955
314.228	15.0442
317.12	8.15339
320.013	4.53517
322.906	2.26037
325.799	1.84297
328.691	0.979233
331.584	0.587502
334.477	0.161861
337.369	0.303288
340.262	0.07341
343.155	0.054494
346.048	0.19718
348.94	0.128052
351.833	0.366383
354.726	0.14596
357.618	0.119297
360.511	0.056153
363.404	0.017904
366.296	0.079793
369.189	0.191233
372.082	0.328326
374.974	0.486439
377.867	0.590157
380.76	0.569859
383.653	0.602439
386.545	0.565251
389.438	0.675251
392.331	0.559624
395.223	0.652482
398.116	0.849313
401.009	0.28828
403.901	0.447617
406.794	0.483489
409.687	0.7061
412.58	0.533351
415.472	0.268989
418.365	0.228695
421.258	0.194427
424.15	0.339666
427.043	0.509187
429.936	0.111536
432.829	0.37076
435.721	0.194633
438.614	0.073901
441.507	0.422623
444.399	0.023103
447.292	0.139237
450.185	0.438079
453.077	0.150818
455.97	0.258529
458.863	0.17169
461.755	0.325032
464.648	0.575375
467.541	0.384589
470.434	0.148239
473.326	0.653928
476.219	0.535238
479.112	0.388287
482.004	0.268586
484.897	0.498009
487.79	0.143388
490.683	0.393888
493.575	0.044888
496.468	0.378483
499.361	0.361269
502.253	0.376282
505.146	0.44102
508.039	0.360568
510.931	0.306552
513.824	0.582052
516.717	0.451453
519.61	0.565058
522.502	0.620379
525.395	0.705624
528.288	0.620017
531.18	0.50772
534.073	0.489325
536.966	0.517924
539.859	0.414794
542.751	0.496778
545.644	0.556931
548.537	0.359056
551.429	0.095196
554.322	0.359207
557.215	0.382451
560.107	0.100387
563	0.331289
565.893	0.086017
568.785	0.71401
571.678	0.123199
574.571	0.313996
577.464	0.271697
580.356	0.488337
583.249	0.410025
586.142	0.25819
589.034	0.316205
591.927	0.505174
594.82	0.222624
597.712	0.313491
600.605	0.011015
603.498	0.214731
606.39	0.084323
609.283	0.17339
612.176	0.095795
615.069	0.105801
617.961	0.213503
620.854	0.345403
623.747	0.326247
626.639	0.628767
629.532	0.237714
632.425	0.43772
635.317	0.068376
638.21	0.338319
641.103	0.416528
643.996	0.060029
646.888	0.000563
649.781	0.447327
652.674	0.127028
655.566	0.53476
658.459	0.316444
661.352	0.229835
664.245	0.0077
667.137	0.183199
670.03	0.401992
672.923	0.052488
675.815	0.663859
678.708	0.004519
681.601	0.713616
684.493	0.314322
687.386	0.343128
690.279	0.316043
693.172	0.238692
696.064	0.043509
698.957	0.252457
701.85	0.026089
704.742	0.529016
707.635	0.230114
710.528	0.473783
713.42	0.204169
716.313	0.230072
719.206	0.181551
722.098	0.424779
724.991	0.206835
727.884	0.332959
730.777	0.123328
733.669	0.625779
736.562	0.455198
739.455	0.345981
742.347	0.527318
745.24	0.347102
748.133	0.104422
751.025	0.006576
753.918	0.137955
756.811	0.052912
759.704	0.012177
762.596	0.060061
765.489	0.179774
768.382	0.121455
771.274	0.282507
774.167	0.051394
777.06	0.126109
779.952	0.048506
782.845	0.163914
785.738	0.056826
788.631	0.093737
791.523	0.107473
794.416	0.319891
797.309	0.150838
800.201	0.337443
803.094	0.305039
805.987	0.277135
808.88	0.327949
811.772	0.120269
814.665	0.371823
817.558	0.046046
820.45	0.298674
823.343	0.283809
826.236	0.183317
829.128	0.370801
832.021	0.334266
834.914	0.098868
837.807	0.052721
840.699	0.171288
843.592	0.416251
846.485	0.019652
849.377	0.109806
852.27	0.150536
855.163	0.374089
858.055	0.267093
860.948	0.320848
863.841	0.295363
866.734	0.389691
869.626	0.190294
872.519	0.082624
875.412	0.275597
878.304	0.061892
881.197	0.290557
884.09	0.185732
886.982	0.405959
889.875	0.324337
892.768	0.230454
895.66	0.121078
898.553	0.293329
901.446	0.060939
904.339	0.02245
907.231	0.175408
910.124	0.399083
913.017	0.434942
915.909	0.419174
918.802	0.342128
921.695	0.235586
924.587	0.179967
927.48	0.304721
930.373	0.152584
933.266	0.287459
936.158	0.003656
939.051	0.264918
941.944	0.073777
944.836	0.095161
947.729	0.069764
950.622	0.290249
953.514	0.480603
956.407	0.112191
959.3	0.437611
962.193	0.083618
965.085	0.096682
967.978	0.141481
970.871	0.212656
973.763	0.296519
976.656	0.332031
979.549	0.266109
982.442	0.255127
985.334	0.143946
988.227	0.31094
991.12	0.259912
994.012	0.135311
996.905	0.369971
999.798	0.113138
1002.69	0.267581
1005.58	0.16727
1008.48	0.455339
1011.37	0.307952
1014.26	0.358477
1017.15	0.306662
1020.05	0.413679
1022.94	0.408979
1025.83	0.588294
1028.72	0.052269
1031.62	0.37181
1034.51	0.074554
1037.4	0.136515
1040.3	0.39139
1043.19	0.238119
1046.08	0.435002
1048.97	0.390358
1051.87	0.078588
1054.76	0.16856
1057.65	0.070489
1060.54	0.406919
1063.44	0.302678
1066.33	0.158524
1069.22	0.216339
1072.12	0.229323
1075.01	0.123089
1077.9	0.374385
1080.79	0.162136
1083.69	0.533668
1086.58	0.073724
1089.47	0.005046
1092.36	0.14571
1095.26	0.422727
1098.15	0.30056
1101.04	0.367887
1103.93	0.445011
1106.83	0.34979
1109.72	0.201761
1112.61	0.275608
1115.51	0.523429
1118.4	0.192103
1121.29	0.023885
1124.18	0.204309
1127.08	0.101744
1129.97	0.359072
1132.86	0.246971
1135.76	0.384233
1138.65	0.291455
1141.54	0.253003
1144.43	0.159836
1147.33	0.41784
1150.22	0.282914
1153.11	0.133649
1156	0.012962
1158.9	0.13013
1161.79	0.148689
1164.68	0.215148
1167.57	0.319069
1170.47	0.136445
1173.36	0.244754
1176.25	0.113455
1179.14	0.30769
1182.04	0.305295
1184.93	0.230891
1187.82	0.210519
1190.72	0.327771
1193.61	0.073986
1196.5	0.100625
1199.39	0.260727
1202.29	0.000508
1205.18	0.320049
1208.07	0.381891
1210.96	0.439311
1213.86	0.470504
1216.75	0.088736
1219.64	0.245948
1222.54	0.288284
1225.43	0.499228
1228.32	0.330155
1231.21	0.246109
1234.11	0.19891
1237	0.047946
1239.89	0.342041
1242.79	0.122969
1245.68	0.421222
1248.57	0.183004
1251.46	0.219267
1254.36	0.380468
1257.25	0.372998
1260.14	0.184969
1263.03	0.278715
1265.93	0.250183
1268.82	0.374249
1271.71	0.307402
1274.6	0.330294
1277.5	0.317107
1280.39	0.119752
1283.28	0.148533
1286.17	0.001185
