Measurement: Raman, 780 nm, unoriented, Raman Data Processed
Mineral: Miargyrite
Rruff sample: R050480
Ideal chemistry: AgSbS_2_
Locality: Boulder County, Colorado, USA
Source: California Institute of Technology
Description: Dark gray metallic fragment, hints of internal red
Measured chemistry: Ag_1.00_Sb_1.00_S_2.00_
Raman shift (cm-1)	intensity
158.387	0
161.28	11.7647
164.172	92.121
167.065	240.769
169.958	454.063
172.85	699.573
175.743	866.311
178.636	914.506
181.529	914.214
184.421	999.822
187.314	1195.15
190.207	1393.14
193.099	1170.82
195.992	594.987
198.885	256.15
201.777	115.021
204.67	46.6065
207.563	15.6678
210.456	4.99387
213.348	16.0023
216.241	18.6031
219.134	14.1505
222.026	2.08874
224.919	20.9242
227.812	50.327
230.704	87.5598
233.597	134.646
236.49	181.759
239.382	233.428
242.275	291.644
245.168	360.002
248.061	433.631
250.953	480.537
253.846	459.07
256.739	409.445
259.631	408.559
262.524	466.939
265.417	531.663
268.31	562.677
271.202	550.604
274.095	596.353
276.988	680.144
279.88	669.444
282.773	443.63
285.666	276.406
288.558	294.361
291.451	428.071
294.344	549.617
297.237	677.927
300.129	872.454
303.022	1115.71
305.915	1385.42
308.807	1520.04
311.7	1147.06
314.593	549.079
317.486	256.716
320.378	131.938
323.271	73.3268
326.164	39.7629
329.056	23.0251
331.949	9.27008
334.842	1.79553
337.734	1.4726
340.627	1.8673
343.52	2.63365
346.413	2.28104
349.305	2.38568
352.198	2.25172
355.091	1.219
357.983	0.751331
360.876	0.60001
363.769	1.75433
366.661	3.0816
369.554	4.9636
372.447	6.12697
375.339	8.15062
378.232	9.11025
381.125	10.5603
384.018	12.3871
386.91	13.4462
389.803	14.6996
392.696	15.7092
395.588	16.2398
398.481	15.8014
401.374	15.1578
404.267	13.7511
407.159	11.833
410.052	10.2158
412.945	9.19383
415.837	8.14143
418.73	7.10215
421.623	6.19558
424.515	6.45688
427.408	7.79029
430.301	5.04798
433.194	4.54199
436.086	4.52893
438.979	3.49801
441.872	3.28808
444.764	2.66788
447.657	2.28753
450.55	1.51539
453.442	1.4018
456.335	0.847585
459.228	0.756196
462.121	0.457753
465.013	0.577754
467.906	0.220107
470.799	0.167276
473.691	0.159525
476.584	0.194903
479.477	0.199553
482.37	0.156999
485.262	0.191272
488.155	0.062149
491.048	0.358377
493.94	0.483887
496.833	1.14105
499.726	1.51092
502.618	1.71536
505.511	1.55039
508.404	1.50235
511.296	2.17787
514.189	1.97815
517.082	2.17947
519.975	2.52347
522.867	2.95236
525.76	2.32837
528.653	2.28511
531.545	1.8764
534.438	1.23392
537.331	1.42193
540.224	0.439443
543.116	0.458389
546.009	0.046178
548.902	0.186157
551.794	0.810147
554.687	0.268968
557.58	0.645635
560.472	0.498373
563.365	1.11427
566.258	1.4675
569.151	1.97346
572.043	1.76466
574.936	2.27056
577.829	2.49184
580.721	2.11899
583.614	2.78662
586.507	2.22482
589.399	1.36043
592.292	1.5141
595.185	1.35095
598.078	1.40969
600.97	1.2474
603.863	1.50565
606.756	1.62649
609.648	1.68413
612.541	2.05242
615.434	1.75224
618.327	2.09179
621.219	2.14108
624.112	2.21961
627.005	2.16502
629.897	1.52887
632.79	1.40312
635.683	1.26296
638.575	1.29713
641.468	0.969342
644.361	1.38379
647.254	0.97793
650.146	0.727646
653.039	0.744195
655.932	0.817225
658.824	0.217188
661.717	0.174247
664.61	0.274158
667.502	0.015529
670.395	0.144621
673.288	0.557842
676.181	0.09125
679.073	0.139589
681.966	0.193994
684.859	0.465531
687.751	0.133017
690.644	0.64073
693.537	0.689372
696.429	0.767974
699.322	0.623126
702.215	0.74421
705.107	1.04467
708	0.828091
710.893	0.833773
713.786	1.20285
716.678	0.97994
719.571	0.903909
722.464	1.12295
725.356	0.887083
728.249	1.177
731.142	0.887097
734.035	0.207047
736.927	0.715767
739.82	1.03791
742.713	0.704095
745.605	0.641655
748.498	0.620656
751.391	0.673074
754.284	0.557797
757.176	0.72388
760.069	0.844625
762.962	0.621922
765.854	0.797015
768.747	0.344536
771.64	0.728847
774.532	0.38274
777.425	0.443893
780.318	0.532625
783.211	0.623699
786.103	0.287116
788.996	0.476191
791.889	0.371074
794.781	0.351873
797.674	0.401709
800.567	0.289136
803.459	0.352361
806.352	0.399903
809.245	0.43899
812.138	0.315222
815.03	0.317539
817.923	0.215407
820.816	0.16176
823.708	0.076718
826.601	0.101242
829.494	0.30009
832.386	0.086641
835.279	0.035262
838.172	0.01783
841.065	0.158017
843.957	0.03874
846.85	0.179703
849.743	0.211136
852.635	0.095218
855.528	0.065388
858.421	0.121451
861.313	0.1577
864.206	0.144254
867.099	0.320631
869.992	0.028676
872.884	0.327288
875.777	0.236977
878.67	0.360778
881.562	0.026496
884.455	0.424158
887.348	0.305487
890.24	0.249669
893.133	0.24696
896.026	0.350341
898.919	0.146005
901.811	0.217734
904.704	0.396533
907.597	0.364244
910.489	0.013439
913.382	0.422349
916.275	0.279599
919.168	0.329519
922.06	0.216981
924.953	0.241758
927.846	0.191802
930.738	0.197127
933.631	0.166199
936.524	0.27146
939.416	0.22148
942.309	0.319544
945.202	0.208232
948.095	0.101177
950.987	0.223233
953.88	0.163287
956.773	0.090766
959.665	0.33077
962.558	0.034298
965.451	0.220265
968.343	0.226586
971.236	0.088198
974.129	0.2101
977.021	0.690576
979.914	0.24394
982.807	0.353267
985.7	0.372825
988.592	0.227091
991.485	0.25546
994.378	0.478288
997.27	0.662408
1000.16	0.278188
1003.06	0.391736
1005.95	0.348464
1008.84	0.462818
1011.73	0.356232
1014.63	0.236424
1017.52	0.294018
1020.41	0.270734
1023.3	0.367546
1026.2	0.218802
1029.09	0.034755
1031.98	0.557602
1034.88	0.334677
1037.77	0.423767
1040.66	0.317629
1043.55	0.382389
1046.45	0.34874
1049.34	0.207691
1052.23	0.191737
1055.12	0.199699
1058.02	0.122499
1060.91	0.306052
1063.8	0.365808
1066.69	0.480418
1069.59	0.347538
1072.48	0.258041
1075.37	0.045223
1078.27	0.023551
1081.16	0.371864
1084.05	0.376513
1086.94	0.185836
1089.84	0.261945
1092.73	0.21952
1095.62	0.354044
1098.52	0.146255
1101.41	0.149374
1104.3	0.405816
1107.19	0.326551
1110.09	0.139363
1112.98	0.231025
1115.87	0.361862
1118.76	0.19606
1121.66	0.21387
1124.55	0.262561
1127.44	0.434847
1130.34	0.247448
1133.23	0.075747
1136.12	0.290283
1139.01	0.415025
1141.91	0.296483
1144.8	0.061623
1147.69	0.28394
1150.58	0.254432
1153.48	0.44069
1156.37	0.348296
1159.26	0.00337
1162.15	0.271266
1165.05	0.11304
1167.94	0.349422
1170.83	0.225078
1173.72	0.453617
1176.62	0.606794
1179.51	0.120719
1182.4	0.180238
1185.3	0.022598
1188.19	0.207989
1191.08	0.311671
1193.97	0.239519
1196.87	0.414651
1199.76	0.310464
1202.65	0.405649
1205.55	0.244099
1208.44	0.286569
1211.33	0.017704
1214.22	0.105941
1217.12	0.607118
1220.01	0.154839
1222.9	0.221007
1225.79	0.071242
1228.69	0.351373
1231.58	0.253209
1234.47	0.542365
1237.37	0.128551
1240.26	0.306185
1243.15	0.320813
1246.04	0.195345
1248.94	0.361122
1251.83	0.290114
1254.72	0.380189
1257.61	0.299526
1260.51	0.022051
1263.4	0.340837
1266.29	0.144866
1269.18	0.311004
1272.08	0.398429
1274.97	0.524341
1277.86	0.112303
1280.76	0.313059
1283.65	0
