Measurement: Raman, 532 nm, unoriented, Raman Data Processed
Mineral: Miargyrite
Rruff sample: R050480
Ideal chemistry: AgSbS_2_
Locality: Boulder County, Colorado, USA
Source: California Institute of Technology
Description: Dark gray metallic fragment, hints of internal red
Measured chemistry: Ag_1.00_Sb_1.00_S_2.00_
Raman shift (cm-1)	intensity
158.022	0
160.915	0.038586
163.807	0.715285
166.7	0.350749
169.593	1.19855
172.486	2.05794
175.378	2.74984
178.271	3.06165
181.164	3.39035
184.056	4.27196
186.949	6.12361
189.842	6.97093
192.734	5.66353
195.627	2.58345
198.52	0.904671
201.412	0.579275
204.305	0.254902
207.198	0.106409
210.091	0.004997
212.983	0.110822
215.876	0.022565
218.769	0.036531
221.661	0.317195
224.554	0.747536
227.447	0.950217
230.339	1.45457
233.232	1.53102
236.125	2.56945
239.018	3.15149
241.91	4.2521
244.803	5.67035
247.696	7.44263
250.588	9.70418
253.481	10.6624
256.374	11.2232
259.267	12.3124
262.159	14.7068
265.052	15.6539
267.945	14.0651
270.837	9.49279
273.73	8.56124
276.623	9.35186
279.515	7.82182
282.408	4.83814
285.301	3.33689
288.193	3.90792
291.086	5.44894
293.979	7.35612
296.872	9.41407
299.764	12.4968
302.657	17.1472
305.55	23.4968
308.442	25.3975
311.335	17.8116
314.228	9.47193
317.12	4.61443
320.013	2.66706
322.906	1.63542
325.799	0.496548
328.691	0.487854
331.584	0.09876
334.477	0.280976
337.369	0.118317
340.262	0.141942
343.155	0.069721
346.048	0.200917
348.94	0.203764
351.833	0.047022
354.726	0.07354
357.618	0.063501
360.511	0.279084
363.404	0.15484
366.296	0.136361
369.189	0.206469
372.082	0.168438
374.974	0.073541
377.867	0.1055
380.76	0.288627
383.653	0.128814
386.545	0.273733
389.438	0.284652
392.331	0.483727
395.223	0.374633
398.116	0.424637
401.009	0.210728
403.901	0.323093
406.794	0.206778
409.687	0.166282
412.58	0.383359
415.472	0.307538
418.365	0.192062
421.258	0.285192
424.15	0.399004
427.043	0.344209
429.936	0.110448
432.829	0.123108
435.721	0.103619
438.614	0.094219
441.507	0.287904
444.399	0.134107
447.292	0.020063
450.185	0.311708
453.077	0.176272
455.97	0.294123
458.863	0.138416
461.755	0.282278
464.648	0.148328
467.541	0.235049
470.434	0.131661
473.326	0.047181
476.219	0.117769
479.112	0.131648
482.004	0.192217
484.897	0.146174
487.79	0.082967
490.683	0.218542
493.575	0.246619
496.468	0.205432
499.361	0.237076
502.253	0.179096
505.146	0.455815
508.039	0.312261
510.931	0.162901
513.824	0.544339
516.717	0.437243
519.61	0.449767
522.502	0.522405
525.395	0.468002
528.288	0.501837
531.18	0.045215
534.073	0.326638
536.966	0.356107
539.859	0.269491
542.751	0.504962
545.644	0.321628
548.537	0.195502
551.429	0.109737
554.322	0.220531
557.215	0.216182
560.107	0.018421
563	0.122541
565.893	0.216753
568.785	0.362335
571.678	0.409713
574.571	0.257628
577.464	0.358257
580.356	0.509674
583.249	0.179926
586.142	0.00485
589.034	0.26574
591.927	0.246917
594.82	0.251031
597.712	0.140933
600.605	0.364664
603.498	0.065439
606.39	0.297296
609.283	0.113881
612.176	0.153658
615.069	0.152347
617.961	0.017305
620.854	0.258861
623.747	0.272986
626.639	0.311237
629.532	0.125587
632.425	0.155874
635.317	0.073014
638.21	0.31241
641.103	0.162555
643.996	0.230504
646.888	0.204015
649.781	0.274656
652.674	0.130082
655.566	0.225162
658.459	0.202821
661.352	0.071291
664.245	0.144751
667.137	0.125791
670.03	0.110208
672.923	0.029515
675.815	0.478578
678.708	0.185617
681.601	0.254595
684.493	0.028261
687.386	0.391195
690.279	0.072354
693.172	0.20948
696.064	0.091228
698.957	0.04496
701.85	0.172047
704.742	0.182148
707.635	0.10589
710.528	0.093407
713.42	0.115662
716.313	0.084168
719.206	0.097855
722.098	0.144186
724.991	0.156801
727.884	0.084885
730.777	0.177527
733.669	0.148384
736.562	0.171938
739.455	0.217302
742.347	0.268145
745.24	0.147315
748.133	0.120796
751.025	0.254732
753.918	0.000709
756.811	0.141406
759.704	0.201212
762.596	0.208351
765.489	0.077938
768.382	0.009468
771.274	0.204704
774.167	0.00034
777.06	0.117124
779.952	0.058123
782.845	0.187718
785.738	0.154797
788.631	0.010957
791.523	0.203583
794.416	0.280725
797.309	0.055147
800.201	0.103834
803.094	0.183683
805.987	0.066053
808.88	0.218779
811.772	0.081555
814.665	0.033612
817.558	0.290815
820.45	0.120262
823.343	0.219921
826.236	0.310148
829.128	0.084539
832.021	0.19865
834.914	0.150516
837.807	0.335751
840.699	0.137754
843.592	0.162386
846.485	0.179196
849.377	0.097327
852.27	0.327678
855.163	0.200369
858.055	0.133119
860.948	0.38356
863.841	0.274146
866.734	0.254911
869.626	0.083519
872.519	0.045845
875.412	0.218857
878.304	0.144755
881.197	0.22057
884.09	0.188156
886.982	0.199514
889.875	0.231122
892.768	0.274154
895.66	0.275128
898.553	0.196589
901.446	0.164432
904.339	0.049596
907.231	0.085802
910.124	0.178542
913.017	0.240459
915.909	0.049264
918.802	0.161074
921.695	0.098097
924.587	0.254971
927.48	0.012103
930.373	0.272786
933.266	0.250203
936.158	0.030457
939.051	0.0976
941.944	0.013619
944.836	0.0728
947.729	0.033535
950.622	0.095501
953.514	0.146587
956.407	0.055717
959.3	0.024898
962.193	0.13991
965.085	0.097366
967.978	0.115028
970.871	0.173014
973.763	0.194514
976.656	0.078925
979.549	0.152673
982.442	0.237634
985.334	0.316865
988.227	0.167853
991.12	0.088771
994.012	0.098944
996.905	0.031198
999.798	0.009384
1002.69	0.072154
1005.58	0.118991
1008.48	0.083353
1011.37	0.049366
1014.26	0.208628
1017.15	0.161264
1020.05	0.260524
1022.94	0.30525
1025.83	0.278508
1028.72	0.112811
1031.62	0.231456
1034.51	0.316689
1037.4	0.177421
1040.3	0.278512
1043.19	0.217279
1046.08	0.066838
1048.97	0.105256
1051.87	0.113776
1054.76	0.100905
1057.65	0.091496
1060.54	0.184944
1063.44	0.069907
1066.33	0.198405
1069.22	0.037859
1072.12	0.080752
1075.01	0.115774
1077.9	0.109509
1080.79	0.054386
1083.69	0.251218
1086.58	0.148973
1089.47	0.15191
1092.36	0.166122
1095.26	0.159008
1098.15	0.010135
1101.04	0.204362
1103.93	0.080145
1106.83	0.330944
1109.72	0.190418
1112.61	0.013555
1115.51	0.166253
1118.4	0.126467
1121.29	0.150788
1124.18	0.043783
1127.08	0.069801
1129.97	0.276276
1132.86	0.066598
1135.76	0.054222
1138.65	0.162015
1141.54	0.175678
1144.43	0.038434
1147.33	0.227074
1150.22	0.065231
1153.11	0.060471
1156	0.040053
1158.9	0.12614
1161.79	0.148538
1164.68	0.201528
1167.57	0.19065
1170.47	0.052282
1173.36	0.241541
1176.25	0.302069
1179.14	0.136527
1182.04	0.186201
1184.93	0.011661
1187.82	0.095859
1190.72	0.273354
1193.61	0.03654
1196.5	0.253417
1199.39	0.142257
1202.29	0.143438
1205.18	0.141021
1208.07	0.014449
1210.96	0.144235
1213.86	0.247909
1216.75	0.1227
1219.64	0.084237
1222.54	0.068061
1225.43	0.242885
1228.32	0.18836
1231.21	0.219983
1234.11	0.029704
1237	0.149706
1239.89	0.283919
1242.79	0.143553
1245.68	0.318222
1248.57	0.053415
1251.46	0.339265
1254.36	0.245037
1257.25	0.214337
1260.14	0.247208
1263.03	0.243053
1265.93	0.213147
1268.82	0.150928
1271.71	0.279349
1274.6	0.085289
1277.5	0.220886
1280.39	0.029551
1283.28	0.05839
