Measurement: Raman, 780 nm, unoriented, Raman Data Processed
Mineral: Miargyrite
Rruff sample: R050440
Ideal chemistry: AgSbS_2_
Locality: Saint Andreasberg, Harz Mountains, Niedersachsen, Germany
Source: University of Arizona Mineral Museum
Description: Black prismatic crystals
Measured chemistry: Ag_1.00_Sb_1.00_S_2.00_
Raman shift (cm-1)	intensity
140.066	0
142.959	22.5768
145.852	7.0304
148.744	18.3208
151.637	112.26
154.53	281.46
157.423	492.23
160.315	692.134
163.208	948.168
166.101	1348.06
168.994	1982.25
171.886	2826.97
174.779	3425.97
177.672	3515.79
180.564	3319.93
183.457	3336.11
186.35	3812.32
189.242	4702.42
192.135	4604.09
195.028	2531.76
197.921	1160.73
200.813	561.522
203.706	272.134
206.599	112.807
209.491	42.5892
212.384	9.70654
215.277	37.209
218.169	33.705
221.062	13.0421
223.955	44.733
226.847	122.788
229.74	265.372
232.633	445.877
235.526	633.69
238.418	823.638
241.311	1084.14
244.204	1431.04
247.096	1884.45
249.989	2258.01
252.882	2331.93
255.774	2184.77
258.667	2239.54
261.56	2651.04
264.453	3168.15
267.345	3204.27
270.238	2569.29
273.131	2426.9
276.023	2918.49
278.916	3302.23
281.809	2282.38
284.702	1138.5
287.594	914.262
290.487	1267.35
293.38	1618.37
296.272	1928.45
299.165	2460.39
302.058	3222.8
304.95	4345.34
307.843	5530.94
310.736	4744.85
313.628	2285.24
316.521	964.452
319.414	446.995
322.307	218.062
325.199	103.099
328.092	46.2985
330.985	10.8926
333.877	7.5354
336.77	16.7343
339.663	15.4187
342.556	15.2792
345.448	17.1851
348.341	7.69873
351.234	0.973785
354.126	7.9864
357.019	14.783
359.912	23.6201
362.805	33.5179
365.697	40.4917
368.59	49.4424
371.483	58.5737
374.375	67.8058
377.268	74.9561
380.161	81.1239
383.053	89.7695
385.946	95.8916
388.839	99.4886
391.731	106.018
394.624	101.927
397.517	95.7613
400.41	88.6842
403.302	81.5082
406.195	73.5771
409.088	66.0178
411.98	60.335
414.873	55.2152
417.766	49.2373
420.659	45.254
423.551	42.9492
426.444	38.5675
429.337	36.6476
432.229	32.3857
435.122	29.4403
438.015	27.402
440.907	23.5385
443.8	25.0041
446.693	20.048
449.586	18.4756
452.478	14.9371
455.371	13.2581
458.264	11.3085
461.156	8.7416
464.049	8.10915
466.942	4.47595
469.834	4.43054
472.727	2.36113
475.62	1.06328
478.513	0.003143
481.405	0.144695
484.298	0.279472
487.191	0.085701
490.083	0.635876
492.976	0.706718
495.869	0.236492
498.762	1.35864
501.654	1.67274
504.547	0.015903
507.44	0.476994
510.332	0.492664
513.225	3.59864
516.118	1.9667
519.01	2.61849
521.903	2.7913
524.796	2.91076
527.688	0.386971
530.581	1.40867
533.474	0.250732
536.367	0.787178
539.259	1.39173
542.152	1.93137
545.045	1.8166
547.937	0.924522
550.83	0.341125
553.723	0.347198
556.615	0.61129
559.508	2.69812
562.401	4.04039
565.294	2.59098
568.186	4.23202
571.079	7.08903
573.972	8.12937
576.864	6.51003
579.757	7.29438
582.65	7.71304
585.543	9.04177
588.435	7.66631
591.328	7.25652
594.221	6.05207
597.113	4.77966
600.006	6.03959
602.899	4.034
605.791	4.77208
608.684	4.07653
611.577	4.99551
614.47	4.75879
617.362	5.25979
620.255	6.62809
623.148	6.14232
626.04	5.73478
628.933	3.53239
631.826	2.73025
634.718	3.18782
637.611	1.65448
640.504	2.53712
643.397	2.20656
646.289	0.53334
649.182	1.24935
652.075	1.43044
654.967	1.09542
657.86	1.23827
660.753	0.20603
663.645	0.365046
666.538	0.397815
669.431	0.038524
672.324	0.901281
675.216	0.547341
678.109	0.396426
681.002	0.109934
683.894	1.65947
686.787	2.63038
689.68	2.09111
692.572	3.13565
695.465	3.07136
698.358	2.60072
701.251	3.92915
704.143	3.28373
707.036	2.80797
709.929	3.62554
712.821	3.02051
715.714	3.66964
718.607	4.00199
721.5	2.30353
724.392	4.77023
727.285	2.55567
730.178	3.49248
733.07	2.81213
735.963	2.6547
738.856	2.01022
741.749	1.47598
744.641	1.77384
747.534	1.8667
750.427	1.94567
753.319	2.18385
756.212	1.82811
759.105	3.35973
761.997	1.09321
764.89	0.827821
767.783	2.03342
770.676	1.08286
773.568	1.96452
776.461	1.52145
779.354	2.26232
782.246	1.67794
785.139	0.357521
788.032	1.21275
790.924	1.23151
793.817	0.589768
796.71	1.15358
799.602	0.765051
802.495	0.470451
805.388	0.300308
808.281	0.960754
811.173	0.822084
814.066	1.28515
816.959	0.397528
819.851	2.23168
822.744	0.659954
825.637	1.00545
828.529	1.27072
831.422	1.10883
834.315	1.25605
837.208	0.504286
840.1	0.332679
842.993	1.20289
845.886	0.901381
848.778	0.134648
851.671	0.980027
854.564	0.270104
857.457	1.66837
860.349	1.53864
863.242	1.49668
866.135	1.17095
869.027	0.85482
871.92	1.17199
874.813	0.438427
877.705	1.77677
880.598	1.09379
883.491	0.51527
886.384	0.512542
889.276	1.01553
892.169	1.29876
895.062	0.44127
897.954	1.32602
900.847	1.63635
903.74	0.936954
906.632	1.43922
909.525	2.08457
912.418	2.02055
915.311	1.4873
918.203	0.722702
921.096	0.386852
923.989	1.59608
926.881	0.50178
929.774	1.12817
932.667	1.64599
935.559	1.35905
938.452	0.434043
941.345	1.39356
944.238	1.48556
947.13	1.71564
950.023	2.53474
952.916	0.710104
955.808	0.56915
958.701	0.356402
961.594	0.988743
964.486	1.04932
967.379	0.683586
970.272	0.031633
973.165	1.38677
976.057	1.13332
978.95	0.877785
981.843	1.22621
984.735	0.900708
987.628	0.577189
990.521	0.649457
993.413	1.27781
996.306	1.79506
999.199	0.52359
1002.09	0.029716
1004.98	0.658943
1007.88	2.04916
1010.77	1.72936
1013.66	0.836611
1016.55	0.426706
1019.45	0.654358
1022.34	1.19974
1025.23	2.19199
1028.13	0.662867
1031.02	1.26203
1033.91	0.342515
1036.8	0.211244
1039.7	1.72438
1042.59	1.06038
1045.48	0.73553
1048.38	1.39531
1051.27	0.160752
1054.16	0.651227
1057.05	1.42183
1059.95	1.52188
1062.84	1.41059
1065.73	0.96329
1068.62	1.22079
1071.52	1.64644
1074.41	1.38374
1077.3	0.363118
1080.19	1.94664
1083.09	1.12342
1085.98	0.968975
1088.87	0.392206
1091.77	0.588399
1094.66	1.83534
1097.55	2.33425
1100.44	2.33333
1103.34	0.787634
1106.23	1.2042
1109.12	1.67945
1112.01	1.50745
1114.91	1.03504
1117.8	1.65044
1120.69	0.414971
1123.59	0.941783
1126.48	1.36664
1129.37	0.51889
1132.26	1.77823
1135.16	0.501094
1138.05	1.11905
1140.94	0.804926
1143.83	0.574251
1146.73	0.245972
1149.62	1.35305
1152.51	1.92111
1155.4	0.67233
1158.3	0.079574
1161.19	0.501529
1164.08	0.225704
1166.98	0.488241
1169.87	1.15265
1172.76	1.3673
1175.65	0.954242
1178.55	0.327324
1181.44	0.224627
1184.33	0.702585
1187.22	0.885427
1190.12	0.816393
1193.01	0.320467
1195.9	0.690049
1198.8	0.400705
1201.69	0.530669
1204.58	0.189925
1207.47	1.42355
1210.37	0.910767
1213.26	0.905068
1216.15	0.934865
1219.04	1.48023
1221.94	1.3134
1224.83	0.207081
1227.72	0.672092
1230.62	0.705206
1233.51	0.665176
1236.4	0.096584
1239.29	1.03729
1242.19	0.683994
1245.08	0.877063
1247.97	0.84357
1250.86	1.19072
1253.76	0.790986
1256.65	0.61281
1259.54	1.31149
1262.43	1.84805
1265.33	1.32423
1268.22	1.00472
1271.11	2.06924
1274.01	1.62577
1276.9	1.46944
1279.79	0.507725
1282.68	0.11506
1285.58	0.908072
