Measurement: Raman, 532 nm, unoriented, Raman Data Processed
Mineral: Miargyrite
Rruff sample: R050440
Ideal chemistry: AgSbS_2_
Locality: Saint Andreasberg, Harz Mountains, Niedersachsen, Germany
Source: University of Arizona Mineral Museum
Description: Black prismatic crystals
Measured chemistry: Ag_1.00_Sb_1.00_S_2.00_
Raman shift (cm-1)	intensity
91.346	0
94.239	46.504
97.132	39.868
100.024	41.862
102.917	52.941
105.81	77.77
108.702	82.502
111.595	98.721
114.488	112.53
117.381	155.396
120.273	205.43
123.166	127.621
126.059	52.959
128.951	33.272
131.844	28.885
134.737	30.631
137.63	41.485
140.522	53.884
143.415	54.834
146.308	49.964
149.2	28.617
152.093	20.718
154.986	0.162
157.878	2.866
160.771	1.906
163.664	0.591
166.557	5.583
169.449	0.511
172.342	3.64
175.235	23.254
178.127	71.119
181.02	217.603
183.913	398.162
186.805	594.006
189.698	955.654
192.591	952.481
195.484	244.159
198.376	76.197
201.269	37.373
204.162	13.396
207.054	5.096
209.947	1.523
212.84	0.689
215.732	8.682
218.625	4.679
221.518	0.489
224.411	13.475
227.303	9.089
230.196	31.367
233.089	50.518
235.981	101.256
238.874	184.911
241.767	398.082
244.66	738.46
247.552	1148.7
250.445	1727.59
253.338	2118.41
256.23	1286.03
259.123	527.322
262.016	269.401
264.908	152.866
267.801	102.676
270.694	77.568
273.586	49.213
276.479	29.966
279.372	11.316
282.265	5.018
285.157	0.216
288.05	7.301
290.943	1.377
293.835	2.259
296.728	1.698
299.621	0.963
302.513	3.01
305.406	3.768
308.299	7.243
311.192	1.95
314.084	47.188
316.977	7.133
319.87	18.708
322.762	14.395
325.655	11.016
328.548	18.503
331.44	22.14
334.333	4.914
337.226	6.354
340.119	11.565
343.011	13.116
345.904	25.722
348.797	34.483
351.689	42.336
354.582	32.649
357.475	37.117
360.367	26.456
363.26	47.906
366.153	95.67
369.046	114.573
371.938	151.859
374.831	125.195
377.724	77.898
380.616	43.786
383.509	24.967
386.402	14.576
389.294	8.993
392.187	0.01
395.08	0.162
397.973	4.373
400.865	3.076
403.758	0.745
406.651	2.081
409.543	3.294
412.436	0.385
415.329	4.122
418.221	4.052
421.114	0.433
424.007	7.81
426.9	11.01
429.792	19.218
432.685	30.173
435.578	49.521
438.47	90.287
441.363	143.185
444.256	221.45
447.148	324.54
450.041	362.167
452.934	317.503
455.827	205.776
458.719	122.522
461.612	83.91
464.505	60.382
467.397	33.975
470.29	33.681
473.183	22.104
476.076	22.525
478.968	15.711
481.861	9.048
484.754	10.948
487.646	4.776
490.539	5.975
493.432	2.8
496.324	3.634
499.217	1.306
502.11	5.317
505.003	3.54
507.895	7.853
510.788	9.404
513.681	2.667
516.573	3.737
519.466	5.549
522.359	10.406
525.251	11.478
528.144	11.473
531.037	9.508
533.93	11.751
536.822	9.008
539.715	0.697
542.608	11.064
545.5	7.282
548.393	2.146
551.286	3.206
554.178	7.448
557.071	0.926
559.964	7.743
562.857	3.735
565.749	3.34
568.642	3.526
571.535	2.965
574.427	5.123
577.32	0.151
580.213	3.471
583.105	7.644
585.998	9.293
588.891	10.12
591.784	3.647
594.676	6.611
597.569	4.43
600.462	3.345
603.354	5.253
606.247	0.584
609.14	3.066
612.032	3.904
614.925	1.26
617.818	7.778
620.711	4.54
623.603	4.756
626.496	10.585
629.389	0.272
632.281	7.925
635.174	5.427
638.067	2.707
640.959	6.173
643.852	4.802
646.745	5.752
649.638	4.389
652.53	11.679
655.423	0.179
658.316	2.676
661.208	0.801
664.101	4.129
666.994	9.792
669.886	4.855
672.779	3.66
675.672	7.274
678.565	11.629
681.457	3.508
684.35	16.319
687.243	12.095
690.135	18.238
693.028	24.99
695.921	27.29
698.813	33.274
701.706	35.236
704.599	37.806
707.492	44.042
710.384	36.118
713.277	33.831
716.17	22.551
719.062	18.595
721.955	11.448
724.848	6.457
727.74	9.725
730.633	0.269
733.526	1.084
736.419	4.74
739.311	5.572
742.204	2.387
745.097	7.12
747.989	1.915
750.882	4.233
753.775	2.894
756.667	12.201
759.56	0.677
762.453	14.11
765.346	8.781
768.238	5.958
771.131	3.314
774.024	3.319
776.916	4.181
779.809	8.648
782.702	5.255
785.594	7.614
788.487	2.297
791.38	13.862
794.273	1.888
797.165	10.675
800.058	9.729
802.951	9.01
805.843	8.139
808.736	11.252
811.629	1.872
814.521	9.005
817.414	13.106
820.307	5.556
823.2	11.757
826.092	11.028
828.985	5.312
831.878	11.346
834.77	11.554
837.663	41.49
840.556	5.468
843.448	9.314
846.341	9.724
849.234	7.311
852.127	10.448
855.019	3.928
857.912	9.235
860.805	12.438
863.697	11.121
866.59	6.662
869.483	7.235
872.375	6.277
875.268	6.705
878.161	7.356
881.054	10.266
883.946	7.032
886.839	7.313
889.732	14.368
892.624	8.83
895.517	17.08
898.41	9.813
901.302	2.276
904.195	4.457
907.088	5.253
909.981	1.656
912.873	3.253
915.766	4.019
918.659	1.726
921.552	11.346
924.444	14.767
927.337	4.867
930.23	4.816
933.122	5.557
936.015	6.047
938.908	9.667
941.8	5.2
944.693	5.607
947.586	8.533
950.479	7.159
953.371	0.754
956.264	0.385
959.157	6.275
962.049	6.91
964.942	11.146
967.835	2.856
970.727	11.106
973.62	2.01
976.513	12.924
979.406	3.262
982.298	3.414
985.191	5.965
988.084	3.4
990.976	8.499
993.869	6.134
996.762	8.523
999.654	1.982
1002.55	9.516
1005.44	3.255
1008.33	12.522
1011.23	4.929
1014.12	13.222
1017.01	5.538
1019.9	5.17
1022.8	5.936
1025.69	4.813
1028.58	12.234
1031.47	0.531
1034.37	4.75
1037.26	12.43
1040.15	3.603
1043.05	1.98
1045.94	4.11
1048.83	2.813
1051.72	12.116
1054.62	4.84
1057.51	11.248
1060.4	2.029
1063.29	4.321
1066.19	10.162
1069.08	9.22
1071.97	17.082
1074.87	4.956
1077.76	7.68
1080.65	8.032
1083.54	7.65
1086.43	6.238
1089.33	1.856
1092.22	12.327
1095.11	0.173
1098.01	8.729
1100.9	10.78
1103.79	0.528
1106.68	8.079
1109.58	4.21
