Measurement: Raman, 532 nm, unoriented, Raman Data Processed
Mineral: Microcline
Rruff sample: R120005
Ideal chemistry: KAlSi_3_O_8_
Locality: Mount Malosa, Zomba District, Malawi
Source: Marcus Origlieri
Description: Tan colored euhedral crystals associated with black arfvedsonite
Raman shift (cm-1)	intensity
195.112	0
198.004	29.6124
200.897	31.4166
203.79	10.1357
206.682	3.15265
209.575	0.116577
212.468	0.682556
215.36	0.311035
218.253	0.987427
221.146	3.88989
224.038	7.31494
226.931	8.56909
229.824	8.42535
232.717	12.5309
235.609	15.3999
238.502	17.3027
241.395	29.4642
244.287	38.933
247.18	56.9443
250.073	77.0812
252.965	117.777
255.858	157.433
258.751	176.256
261.644	165.062
264.536	181.719
267.429	176.642
270.322	131.831
273.214	112.71
276.107	120.732
279	155.85
281.892	209.547
284.785	246.479
287.678	201.463
290.571	106.676
293.463	62.4332
296.356	43.9517
299.249	31.4421
302.141	21.061
305.034	13.1956
307.927	5.67749
310.82	4.62042
313.712	0.617126
316.605	4.367
319.498	5.7702
322.39	7.31085
325.283	10.4374
328.176	20.2017
331.068	27.6413
333.961	18.8466
336.854	6.64777
339.747	1.66357
342.639	1.12085
345.532	3.56226
348.425	0.378113
351.317	1.67285
354.21	9.17419
357.103	13.0659
359.995	12.1792
362.888	12.1313
365.781	20.2253
368.673	31.9376
371.566	46.3095
374.459	35.4493
377.352	13.8059
380.244	9.98761
383.137	8.15759
386.03	12.2865
388.922	15.9786
391.815	19.1088
394.708	22.9064
397.601	32.5601
400.493	49.8198
403.386	51.6301
406.279	34.6889
409.171	26.6013
412.064	25.9246
414.957	14.4919
417.849	3.54156
420.742	1.59375
423.635	3.33954
426.527	1.79535
429.42	0.651062
432.313	0.775269
435.206	8.15753
438.098	20.9842
440.991	37.388
443.884	54.4788
446.776	86.9954
449.669	130.562
452.562	168.701
455.454	153.272
458.347	102.346
461.24	87.6343
464.133	97.1547
467.025	123.043
469.918	174.239
472.811	238.462
475.703	260.682
478.596	196.286
481.489	128.531
484.382	104.214
487.274	64.6956
490.167	45.6902
493.06	49.5257
495.952	75.9795
498.845	131.214
501.738	194.812
504.63	276.895
507.523	407.418
510.416	558.898
513.308	620.316
516.201	433.317
519.094	220.998
521.987	117.62
524.879	70.97
527.772	46.4513
530.665	27.3928
533.557	13.9755
536.45	9.8559
539.343	4.41821
542.236	3.0033
545.128	0.37384
548.021	0.673035
550.914	4.66034
553.806	0.002625
556.699	2.55658
559.592	1.10034
562.484	0.798157
565.377	0.207642
568.27	0.622253
571.163	0.235413
574.055	2.00305
576.948	12.0563
579.841	13.4329
582.733	17.726
585.626	13.7593
588.519	7.5105
591.411	5.38342
594.304	2.79761
597.197	3.0014
600.09	1.60413
602.982	1.41199
605.875	1.63696
608.768	1.02905
611.66	3.24615
614.553	3.01752
617.446	5.03949
620.338	3.61597
623.231	5.91235
626.124	6.46954
629.016	7.72913
631.909	7.49383
634.802	10.2822
637.695	13.9582
640.587	21.9331
643.48	26.8185
646.373	36.6307
649.265	43.3084
652.158	40.0434
655.051	34.5977
657.943	22.5402
660.836	17.0821
663.729	5.16193
666.622	2.22174
669.514	3.60602
672.407	2.30182
675.3	2.63226
678.192	0.610352
681.085	6.68585
683.978	4.45019
686.87	1.81982
689.763	3.40595
692.656	1.15497
695.549	1.47919
698.441	2.51398
701.334	0.035522
704.227	0.656677
707.119	0.638
710.012	6.62811
712.905	3.24945
715.798	1.7962
718.69	0.615234
721.583	1.85877
724.476	2.86554
727.368	4.2063
730.261	9.25104
733.154	11.4645
736.046	19.9462
738.939	31.8621
741.832	43.5868
744.725	66.1102
747.617	79.7054
750.51	67.2116
753.403	45.3458
756.295	27.342
759.188	16.2384
762.081	12.0084
764.973	6.8399
767.866	7.78809
770.759	4.10162
773.652	6.04578
776.544	1.31494
779.437	0.68042
782.33	3.94598
785.222	2.2901
788.115	1.11273
791.008	3.42059
793.9	5.13019
796.793	5.4195
799.686	11.093
802.578	22.0903
805.471	33.1871
808.364	51.9439
811.257	63.7556
814.149	68.0113
817.042	43.781
819.935	24.4831
822.827	15.8248
825.72	9.26257
828.613	6.36121
831.505	4.1911
834.398	1.94147
837.291	2.57172
840.184	3.94269
843.076	2.9881
845.969	2.5304
848.862	0.207642
851.754	2.11676
854.647	3.07941
857.54	6.75659
860.433	4.8139
863.325	5.08594
866.218	5.04901
869.111	1.37506
872.003	3.92542
874.896	5.61017
877.789	3.10492
880.681	0.43573
883.574	4.11316
886.467	5.19373
889.36	3.46118
892.252	2.80945
895.145	2.65918
898.038	0.552063
900.93	4.58356
903.823	8.45355
906.716	9.19672
909.608	14.3856
912.501	13.0591
915.394	9.0235
918.287	8.60303
921.179	4.89545
924.072	3.95966
926.965	1.49896
929.857	1.6507
932.75	1.26306
935.643	1.91083
938.535	1.60303
941.428	1.80054
944.321	1.52856
947.213	2.99304
950.106	3.66888
952.999	4.19665
955.892	2.93695
958.784	0.981262
961.677	0.250305
964.57	0.215576
967.462	3.1051
970.355	4.19086
973.248	4.18793
976.14	2.81665
979.033	9.74896
981.926	13.8887
984.819	19.8298
987.711	29.7598
990.604	36.9625
993.497	49.7506
996.389	45.2965
999.282	34.5703
1002.17	25.7979
1005.07	22.0807
1007.96	14.802
1010.85	10.3625
1013.75	4.6944
1016.64	2.01801
1019.53	6.15991
1022.42	6.65118
1025.32	8.28888
1028.21	7.07227
1031.1	8.96863
1033.99	12.6768
1036.89	14.0217
1039.78	13.4941
1042.67	11.5438
1045.57	9.12683
1048.46	5.24249
1051.35	8.60065
1054.24	9.08582
1057.14	8.3689
1060.03	3.91656
1062.92	5.77911
1065.81	1.1532
1068.71	3.33032
1071.6	1.26562
1074.49	2.22943
1077.38	1.19189
1080.28	1.28003
1083.17	0.110291
1086.06	1.91162
1088.96	4.05926
1091.85	4.55713
1094.74	12.7017
1097.63	14.8987
1100.53	15.954
1103.42	11.8884
1106.31	18.5231
1109.2	15.8582
1112.1	18.3837
1114.99	32.0393
1117.88	38.7159
1120.78	52.7272
1123.67	64.2755
1126.56	58.754
1129.45	48.9183
1132.35	43.7557
1135.24	47.8976
1138.13	52.9996
1141.02	46.4348
1143.92	27.666
1146.81	21.5605
1149.7	17.1356
1152.6	7.70422
1155.49	4.70349
1158.38	5.51904
1161.27	1.479
1164.17	1.94873
1167.06	2.79639
1169.95	0.87085
1172.84	7.33337
1175.74	0.918945
1178.63	3.32043
1181.52	2.08252
1184.41	0.861084
1187.31	2.87463
1190.2	0.037109
1193.09	2.0221
1195.99	0.499756
1198.88	0.777466
1201.77	3.01721
1204.66	0.044556
1207.56	4.56457
1210.45	8.76086
1213.34	9.31372
1216.23	5.89539
1219.13	2.56519
1222.02	3.30579
1224.91	3.31238
1227.81	3.96875
1230.7	1.42566
1233.59	3.42761
1236.48	0.747314
1239.38	2.93335
1242.27	2.44836
1245.16	5.02759
1248.05	3.37659
1250.95	0.09436
1253.84	4.18201
1256.73	2.39246
1259.62	3.13538
1262.52	5.10547
1265.41	6.07568
1268.3	6.6958
1271.2	4.85376
1274.09	3.74915
1276.98	2.51782
1279.87	7.27893
1282.77	0.38855
1285.66	1.42651
1288.55	6.15662
1291.44	2.63281
1294.34	5.14502
1297.23	3.52063
1300.12	4.479
1303.02	0
