Measurement: Raman, 514 nm, unoriented, Raman Data Processed
Mineral: Microcline
Rruff sample: R050150
Ideal chemistry: KAlSi_3_O_8_
Locality: Crystal Peak area, Park/Teller Counties, Colorado, USA
Source: Dave Bunk Minerals
Description: Pale blue prismatic crystals
Measured chemistry: (K_0.95_Na_0.05_)_Î£=1_Al_1.00_Si_3.00_O_8_
Raman shift (cm-1)	intensity
108.691	0
112.864	22.269
117.034	470.07
121.203	1326.45
125.369	3244.39
129.534	1791.1
133.696	1143.95
137.857	3720.2
142.016	4152.37
146.172	3824.73
150.327	6283.56
154.48	12494.3
158.63	13135.2
162.779	6495.88
166.926	3138.2
171.07	1808.92
175.213	1844.66
179.354	2005.39
183.493	1260.41
187.63	958.943
191.765	800.174
195.898	1472.03
200.029	1849
204.158	981.149
208.285	490.321
212.41	80.692
216.533	145.067
220.654	25.981
224.773	3.736
228.891	96.095
233.006	61.183
237.119	18.106
241.231	89.424
245.34	441.516
249.448	1354.01
253.553	3227.42
257.657	4996.85
261.758	4515.42
265.858	4860.6
269.956	2994.79
274.052	3007.55
278.146	5594.38
282.237	11227.4
286.327	11401.1
290.416	5257.7
294.502	2460.52
298.586	1687.3
302.668	698.827
306.749	531.687
310.827	267.833
314.903	191.427
318.978	290.586
323.051	393.393
327.121	1244.26
331.19	1855.89
335.257	1040.86
339.322	443.589
343.385	225.306
347.446	125.133
351.505	367.055
355.563	504.067
359.618	331.163
363.672	257.326
367.723	368.539
371.773	609.801
375.821	392.861
379.866	496.537
383.91	69.375
387.952	59.328
391.992	95.094
396.031	68.645
400.067	376.387
404.101	431.379
408.134	225.547
412.165	151.65
416.193	54.609
420.22	27.564
424.245	31.447
428.268	105.562
432.289	74.568
436.309	153.182
440.326	337.865
444.342	647.072
448.355	1811.1
452.367	3363.58
456.377	2561.15
460.385	1473.78
464.391	1660.4
468.395	3010.83
472.398	6459.18
476.398	7332.45
480.397	5117.66
484.394	4225.8
488.389	1989.87
492.382	1382.89
496.373	1350.9
500.362	2273.89
504.349	4974.89
508.335	12411.9
512.319	22171.4
516.3	13029
520.28	5583.08
524.259	2819.23
528.235	1500.58
532.209	941.432
536.182	830.1
540.152	638.713
544.121	227.229
548.088	353.525
552.053	303.842
556.017	205.318
559.978	217.602
563.938	149.543
567.895	129.047
571.851	191.814
575.805	249.814
579.758	310.924
583.708	734.531
587.657	367.201
591.603	75.574
595.548	18.24
599.491	262.529
603.432	91.873
607.372	85.115
611.309	64.744
615.245	233.203
619.179	263.301
623.111	543.5
627.041	269.734
630.97	507.902
634.896	466.592
638.821	548.861
642.744	737.668
646.665	822.24
650.584	1174.21
654.502	1096.06
658.418	670.791
662.331	394.402
666.244	116.889
670.154	284.234
674.062	177.936
677.969	225.152
681.874	272.982
685.777	20.625
689.678	88.621
693.577	301.576
697.475	107.535
701.371	127.291
705.265	259.859
709.157	216.824
713.047	215.059
716.936	238.51
720.823	198.477
724.708	123.541
728.591	42.486
732.472	160.58
736.352	274.586
740.23	755.406
744.106	1132.36
747.98	1662.73
751.853	1514.81
755.723	852.719
759.592	533.02
763.459	465.922
767.325	628.242
771.188	525.596
775.05	137.227
778.91	193.439
782.768	81.607
786.625	302.801
790.479	120.254
794.332	147.869
798.183	339.439
802.033	386.404
805.88	293.393
809.726	1269.62
813.57	1753.48
817.413	1048.71
821.253	511.396
825.092	322.824
828.929	213.691
832.764	78.857
836.598	227.721
840.429	77.324
844.259	180.414
848.088	120.674
851.914	256.52
855.739	702.506
859.562	792.617
863.383	119.559
867.203	38.668
871.02	56.168
874.836	199.82
878.65	251.643
882.463	27.301
886.274	239.992
890.083	26.621
893.89	59.629
897.695	24.768
901.499	44.777
905.301	50.301
909.102	223.416
912.9	676.994
916.697	207.445
920.492	258.623
924.285	348.832
928.077	223.955
931.867	317.676
935.655	400.422
939.442	0.457
943.226	259.553
947.009	205.145
950.791	311.287
954.57	97.006
958.348	251.104
962.124	77.086
965.899	145.074
969.671	184.035
973.442	468.895
977.211	408.654
980.979	334.68
984.745	218.557
988.509	436.766
992.271	1108.65
996.032	1261.99
999.791	975.658
1003.55	1310.88
1007.3	1140.62
1011.06	694.191
1014.81	605.205
1018.56	546.154
1022.31	595.609
1026.06	433.957
1029.8	820.486
1033.55	514.184
1037.29	816.098
1041.03	1210.9
1044.77	857.09
1048.5	617.643
1052.24	762.26
1055.97	498.318
1059.7	501.818
1063.43	450.789
1067.16	188.576
1070.89	198.447
1074.61	305.279
1078.34	351.07
1082.06	261.213
1085.78	130.582
1089.5	220.727
1093.21	309.193
1096.93	347.592
1100.64	633.234
1104.35	315.402
1108.06	483.111
1111.77	352.912
1115.48	686.764
1119.18	1207.16
1122.89	2173.89
1126.59	1583.17
1130.29	1421.36
1133.99	1419.7
1137.68	1602.31
1141.38	1669.46
1145.07	1024.54
1148.76	743.756
1152.45	397.643
1156.14	399.857
1159.83	138.836
1163.51	58.859
1167.19	138.859
1170.88	67.893
1174.56	47.273
1178.23	273.766
1181.91	35.486
1185.59	6.213
1189.26	11.359
1192.93	204.693
1196.6	11.705
1200.27	220.48
1203.94	417.941
1207.6	424.02
1211.27	230.965
1214.93	160.602
1218.59	278.57
1222.25	240.891
1225.9	375.652
1229.56	266.613
1233.21	101.516
1236.86	155.539
1240.51	402.367
1244.16	277.633
1247.81	464.59
1251.45	505.25
1255.1	195.684
1258.74	14.512
1262.38	204.969
1266.02	238.449
1269.66	339.109
1273.29	257.879
1276.93	216.809
1280.56	156.016
1284.19	304.965
1287.82	285.645
1291.45	335.711
1295.07	252.855
1298.7	128.941
1302.32	163.105
1305.94	82.102
1309.56	191.957
1313.18	188.918
1316.8	360.391
1320.41	560.605
1324.02	209.547
1327.63	333.801
1331.24	342.68
1334.85	224.23
1338.46	330.422
1342.06	144.391
1345.67	492.43
1349.27	349.039
1352.87	460.797
1356.47	19.812
1360.07	160.828
1363.66	111.082
1367.25	0
