Measurement: Raman, 514 nm, unoriented, Raman Data Processed
Mineral: Microcline
Rruff sample: R050054
Ideal chemistry: KAlSi_3_O_8_
Locality: Kenticha, Negele area, Sidamo Province, Ethiopia
Source: Rock Currier
Description: Light blue single crystal
Measured chemistry: (K_0.96_Na_0.04_)Al_1.00_Si_3.00_O_8_
Raman shift (cm-1)	intensity
94.768	0
98.947	52.761
103.124	553.427
107.3	1074.57
111.473	1220.98
115.644	1387.68
119.813	3061.41
123.981	7122.14
128.146	8067.06
132.309	4511.99
136.47	7483.6
140.63	11881.8
144.787	8431.23
148.942	12219
153.096	23066.8
157.247	33618.2
161.396	23483.9
165.544	11815
169.689	7381.45
173.833	6665.99
177.974	7910.68
182.114	7560.49
186.251	6487.44
190.387	4821.01
194.52	4885.28
198.652	6078.19
202.782	4070.63
206.909	3557.47
211.035	2805.61
215.159	869.715
219.281	40.606
223.4	242.195
227.518	341.765
231.634	330.002
235.748	165.542
239.86	185.015
243.97	972.268
248.079	3049.04
252.185	7216.42
256.289	12499.4
260.391	11552.9
264.492	12567.7
268.59	10117.3
272.687	7476.56
276.781	11025.6
280.874	22727.7
284.964	32156.7
289.053	23507.1
293.14	13161.8
297.225	6058.17
301.308	2803.98
305.389	1472.34
309.468	859.266
313.545	490.81
317.62	362.983
321.693	967.8
325.765	2998.63
329.834	5396.94
333.902	3639.01
337.967	1369.91
342.031	533.617
346.093	381.138
350.153	431.452
354.21	687.547
358.267	560.409
362.321	241.023
366.373	157.38
370.423	461.449
374.471	263.257
378.518	3.152
382.563	62.988
386.605	238.968
390.646	70.659
394.685	114.021
398.722	754.251
402.757	1502.12
406.79	1077.91
410.821	1037.83
414.851	761.64
418.878	298.353
422.904	69.052
426.927	37.834
430.949	59.139
434.969	212.957
438.987	515.736
443.003	1219.21
447.018	3455.35
451.03	7804.16
455.041	8878.62
459.049	5246.73
463.056	4260.51
467.061	6331.94
471.064	13640
475.065	21754.8
479.064	19685.2
483.062	14931.3
487.057	8128.14
491.051	4728.67
495.043	4593.97
499.032	7333.02
503.02	16429.8
507.007	34304.2
510.991	52548.4
514.973	43780.5
518.954	19426.4
522.933	9061.01
526.91	4999.4
530.885	3440.8
534.858	2474.34
538.829	1677.52
542.799	1466.67
546.766	1012.08
550.732	815.501
554.696	661.679
558.658	649.111
562.618	544.181
566.576	533.613
570.533	676.99
574.488	943.301
578.44	1457.56
582.391	1854.8
586.341	1219
590.288	618.083
594.233	313.309
598.177	157.08
602.119	161.833
606.059	167.488
609.997	163.084
613.933	268.485
617.868	365.828
621.801	617.07
625.731	1250.21
629.66	1532.26
633.588	1433.22
637.513	1512.08
641.437	1893.86
645.358	2358.55
649.278	2935.15
653.196	2875.68
657.113	1831.12
661.027	1183.48
664.94	625.762
668.851	319.971
672.76	204.104
676.667	73.162
680.572	14.139
684.476	13.996
688.378	19.054
692.278	77.609
696.176	182.693
700.072	133.168
703.967	97.905
707.86	24.748
711.751	5.299
715.64	3.76
719.527	174
723.413	161.303
727.297	252.023
731.179	423.048
735.059	622.19
738.937	1172.47
742.814	2205.62
746.689	4603.03
750.562	4456.36
754.433	2699.02
758.303	2064.07
762.17	2655.49
766.036	2583.34
769.901	1559.15
773.763	1019.73
777.624	644.176
781.482	473.562
785.339	364.743
789.195	377.793
793.048	412.714
796.9	492.506
800.75	750.169
804.598	1583.7
808.445	3201.11
812.289	6304.39
816.132	5749.54
819.973	2724.56
823.813	1244.46
827.65	638.238
831.486	480.77
835.32	340.769
839.152	164.183
842.983	178.513
846.812	60.282
850.639	50.374
854.464	23.717
858.288	30.101
862.11	17.405
865.93	7.705
869.748	43.974
873.564	69.188
877.379	78.895
881.192	25.886
885.004	58.094
888.813	135.391
892.621	34.693
896.427	52.816
900.232	18.773
904.034	6.587
907.835	22.223
911.634	73.781
915.432	119.23
919.227	59.61
923.021	100.908
926.813	103.126
930.604	166.269
934.393	105.342
938.18	269.345
941.965	211.279
945.749	249.055
949.53	220.961
953.311	267.703
957.089	386.381
960.866	461.99
964.641	422.608
968.414	523.19
972.185	734.727
975.955	1403.23
979.723	1602.72
983.49	1486.19
987.254	1730.67
991.017	2922.16
994.779	4135.62
998.538	3453.76
1002.3	3267.98
1006.05	2865.59
1009.81	1896.58
1013.56	1487.24
1017.31	1212.71
1021.06	931.119
1024.81	1137.96
1028.55	1396.1
1032.3	1778.92
1036.04	2092.07
1039.78	2143.62
1043.52	1452.42
1047.26	991.285
1050.99	927.792
1054.73	593.838
1058.46	462.562
1062.19	339.859
1065.92	171.613
1069.65	167.809
1073.37	202.887
1077.1	213.459
1080.82	295.182
1084.54	582.903
1088.26	715.335
1091.97	1156.17
1095.69	2204.27
1099.4	2918.37
1103.12	2461.39
1106.83	1768.8
1110.54	1636.13
1114.24	1907.73
1117.95	2595.59
1121.65	3910.33
1125.35	4429.24
1129.06	3242.3
1132.75	3213.83
1136.45	4354.51
1140.15	4527.55
1143.84	3162.68
1147.53	1899.05
1151.22	1147.54
1154.91	842.493
1158.6	577.613
1162.28	297.411
1165.97	353.887
1169.65	251.737
1173.33	231.801
1177.01	243.803
1180.69	69.59
1184.36	118.967
1188.04	26.207
1191.71	110.152
1195.38	156.887
1199.05	134.001
1202.71	153.825
1206.38	163.783
1210.04	17.269
1213.71	26.832
1217.37	40.848
1221.03	57.814
1224.68	141.176
1228.34	11.66
1231.99	36.791
1235.65	79.65
1239.3	13.979
1242.95	30.924
1246.59	135.851
1250.24	102.251
1253.88	82.116
1257.53	63.322
1261.17	58.624
1264.81	53.442
1268.45	10.641
1272.08	4.059
1275.72	32.679
1279.35	117.168
1282.98	67.621
1286.61	11.299
1290.24	39.291
1293.87	93.966
1297.49	93.351
1301.11	61.428
1304.73	58.527
1308.36	160.24
1311.97	36.43
1315.59	173.386
1319.2	26.798
1322.82	70.209
1326.43	71.103
1330.04	133.144
1333.65	16.533
1337.26	7.435
1340.86	126.668
1344.47	122.04
1348.07	189.405
1351.67	140.174
1355.27	134.555
1358.87	200.649
1362.46	194.978
1366.06	106.817
1369.65	153.11
1373.24	273.287
1376.83	139.082
1380.42	151.689
1384	174.777
1387.59	163.81
1391.17	251.585
1394.75	246.936
1398.33	129.695
1401.91	179.64
1405.49	1.419
1409.06	207.928
1412.64	278.411
1416.21	113.945
1419.78	180.596
1423.35	222.934
1426.91	211.938
1430.48	10.04
1434.05	139.51
1437.61	299.157
1441.17	252.313
1444.73	205.803
1448.29	74.02
1451.84	172.54
1455.4	267.958
1458.95	176.979
1462.5	117.062
1466.05	12.472
1469.6	185.983
1473.15	9.354
1476.69	0
