Measurement: Raman, 514 nm, unoriented, Raman Data Processed
Mineral: Microcline
Rruff sample: R050193
Ideal chemistry: KAlSi_3_O_8_
Locality: Devil's Head, Douglas County, Colorado, USA
Source: Dave Bunk Minerals
Description: White to colorless heterogeneous mixture of K and Na feldspar in a cluster of crystals. Crystal structure determined, presented below. This sample is known as an intermediate microcline in the literature.
Measured chemistry: (K_0.929_Na_0.071_)(Al_1.005_Si_2.994_Fe_0.001_)O_7.993_F_0.007_  ; Light Band :  (Na_0.973_K_0.007_Ca_0.020_)(Al_1.020_Si_2.980_)O_8_ ; Dark Band
Raman shift (cm-1)	intensity
100.34	0
104.516	137.427
108.691	494.441
112.864	575.428
117.034	1850.18
121.203	2555.34
125.369	2502.3
129.534	2118.51
133.696	3797.24
137.857	6809.04
142.016	8883.1
146.172	9147.74
150.327	12025.1
154.48	17014.8
158.63	19177.3
162.779	15213.4
166.926	9126.48
171.07	5501.99
175.213	4165.74
179.354	3172.74
183.493	1958.08
187.63	1459.39
191.765	1297.64
195.898	1471.95
200.029	1315.28
204.158	616.412
208.285	160.172
212.41	70.596
216.533	283.21
220.654	199.944
224.773	242.824
228.891	114.845
233.006	4.995
237.119	29.695
241.231	200.021
245.34	819.791
249.448	1598.77
253.553	2779.25
257.657	4260.63
261.758	5732.22
265.858	6846.23
269.956	7867.98
274.052	11014.1
278.146	14886.7
282.237	15947
286.327	12422.1
290.416	7605.51
294.502	4192.93
298.586	2478.88
302.668	1236.04
306.749	913.541
310.827	519.49
314.903	380.957
318.978	381.993
323.051	434.763
327.121	945.113
331.19	1040.5
335.257	977.203
339.322	650.875
343.385	542.469
347.446	538.873
351.505	514.377
355.563	559.68
359.618	531.874
363.672	466.006
367.723	378.042
371.773	377.94
375.821	397.704
379.866	68.487
383.91	58.477
387.952	0.778
391.992	153.617
396.031	33.943
400.067	216.587
404.101	565.928
408.134	527.688
412.165	397.633
416.193	114.359
420.22	45.998
424.245	85.544
428.268	34.525
432.289	1.166
436.309	404.57
440.326	741.768
444.342	1469.64
448.355	2723.32
452.367	3506.61
456.377	3536.63
460.385	2852.29
464.391	3202.64
468.395	5415.69
472.398	9114.46
476.398	10534.9
480.397	8037.13
484.394	5831.05
488.389	4491.72
492.382	3560.19
496.373	3787.47
500.362	5675.55
504.349	10958.4
508.335	22605.1
512.319	33383.2
516.3	25866.2
520.28	13264.7
524.259	6772.07
528.235	3733.22
532.209	2283.34
536.182	1896.67
540.152	1391.9
544.121	852.465
548.088	797.672
552.053	652.186
556.017	576.666
559.978	412.604
563.938	335.174
567.895	484.751
571.851	425.396
575.805	495.281
579.758	614.628
583.708	597.035
587.657	620.589
591.603	257.415
595.548	254.976
599.491	279.973
603.432	238.761
607.372	263.339
611.309	253.701
615.245	523.848
619.179	564.774
623.111	815.48
627.041	949.978
630.97	942.273
634.896	811.382
638.821	395.276
642.744	616.944
646.665	599.392
650.584	719.613
654.502	591.616
658.418	688.4
662.331	483.957
666.244	121.279
670.154	305.348
674.062	160.145
677.969	107.111
681.874	15.094
685.777	42.764
689.678	12.365
693.577	314.99
697.475	117.943
701.371	38.393
705.265	75.018
709.157	43.822
713.047	336.578
716.936	120.834
720.823	359.717
724.708	344.963
728.591	279.162
732.472	536.494
736.352	796.547
740.23	1111.33
744.106	1254.4
747.98	1308.41
751.853	1523.53
755.723	1227.96
759.592	1009.93
763.459	1398.38
767.325	1346.42
771.188	1010.24
775.05	648.699
778.91	613.979
782.768	530.229
786.625	808.912
790.479	733.164
794.332	751.959
798.183	1080.64
802.033	1077.71
805.88	1052.82
809.726	1936.4
813.57	2010.61
817.413	1318.53
821.253	637.428
825.092	582.906
828.929	305.646
832.764	153.75
836.598	143.053
840.429	145.086
844.259	222.924
848.088	90.277
851.914	98.904
855.739	20.5
859.562	37.307
863.383	89.545
867.203	49.848
871.02	118.146
874.836	39.908
878.65	190.299
882.463	81.611
886.274	35.449
890.083	70.754
893.89	181.721
897.695	9.955
901.499	35.988
905.301	33.807
909.102	99.396
912.9	205.783
916.697	107.275
920.492	119.439
924.285	176.275
928.077	221.967
931.867	298.516
935.655	340.873
939.442	60.035
943.226	168.023
947.009	250.846
950.791	210.527
954.57	221.064
958.348	151.65
962.124	206.023
965.899	357.352
969.671	330.623
973.442	554.766
977.211	473.945
980.979	484.064
984.745	478.123
988.509	828.27
992.271	1269.31
996.032	1476.32
999.791	1310.14
1003.55	1585.44
1007.3	1388.41
1011.06	1255.42
1014.81	1074.24
1018.56	1016.07
1022.31	1067.93
1026.06	894.998
1029.8	896.42
1033.55	797.533
1037.29	1044.44
1041.03	1340.23
1044.77	896.258
1048.5	718.869
1052.24	777.643
1055.97	367.896
1059.7	531.559
1063.43	132.678
1067.16	285.584
1070.89	305.1
1074.61	430.373
1078.34	238.566
1082.06	439.02
1085.78	412.811
1089.5	587.623
1093.21	564.898
1096.93	749.143
1100.64	954.746
1104.35	980.564
1108.06	1163.72
1111.77	1137.55
1115.48	1397.79
1119.18	1721.34
1122.89	2471.2
1126.59	2203.51
1130.29	1956.29
1133.99	1981.62
1137.68	1915.5
1141.38	1812.99
1145.07	1750.2
1148.76	1227.57
1152.45	928.072
1156.14	914.266
1159.83	529.551
1163.51	413.158
1167.19	208.598
1170.88	255.441
1174.56	212.68
1178.23	87.955
1181.91	103.369
1185.59	142.299
1189.26	168.965
1192.93	270.605
1196.6	85.74
1200.27	99.02
1203.94	219.018
1207.6	169.566
1211.27	174.883
1214.93	196.695
1218.59	268.525
1222.25	206.762
1225.9	143.209
1229.56	205.266
1233.21	36.846
1236.86	18.326
1240.51	263.895
1244.16	114.672
1247.81	308.062
1251.45	117.871
1255.1	279.941
1258.74	148.002
1262.38	131.998
1266.02	132.625
1269.66	185.889
1273.29	14.549
1276.93	110.582
1280.56	168.01
1284.19	90.021
1287.82	60.863
1291.45	37.264
1295.07	176.662
1298.7	138.416
1302.32	175.264
1305.94	126.787
1309.56	255.83
1313.18	141.592
1316.8	396.793
1320.41	585.51
1324.02	377.014
1327.63	459.428
1331.24	362.947
1334.85	288.086
1338.46	418.404
1342.06	251.023
1345.67	434.191
1349.27	423.271
1352.87	404.314
1356.47	358.055
1360.07	332.41
1363.66	309.133
1367.25	371.74
1370.85	199.676
1374.44	399.986
1378.03	130.27
1381.61	214.578
1385.2	519.92
1388.78	394.793
1392.37	168.445
1395.95	140.254
1399.53	439.812
1403.1	260.934
1406.68	312.672
1410.26	467.801
1413.83	42.91
1417.4	335.445
1420.97	162.848
1424.54	85.156
