Measurement: Raman, 780 nm, unoriented, Raman Data Processed
Mineral: Microcline
Rruff sample: R120005
Ideal chemistry: KAlSi_3_O_8_
Locality: Mount Malosa, Zomba District, Malawi
Source: Marcus Origlieri
Description: Tan colored euhedral crystals associated with black arfvedsonite
Raman shift (cm-1)	intensity
92.5678	0
95.9426	36.4592
99.3174	4.99664
102.692	8.86999
106.067	113.885
109.442	166.778
112.817	23.7125
116.192	5.86621
119.566	9.71374
122.941	69.8607
126.316	120.298
129.691	84.5063
133.066	20.4684
136.44	26.0715
139.815	69.5422
143.19	71.2414
146.565	113.1
149.94	159.92
153.315	143.28
156.689	152.222
160.064	115.948
163.439	60.5751
166.814	40.7577
170.189	44.9809
173.563	73.3524
176.938	133.263
180.313	128.662
183.688	57.8379
187.063	26.0662
190.437	24.0333
193.812	34.0179
197.187	54.8583
200.562	48.7339
203.937	13.1945
207.311	1.03601
210.686	4.02716
214.061	2.22327
217.436	1.26776
220.811	2.37091
224.186	2.94806
227.56	2.96979
230.935	5.72919
234.31	10.7872
237.685	23.9718
241.06	33.0399
244.435	49.0769
247.809	77.7409
251.184	106.673
254.559	156.716
257.934	196.421
261.309	203.585
264.683	242.33
268.058	209.648
271.433	129.321
274.808	104.769
278.183	116.407
281.558	161.471
284.932	199.266
288.307	140.843
291.682	71.4066
295.057	40.9491
298.432	27.5602
301.806	18.4249
305.181	7.57636
308.556	5.10761
311.931	2.31543
315.306	0.554199
318.68	2.68774
322.055	5.42395
325.43	8.51337
328.805	18.39
332.18	22.8899
335.555	8.83484
338.929	1.00098
342.304	1.30316
345.679	2.70001
349.054	0.367676
352.429	2.89917
355.803	8.48914
359.178	7.91345
362.553	8.46747
365.928	14.6028
369.303	31.3388
372.678	35.3165
376.052	18.4856
379.427	9.41718
382.802	9.17108
386.177	13.6813
389.552	16.0335
392.926	21.0619
396.301	27.8707
399.676	38.9953
403.051	52.4863
406.426	36.2846
409.8	28.6143
413.175	28.5429
416.55	6.86325
419.925	1.69013
423.3	3.42801
426.675	2.41971
430.049	3.06274
433.424	9.04825
436.799	26.6288
440.174	43.9931
443.549	69.2278
446.923	112.577
450.298	187.49
453.673	232.604
457.048	155.975
460.423	103.828
463.798	100.744
467.172	125.238
470.547	186.467
473.922	258.817
477.297	222.741
480.672	133.265
484.046	96.5762
487.421	57.3271
490.796	48.0727
494.171	66.579
497.546	115.895
500.921	168.853
504.295	249.478
507.67	391.009
511.045	585.211
514.42	549.058
517.795	275.454
521.169	126.497
524.544	63.0246
527.919	35.9318
531.294	20.58
534.669	11.9502
538.044	6.54803
541.418	1.55438
544.793	0.09433
548.168	1.23498
551.543	2.20981
554.918	0.456787
558.293	0.116577
561.667	0.296112
565.042	1.16116
568.417	0.261353
571.792	2.04691
575.167	5.08575
578.541	5.96323
581.916	12.2961
585.291	10.8836
588.666	6.05615
592.041	1.58545
595.415	0.957458
598.79	0.529633
602.165	2.64294
605.54	0.955597
608.915	0.401978
612.29	1.78787
615.664	3.17206
619.039	2.74085
622.414	5.56818
625.789	8.01791
629.164	9.36716
632.538	12.7075
635.913	15.7385
639.288	18.5008
642.663	26.4402
646.038	36.4081
649.413	43.984
652.787	42.8759
656.162	26.0202
659.537	15.9419
662.912	9.49329
666.287	6.70041
669.661	8.36868
673.036	3.17606
676.411	0.958893
679.786	2.40933
683.161	1.59442
686.535	1.58374
689.91	2.00623
693.285	0.375214
696.66	0.867249
700.035	4.97052
703.41	1.0332
706.784	0.267792
710.159	3.56918
713.534	2.30579
716.909	0.918884
720.284	2.12207
723.659	2.5629
727.033	2.50501
730.408	9.92779
733.783	15.4942
737.158	26.8072
740.533	42.6166
743.907	68.1365
747.282	89.644
750.657	73.6638
754.032	37.0702
757.407	15.678
760.782	8.14984
764.156	5.7912
767.531	5.80457
770.906	1.59189
774.281	0.606628
777.656	1.06949
781.03	0.996857
784.405	0.94635
787.78	1.05743
791.155	4.63196
794.53	8.39059
797.904	8.56589
801.279	18.1017
804.654	25.9293
808.029	43.6783
811.404	64.147
814.779	55.7784
818.153	27.8148
821.528	13.5236
824.903	6.61655
828.278	6.5802
831.653	2.98013
835.028	3.27649
838.402	2.60101
841.777	3.27249
845.152	2.31329
848.527	3.23944
851.902	4.41483
855.276	2.19025
858.651	2.16479
862.026	2.90512
865.401	3.33167
868.776	4.92615
872.15	4.32748
875.525	4.12207
878.9	3.61469
882.275	0.493134
885.65	4.16305
889.024	0.456726
892.399	2.18213
895.774	0.788971
899.149	0.713806
902.524	3.20807
905.899	8.55859
909.273	8.63593
912.648	8.06879
916.023	4.88269
919.398	3.09903
922.773	0.160828
926.148	1.02786
929.522	0.447113
932.897	0.008911
936.272	0.087982
939.647	0.405609
943.022	0.323761
946.396	0.762909
949.771	2.8107
953.146	1.55893
956.521	0.890198
959.896	1.50794
963.27	1.7691
966.645	2.14334
970.02	2.26138
973.395	1.88568
976.77	4.5202
980.145	6.47018
983.519	13.4706
986.894	15.9083
990.269	26.4489
993.644	34.3315
997.019	31.3411
1000.39	25.0809
1003.77	19.2952
1007.14	11.2749
1010.52	7.22467
1013.89	5.22235
1017.27	6.73663
1020.64	5.57575
1024.02	5.68091
1027.39	5.33231
1030.77	9.77744
1034.14	5.86786
1037.52	8.13403
1040.89	7.34796
1044.27	7.9628
1047.64	6.59424
1051.02	7.08871
1054.39	5.99933
1057.77	4.42798
1061.14	2.13681
1064.52	1.95779
1067.89	0.96994
1071.27	0.774261
1074.64	0.169739
1078.01	1.41962
1081.39	1.56848
1084.76	2.52045
1088.14	6.21786
1091.51	7.98218
1094.89	14.7035
1098.26	13.0147
1101.64	12.4601
1105.01	8.01172
1108.39	9.78388
1111.76	12.3683
1115.14	17.2599
1118.51	28.1663
1121.89	39.6039
1125.26	42.05
1128.64	34.1314
1132.01	30.9154
1135.39	30.8059
1138.76	32.0867
1142.14	23.2862
1145.51	13.2948
1148.88	6.79922
1152.26	5.2215
1155.63	2.12912
1159.01	0.10791
1162.38	1.38544
1165.76	0.90451
1169.13	1.5477
1172.51	0.754944
1175.88	0.167297
1179.26	0.658173
1182.63	0.913269
1186.01	0.119476
1189.38	0.06897
1192.76	1.80963
1196.13	1.18237
1199.51	2.10562
1202.88	2.81348
1206.26	6.63547
1209.63	3.95502
1213.01	3.66968
1216.38	3.68408
1219.76	4.61008
1223.13	7.69885
1226.51	11.9927
1229.88	7.39734
1233.26	5.35461
1236.63	8.55218
1240.01	5.76685
1243.38	6.76633
1246.76	7.14075
1250.13	6.77615
1253.51	4.68335
1256.88	3.34781
1260.25	5.36258
1263.63	4.93198
1267	2.6662
1270.38	1.97861
1273.75	0.740173
1277.13	2.47217
1280.5	0.339783
1283.88	0.457001
