Measurement: Raman, 532 nm, unoriented, Raman Data Processed
Mineral: Microcline
Rruff sample: R050150
Ideal chemistry: KAlSi_3_O_8_
Locality: Crystal Peak area, Park/Teller Counties, Colorado, USA
Source: Dave Bunk Minerals
Description: Pale blue prismatic crystals
Measured chemistry: (K_0.95_Na_0.05_)_Î£=1_Al_1.00_Si_3.00_O_8_
Raman shift (cm-1)	intensity
167.51	0
170.403	28.0903
173.295	39.2495
176.188	140.783
179.081	301.419
181.973	190.197
184.866	108.712
187.759	77.7627
190.651	82.0781
193.544	92.4722
196.437	169.571
199.33	280.618
202.222	158.776
205.115	67.1885
208.008	17.1811
210.9	12.8867
213.793	6.16504
216.686	14.0884
219.578	10.2036
222.471	2.71435
225.364	10.8828
228.257	7.95654
231.149	13.9199
234.042	1.68555
236.935	32.6699
239.827	65.7197
242.72	115.141
245.613	147.556
248.506	215.859
251.398	293.936
254.291	363.573
257.184	475.091
260.076	482.493
262.969	514.031
265.862	573.993
268.754	500.915
271.647	425.997
274.54	393.059
277.433	439.777
280.325	505.32
283.218	654.117
286.111	700.013
289.003	510.141
291.896	318.887
294.789	184.704
297.681	127.336
300.574	85.8574
303.467	85.3906
306.36	50.2041
309.252	65.5527
312.145	62.1055
315.038	35.4697
317.93	47.8203
320.823	90.874
323.716	77.5742
326.608	91.1416
329.501	122.555
332.394	134.056
335.286	52.7764
338.179	30.6602
341.072	31.3008
343.965	9.65332
346.857	15.1299
349.75	0.461914
352.643	14.4414
355.535	6.61816
358.428	14.3008
361.321	1.28809
364.214	12.3115
367.106	38.7822
369.999	85.7627
372.892	89.7695
375.784	73.5439
378.677	16.0732
381.57	9.72363
384.462	6.51562
387.355	8.81738
390.248	25.8164
393.14	9.21094
396.033	3.33887
398.926	4.0918
401.819	40.5234
404.711	55.8408
407.604	64.3584
410.497	75.9834
413.389	73.04
416.282	33.1035
419.175	9.2002
422.067	17.8076
424.96	14.4238
427.853	6.09375
430.746	30.2139
433.638	25.8574
436.531	48.7041
439.424	116.661
442.316	136.581
445.209	227.066
448.102	277.474
450.995	428.585
453.887	526.856
456.78	440.49
459.673	268.284
462.565	246.519
465.458	251.829
468.351	313.461
471.243	407.838
474.136	551.802
477.029	559.211
479.921	404.086
482.814	298.382
485.707	235.718
488.6	163.671
491.492	145.898
494.385	178.758
497.278	300.247
500.17	432.359
503.063	645.929
505.956	928.793
508.849	1333.72
511.741	1701.87
514.634	1644.98
517.527	952.934
520.419	425.816
523.312	268.71
526.205	145.784
529.097	97.1797
531.99	77.5439
534.883	41.6074
537.775	40.708
540.668	58.665
543.561	19.6592
546.454	32.544
549.346	3.81543
552.239	31.3037
555.132	12.3516
558.024	15.9697
560.917	29.0605
563.81	27.6084
566.702	19.5273
569.595	36.1787
572.488	23.8291
575.381	23.5918
578.273	17.415
581.166	14.4209
584.059	34.0459
586.951	9.78125
589.844	24.377
592.737	21.1133
595.63	15.1299
598.522	28.7402
601.415	51.9551
604.308	31.4336
607.2	22.209
610.093	0.847656
612.986	36.9941
615.878	10.4043
618.771	6.51074
621.664	14.832
624.557	12.7793
627.449	29.3398
630.342	41.1133
633.235	56.8916
636.127	41.5537
639.02	73.0205
641.913	73.6084
644.805	122.904
647.698	147.455
650.591	124.916
653.484	108.804
656.376	100.634
659.269	78.6465
662.162	62.7734
665.054	31.7793
667.947	9.4668
670.84	2.79394
673.732	14.1162
676.625	20.4697
679.518	23.3467
682.41	4.35938
685.303	2.72559
688.196	22.7471
691.089	25.4697
693.981	35.0185
696.874	13.5342
699.767	24.9697
702.659	40.6924
705.552	22.1553
708.445	44.4834
711.337	31.7432
714.23	19.4512
717.123	25.5586
720.015	11.6172
722.908	15.2734
725.801	14.3389
728.694	2.11523
731.586	52.8047
734.479	47.6182
737.372	112.276
740.264	154.011
743.157	219.461
746.05	256.408
748.942	276.847
751.835	232.401
754.728	150.049
757.621	86.8965
760.513	22.9072
763.406	16.8174
766.299	35.2725
769.191	36.7422
772.084	19.8643
774.977	35.3418
777.87	22.7686
780.762	33.1836
783.655	10.1992
786.548	12.873
789.44	8.41406
792.333	6.66504
795.226	54.8154
798.118	37.209
801.011	50.3603
803.904	97
806.797	150.784
809.689	219.381
812.582	271.188
815.475	231.081
818.367	148.986
821.26	95.0107
824.153	88.0107
827.045	27.5371
829.938	11.6572
832.831	12.0537
835.723	26.4922
838.616	36.8877
841.509	64.4307
844.402	49.3203
847.294	5.41113
850.187	10.5234
853.08	32.5518
855.972	33.8574
858.865	55.627
861.758	33.749
864.65	40.4639
867.543	55.6904
870.436	41.8272
873.329	35.792
876.221	45.9365
879.114	21.1182
882.007	49.4434
884.899	53.292
887.792	67.5322
890.685	74.8106
893.577	68.2666
896.47	64.1533
899.363	40.6777
902.256	31.2617
905.148	38.4629
908.041	59.6611
910.934	46.4785
913.826	20.8828
916.719	12.7822
919.612	21.0322
922.505	35.8291
925.397	49.2764
928.29	44.6875
931.183	50.5059
934.075	20.043
936.968	28.6113
939.861	35.3857
942.753	37.3262
945.646	14.6699
948.539	32.8926
951.432	3.12207
954.324	3.58398
957.217	31.0947
960.11	36.9228
963.002	43.6748
965.895	36.8232
968.788	10.5605
971.68	22.9541
974.573	0.485352
977.466	20.8867
980.359	70.8779
983.251	111.69
986.144	63.4785
989.037	65.7529
991.929	34.5068
994.822	95.2207
997.715	86.0566
1000.61	41.3369
1003.5	54.4648
1006.39	24.2734
1009.28	26.7041
1012.18	33.5176
1015.07	15.2363
1017.96	28.2734
1020.86	28.6309
1023.75	29.1367
1026.64	40.5938
1029.53	53.0869
1032.43	63.2666
1035.32	45.1074
1038.21	64.0459
1041.11	37.4111
1044	39.5371
1046.89	40.2148
1049.78	23.9326
1052.68	44.5234
1055.57	37.0488
1058.46	24.6865
1061.35	35.0684
1064.25	63.7148
1067.14	86.9336
1070.03	64.834
1072.92	49.1006
1075.82	17.0713
1078.71	12.6807
1081.6	20.4141
1084.5	0.044922
1087.39	4.0957
1090.28	49.208
1093.17	77.8418
1096.07	91.1758
1098.96	80.0107
1101.85	50.2881
1104.74	29.9453
1107.64	42.2559
1110.53	50.041
1113.42	28.8936
1116.32	36.5049
1119.21	68.6865
1122.1	74.3711
1124.99	92.6553
1127.89	86.7871
1130.78	108.307
1133.67	66.5947
1136.56	65.5107
1139.46	72.124
1142.35	81.2236
1145.24	55.7207
1148.13	25.3203
1151.03	14.7842
1153.92	2.97559
1156.81	43.374
1159.71	97.4141
1162.6	61.3213
1165.49	37.1787
1168.38	17.7041
1171.28	1.58203
1174.17	43.0957
1177.06	56.9062
1179.95	39.7529
1182.85	50.2246
1185.74	39.665
1188.63	55.2051
1191.53	113.421
1194.42	81.5225
1197.31	77.8242
1200.2	25.5635
1203.1	59.2783
1205.99	85.04
1208.88	120.448
1211.77	53.169
1214.67	11.8779
1217.56	37.1777
1220.45	69.75
1223.35	83.374
1226.24	47.9228
1229.13	52.6826
1232.02	32.0986
1234.92	32.1934
1237.81	12.418
1240.7	1.87598
1243.59	0.001953
1246.49	12.3076
1249.38	42.7324
1252.27	46.9287
1255.16	64.7041
1258.06	36.3955
1260.95	50.8213
1263.84	25.8701
1266.74	52.9824
1269.63	27.8096
1272.52	48.1514
1275.41	37.2764
1278.31	36.1885
1281.2	47.5518
1284.09	45.7422
1286.98	37.6357
1289.88	49.956
1292.77	10.8652
1295.66	36.165
1298.56	4.45703
1301.45	62.8721
1304.34	49.0117
