Measurement: Raman, 532 nm, unoriented, Raman Data Processed
Mineral: Microcline
Rruff sample: R050054
Ideal chemistry: KAlSi_3_O_8_
Locality: Kenticha, Negele area, Sidamo Province, Ethiopia
Source: Rock Currier
Description: Light blue single crystal
Measured chemistry: (K_0.96_Na_0.04_)Al_1.00_Si_3.00_O_8_
Raman shift (cm-1)	intensity
124.592	0
127.967	12.7044
131.341	9.96643
134.716	81.8041
138.091	439.697
141.466	611.493
144.841	479.043
148.215	753.833
151.59	1274.44
154.965	2105.03
158.34	2010.82
161.715	1004.77
165.09	488.335
168.464	340.623
171.839	389.946
175.214	548.45
178.589	741.37
181.964	429.108
185.339	250.061
188.713	215.881
192.088	287.75
195.463	495.618
198.838	691.802
202.213	285.477
205.587	95.6021
208.962	36.4504
212.337	8.64346
215.712	19.3271
219.087	11.8195
222.462	3.05957
225.836	2.16116
229.211	5.99686
232.586	1.25671
235.961	29.5709
239.336	73.0342
242.71	131.295
246.085	235.121
249.46	440.944
252.835	776.886
256.21	1286.33
259.584	1264.18
262.959	1428.31
266.334	1547.35
269.709	1104.56
273.084	967.794
276.459	1209.22
279.833	1825.17
283.208	2552.15
286.583	2134.18
289.958	968.336
293.333	430.215
296.707	233.451
300.082	142.263
303.457	81.1782
306.832	21.036
310.207	2.46091
313.582	3.35681
316.956	7.54511
320.331	14.6918
323.706	47.3008
327.081	130.315
330.456	240.37
333.83	150.024
337.205	38.4176
340.58	8.4957
343.955	0.838226
347.33	6.38284
350.705	33.7299
354.079	47.7732
357.454	48.7979
360.829	32.6477
364.204	50.9305
367.579	90.753
370.954	155.437
374.328	94.1974
377.703	19.2698
381.078	3.19632
384.453	5.84601
387.828	10.9031
391.202	20.8938
394.577	78.2892
397.952	138.968
401.327	244.886
404.702	209.132
408.077	139.429
411.451	193.447
414.826	65.4179
418.201	1.73645
421.576	21.5382
424.951	23.8702
428.325	1.91928
431.7	2.77792
435.075	44.3679
438.45	146.153
441.825	292.928
445.2	595.916
448.574	1021
451.949	1620.47
455.324	1430.48
458.699	729.486
462.074	582.87
465.448	789.28
468.823	1198.73
472.198	1876.07
475.573	2166.69
478.948	1360.67
482.322	1042.6
485.697	719.576
489.072	384.676
492.447	342.209
495.822	508.624
499.197	962.589
502.571	1808.71
505.946	3153.16
509.321	5131.26
512.696	6403.73
516.071	3790.63
519.446	1654.23
522.82	828.598
526.195	465.673
529.57	289.322
532.945	162.82
536.32	107.389
539.694	52.4392
543.069	29.4869
546.444	18.4979
549.819	0.037476
553.194	11.0212
556.568	1.49313
559.943	3.29217
563.318	13.1783
566.693	8.64258
570.068	0.20929
573.443	27.0495
576.817	64.7645
580.192	105.889
583.567	127.357
586.942	64.661
590.317	8.0047
593.692	2.10336
597.066	8.28607
600.441	1.51489
603.816	5.62958
607.191	0.799561
610.566	14.6303
613.94	41.1071
617.315	35.7631
620.69	69.0992
624.065	88.661
627.44	113.096
630.814	140.899
634.189	154.935
637.564	191.095
640.939	223.088
644.314	290.666
647.689	328.49
651.063	348.178
654.438	327.625
657.813	221.591
661.188	155.3
664.563	91.5752
667.938	56.9268
671.312	29.3014
674.687	32.6341
678.062	12.2183
681.437	16.3702
684.812	11.8938
688.186	15.5047
691.561	3.6774
694.936	1.52975
698.311	7.78244
701.686	3.69486
705.061	5.34625
708.435	12.4243
711.81	22.0435
715.185	1.73377
718.56	16.0173
721.935	20.9506
725.309	36.9054
728.684	63.283
732.059	118.064
735.434	210.256
738.809	333.074
742.183	502.561
745.558	743.152
748.933	874.655
752.308	562.064
755.683	301.771
759.058	198.092
762.432	131.081
765.807	121.97
769.182	80.3878
772.557	48.9712
775.932	44.3952
779.307	7.2916
782.681	14.4816
786.056	34.6508
789.431	42.7475
792.806	66.5378
796.181	96.1258
799.555	136.805
802.93	281.373
806.305	486.869
809.68	776.648
813.055	863.508
816.429	486.988
819.804	191.717
823.179	94.2117
826.554	48.0276
829.929	29.7898
833.304	17.0008
836.678	7.51846
840.053	8.31226
843.428	3.94553
846.803	3.24368
850.178	0.675079
853.553	14.4679
856.927	6.03174
860.302	9.9567
863.677	4.19528
867.052	1.73465
870.427	13.5737
873.801	14.2832
877.176	3.427
880.551	7.07989
883.926	0.96521
887.301	12.3711
890.676	14.7499
894.05	22.7521
897.425	1.23038
900.8	9.22922
904.175	4.6709
907.55	11.2751
910.924	1.42307
914.299	8.13248
917.674	21.1548
921.049	17.8524
924.424	21.6791
927.798	18.4359
931.173	15.1007
934.548	13.1682
937.923	5.93314
941.298	4.5419
944.673	12.2901
948.047	9.03223
951.422	13.8479
954.797	11.3748
958.172	26.5182
961.547	2.63187
964.922	16.9796
968.296	7.68954
971.671	43.1829
975.046	50.8027
978.421	47.8774
981.796	96.9592
985.17	156.11
988.545	264.07
991.92	390.823
995.295	390.338
998.67	272.605
1002.04	199.53
1005.42	148.612
1008.79	104.713
1012.17	70.6622
1015.54	38.2022
1018.92	36.8114
1022.29	41.0709
1025.67	40.5667
1029.04	49.3953
1032.42	81.212
1035.79	106.142
1039.17	101.093
1042.54	58.788
1045.92	28.0095
1049.29	45.6165
1052.67	21.3019
1056.04	20.3579
1059.42	4.37442
1062.79	0.46109
1066.17	8.66876
1069.54	6.90527
1072.92	19.1243
1076.29	4.18112
1079.66	20.9851
1083.04	33.3774
1086.41	54.4143
1089.79	74.9096
1093.16	135.02
1096.54	166.53
1099.91	162.09
1103.29	126.794
1106.66	92.6478
1110.04	103.216
1113.41	185.48
1116.79	234.528
1120.16	349.399
1123.54	389.686
1126.91	346.304
1130.29	316.642
1133.66	361.974
1137.04	440.914
1140.41	362.611
1143.79	244.24
1147.16	136.216
1150.54	115.18
1153.91	59.1262
1157.29	41.6198
1160.66	36.8718
1164.04	29.3458
1167.41	13.293
1170.79	23.7044
1174.16	8.6691
1177.54	9.29681
1180.91	8.45026
1184.29	6.44803
1187.66	7.88409
1191.03	0.785706
1194.41	4.04877
1197.78	17.9371
1201.16	2.30649
1204.53	2.57196
1207.91	13.7808
1211.28	14.6332
1214.66	13.5861
1218.03	14.8229
1221.41	22.3721
1224.78	9.51804
1228.16	19.4842
1231.53	32.6783
1234.91	6.89633
1238.28	28.0859
1241.66	7.23996
1245.03	9.97656
1248.41	24.9365
1251.78	16.9022
1255.16	14.3516
1258.53	11.0098
1261.91	15.1024
1265.28	9.94467
1268.65	16.0686
1272.03	3.45194
1275.4	0.561401
1278.78	36.0894
1282.15	13.1401
1285.53	27.0959
1288.9	23.1786
1292.28	3.4104
1295.65	12.8081
1299.03	1.95972
1302.4	1.75388
