Measurement: Raman, 785 nm, unoriented, Raman Data Processed
Mineral: Microcline
Rruff sample: R050054
Ideal chemistry: KAlSi_3_O_8_
Locality: Kenticha, Negele area, Sidamo Province, Ethiopia
Source: Rock Currier
Description: Light blue single crystal
Measured chemistry: (K_0.96_Na_0.04_)Al_1.00_Si_3.00_O_8_
Raman shift (cm-1)	intensity
145.125	0
148.018	97.626
150.911	348.045
153.803	370.697
156.696	402.66
159.589	239.431
162.481	159.754
165.374	185.611
168.267	237.892
171.16	317.763
174.052	365.425
176.945	466.91
179.838	528.154
182.73	381.425
185.623	272.246
188.516	264.961
191.408	298.274
194.301	358.62
197.194	501.602
200.087	519.367
202.979	340.551
205.872	199.71
208.765	99.0571
211.657	62.9312
214.55	14.6128
217.443	32.9233
220.335	57.9785
223.228	42.106
226.121	32.1577
229.013	24.7256
231.906	29.395
234.799	4.00146
237.692	14.541
240.584	50.4346
243.477	35.1992
246.37	16.0601
249.262	87.0112
252.155	201.142
255.048	403.579
257.941	533.939
260.833	506.384
263.726	687.53
266.619	811.41
269.511	566.472
272.404	361.765
275.297	380.521
278.19	464.011
281.082	627.855
283.975	859.54
286.868	757.689
289.76	476.935
292.653	215.126
295.546	71.4541
298.438	21.23
301.331	33.8535
304.224	10.206
307.116	44.5742
310.009	58.6919
312.902	18.6641
315.795	9.12158
318.687	15.3877
321.58	22.3643
324.473	30.1543
327.365	81.3955
330.258	152.582
333.151	164.436
336.043	61.6914
338.936	27.6729
341.829	45.2305
344.721	93.1558
347.614	67.4873
350.507	91.8301
353.4	104.103
356.292	83.0918
359.185	69.8603
362.078	67.6787
364.97	122.51
367.863	136.444
370.756	150.076
373.649	245.47
376.541	138.373
379.434	198.189
382.327	90.0273
385.219	58.8828
388.112	16.916
391.005	85.25
393.897	86.2275
396.79	192.314
399.683	183.624
402.575	210.809
405.468	194.861
408.361	113.407
411.254	173.773
414.146	86.5508
417.039	143.94
419.932	34.8272
422.824	30.5693
425.717	22.8506
428.61	13.7549
431.502	4.2168
434.395	4.15723
437.288	70.9365
440.181	157.133
443.073	154.692
445.966	412.079
448.859	480.977
451.751	770.268
454.644	888.106
457.537	580.691
460.43	359.287
463.322	226.955
466.215	278.155
469.108	407.476
472	634.114
474.893	841.929
477.786	679.902
480.678	392.683
483.571	244.095
486.464	261.424
489.356	225.213
492.249	214.977
495.142	102.291
498.035	223.745
500.927	424.748
503.82	722.947
506.713	1273.58
509.605	2115.88
512.498	2802.1
515.391	2212
518.284	1212.93
521.176	625.759
524.069	334.174
526.962	221.892
529.854	113.755
532.747	118.894
535.64	55.3174
538.533	53.0869
541.425	74.2041
544.318	7.74512
547.211	79.2617
550.103	29.0996
552.996	1.89062
555.889	65.0039
558.781	79.9766
561.674	41.8828
564.567	19.2852
567.459	22.5996
570.352	60.0605
573.245	66.0703
576.138	149.488
579.03	118.156
581.923	207.35
584.816	153.453
587.708	106.375
590.601	137.84
593.494	148.371
596.386	45.3281
599.279	61.9941
602.172	8.71484
605.064	81.2227
607.957	95.3496
610.85	9.50977
613.743	135.287
616.635	4.71875
619.528	80.9824
622.421	18.1602
625.313	94.0684
628.206	83.582
631.099	30.8516
633.991	2.21875
636.884	11.9199
639.777	41.4941
642.67	79.5293
645.562	95.7734
648.455	92.4199
651.348	132.18
654.24	201.873
657.133	146.148
660.026	73.25
662.918	167.818
665.811	17.2988
668.704	148.777
671.597	31.3301
674.489	57.7344
677.382	65.125
680.275	51.668
683.167	18.2402
686.06	17.8457
688.953	52.3848
691.846	50.7852
694.738	161.541
697.631	219.844
700.524	107.83
703.416	63.5273
706.309	118.803
709.202	45.8145
712.094	60.8613
714.987	13.9766
717.88	127.902
720.773	42.7578
723.665	123.188
726.558	92.9277
729.451	61.3887
732.343	177.424
735.236	165.551
738.129	249.76
741.021	304.498
743.914	309.529
746.807	460.123
749.699	475.844
752.592	364.828
755.485	342.059
758.378	76.9199
761.27	168.643
764.163	157.559
767.056	12.0645
769.948	126.031
772.841	3.23633
775.734	100.012
778.626	2.49805
781.519	71.4414
784.412	35.5957
787.305	129.418
790.197	90.3027
793.09	163.728
795.983	148.805
798.875	126.582
801.768	112.312
804.661	99.2832
807.553	275.84
810.446	544.912
813.339	586.609
816.232	491.457
819.124	216.871
822.017	386.734
824.91	124.734
827.802	165.481
830.695	123.309
833.588	42.75
836.481	5.89453
839.373	150.211
842.266	52.375
845.159	153.547
848.051	110.949
850.944	5.00391
853.837	50.1484
856.729	95.125
859.622	163.246
862.515	34.0547
865.408	56.7383
868.3	201.969
871.193	281.609
874.086	109.602
876.978	71.1836
879.871	74.2188
882.764	39.1484
885.656	132.426
888.549	154.406
891.442	188.445
894.335	107.383
897.227	137.617
900.12	104.008
903.013	60.207
905.905	155.184
908.798	84.918
911.691	4.20312
914.583	170.984
917.476	110.914
920.369	123.602
923.261	34.1094
926.154	137.059
929.047	82.7539
931.94	221.488
934.832	54.6055
937.725	141.789
940.618	64.1953
943.51	104.906
946.403	227.375
949.296	116.617
952.188	125.262
955.081	46.2578
957.974	159.266
960.867	85.6367
963.759	159.094
966.652	48.3594
969.545	16.9258
972.437	10.4219
975.33	12.3477
978.223	18.7539
981.115	73.707
984.008	398.418
986.901	117.445
989.794	213.375
992.686	281.387
995.579	276.621
998.472	6.03906
1001.36	155.211
1004.26	219.602
1007.15	118.367
1010.04	87.25
1012.93	120.477
1015.83	94.9766
1018.72	303.609
1021.61	48.9648
1024.51	195.051
1027.4	3.31641
1030.29	117.344
1033.18	346.316
1036.08	111.543
1038.97	163.121
1041.86	78.3672
1044.76	77.9062
1047.65	110.625
1050.54	25.3047
1053.43	225.328
1056.33	76.1641
1059.22	206.785
1062.11	162.121
1065	113.016
1067.9	300.82
1070.79	148.348
1073.68	7.71094
1076.58	161.875
1079.47	140.137
1082.36	114.777
1085.25	104.098
1088.14	132.414
1091.04	192.363
1093.93	90.0156
1096.82	43.1211
1099.72	213.738
1102.61	472.863
1105.5	200.438
1108.39	305.781
1111.29	20.0977
1114.18	221.516
1117.07	212.402
1119.96	51.0508
1122.86	330.621
1125.75	161.277
1128.64	349.09
1131.54	114.098
1134.43	203.43
1137.32	229.055
1140.21	372.082
1143.11	282.793
1146	20.7734
1148.89	230.062
1151.79	175.906
1154.68	58.3242
1157.57	284.863
1160.46	208.492
1163.36	68.7422
1166.25	203.293
1169.14	143.266
1172.03	112.305
1174.93	171.805
1177.82	358.199
1180.71	102.168
1183.6	165.191
1186.5	103.629
1189.39	78.375
1192.28	129.719
1195.17	7.71875
1198.07	226.195
1200.96	49.3477
1203.85	104.949
1206.75	55.8516
1209.64	180.293
1212.53	300.812
1215.42	1.63672
1218.32	16.5039
1221.21	194.164
1224.1	163.043
1226.99	132.242
1229.89	6.33594
1232.78	135.141
1235.67	103.324
1238.57	0
