Measurement: Raman, 514 nm, unoriented, Raman Data Processed
Mineral: Microcline
Rruff sample: R040154
Ideal chemistry: KAlSi_3_O_8_
Locality: Mitchell County, North Carolina, USA
Source: University of Arizona Mineral Museum
Description: White cleavage fragment with some perthitic character
Measured chemistry: (K_0.90_Na_0.09_Ba_0.01_)Al_1.00_(Si_2.99_Al_0.01_)_Î£=3_O_8_
Raman shift (cm-1)	intensity
110.082	0
114.254	33.857
118.424	1408.85
122.592	3039.97
126.758	3155.39
130.922	2339.19
135.083	4061.45
139.243	4677.35
143.401	4333.88
147.557	4960.67
151.711	9364.22
155.863	13477.8
160.013	10610.2
164.161	5799.77
168.308	3365.3
172.452	2907.14
176.594	3035.06
180.734	2307.3
184.872	1570.99
189.008	1270.8
193.143	1828.57
197.275	2190.78
201.405	1594.95
205.534	875.173
209.66	358.306
213.784	54.677
217.907	205.074
222.027	120.876
226.146	147.106
230.263	188.853
234.377	57.321
238.49	7.196
242.601	241.146
246.709	1137.4
250.816	3153.14
254.921	5172.15
259.024	5250.64
263.125	5438.87
267.224	4340.18
271.321	3228.7
275.416	5010.31
279.51	10361.6
283.601	12855.8
287.69	8587.14
291.778	4142.3
295.863	1950.57
299.947	1087.65
304.029	496.247
308.108	356.783
312.186	210.233
316.262	215.78
320.336	446.554
324.408	919.677
328.478	1480.02
332.546	1294.32
336.612	592.172
340.677	286.719
344.739	117.152
348.799	80.449
352.858	373.594
356.915	458.611
360.969	314.488
365.022	384.202
369.073	459.804
373.122	394.26
377.169	393.698
381.215	26.322
385.258	29.686
389.299	108.179
393.339	83.855
397.376	296.122
401.412	533.504
405.446	534.948
409.478	201.087
413.508	202.124
417.536	62.744
421.562	64.868
425.586	38.197
429.609	174.853
433.629	74.909
437.648	311.679
441.665	538.541
445.68	1503.96
449.693	3507.34
453.704	4003.96
457.713	2625.9
461.721	2075.9
465.726	2675.54
469.73	6067.85
473.731	8612.65
477.731	6988.6
481.729	5401.94
485.725	3416.04
489.72	1920.85
493.712	1624.42
497.703	2276.77
501.691	4474.44
505.678	10343.4
509.663	20973.2
513.646	20981.6
517.627	10714.5
521.607	7628.25
525.584	2565
529.56	1706.48
533.534	1050.96
537.506	909.832
541.476	563.375
545.444	283.896
549.41	278.012
553.375	434.227
557.337	249.954
561.298	306.529
565.257	64.84
569.214	247.04
573.17	446.805
577.123	511.272
581.075	808.607
585.024	599.6
588.972	746.182
592.918	122.834
596.863	40.564
600.805	154.285
604.746	0.838
608.685	38.172
612.621	52.314
616.557	210.258
620.49	449.992
624.421	760.576
628.351	502.012
632.279	396.715
636.205	733.191
640.129	578.547
644.051	964.49
647.972	1396.3
651.89	1401.74
655.807	1067.51
659.722	682.92
663.636	285.225
667.547	48.441
671.457	205.541
675.365	126.496
679.271	134.309
683.175	75.613
687.077	125.166
690.978	113.9
694.877	136.277
698.774	132.75
702.669	177.287
706.562	139.068
710.454	38.424
714.344	179.596
718.232	132.172
722.118	85.316
726.002	130.105
729.885	71.877
733.766	230.135
737.645	380.828
741.522	1144.12
745.397	1850.51
749.271	2197.3
753.143	1604.43
757.013	923.35
760.881	603.779
764.748	638.496
768.613	874.996
772.476	593.584
776.337	218.078
780.196	288.479
784.054	183.803
787.91	277.197
791.764	120.164
795.616	225.361
799.467	411.059
803.316	595.625
807.163	894.447
811.008	2215.79
814.851	1922.97
818.693	953.045
822.533	361.473
826.371	501.816
830.208	213.854
834.042	186.254
837.875	140.182
841.706	138.057
845.536	50.502
849.363	18.381
853.189	129.691
857.013	152.314
860.836	28.256
864.656	149.104
868.475	78.484
872.292	64.219
876.108	74.973
879.922	190.783
883.733	103.85
887.544	14.99
891.352	15.764
895.159	209.471
898.964	51.139
902.767	129.742
906.568	88.686
910.368	354.725
914.166	253.07
917.962	3.387
921.757	98.336
925.55	226.678
929.341	101.994
933.13	282.35
936.918	218.646
940.703	152.541
944.488	183.189
948.27	107.824
952.051	287.475
955.83	15.561
959.607	204.59
963.383	331.59
967.156	223.838
970.928	304.158
974.699	431.449
978.468	650.73
982.234	620.064
986	476.449
989.763	987.287
993.525	1699.28
997.285	1838.82
1001.04	1339.38
1004.8	1466.92
1008.55	1009.56
1012.31	665.697
1016.06	565.383
1019.81	574.062
1023.56	722.977
1027.31	625.445
1031.05	832.199
1034.79	701.16
1038.53	1113.48
1042.27	1046.97
1046.01	793.371
1049.75	595.973
1053.48	784.955
1057.22	435.848
1060.95	319.195
1064.68	227.148
1068.4	153.881
1072.13	154.189
1075.86	309.75
1079.58	337.457
1083.3	324.434
1087.02	573.314
1090.74	217.42
1094.45	292.488
1098.17	616.754
1101.88	846.365
1105.59	320.727
1109.3	682.84
1113.01	588.875
1116.71	979.789
1120.42	1742.79
1124.12	2444.99
1127.82	1805.33
1131.52	1684.94
1135.22	1721.32
1138.91	1963.06
1142.61	1673.23
1146.3	1221.76
1149.99	670.67
1153.68	442.062
1157.37	445.129
1161.06	271.906
1164.74	192.395
1168.42	54.139
1172.1	287.244
1175.78	59.256
1179.46	167.205
1183.14	178.492
1186.81	164.078
1190.48	174.227
1194.15	60.777
1197.83	234.949
1201.49	267.893
1205.16	404.322
1208.82	471.285
1212.49	349.377
1216.15	15.152
1219.81	414.631
1223.46	318.004
1227.12	350.469
1230.78	321.549
1234.43	285.6
1238.08	154.428
1241.73	237.625
1245.38	109.621
1249.03	379.189
1252.67	219.129
1256.31	243.039
1259.95	261.549
1263.6	192.158
1267.23	101.072
1270.87	328.33
1274.51	7.893
1278.14	355.342
1281.77	241.801
1285.4	218.279
1289.03	211.791
1292.66	317.58
1296.28	237.295
1299.91	152.826
1303.53	242.777
1307.15	180.412
1310.77	150.805
1314.38	131.152
1318	199.111
1321.61	280.377
1325.23	478.941
1328.84	404.26
1332.45	262.064
1336.06	348.922
1339.66	336.824
1343.27	406.633
1346.87	262.355
1350.47	414.074
1354.07	399.359
1357.67	316.816
1361.26	368.715
1364.86	250.102
1368.45	426.078
1372.04	68.316
1375.63	115.762
1379.22	15.184
1382.81	207.477
1386.39	409.945
1389.98	414.824
1393.56	56.855
1397.14	5.984
1400.72	329.875
1404.3	0
