Measurement: Raman, 780 nm, unoriented, Raman Data Processed
Mineral: Microsommite
Rruff sample: R100090
Ideal chemistry: Na_4_K_2_Ca_2_(SO_4_)(Si_6_Al_6_O_24_)Cl_2_
Locality: Monte Somma, Campania, Italy
Source: Marcus Origlieri
Description: Aggregate of parallel striated colorless crystals
Raman shift (cm-1)	intensity
155.655	0
158.547	0.33493
161.44	11.0066
164.333	29.0377
167.226	39.8976
170.118	51.0945
173.011	61.2226
175.904	68.4861
178.796	76.0025
181.689	79.0152
184.582	89.9255
187.474	99.7441
190.367	105.666
193.26	106.668
196.153	103.125
199.045	100.189
201.938	92.4624
204.831	83.5526
207.723	74.8316
210.616	67.7419
213.509	55.717
216.401	51.6712
219.294	36.9007
222.187	30.1978
225.079	27.6761
227.972	22.7924
230.865	15.5707
233.758	14.8143
236.65	7.345
239.543	7.59607
242.436	4.53958
245.328	2.91364
248.221	4.73111
251.114	1.46503
254.006	1.34027
256.899	1.41098
259.792	1.63162
262.685	0.127563
265.577	0.958435
268.47	4.10217
271.363	11.6132
274.255	15.7092
277.148	20.2986
280.041	30.0929
282.933	45.6617
285.826	66.2664
288.719	82.5869
291.612	77.2632
294.504	55.4922
297.397	34.6318
300.29	20.9746
303.182	13.4253
306.075	12.1903
308.968	8.71109
311.861	4.12241
314.753	0.413116
317.646	1.41486
320.539	2.57639
323.431	6.57971
326.324	6.38312
329.217	2.16876
332.109	0.384277
335.002	6.36157
337.895	3.70962
340.788	7.16061
343.68	2.37253
346.573	7.30942
349.466	8.11963
352.358	11.0308
355.251	17.1387
358.144	29.4564
361.036	33.5181
363.929	41.0076
366.822	41.4089
369.715	44.7728
372.607	43.8681
375.5	40.6996
378.393	41.8652
381.285	40.0914
384.178	39.4118
387.071	42.7642
389.964	41.4502
392.856	40.1277
395.749	39.5227
398.642	40.2202
401.534	40.0255
404.427	43.7236
407.32	49.0572
410.212	55.9588
413.105	62.7013
415.998	74.4589
418.89	80.3038
421.783	93.3223
424.676	99.1639
427.569	91.3201
430.461	91.7363
433.354	109.714
436.247	132.247
439.139	154.587
442.032	173.408
444.925	196.575
447.817	240.982
450.71	291.557
453.603	340.875
456.496	358.617
459.388	311.296
462.281	224.396
465.174	150.538
468.066	105.508
470.959	82.9561
473.852	71.1813
476.745	53.829
479.637	41.2261
482.53	34.4784
485.423	22.0663
488.315	14.6235
491.208	9.65167
494.101	4.20776
496.993	2.29132
499.886	0.710083
502.779	4.34683
505.671	2.07931
508.564	3.53247
511.457	3.34277
514.35	2.69614
517.242	2.81189
520.135	1.25592
523.028	1.17111
525.92	0.802887
528.813	2.91495
531.706	6.69153
534.598	2.37174
537.491	7.92303
540.384	7.52805
543.277	10.6785
546.169	15.8225
549.062	18.9234
551.955	19.294
554.847	23.1573
557.74	20.4367
560.633	18.9194
563.525	16.897
566.418	13.3255
569.311	14.6923
572.204	11.6918
575.096	10.8623
577.989	7.65839
580.882	6.32794
583.774	5.65395
586.667	6.07794
589.56	4.73465
592.452	6.36894
595.345	3.21922
598.238	4.97592
601.131	4.80901
604.023	6.43489
606.916	10.7604
609.809	19.1836
612.701	27.1328
615.594	35.2265
618.487	37.8959
621.38	44.5477
624.272	46.2036
627.165	42.1157
630.058	34.365
632.95	21.161
635.843	19.9692
638.736	14.6903
641.628	11.1843
644.521	9.48586
647.414	9.98128
650.307	10.7287
653.199	14.4771
656.092	21.0367
658.985	31.1773
661.877	36.168
664.77	26.8499
667.663	17.5125
670.555	13.0903
673.448	8.38977
676.341	5.93808
679.234	6.21045
682.126	3.98229
685.019	3.26843
687.912	3.52371
690.804	0.349487
693.697	3.59099
696.59	3.03915
699.482	1.08719
702.375	1.6318
705.268	1.2858
708.16	3.19119
711.053	0.116287
713.946	0.824066
716.839	0.755051
719.731	2.19389
722.624	0.639847
725.517	1.80603
728.409	1.94569
731.302	1.22919
734.195	0.011063
737.087	0.787903
739.98	0.750168
742.873	2.09817
745.766	0.309738
748.658	3.76926
751.551	2.13132
754.444	7.63237
757.336	5.98392
760.229	10.7933
763.122	18.2149
766.014	26.7426
768.907	37.7243
771.8	60.1058
774.693	91.353
777.585	114.682
780.478	94.2705
783.371	55.958
786.263	31.7049
789.156	19.0154
792.049	13.0885
794.942	6.58548
797.834	7.23064
800.727	4.3078
803.62	6.65996
806.512	6.31519
809.405	6.48349
812.298	7.49403
815.19	4.70909
818.083	3.62355
820.976	3.18848
823.869	0.167618
826.761	2.50694
829.654	2.4592
832.547	2.30632
835.439	1.17332
838.332	1.28305
841.225	1.99989
844.117	2.13573
847.01	1.69919
849.903	0.347961
852.795	2.3459
855.688	0.215729
858.581	2.25848
861.474	4.04785
864.366	1.08987
867.259	1.7623
870.152	5.52997
873.044	5.82149
875.937	5.20645
878.83	4.56177
881.722	8.39981
884.615	10.2487
887.508	11.3439
890.401	9.53093
893.293	9.89591
896.186	10.3015
899.079	9.9388
901.971	7.17609
904.864	6.71727
907.757	3.66231
910.649	4.88431
913.542	2.56235
916.435	3.14348
919.328	1.67331
922.22	2.91132
925.113	0.045029
928.006	0.256241
930.898	1.21135
933.791	1.77594
936.684	3.03847
939.577	1.26643
942.469	0.640106
945.362	2.12428
948.255	1.70248
951.147	3.6517
954.04	7.37358
956.933	4.14931
959.825	7.91177
962.718	16.7248
965.611	21.9548
968.504	31.4706
971.396	53.8181
974.289	80.6049
977.182	124.949
980.074	192.669
982.967	315.555
985.86	491.655
988.752	574.08
991.645	409.314
994.538	205.203
997.431	111.774
1000.32	72.8843
1003.22	49.5574
1006.11	41.0238
1009	42.4641
1011.89	47.7424
1014.79	55.9143
1017.68	65.1706
1020.57	75.441
1023.47	79.8066
1026.36	74.4012
1029.25	62.9148
1032.14	49.1102
1035.04	40.357
1037.93	31.0786
1040.82	26.5191
1043.71	26.6645
1046.61	31.3983
1049.5	29.1449
1052.39	38.645
1055.29	46.7414
1058.18	43.3939
1061.07	35.3087
1063.96	30.3799
1066.86	23.8505
1069.75	20.8458
1072.64	16.5925
1075.53	6.08612
1078.43	6.12415
1081.32	9.26209
1084.21	5.31964
1087.1	5.90018
1090	4.14859
1092.89	3.09094
1095.78	1.38458
1098.67	3.02335
1101.57	3.45477
1104.46	0.02887
1107.35	1.66046
1110.25	1.63855
1113.14	0.611572
1116.03	0.813904
1118.92	5.49341
1121.82	0.573608
1124.71	0.916687
1127.6	2.28979
1130.49	6.2713
1133.39	18.5192
1136.28	28.4945
1139.17	37.0527
1142.07	46.5005
1144.96	55.929
1147.85	67.1589
1150.74	67.505
1153.64	75.0231
1156.53	79.8682
1159.42	90.3712
1162.31	94.9833
1165.21	98.7279
1168.1	94.1934
1170.99	100.141
1173.88	96.5156
1176.78	88.6725
1179.67	78.401
1182.56	74.3791
1185.46	71.9122
1188.35	70.0259
1191.24	73.4078
1194.13	77.7968
1197.03	76.0026
1199.92	79.526
1202.81	76.0488
1205.7	60.0652
1208.6	44.4869
1211.49	34.2639
1214.38	23.8271
1217.28	12.4829
1220.17	0.22583
1223.06	2.64282
1225.95	2.98511
1228.85	3.20398
1231.74	0.93103
1234.63	7.72046
1237.53	20.9172
1240.42	32.6564
1243.31	53.9102
1246.2	97.5962
1249.1	132.692
1251.99	170.378
1254.88	183.62
1257.77	184.784
1260.67	195.044
1263.56	173.85
1266.45	158.619
1269.34	126.328
1272.24	90.3992
1275.13	56.3337
1278.02	41.4746
1280.91	18.3367
1283.81	0.815674
