Measurement: Raman, 532 nm, unoriented, Raman Data Processed
Mineral: Microcline
Rruff sample: R040154
Ideal chemistry: KAlSi_3_O_8_
Locality: Mitchell County, North Carolina, USA
Source: University of Arizona Mineral Museum
Description: White cleavage fragment with some perthitic character
Measured chemistry: (K_0.90_Na_0.09_Ba_0.01_)Al_1.00_(Si_2.99_Al_0.01_)_Î£=3_O_8_
Raman shift (cm-1)	intensity
144.841	0
148.215	149.555
151.59	940.088
154.965	2173.7
158.34	3243.57
161.715	1999.6
165.09	717.731
168.464	451.453
171.839	619.281
175.214	1192.46
178.589	1856.67
181.964	1005.36
185.339	571.951
188.713	530.644
192.088	707.724
195.463	1139.29
198.838	1889.1
202.213	1002.56
205.587	343.233
208.962	193.668
212.337	49.7978
215.712	21.7637
219.087	19.0645
222.462	72.3618
225.836	16.3936
229.211	10.3716
232.586	24.3789
235.961	143.452
239.336	147.165
242.71	277.584
246.085	533.122
249.46	1041.19
252.835	1708.24
256.21	2838.66
259.584	2809.17
262.959	2857.65
266.334	3489.96
269.709	2513.68
273.084	2012.15
276.459	2419.26
279.833	3444.84
283.208	5081.36
286.583	4829.67
289.958	2371.28
293.333	1113.77
296.707	550.201
300.082	360.165
303.457	173.756
306.832	90.9863
310.207	57.7178
313.582	41.7895
316.956	30.8193
320.331	57.0469
323.706	187.677
327.081	451.499
330.456	678.131
333.83	511.489
337.205	121.214
340.58	75
343.955	9.31592
347.33	5.17627
350.705	79.7754
354.079	116.962
357.454	77.0215
360.829	15.7661
364.204	113.626
367.579	178.715
370.954	364.702
374.328	292.664
377.703	92.8677
381.078	63.3696
384.453	34.5981
387.828	6.22803
391.202	95.1367
394.577	133.796
397.952	317.904
401.327	565.596
404.702	599.971
408.077	348.419
411.451	492.108
414.826	282.393
418.201	15.0552
421.576	44.7749
424.951	14.0073
428.325	24.2158
431.7	26.6006
435.075	115.443
438.45	209.179
441.825	468.966
445.2	1006.67
448.574	1854.25
451.949	3245.93
455.324	3276.61
458.699	1723.91
462.074	1237.77
465.448	1599.3
468.823	2453.4
472.198	3793.32
475.573	4643.06
478.948	3074.93
482.322	2166.81
485.697	1578.12
489.072	780.528
492.447	672.646
495.822	1015.14
499.197	1857.12
502.571	3448.94
505.946	6128.82
509.321	10005.9
512.696	13423.4
516.071	8557.9
519.446	3758.35
522.82	1869.7
526.195	1090.37
529.57	627.833
532.945	351.71
536.32	258.771
539.694	194.395
543.069	115.782
546.444	36.3633
549.819	16.1924
553.194	54.6289
556.568	6.51367
559.943	18.5029
563.318	37.502
566.693	17.6533
570.068	3.58496
573.443	100.544
576.817	130.445
580.192	246.05
583.567	322.473
586.942	123.317
590.317	50.1807
593.692	1.07715
597.066	41.7119
600.441	37.2129
603.816	17.459
607.191	59.9873
610.566	33.0205
613.94	73.3232
617.315	49.7207
620.69	119.066
624.065	202.936
627.44	307.933
630.814	341.34
634.189	372.054
637.564	397.057
640.939	518.93
644.314	732.948
647.689	863.712
651.063	944.187
654.438	698.303
657.813	459.543
661.188	308.143
664.563	275.065
667.938	97.8291
671.312	108.97
674.687	74.2353
678.062	55.0498
681.437	21.5586
684.812	5.36133
688.186	39.294
691.561	43.9551
694.936	50.084
698.311	17.4512
701.686	11.6455
705.061	22.8643
708.435	2.29688
711.81	61.6982
715.185	0.59375
718.56	17.2158
721.935	3.02734
725.309	68.5439
728.684	76.1826
732.059	104.482
735.434	322.923
738.809	518.45
742.183	997.501
745.558	1562.38
748.933	1943.69
752.308	1412.99
755.683	752.598
759.058	529.265
762.432	340.462
765.807	340.139
769.182	238.086
772.557	118.228
775.932	121.688
779.307	85.0508
782.681	40.418
786.056	71.9434
789.431	130.858
792.806	121.318
796.181	168.72
799.555	275.078
802.93	520.909
806.305	985.135
809.68	1613.19
813.055	2061.94
816.429	1344.28
819.804	540.227
823.179	208.269
826.554	207.374
829.929	64.7871
833.304	13.0107
836.678	59.7471
840.053	26.1836
843.428	2.69336
846.803	15.8223
850.178	42.959
853.553	31.5938
856.927	10.9756
860.302	89.0811
863.677	18.4834
867.052	19.1396
870.427	11.4062
873.801	30.4473
877.176	86.9863
880.551	53.0166
883.926	112.493
887.301	18.2549
890.676	15.6465
894.05	105.308
897.425	13.9287
900.8	32.3418
904.175	46.7432
907.55	32.0947
910.924	43.7949
914.299	6.48144
917.674	24.0762
921.049	39.3115
924.424	72.9707
927.798	80.2842
931.173	109.651
934.548	1.70215
937.923	64.0537
941.298	26.9336
944.673	47.9668
948.047	3.80078
951.422	68.4561
954.797	29.6436
958.172	55.3154
961.547	91.8223
964.922	91.0859
968.296	66.1328
971.671	186.893
975.046	173.829
978.421	166.123
981.796	222.249
985.17	388.17
988.545	662.031
991.92	855.769
995.295	977.938
998.67	732.001
1002.04	519.023
1005.42	402.565
1008.79	247.921
1012.17	109.562
1015.54	99.4961
1018.92	44.4922
1022.29	82.7676
1025.67	98.1982
1029.04	104.591
1032.42	119.219
1035.79	241.883
1039.17	213.764
1042.54	128.413
1045.92	104.928
1049.29	70.5244
1052.67	55.8867
1056.04	21.7559
1059.42	68.7637
1062.79	27.8369
1066.17	12.29
1069.54	27.6006
1072.92	1.6543
1076.29	31.0049
1079.66	41.1426
1083.04	88.9346
1086.41	78.5654
1089.79	169.562
1093.16	197.328
1096.54	362.377
1099.91	432.31
1103.29	309.896
1106.66	222.158
1110.04	253.167
1113.41	333.231
1116.79	431.448
1120.16	525.391
1123.54	771.151
1126.91	635.562
1130.29	556.614
1133.66	649.643
1137.04	746.651
1140.41	649.001
1143.79	434.588
1147.16	225.63
1150.54	195.948
1153.91	58.7139
1157.29	128.824
1160.66	0.141602
1164.04	73.0225
1167.41	33.5605
1170.79	53.9658
1174.16	46.9815
1177.54	59.958
1180.91	105.213
1184.29	9.31152
1187.66	100.956
1191.03	107.199
1194.41	41.8906
1197.78	74.8779
1201.16	14.4629
1204.53	20.3291
1207.91	25.4893
1211.28	5.63769
1214.66	3.47656
1218.03	57.6846
1221.41	29.2402
1224.78	17.209
1228.16	64.7178
1231.53	40.9131
1234.91	39.915
1238.28	147.555
1241.66	94.6553
1245.03	66.6856
1248.41	131.571
1251.78	97.8418
1255.16	111.876
1258.53	96.2353
1261.91	159.261
1265.28	122.579
1268.65	115.502
1272.03	99.3633
1275.4	152.338
1278.78	117.383
1282.15	158.266
1285.53	70.0078
1288.9	74.4512
1292.28	17.4189
1295.65	27.584
1299.03	40.3027
1302.4	35.4473
1305.78	27.0557
1309.15	34.0693
1312.53	2.41894
