Measurement: Raman, 785 nm, unoriented, Raman Data Processed
Mineral: Microcline
Rruff sample: R040154
Ideal chemistry: KAlSi_3_O_8_
Locality: Mitchell County, North Carolina, USA
Source: University of Arizona Mineral Museum
Description: White cleavage fragment with some perthitic character
Measured chemistry: (K_0.90_Na_0.09_Ba_0.01_)Al_1.00_(Si_2.99_Al_0.01_)_Î£=3_O_8_
Raman shift (cm-1)	intensity
141.268	0
144.161	61.7207
147.054	647.114
149.946	1338.87
152.839	1736.76
155.732	2115.12
158.625	2384.79
161.517	1717.93
164.41	1009.47
167.303	734.997
170.195	765.638
173.088	1000.36
175.981	1530.59
178.873	1817.88
181.766	1199
184.659	762.859
187.552	704.01
190.444	710.352
193.337	881.845
196.23	1418.21
199.122	1819.11
202.015	1058.06
204.908	489.137
207.8	267.181
210.693	107.782
213.586	10.5252
216.478	41.8804
219.371	60.6736
222.264	50.4961
225.157	57.6519
228.049	24.6318
230.942	4.34936
233.835	20.9426
236.727	79.1834
239.62	173.117
242.513	352.776
245.405	515.384
248.298	767.928
251.191	1274.49
254.084	2040.44
256.976	2782.82
259.869	2634.08
262.762	2816.01
265.654	3310.14
268.547	2820.68
271.44	2186.86
274.332	2092.96
277.225	2478.27
280.118	3377.65
283.011	4678.3
285.903	4758.06
288.796	2903.65
291.689	1458.98
294.581	796.793
297.474	429.015
300.367	261.053
303.26	142.858
306.152	60.9409
309.045	19.0879
311.938	41.0977
314.83	20.1387
317.723	4.85156
320.616	45.6113
323.508	177.908
326.401	240.947
329.294	547.404
332.187	539.044
335.079	170.481
337.972	111.585
340.865	0.884277
343.757	11.062
346.65	22.1797
349.543	60.7319
352.435	43.2041
355.328	74.8384
358.221	66.4321
361.113	76.9053
364.006	54.9853
366.899	94.6626
369.792	221.773
372.684	359.679
375.577	216.36
378.47	64.7119
381.362	8.48291
384.255	55.3897
387.148	11.082
390.041	42.7275
392.933	126.71
395.826	225.03
398.719	349.08
401.611	576.468
404.504	567.685
407.397	317.522
410.289	385.018
413.182	443.599
416.075	156.345
418.967	73.2705
421.86	27.4541
424.753	64.1055
427.646	74.9087
430.538	40.6914
433.431	8.52002
436.324	156.825
439.216	299.371
442.109	570.126
445.002	963.117
447.894	1625.49
450.787	2702.81
453.68	3527.55
456.573	2665.95
459.465	1541.61
462.358	1270.69
465.251	1501.79
468.143	2018.56
471.036	3088.41
473.929	4178.65
476.822	3747.12
479.714	2484.95
482.607	1893.81
485.5	1372.12
488.392	761.283
491.285	624.538
494.178	782.57
497.07	1149.14
499.963	2098.24
502.856	3499.5
505.748	5569.99
508.641	8699.72
511.534	11887.2
514.427	10827
517.319	5956.48
520.212	2925.87
523.105	1597.21
525.997	974.097
528.89	597.562
531.783	389.524
534.676	325.228
537.568	167.393
540.461	132.179
543.354	80.9297
546.246	3.1084
549.139	32.7842
552.032	10.0381
554.924	10.1562
557.817	31.4648
560.71	13.1289
563.602	69.0068
566.495	38.6631
569.388	11.9277
572.281	97.5205
575.173	78.6387
578.066	150.242
580.959	240.969
583.851	254.472
586.744	99.8623
589.637	70.1904
592.529	82.6172
595.422	25.7539
598.315	29.209
601.208	7.91894
604.1	62.5908
606.993	81.8438
609.886	12.1426
612.778	56.4961
615.671	9.90332
618.564	88.4531
621.457	92.3301
624.349	188.805
627.242	201.891
630.135	277.917
633.027	248.859
635.92	329.324
638.813	341.247
641.705	542.67
644.598	569.668
647.491	747.015
650.384	846.955
653.276	659.918
656.169	577.264
659.062	350.621
661.954	349.881
664.847	136.375
667.74	133.647
670.632	80.0312
673.525	69.0225
676.418	38.2822
679.311	31.3916
682.203	40.3027
685.096	20.4473
687.989	39.1514
690.881	51.7236
693.774	0.143555
696.667	28.5527
699.559	87.4414
702.452	9.76562
705.345	111.873
708.237	99.6953
711.13	18.8047
714.023	122.943
716.916	70.5527
719.808	108.164
722.701	99.6602
725.594	217.44
728.486	152.131
731.379	210.822
734.272	234.963
737.164	399.547
740.057	590.752
742.95	1001.61
745.843	1432.01
748.735	1834
751.628	1430.9
754.521	839.658
757.413	561.518
760.306	399.65
763.199	371.865
766.091	280.455
768.984	192.723
771.877	129.752
774.77	343.857
777.662	47.1133
780.555	71.4805
783.448	12.9395
786.34	46.2266
789.233	77.3477
792.126	103.441
795.019	271.119
797.911	245.859
800.804	255.961
803.697	603.803
806.589	983.744
809.482	1351
812.375	1921.11
815.267	1463.17
818.16	796.328
821.053	417.93
823.946	287.348
826.838	130.701
829.731	91.3848
832.624	43.6406
835.516	124.744
838.409	74.8887
841.302	7.78711
844.194	76.6211
847.087	70.916
849.98	38.582
852.872	10.7109
855.765	58.2734
858.658	83.8555
861.551	75.0254
864.443	105.699
867.336	127.402
870.229	184.816
873.121	71.2051
876.014	66.9277
878.907	137.926
881.799	72.9863
884.692	88.6406
887.585	127.941
890.478	138.041
893.37	85.6484
896.263	96.3613
899.156	143.44
902.048	39.9941
904.941	20.2832
907.834	9.35938
910.726	52.4531
913.619	69.8926
916.512	68.8848
919.405	61.5996
922.297	61.4023
925.19	123.932
928.083	98.4043
930.975	95.5137
933.868	79.7891
936.761	92.3438
939.654	31.5547
942.546	118.869
945.439	26.6758
948.332	90.7812
951.224	15.4238
954.117	113.576
957.01	25.6758
959.902	89.2031
962.795	69.9043
965.688	53.1797
968.581	125.295
971.473	53.0566
974.366	136.684
977.259	143.545
980.151	181.652
983.044	190.457
985.937	294.769
988.829	482.838
991.722	680.979
994.615	576.992
997.508	488.115
1000.4	405.43
1003.29	347.475
1006.19	329.965
1009.08	210.621
1011.97	193.828
1014.86	193.301
1017.76	82.5723
1020.65	103.856
1023.54	97.0254
1026.43	166.268
1029.33	302.324
1032.22	129.754
1035.11	137.41
1038.01	235.818
1040.9	142.59
1043.79	165.055
1046.68	101.619
1049.58	123.268
1052.47	75.4434
1055.36	127.109
1058.25	38.6348
1061.15	62.7227
1064.04	7.92578
1066.93	48.3047
1069.83	17.0469
1072.72	23.1055
1075.61	79.9102
1078.5	140.938
1081.4	214.519
1084.29	237.684
1087.18	136.996
1090.07	182.41
1092.97	203.906
1095.86	223.293
1098.75	373.668
1101.64	396.629
1104.54	318.34
1107.43	203.164
1110.32	364.539
1113.21	103.281
1116.11	317.723
1119	358.953
1121.89	400.141
1124.79	497.129
1127.68	524.789
1130.57	474.055
1133.46	556.496
1136.36	565.981
1139.25	390.973
1142.14	534.082
1145.04	205.035
1147.93	297.059
1150.82	247.734
1153.71	204.293
1156.61	118.129
1159.5	26.3125
1162.39	232.012
1165.28	143.297
1168.18	67.7578
1171.07	7.25
1173.96	112.574
1176.86	169.867
1179.75	212.769
1182.64	92.6094
1185.53	124.07
1188.43	109.59
1191.32	62.1719
1194.21	281.059
1197.1	68.3398
1200	173.668
1202.89	198.887
1205.78	186.648
1208.67	159.93
1211.57	167.316
1214.46	286.527
1217.35	235.961
1220.24	132.309
1223.14	179.125
1226.03	51.8594
1228.92	112.859
1231.82	115.523
1234.71	26.0977
1237.6	197.551
1240.49	76.3477
