Measurement: Raman, 532 nm, unoriented, Raman Data Processed
Mineral: Microsommite
Rruff sample: R100090
Ideal chemistry: Na_4_K_2_Ca_2_(SO_4_)(Si_6_Al_6_O_24_)Cl_2_
Locality: Monte Somma, Campania, Italy
Source: Marcus Origlieri
Description: Aggregate of parallel striated colorless crystals
Raman shift (cm-1)	intensity
157.506	0
160.399	6.63263
163.292	32.8262
166.185	57.4689
169.077	81.5509
171.97	99.7897
174.863	101.441
177.755	102.006
180.648	102.409
183.541	112.63
186.433	126.918
189.326	137.37
192.219	135.541
195.112	136.943
198.004	132.678
200.897	126.476
203.79	116.654
206.682	107.815
209.575	92.089
212.468	74.195
215.36	62.8062
218.253	48.7402
221.146	40.4987
224.038	28.4942
226.931	19.619
229.824	16.6281
232.717	11.5153
235.609	5.39761
238.502	2.24783
241.395	0.068176
244.287	0.359711
247.18	0.883972
250.073	3.61084
252.965	1.7355
255.858	0.24173
258.751	1.35333
261.644	4.16711
264.536	2.05713
267.429	4.95093
270.322	5.42654
273.214	14.9769
276.107	15.2129
279	23.9782
281.892	29.9059
284.785	44.4144
287.678	57.6435
290.571	54.3817
293.463	46.5276
296.356	27.7639
299.249	19.7314
302.141	14.3598
305.034	10.7662
307.927	9.66528
310.82	3.54721
313.712	1.29562
316.605	2.1012
319.498	1.95584
322.39	1.57733
325.283	0.895447
328.176	5.20258
331.068	2.98651
333.961	5.64291
336.854	0.096375
339.747	3.16449
342.639	5.46942
345.532	1.31689
348.425	1.36075
351.317	4.20953
354.21	4.47205
357.103	8.62454
359.995	2.60294
362.888	3.27356
365.781	1.44989
368.673	0.135834
371.566	0.182007
374.459	0.098022
377.352	4.52631
380.244	9.29562
383.137	16.983
386.03	24.1653
388.922	24.8228
391.815	21.0593
394.708	18.7647
397.601	15.2932
400.493	21.1736
403.386	27.2752
406.279	35.251
409.171	45.9567
412.064	62.9229
414.957	89.1899
417.849	120.658
420.742	150.68
423.635	165.924
426.527	157.434
429.42	141.789
432.313	135.509
435.206	144.228
438.098	164.14
440.991	193.239
443.884	232.245
446.776	278.739
449.669	336.287
452.562	375.087
455.454	387.972
458.347	353.551
461.24	274.994
464.133	193.454
467.025	139.603
469.918	106.73
472.811	88.9867
475.703	69.9024
478.596	62.1553
481.489	49.0842
484.382	40.1928
487.274	31.2202
490.167	20.6413
493.06	13.8974
495.952	9.99164
498.845	9.147
501.738	4.70709
504.63	2.48676
507.523	2.05859
510.416	2.90234
513.308	0.331818
516.201	1.1868
519.094	0.254303
521.987	2.88504
524.879	0.767456
527.772	3.56162
530.665	0.452393
533.557	0.913818
536.45	2.35492
539.343	0.910065
542.236	2.66925
545.128	2.48956
548.021	1.75028
550.914	1.12512
553.806	3.95483
556.699	2.73175
559.592	2.98071
562.484	3.46841
565.377	3.17426
568.27	1.64084
571.163	7.48865
574.055	6.1929
576.948	9.99872
579.841	4.45245
582.733	1.87259
585.626	7.02164
588.519	5.11703
591.411	4.8855
594.304	4.66229
597.197	5.56094
600.09	11.0442
602.982	12.2436
605.875	20.7882
608.768	29.2595
611.66	46.4502
614.553	55.4985
617.446	56.0103
620.338	57.7009
623.231	58.1009
626.124	50.9346
629.016	46.796
631.909	34.79
634.802	22.7367
637.695	15.5529
640.587	9.01862
643.48	8.87466
646.373	7.32956
649.265	14.1172
652.158	20.3456
655.051	29.6989
657.943	39.9556
660.836	47.963
663.729	42.1938
666.622	30.9332
669.514	23.2436
672.407	16.332
675.3	14.7596
678.192	13.0681
681.085	13.3123
683.978	7.62814
686.87	7.15396
689.763	6.00516
692.656	7.58847
695.549	4.20212
698.441	1.81103
701.334	1.1293
704.227	2.10819
707.119	0.520935
710.012	1.64725
712.905	3.97272
715.798	2.58643
718.69	5.26443
721.583	3.33179
724.476	0.403503
727.368	1.65607
730.261	0.299927
733.154	0.720062
736.046	2.01297
738.939	2.40549
741.832	1.65201
744.725	0.325775
747.617	6.26306
750.51	3.44141
753.403	1.46188
756.295	3.95303
759.188	3.87201
762.081	7.46219
764.973	12.8879
767.866	20.123
770.759	31.3882
773.652	42.1918
776.544	45.7232
779.437	40.5892
782.33	27.3752
785.222	15.2203
788.115	10.3669
791.008	6.6611
793.9	4.17386
796.793	3.39832
799.686	1.97415
802.578	3.31723
805.471	2.17996
808.364	1.33716
811.257	0.97998
814.149	1.50021
817.042	2.55667
819.935	0.386536
822.827	1.14978
825.72	3.79071
828.613	2.49188
831.505	4.80218
834.398	2.73065
837.291	5.60132
840.184	1.6207
843.076	1.04727
845.969	2.94293
848.862	7.07715
851.754	3.7243
854.647	7.564
857.54	2.27035
860.433	5.02982
863.325	6.70569
866.218	3.11533
869.111	5.13419
872.003	5.14014
874.896	10.2376
877.789	4.83307
880.681	3.59717
883.574	2.83194
886.467	5.54861
889.36	5.11734
892.252	0.3367
895.145	4.48248
898.038	2.96307
900.93	3.29138
903.823	2.81039
906.716	2.38971
909.608	0.628571
912.501	1.45523
915.394	0.036987
918.287	1.40088
921.179	1.53305
924.072	0.799561
926.965	4.26901
929.857	2.69424
932.75	1.20602
935.643	0.764771
938.535	2.371
941.428	1.56146
944.321	0.065338
947.213	3.89218
950.106	5.1109
952.999	6.30103
955.892	10.1277
958.784	11.7884
961.677	20.2266
964.57	25.2938
967.462	42.2806
970.355	70.0322
973.248	113.018
976.14	184.895
979.033	298.481
981.926	451.233
984.819	640.458
987.711	756.793
990.604	606.779
993.497	313.381
996.389	147.122
999.282	78.0127
1002.17	44.8525
1005.07	26.6537
1007.96	23.2043
1010.85	24.5456
1013.75	30.2404
1016.64	39.8229
1019.53	45.9076
1022.42	44.3742
1025.32	40.7527
1028.21	28.1695
1031.1	19.9186
1033.99	16.3781
1036.89	11.35
1039.78	12.0168
1042.67	23.3958
1045.57	41.4763
1048.46	54.9228
1051.35	83.853
1054.24	111.483
1057.14	105.653
1060.03	83.5443
1062.92	71.8339
1065.81	64.6328
1068.71	51.1449
1071.6	37.8931
1074.49	26.5376
1077.38	17.6574
1080.28	9.34692
1083.17	1.05698
1086.06	2.82413
1088.96	1.58475
1091.85	2.76947
1094.74	0.004547
1097.63	1.39593
1100.53	8.21213
1103.42	11.9981
1106.31	12.03
1109.2	15.6516
1112.1	11.2347
1114.99	11.2335
1117.88	9.73764
1120.78	8.93591
1123.67	9.82632
1126.56	11.5757
1129.45	15.7023
1132.35	14.9116
1135.24	16.7481
1138.13	16.4375
1141.02	17.3645
1143.92	16.8074
1146.81	15.9495
1149.7	19.1454
1152.6	16.0397
1155.49	14.8727
1158.38	14.9056
1161.27	8.84189
1164.17	6.36267
1167.06	9.57132
1169.95	3.76038
1172.84	4.95532
1175.74	0.924316
1178.63	2.3122
1181.52	0.69632
1184.41	2.8605
1187.31	1.93301
1190.2	0.99472
1193.09	0.424866
1195.99	0.952026
1198.88	1.62759
1201.77	1.72989
1204.66	1.82385
1207.56	0.451447
1210.45	4.13998
1213.34	4.57837
1216.23	4.61502
1219.13	4.78046
1222.02	3.79843
1224.91	4.39453
1227.81	2.97244
1230.7	7.87808
1233.59	2.17535
1236.48	3.83655
1239.38	2.21338
1242.27	2.10745
1245.16	4.11508
1248.05	7.66217
1250.95	7.3667
1253.84	3.24377
1256.73	3.47214
1259.62	0.771332
1262.52	2.12247
1265.41	4.59808
1268.3	5.80078
1271.2	9.05728
1274.09	5.73093
1276.98	2.94946
1279.87	0.108276
1282.77	0.224304
1285.66	2.85767
1288.55	0.074951
1291.44	0.911804
1294.34	4.05896
1297.23	0.222473
1300.12	5.66599
1303.02	0
