Measurement: Raman, 532 nm, unoriented, Raman Data Processed
Mineral: Microcline
Rruff sample: R050193
Ideal chemistry: KAlSi_3_O_8_
Locality: Devil's Head, Douglas County, Colorado, USA
Source: Dave Bunk Minerals
Description: White to colorless heterogeneous mixture of K and Na feldspar in a cluster of crystals. Crystal structure determined, presented below. This sample is known as an intermediate microcline in the literature.
Measured chemistry: (K_0.929_Na_0.071_)(Al_1.005_Si_2.994_Fe_0.001_)O_7.993_F_0.007_  ; Light Band :  (Na_0.973_K_0.007_Ca_0.020_)(Al_1.020_Si_2.980_)O_8_ ; Dark Band
Raman shift (cm-1)	intensity
135.72	0
138.612	8.10353
141.505	21.081
144.398	8.51594
147.29	12.6511
150.183	43.0737
153.076	76.9875
155.968	101.512
158.861	123.752
161.754	97.1427
164.647	48.2438
167.539	16.2579
170.432	7.92745
173.325	22.2191
176.217	54.6484
179.11	70.9116
182.003	43.9721
184.895	18.2889
187.788	6.85619
190.681	6.43634
193.573	20.2855
196.466	48.4376
199.359	70.5623
202.252	40.8789
205.144	7.07403
208.037	3.06532
210.93	0.288717
213.822	0.67414
216.715	0.919252
219.608	2.76194
222.5	0.948881
225.393	1.39162
228.286	5.01736
231.179	9.05418
234.071	11.7524
236.964	15.1446
239.857	20.2764
242.749	26.9445
245.642	36.5839
248.535	47.3947
251.428	63.3496
254.32	86.0155
257.213	116.465
260.106	146.6
262.998	173.749
265.891	196.846
268.784	201.28
271.676	187.211
274.569	183.101
277.462	207.93
280.354	241.096
283.247	239.76
286.14	195.461
289.033	132.255
291.925	80.2112
294.818	48.8653
297.711	30.4905
300.603	18.36
303.496	12.2128
306.389	6.19712
309.281	2.78913
312.174	1.6295
315.067	0.128063
317.96	0.18156
320.852	0.651872
323.745	1.40994
326.638	0.934049
329.53	5.44192
332.423	8.13804
335.316	4.63876
338.209	2.41969
341.101	0.721985
343.994	0.241373
346.887	0.50568
349.779	0.159252
352.672	1.3844
355.565	2.60403
358.457	4.74015
361.35	5.85791
364.243	8.14429
367.135	9.80939
370.028	15.1766
372.921	14.496
375.814	12.0899
378.706	5.41873
381.599	4.0583
384.492	1.72578
387.384	2.48655
390.277	3.74355
393.17	8.34266
396.062	11.2141
398.955	19.0356
401.848	26.2322
404.741	35.5901
407.633	32.9993
410.526	28.5849
413.419	17.9057
416.311	2.44325
419.204	1.11736
422.097	1.29603
424.99	1.35561
427.882	1.40941
430.775	3.09791
433.668	1.99956
436.56	10.5248
439.453	23.5271
442.346	43.6913
445.238	69.4681
448.131	108.063
451.024	149.481
453.916	183.032
456.809	175.319
459.702	130.748
462.595	106.335
465.487	98.6802
468.38	122.255
471.273	164.962
474.165	224.722
477.058	228.698
479.951	167.312
482.844	114.939
485.736	94.5212
488.629	71.0038
491.522	66.6866
494.414	78.1909
497.307	111.101
500.2	165.14
503.092	242.312
505.985	366.619
508.878	557.346
511.771	766.678
514.663	804.042
517.556	539.807
520.448	287.946
523.341	159.47
526.234	93.7707
529.127	60.8108
532.019	38.2655
534.912	26.6407
537.805	14.601
540.697	10.1691
543.59	4.5739
546.483	0.462969
549.375	1.76491
552.268	1.47331
555.161	1.2078
558.054	1.15492
560.946	0.792969
563.839	0.496683
566.732	0.115889
569.625	1.37248
572.517	1.00544
575.41	2.93839
578.303	3.67395
581.195	7.47116
584.088	7.25866
586.981	6.53232
589.873	4.07078
592.766	1.06804
595.659	2.04313
598.552	2.0102
601.444	2.57998
604.337	2.29298
607.23	1.76179
610.122	3.33306
613.015	3.43476
615.908	2.5075
618.8	3.80242
621.693	5.73764
624.586	7.53727
627.479	11.2484
630.371	10.1142
633.264	13.4175
636.157	9.6809
639.049	10.6653
641.942	12.8086
644.835	17.604
647.727	17.5709
650.62	22.299
653.513	20.7459
656.405	17.9192
659.298	15.3442
662.191	12.0316
665.084	7.62828
667.976	5.04134
670.869	2.15092
673.762	2.18515
676.654	1.29107
679.547	0.663879
682.44	0.32585
685.332	0.451574
688.225	0.210156
691.118	0.142215
694.011	0.959828
696.903	0.512505
699.796	0.000793
702.689	0.224902
705.581	0.741781
708.474	0.499642
711.367	0.753929
714.259	3.4056
717.152	4.63943
720.045	4.74016
722.938	7.07377
725.83	8.54434
728.723	11.7261
731.616	17.1925
734.508	23.4223
737.401	35.2031
740.294	47.3959
743.186	57.5586
746.079	64.7488
748.972	71.6818
751.865	66.0745
754.757	53.8763
757.65	42.0881
760.543	36.5375
763.435	31.8149
766.328	25.8161
769.221	22.1681
772.113	18.5972
775.006	16.583
777.899	14.9267
780.792	14.2635
783.684	13.889
786.577	17.225
789.47	22.3266
792.362	26.8795
795.255	32.2769
798.148	38.3656
801.04	39.2612
803.933	45.7087
806.826	58.9539
809.718	78.24
812.611	87.9554
815.504	71.8819
818.397	42.5304
821.289	18.3866
824.182	9.57085
827.075	3.99734
829.967	1.82149
832.86	2.01768
835.753	0.095301
838.645	0.371354
841.538	0.611259
844.431	0.600285
847.324	0.169143
850.216	0.732702
853.109	0.597982
856.002	0.360854
858.894	0.427403
861.787	0.422532
864.68	0.045709
867.572	0.430718
870.465	0.99006
873.358	1.69512
876.251	1.26181
879.143	2.6184
882.036	0.648543
884.929	2.22164
887.821	1.44159
890.714	2.13897
893.607	1.59648
896.5	1.03088
899.392	2.41535
902.285	1.70836
905.178	1.86976
908.07	1.93974
910.963	3.17346
913.856	2.82799
916.748	2.44474
919.641	2.02362
922.534	2.53081
925.427	1.56691
928.319	1.30807
931.212	1.92871
934.105	0.243998
936.997	1.50683
939.89	0.282266
942.783	1.80904
945.675	0.000389
948.568	3.1469
951.461	0.171068
954.354	0.22545
957.246	0.604192
960.139	0.538328
963.032	1.46474
965.924	2.83283
968.817	3.74042
971.71	5.369
974.602	5.39763
977.495	6.73902
980.388	10.2934
983.28	13.5524
986.173	16.3743
989.066	20.1149
991.959	23.6303
994.851	24.6644
997.744	22.6692
1000.64	18.2568
1003.53	18.2909
1006.42	14.1677
1009.32	11.4144
1012.21	9.12569
1015.1	8.408
1017.99	7.14074
1020.89	7.12653
1023.78	5.81144
1026.67	5.28539
1029.56	3.76358
1032.46	7.0004
1035.35	3.95475
1038.24	4.8241
1041.13	5.71138
1044.03	4.6649
1046.92	3.26249
1049.81	3.74691
1052.7	1.72096
1055.6	0.817143
1058.49	0.023532
1061.38	0.263767
1064.28	0.531717
1067.17	0.30168
1070.06	0.844819
1072.95	0.254975
1075.85	1.27246
1078.74	3.78291
1081.63	4.0907
1084.53	4.14195
1087.42	7.93166
1090.31	8.7927
1093.2	11.8476
1096.1	13.5349
1098.99	15.3537
1101.88	15.5471
1104.77	14.3541
1107.67	12.025
1110.56	12.4147
1113.45	12.8408
1116.35	16.0809
1119.24	18.1687
1122.13	21.1063
1125.02	23.4177
1127.91	24.1135
1130.81	24.5536
1133.7	22.0576
1136.59	24.829
1139.49	23.0669
1142.38	21.2965
1145.27	17.9629
1148.16	13.1503
1151.06	11.6443
1153.95	7.55065
1156.84	4.16271
1159.73	4.78768
1162.63	3.31315
1165.52	1.69285
1168.41	0.436697
1171.31	1.57957
1174.2	0.999161
1177.09	1.18844
1179.98	0.561909
1182.88	0.527051
1185.77	0.503222
1188.66	0.162201
1191.56	0.282526
1194.45	0.375909
1197.34	0.474619
1200.23	0.09325
1203.13	1.66959
1206.02	2.22013
1208.91	2.66769
1211.8	0.343017
1214.7	1.27711
1217.59	1.99644
1220.48	0.250581
1223.38	1.11182
1226.27	2.75705
1229.16	1.12573
1232.05	0.690095
1234.94	1.76559
1237.84	1.10488
1240.73	1.52066
1243.62	0
