Measurement: Raman, 780 nm, unoriented, Raman Data Processed
Mineral: Miersite
Rruff sample: R110170
Ideal chemistry: (Ag,Cu)I
Locality: Proprietary mine, Broken Hill, Australia
Source: Marcus Origlieri
Description: Pale yellow tetrahedra, associated with hexagonal plates of iodargyrite
Raman shift (cm-1)	intensity
92.5678	36195.3
95.9426	40065.5
99.3174	38871
102.692	37729.2
106.067	36842.6
109.442	35546.6
112.817	33901.9
116.192	31900.9
119.566	29817.6
122.941	27838.5
126.316	25952.4
129.691	24125.4
133.066	22355.5
136.44	20698
139.815	19158.1
143.19	17733.1
146.565	16486
149.94	15281.2
153.315	14253.8
156.689	13308.4
160.064	12464.6
163.439	11682.9
166.814	10992.9
170.189	10377.5
173.563	9841.44
176.938	9372.58
180.313	8970.78
183.688	8665.77
187.063	8415.52
190.437	8222.01
193.812	8095.28
197.187	7986.84
200.562	7879.04
203.937	7779.67
207.311	7698.2
210.686	7630.37
214.061	7543.97
217.436	7503.4
220.811	7416.61
224.186	7344.05
227.56	7288.47
230.935	7240.69
234.31	7187
237.685	7147.09
241.06	7137.73
244.435	7035.04
247.809	7034.55
251.184	6961.33
254.559	6938.96
257.934	6891.72
261.309	6865.59
264.683	6852.43
268.058	6825.01
271.433	6799.57
274.808	6775.4
278.183	6775.44
281.558	6755.57
284.932	6746.03
288.307	6760.21
291.682	6734.91
295.057	6731.59
298.432	6729.48
301.806	6712.6
305.181	6656.83
308.556	6636.91
311.931	6633.59
315.306	6628.77
318.68	6597.3
322.055	6602.04
325.43	6575.26
328.805	6571.35
332.18	6556.56
335.555	6566.8
338.929	6592.52
342.304	6551.81
345.679	6552.06
349.054	6560.37
352.429	6533.3
355.803	6538.18
359.178	6545.08
362.553	6539.77
365.928	6549.75
369.303	6548.86
372.678	6558.96
376.052	6567.88
379.427	6564.57
382.802	6578.68
386.177	6592.97
389.552	6586.69
392.926	6570.54
396.301	6592.75
399.676	6533.97
403.051	6518.88
406.426	6495.79
409.8	6464.42
413.175	6456.77
416.55	6449.28
419.925	6426.45
423.3	6421.65
426.675	6402.98
430.049	6391.26
433.424	6389.64
436.799	6371.43
440.174	6348.64
443.549	6371.69
446.923	6362.85
450.298	6345.46
453.673	6340.22
457.048	6333.17
460.423	6343.31
463.798	6321.56
467.172	6324.44
470.547	6307.02
473.922	6305.7
477.297	6300.49
480.672	6294.62
484.046	6275.81
487.421	6244.91
490.796	6229.5
494.171	6244
497.546	6231.84
500.921	6209.3
504.295	6212.66
507.67	6194.26
511.045	6184.61
514.42	6199
517.795	6186.24
521.169	6154.02
524.544	6155.03
527.919	6142.56
531.294	6143.41
534.669	6143.87
538.044	6131.79
541.418	6124.93
544.793	6131.59
548.168	6119.88
551.543	6112.79
554.918	6132.34
558.293	6094.88
561.667	6080.11
565.042	6061.28
568.417	6047.5
571.792	6039.84
575.167	6038.14
578.541	6028.53
581.916	6024.78
585.291	6021.49
588.666	6008.75
592.041	6003.25
595.415	5984.8
598.79	5982.35
602.165	5974.91
605.54	5981.58
608.915	5968.63
612.29	5949.19
615.664	5952.23
619.039	5936.12
622.414	5923.81
625.789	5916.14
629.164	5921.85
632.538	5922.45
635.913	5905.7
639.288	5880.47
642.663	5890.95
646.038	5880.61
649.413	5864.97
652.787	5856.49
656.162	5854.74
659.537	5820.35
662.912	5815.4
666.287	5811.86
669.661	5796.97
673.036	5800.98
676.411	5794.87
679.786	5791.15
683.161	5771.85
686.535	5768.75
689.91	5756.59
693.285	5743.26
696.66	5729.23
700.035	5725.68
703.41	5726.32
706.784	5707.96
710.159	5709.05
713.534	5701.45
716.909	5694.59
720.284	5722.47
723.659	5686.02
727.033	5650.99
730.408	5650.33
733.783	5642.26
737.158	5635.73
740.533	5615.06
743.907	5612.87
747.282	5599.07
750.657	5604.91
754.032	5590.26
757.407	5576.4
760.782	5561.9
764.156	5543.72
767.531	5547.63
770.906	5541.83
774.281	5549.3
777.656	5548.82
781.03	5531.27
784.405	5524.4
787.78	5528.1
791.155	5528.78
794.53	5534.21
797.904	5506.73
801.279	5504.92
804.654	5488.07
808.029	5510.86
811.404	5484.21
814.779	5478.69
818.153	5488.39
821.528	5472.46
824.903	5461.52
828.278	5457.49
831.653	5469.44
835.028	5453.11
838.402	5454.82
841.777	5442.6
845.152	5419.39
848.527	5410.75
851.902	5413.63
855.276	5399.32
858.651	5386.82
862.026	5384.56
865.401	5363.36
868.776	5364.65
872.15	5353.6
875.525	5374.54
878.9	5329.32
882.275	5333.09
885.65	5336.49
889.024	5300.19
892.399	5294.61
895.774	5277.21
899.149	5260.53
902.524	5269.24
905.899	5258.8
909.273	5255.89
912.648	5253.41
916.023	5229.11
919.398	5233.07
922.773	5216.44
926.148	5220.58
929.522	5211.27
932.897	5202.61
936.272	5210.43
939.647	5204.4
943.022	5186.73
946.396	5166.03
949.771	5154.83
953.146	5152.24
956.521	5151.16
959.896	5147.48
963.27	5126.76
966.645	5140.91
970.02	5110.63
973.395	5114.88
976.77	5098.48
980.145	5098.57
983.519	5085.07
986.894	5087.93
990.269	5097.74
993.644	5070.41
997.019	5065.35
1000.39	5071.5
1003.77	5063.88
1007.14	5065.08
1010.52	5054.17
1013.89	5057.67
1017.27	5052.71
1020.64	5040.9
1024.02	5031.79
1027.39	5024
1030.77	5028.62
1034.14	5025.88
1037.52	5023
1040.89	5041.27
1044.27	4986.71
1047.64	4983.21
1051.02	4986.24
1054.39	4985.79
1057.77	4978.29
1061.14	4977.66
1064.52	4967.73
1067.89	4970.59
1071.27	4949.47
1074.64	4962.35
1078.01	4938.04
1081.39	4936.19
1084.76	4931.93
1088.14	4928.95
1091.51	4935.88
1094.89	4923.26
1098.26	4903.93
1101.64	4893.36
1105.01	4896.99
1108.39	4909.86
1111.76	4896.93
1115.14	4880.71
1118.51	4866.5
1121.89	4873.24
1125.26	4876.22
1128.64	4862.89
1132.01	4865.01
1135.39	4882.75
1138.76	4861.9
1142.14	4871.22
1145.51	4871.25
1148.88	4858.43
1152.26	4839.83
1155.63	4864.01
1159.01	4855.28
1162.38	4841.94
1165.76	4839.53
1169.13	4846.43
1172.51	4843.1
1175.88	4857.44
1179.26	4851.75
1182.63	4846.99
1186.01	4837.14
1189.38	4852.78
1192.76	4852.14
1196.13	4836.02
1199.51	4821.62
1202.88	4815.33
1206.26	4811.3
1209.63	4814.11
1213.01	4803.17
1216.38	4808.09
1219.76	4790.36
1223.13	4785.69
1226.51	4768.61
1229.88	4776.29
1233.26	4782.1
1236.63	4773.42
1240.01	4750.98
1243.38	4762.29
1246.76	4754.93
1250.13	4739.14
1253.51	4743.52
1256.88	4740.14
1260.25	4739.86
1263.63	4734.09
1267	4745.27
1270.38	4740.55
1273.75	4741.38
1277.13	4732.6
1280.5	4729.25
1283.88	4754.8
