Measurement: Raman, 780 nm, unoriented, Raman Data Processed
Mineral: Miersite
Rruff sample: R110034
Ideal chemistry: (Ag,Cu)I
Locality: Block 2-1, 100 meter level, Rubtsovsk mine, Rudniy Altai Mountains, Russia
Source: William W Pinch
Description: Greenish-yellow massive
Raman shift (cm-1)	intensity
92.5678	1743.99
95.9426	1922.38
99.3174	1881.6
102.692	1839.81
106.067	1824.79
109.442	1769.02
112.817	1682.4
116.192	1563.38
119.566	1450.16
122.941	1349.93
126.316	1255.02
129.691	1168.25
133.066	1079.38
136.44	994.46
139.815	916.529
143.19	844.279
146.565	781.499
149.94	719.442
153.315	670.248
156.689	620.295
160.064	575.361
163.439	530.391
166.814	489.428
170.189	450.626
173.563	420.731
176.938	391.225
180.313	367.774
183.688	349.354
187.063	335.623
190.437	325.373
193.812	319.175
197.187	315.791
200.562	312.347
203.937	312.007
207.311	313.564
210.686	309.61
214.061	312.355
217.436	310.611
220.811	317.921
224.186	313.827
227.56	316.818
230.935	316.892
234.31	319.28
237.685	320.754
241.06	320.786
244.435	317.037
247.809	318.54
251.184	314.827
254.559	314.553
257.934	307.592
261.309	307.225
264.683	306.504
268.058	304.109
271.433	296.242
274.808	291.308
278.183	285.713
281.558	281.42
284.932	278.843
288.307	274.529
291.682	269.541
295.057	264.044
298.432	263.374
301.806	255.099
305.181	250.261
308.556	248.806
311.931	244.222
315.306	241.201
318.68	237.263
322.055	230.333
325.43	229.434
328.805	223.59
332.18	219.92
335.555	218.471
338.929	211.989
342.304	207.436
345.679	208.004
349.054	203.747
352.429	201.843
355.803	195.25
359.178	196.514
362.553	193.165
365.928	189.842
369.303	186.425
372.678	187.088
376.052	183.16
379.427	179.628
382.802	177.23
386.177	175.433
389.552	175.439
392.926	174.529
396.301	172.092
399.676	173.731
403.051	169.224
406.426	166.82
409.8	166.971
413.175	165.91
416.55	165.913
419.925	163.709
423.3	163.104
426.675	161.728
430.049	161.573
433.424	162.665
436.799	162.768
440.174	161.345
443.549	158.007
446.923	159.59
450.298	156.969
453.673	156.663
457.048	157.555
460.423	156.326
463.798	153.657
467.172	157.594
470.547	155.454
473.922	154.54
477.297	151.189
480.672	151.34
484.046	152.834
487.421	150.809
490.796	149.253
494.171	151.254
497.546	148.822
500.921	149.115
504.295	146.295
507.67	147.311
511.045	145.44
514.42	146.829
517.795	144.943
521.169	141.752
524.544	143.558
527.919	143.545
531.294	144.093
534.669	140.344
538.044	143.767
541.418	140.507
544.793	142.579
548.168	140.703
551.543	139.472
554.918	140.559
558.293	140.009
561.667	140.709
565.042	141.705
568.417	137.72
571.792	136.387
575.167	135.575
578.541	138.26
581.916	134.789
585.291	136.161
588.666	136.08
592.041	137.016
595.415	136.003
598.79	135.866
602.165	135.283
605.54	134.274
608.915	134.719
612.29	134.469
615.664	133.692
619.039	133.773
622.414	131.553
625.789	135.507
629.164	131.806
632.538	131.055
635.913	132.879
639.288	130.128
642.663	130.112
646.038	128.766
649.413	135.68
652.787	129.899
656.162	130.659
659.537	129.359
662.912	126.512
666.287	128.189
669.661	129.554
673.036	127.773
676.411	125.917
679.786	128.975
683.161	127.038
686.535	126.455
689.91	126.003
693.285	125.848
696.66	124.281
700.035	126.088
703.41	123.559
706.784	124.012
710.159	124.966
713.534	123.534
716.909	124.4
720.284	124.443
723.659	124.406
727.033	122.111
730.408	123.213
733.783	122.07
737.158	123.686
740.533	120.392
743.907	122.305
747.282	119.985
750.657	119.12
754.032	121.35
757.407	121.186
760.782	119.345
764.156	119.362
767.531	120.954
770.906	119.358
774.281	120.748
777.656	119.97
781.03	120.716
784.405	117.852
787.78	120.268
791.155	118.511
794.53	119.794
797.904	118.62
801.279	117.692
804.654	119.301
808.029	119.052
811.404	117.544
814.779	116.143
818.153	118.557
821.528	117.818
824.903	118.689
828.278	115.799
831.653	117.123
835.028	115.931
838.402	115.831
841.777	117.577
845.152	114.269
848.527	115.935
851.902	116.944
855.276	114.31
858.651	113.61
862.026	113.726
865.401	112.782
868.776	113.457
872.15	111.191
875.525	112.071
878.9	112.894
882.275	110.611
885.65	110.856
889.024	112.805
892.399	111.947
895.774	110.865
899.149	110.765
902.524	110.44
905.899	110.264
909.273	109.272
912.648	110.147
916.023	109.187
919.398	111.885
922.773	110.384
926.148	108.933
929.522	108.792
932.897	108.811
936.272	108.468
939.647	120.331
943.022	105.731
946.396	106.543
949.771	106.818
953.146	106.221
956.521	106.965
959.896	105.202
963.27	105.625
966.645	106.091
970.02	107.035
973.395	105.458
976.77	105.192
980.145	104.515
983.519	104.59
986.894	103.48
990.269	105.083
993.644	105.124
997.019	108.166
1000.39	107.513
1003.77	102.637
1007.14	105.256
1010.52	104.266
1013.89	104.099
1017.27	102.364
1020.64	103.245
1024.02	105.252
1027.39	106.319
1030.77	103.343
1034.14	103.412
1037.52	103.436
1040.89	103.265
1044.27	101.37
1047.64	102.768
1051.02	104.081
1054.39	101.512
1057.77	102.604
1061.14	104.07
1064.52	102.309
1067.89	101.088
1071.27	102.525
1074.64	102.227
1078.01	102.903
1081.39	100.997
1084.76	102.176
1088.14	102.024
1091.51	99.04
1094.89	101.459
1098.26	102.322
1101.64	100.989
1105.01	102.263
1108.39	102.001
1111.76	99.4895
1115.14	99.4417
1118.51	102.507
1121.89	100.111
1125.26	100.731
1128.64	100.706
1132.01	101.118
1135.39	100.828
1138.76	100.802
1142.14	103.987
1145.51	99.8971
1148.88	101.662
1152.26	100.679
1155.63	101.546
1159.01	101.183
1162.38	100.371
1165.76	102.589
1169.13	102.493
1172.51	101.535
1175.88	102.084
1179.26	101.543
1182.63	100.685
1186.01	101.889
1189.38	99.7533
1192.76	99.707
1196.13	101.333
1199.51	98.7383
1202.88	100.571
1206.26	97.781
1209.63	99.7439
1213.01	100.54
1216.38	98.3542
1219.76	100.415
1223.13	100.151
1226.51	97.3293
1229.88	98.2862
1233.26	99.9374
1236.63	99.523
1240.01	97.4407
1243.38	101.457
1246.76	98.3149
1250.13	98.7243
1253.51	96.723
1256.88	98.3414
1260.25	99.8143
1263.63	97.6936
1267	99.3357
1270.38	98.1069
1273.75	100.988
1277.13	101.89
1280.5	102.213
1283.88	100.146
