Measurement: Raman, 532 nm, unoriented, Raman Data Processed
Mineral: Miguelromeroite
Rruff sample: R070064
Ideal chemistry: Mn^2+^_5_(As^5+^O_4_)_2_(As^5+^O_3_OH)_2_4H_2_O
Locality: Veta Negra mine, Pampa Larga Mining District, Tierra Amarilla, Chile
Source: Bob Jenkins
Description: Sprays of pink thin prismatic crystals associated with siderite and cuproadamite
Measured chemistry: (Mn^2+^_4.64_Ca_0.25_Zn_0.07_Mg_0.04_)_Σ=5_(As_1.00_O_3_OH)_2_(As_1.00_O_4_)_2_·3.98H_2_O; OH estimated by charge balance; H_2_O by difference
Raman shift (cm-1)	intensity
153.074	0
156.449	354.737
159.824	333.484
163.199	11.6792
166.573	16.2925
169.948	319.997
173.323	756.315
176.698	1030.28
180.073	1378.81
183.448	1724.97
186.822	1762.09
190.197	1536.89
193.572	1117.74
196.947	977.888
200.322	1155.82
203.696	1479.12
207.071	1789.19
210.446	2183.92
213.821	2680.11
217.196	3010.3
220.571	3067.54
223.945	3091.22
227.32	3137.57
230.695	3273.07
234.07	2871.1
237.445	2233.67
240.82	1351.55
244.194	765.002
247.569	350.643
250.944	182.601
254.319	164.12
257.693	284.619
261.068	311.921
264.443	255.071
267.818	197.846
271.193	150.021
274.568	311.099
277.942	505.049
281.317	784.599
284.692	1053.34
288.067	1367.21
291.442	1703.19
294.817	2111.73
298.191	2136.11
301.566	1616.91
304.941	826.267
308.316	108.621
311.691	242.189
315.065	412.364
318.44	325.87
321.815	117.999
325.19	324.095
328.565	1194.72
331.939	2008.84
335.314	2582.14
338.689	3428.92
342.064	3765.29
345.439	2707.64
348.813	2509.87
352.188	3142.95
355.563	4232.1
358.938	5502.88
362.313	6006.43
365.688	5476.11
369.062	5758.5
372.437	7902.12
375.812	10226.5
379.187	11474.7
382.562	10901.9
385.936	8479.72
389.311	6116.56
392.686	4791.07
396.061	4228.96
399.436	3983.87
402.81	3462.42
406.185	2732.48
409.56	1574.6
412.935	781.924
416.31	632.102
419.685	1232.15
423.059	2389.21
426.434	3833.05
429.809	5369.51
433.184	6425.69
436.559	6972.25
439.933	7147.27
443.308	7429.94
446.683	7210.69
450.058	6304.77
453.433	4622.57
456.808	3099.94
460.182	2221.73
463.557	2154.42
466.932	2825.22
470.307	3941.18
473.682	4961.84
477.056	5123.66
480.431	3926
483.806	2382
487.181	1149.8
490.556	344.62
493.93	28.7236
497.305	133.287
500.68	84.0049
504.055	98.6284
507.43	75.3687
510.805	113.655
514.179	132.044
517.554	151.821
520.929	101.127
524.304	77.437
527.679	1.90674
531.053	71.103
534.428	166.78
537.803	241.106
541.178	368.586
544.553	512.222
547.928	631.233
551.302	796.666
554.677	909.082
558.052	1094.01
561.427	1182.17
564.802	1247.82
568.176	1243.62
571.551	1232.89
574.926	1209.37
578.301	1104.59
581.676	1107.32
585.051	1100.51
588.425	1105.9
591.8	1109.76
595.175	1165.22
598.55	1253.68
601.924	1330.69
605.299	1355.45
608.674	1491.69
612.049	1544.03
615.424	1658.29
618.799	1722.1
622.173	1769.41
625.548	2002.1
628.923	2036.06
632.298	2204.62
635.673	2253.39
639.048	2347.43
642.422	2527.69
645.797	2537.35
649.172	2637.06
652.547	2755.72
655.922	2884.42
659.296	3011.88
662.671	3163.12
666.046	3329.72
669.421	3383.58
672.796	3537.6
676.17	3483.1
679.545	3436.91
682.92	3260.2
686.295	2960.4
689.67	2671.41
693.044	2360.18
696.419	1981.02
699.794	1722.9
703.169	1345.37
706.544	984.684
709.919	616.831
713.293	346.452
716.668	78.0049
720.043	179.452
723.418	511.219
726.793	602.593
730.167	725.005
733.542	689.37
736.917	731.134
740.292	544.552
743.667	162.273
747.042	264.857
750.416	974.998
753.791	1731.16
757.166	2599.43
760.541	3343.09
763.916	4372.71
767.29	5490.56
770.665	6934.81
774.04	9349.35
777.415	13051.2
780.79	17775.5
784.164	23732.8
787.539	30556.3
790.914	37299.8
794.289	42564.6
797.664	45116.6
801.038	43026.5
804.413	35596.1
807.788	26647.7
811.163	19380.7
814.538	15132.9
817.913	13408.1
821.287	13833.2
824.662	15765.2
828.037	17649.5
831.412	19340.7
834.787	19110.1
838.162	14462.6
841.536	8531.67
844.911	6665.58
848.286	8897.75
851.661	13296.1
855.036	17622
858.41	22310
861.785	27321.9
865.16	32420.5
868.535	35480.5
871.91	34823
875.284	33210.7
878.659	34503.7
882.034	42473.3
885.409	56616.3
888.784	71688.9
892.159	76719.6
895.533	59431.8
898.908	34189.9
902.283	17364.6
905.658	8731.1
909.033	4644.82
912.407	2605.28
915.782	1353.42
919.157	494.283
922.532	144.033
925.907	549.392
929.281	804.791
932.656	784.247
936.031	851.166
939.406	573.943
942.781	352.147
946.155	38.4126
949.53	390.844
952.905	780.556
956.28	1225.46
959.655	1665.73
963.03	2075.09
966.404	2495.43
969.779	2911.52
973.154	3283.51
976.529	3545.68
979.904	3688.74
983.279	3866.16
986.653	3859.29
990.028	3740.74
993.403	3543.02
996.778	3233.3
1000.15	2954.66
1003.53	2662.81
1006.9	2433.89
1010.28	2264.3
1013.65	2076.03
1017.03	1934.67
1020.4	1834.94
1023.78	1745.96
1027.15	1699.56
1030.53	1550.59
1033.9	1518.13
1037.28	1434.48
1040.65	1334.31
1044.03	1171.47
1047.4	1067.05
1050.78	964.038
1054.15	882.065
1057.52	836.449
1060.9	725.275
1064.27	674.263
1067.65	595.701
1071.02	594.111
1074.4	506.38
1077.77	425.42
1081.15	312.144
1084.52	295.948
1087.9	289.263
1091.27	205.543
1094.65	221.399
1098.02	219.417
1101.4	109.587
1104.77	123.684
1108.15	108.865
1111.52	71.7148
1114.9	49.8413
1118.27	30.9448
1121.65	22.4751
1125.02	21.4302
1128.4	9.69141
1131.77	38.959
1135.14	15.9746
1138.52	34.3852
1141.89	4.28809
1145.27	4.66064
1148.64	12.3604
1152.02	41.249
1155.39	4.78125
1158.77	19.9531
1162.14	50.2783
1165.52	35.7212
1168.89	0.752441
1172.27	15.8452
1175.64	1.34619
1179.02	29.623
1182.39	55.834
1185.77	0.431152
1189.14	2.28662
1192.52	10.5889
1195.89	32.3784
1199.27	56.7051
1202.64	86.5019
1206.02	55.1606
1209.39	22.1582
1212.77	110.764
1216.14	93.9058
1219.52	103.936
1222.89	67.5874
1226.27	66.8809
1229.64	98.7207
1233.02	88.4653
1236.39	83.3452
1239.76	84.0498
1243.14	73.229
1246.51	77.2129
1249.89	52.3184
1253.26	53.3809
1256.64	64.9893
1260.01	57.7754
1263.39	91.8984
1266.76	67.5781
1270.14	37.6352
1273.51	40.9414
1276.89	61.6807
1280.26	88.2769
1283.64	84.4912
1287.01	81.5933
1290.39	67.4507
1293.76	30.1636
1297.14	66.7017
1300.51	43.4844
1303.89	51.7969
1307.26	19.2095
