Measurement: Raman, 785 nm, unoriented, Raman Data Processed
Mineral: Miguelromeroite
Rruff sample: R070064
Ideal chemistry: Mn^2+^_5_(As^5+^O_4_)_2_(As^5+^O_3_OH)_2_4H_2_O
Locality: Veta Negra mine, Pampa Larga Mining District, Tierra Amarilla, Chile
Source: Bob Jenkins
Description: Sprays of pink thin prismatic crystals associated with siderite and cuproadamite
Measured chemistry: (Mn^2+^_4.64_Ca_0.25_Zn_0.07_Mg_0.04_)_Σ=5_(As_1.00_O_3_OH)_2_(As_1.00_O_4_)_2_·3.98H_2_O; OH estimated by charge balance; H_2_O by difference
Raman shift (cm-1)	intensity
149.755	0
152.648	90.7571
155.54	91.4763
158.433	72.1431
161.326	23.4849
164.218	23.7986
167.111	26.4187
170.004	141.747
172.897	307.407
175.789	444.021
178.682	544.826
181.575	663.916
184.467	859.18
187.36	917.23
190.253	849.494
193.145	650.325
196.038	523.334
198.931	449.306
201.823	494.4
204.716	595.585
207.609	717.25
210.502	843.319
213.394	971.304
216.287	1217.48
219.18	1392.68
222.072	1382.81
224.965	1278.47
227.858	1289.17
230.75	1319.79
233.643	1338.24
236.536	1223.75
239.429	915.207
242.321	618.711
245.214	362.299
248.107	213.687
250.999	82.9373
253.892	93.2695
256.785	166.85
259.678	227.153
262.57	204.342
265.463	143.01
268.356	69.0212
271.248	22.4304
274.141	71.876
277.034	135.381
279.926	276.551
282.819	406.623
285.712	504.558
288.604	604.651
291.497	663.233
294.39	813.878
297.283	897.625
300.175	831.208
303.068	626.668
305.961	312.147
308.853	45.4729
311.746	162.764
314.639	162.774
317.531	155.058
320.424	51.9861
323.317	23.9836
326.21	293.043
329.102	662.123
331.995	972.862
334.888	892.322
337.78	944.313
340.673	1272.14
343.566	1238.85
346.459	941.885
349.351	1012.76
352.244	1314.91
355.137	1738.91
358.029	2440.67
360.922	3073
363.815	2979.86
366.707	2268.7
369.6	1911.58
372.493	2371.41
375.385	3096.29
378.278	4010.61
381.171	4255.84
384.064	3820.61
386.956	2829.6
389.849	2009.01
392.742	1697.04
395.634	1793.38
398.527	1875.97
401.42	1856.57
404.312	1835.34
407.205	1576.68
410.098	1094.05
412.99	611.625
415.883	422.221
418.776	573.283
421.669	892.911
424.561	1422.97
427.454	2104.89
430.347	2683.88
433.239	3187.34
436.132	3241.4
439.025	3032.59
441.918	2691.35
444.81	2551.41
447.703	2428.84
450.596	2198.1
453.488	1708.13
456.381	1210.92
459.274	765.612
462.166	505.111
465.059	527.303
467.952	649.155
470.844	1012.95
473.737	1316.09
476.63	1455.58
479.523	1313.49
482.415	946.259
485.308	437.93
488.201	129.569
491.093	53.2639
493.986	122.794
496.879	124.093
499.772	83.1313
502.664	38.9665
505.557	9.74902
508.45	22.3674
511.342	11.9829
514.235	5.50537
517.128	19.8064
520.02	60.1035
522.913	12.5068
525.806	50.4019
528.698	31.2295
531.591	69.1484
534.484	107.106
537.377	87.6221
540.269	119.923
543.162	130.232
546.055	146.925
548.947	192.162
551.84	196.025
554.733	229.972
557.625	216.25
560.518	240.441
563.411	229.857
566.304	311.358
569.196	334.279
572.089	323.348
574.982	325.715
577.874	311.639
580.767	308.209
583.66	318.407
586.553	337.577
589.445	340.586
592.338	361.774
595.231	337.177
598.123	366.445
601.016	361.779
603.909	355.55
606.801	371.517
609.694	376.622
612.587	399.684
615.48	414.006
618.372	465.179
621.265	464.085
624.158	487.377
627.05	509.216
629.943	537.771
632.836	588.22
635.728	575.861
638.621	603.257
641.514	622.042
644.407	656.677
647.299	660.923
650.192	720.147
653.085	731.721
655.977	801.627
658.87	836.455
661.763	889.13
664.655	901.94
667.548	959.942
670.441	968.627
673.333	954.142
676.226	950.958
679.119	908.505
682.012	797.548
684.904	708.974
687.797	660.169
690.69	554.258
693.582	526.88
696.475	439.298
699.368	382.201
702.26	281.199
705.153	198.146
708.046	159.132
710.939	43.9658
713.831	15.7832
716.724	77.0166
719.617	138.572
722.509	135.766
725.402	182.347
728.295	200.403
731.188	188.927
734.08	109.94
736.973	36.6621
739.866	32.4556
742.758	218.691
745.651	402.078
748.544	622.493
751.436	901.499
754.329	1104.97
757.222	1471.3
760.114	1656.71
763.007	1791.01
765.9	1895.78
768.793	1922.61
771.685	2103.2
774.578	2146.98
777.471	2557.16
780.363	3032.47
783.256	3612.39
786.149	4293.65
789.041	4920.64
791.934	5507.06
794.827	6153.39
797.72	6694.98
800.612	6871.51
803.505	6505.57
806.398	5434.17
809.29	4046.58
812.183	3002.14
815.076	2217.14
817.968	1890.52
820.861	2078.23
823.754	2556.41
826.646	3133.23
829.539	3644.21
832.432	4024.63
835.325	4067.82
838.217	3315.34
841.11	1961.03
844.003	1139.33
846.895	1108.57
849.788	1806.52
852.681	2990.92
855.573	4146.6
858.466	5373.11
861.359	6927.5
864.252	8873.16
867.144	10469.9
870.037	11329.6
872.93	10502.6
875.822	8926.07
878.715	7416.03
881.608	6916.62
884.5	7727.4
887.393	9737.79
890.286	12440.5
893.179	13852.5
896.071	12007.1
898.964	7904.82
901.857	4327.73
904.75	2207.39
907.642	1087.54
910.535	630.108
913.428	364.209
916.32	215.776
919.213	154.901
922.106	29.2974
924.998	30.563
927.891	78.7729
930.784	147.262
933.677	171.107
936.569	224.061
939.462	180.903
942.355	154.442
945.247	97.0859
948.14	10.1785
951.033	68.1427
953.925	132.904
956.818	233.275
959.711	315.576
962.603	421.295
965.496	531.494
968.389	632.626
971.282	710.928
974.174	798.237
977.067	803.605
979.96	915.095
982.852	953.65
985.745	940.101
988.638	1013.83
991.53	984.259
994.423	949.614
997.316	927.288
1000.21	849.117
1003.1	777.657
1005.99	708.036
1008.89	663.65
1011.78	611.239
1014.67	549.958
1017.57	554.016
1020.46	521.171
1023.35	476.74
1026.24	462.561
1029.13	449.71
1032.03	449.319
1034.92	402.496
1037.81	405.637
1040.71	373.503
1043.6	356.089
1046.49	353.789
1049.38	289.207
1052.28	249.368
1055.17	268.35
1058.06	221.271
1060.95	220.507
1063.85	208.208
1066.74	174.343
1069.63	170.442
1072.53	191.625
1075.42	150.822
1078.31	135.517
1081.2	138.243
1084.1	102.292
1086.99	92.5548
1089.88	92.9043
1092.78	64.8828
1095.67	62.6411
1098.56	70.9712
1101.45	74.5523
1104.35	54.1611
1107.24	27.2798
1110.13	22.6196
1113.02	43.7556
1115.92	10.9087
1118.81	35.1987
1121.7	6.23218
1124.6	17.3365
1127.49	1.4928
1130.38	2.21179
1133.27	12.5577
1136.16	15.499
1139.06	17.1186
1141.95	15.1406
1144.84	2.07129
1147.74	8.12598
1150.63	22.6279
1153.52	12.427
1156.41	21.7916
1159.31	10.4564
1162.2	2.31787
1165.09	5.21582
1167.98	10.4138
1170.88	16.5082
1173.77	0.65332
1176.66	23.3446
1179.56	25.3331
1182.45	8.5946
1185.34	9.82654
1188.23	0.536865
1191.13	19.9768
1194.02	35.5952
1196.91	4.81836
1199.81	9.93823
1202.7	25.8308
1205.59	7.33777
1208.48	1.1554
1211.38	1.89551
1214.27	21.839
1217.16	11.5919
1220.05	26.5232
1222.95	21.262
1225.84	5.11072
1228.73	13.7687
1231.62	27.769
1234.52	0
