Measurement: Raman, 532 nm, unoriented, Raman Data Processed
Mineral: Milarite
Rruff sample: R120135
Ideal chemistry: KCa_2_(Be_2_AlSi_12_O_30_)xH_2_O
Locality: Jaguara√ßu, Minas Gerais, Brazil
Source: Luiz Menezes
Description: Pale yellow hexagonal prisms, associated with minasgeraisite-(Y) R120134
Raman shift (cm-1)	intensity
193.017	0
195.909	68.3723
198.802	62.3179
201.695	16.376
204.588	3.46362
207.48	31.5303
210.373	62.9824
213.266	60.9839
216.158	45.7651
219.051	19.5776
221.944	0.726318
224.836	2.51416
227.729	21.4155
230.622	26.1487
233.514	17.4158
236.407	13.4426
239.3	17.4238
242.193	29.1299
245.085	25.7871
247.978	30.6592
250.871	41.8127
253.763	54.0156
256.656	72.2942
259.549	90.7905
262.442	117.002
265.334	153.096
268.227	201.039
271.12	219.895
274.012	259.602
276.905	279.678
279.798	327.407
282.69	431.456
285.583	545.45
288.476	577.929
291.368	395.94
294.261	196.647
297.154	95.2263
300.047	38.5486
302.939	24.2737
305.832	1.93506
308.725	1.79492
311.617	4.47241
314.51	2.25244
317.403	1.68286
320.296	3.03076
323.188	24.895
326.081	34.3408
328.974	32.646
331.866	17.5815
334.759	5.03345
337.652	16.845
340.544	19.1299
343.437	30.2095
346.33	32.446
349.223	30.2327
352.115	35.9951
355.008	22.4368
357.901	9.32153
360.793	10.919
363.686	7.16357
366.579	18.272
369.471	17.0356
372.364	43.0791
375.257	73.5874
378.149	115.625
381.042	140.841
383.935	122.001
386.828	69.6475
389.72	45.5845
392.613	35.4351
395.506	15.062
398.398	7.48877
401.291	0.740234
404.184	3.63623
407.077	11.96
409.969	4.62939
412.862	13.9375
415.755	11.7725
418.647	0.23291
421.54	5.5957
424.433	0.361328
427.325	19.7505
430.218	40.7495
433.111	63.105
436.003	76.8867
438.896	81.1387
441.789	83.812
444.682	87.6167
447.574	81.562
450.467	107.764
453.36	128.623
456.252	145.733
459.145	193.637
462.038	248.634
464.93	352.756
467.823	496.363
470.716	711.946
473.609	1003.27
476.501	1335.84
479.394	1478.59
482.287	1204.8
485.179	721.675
488.072	389.016
490.965	207.437
493.858	117.491
496.75	46.5752
499.643	29.9995
502.536	22.3296
505.428	12.6426
508.321	6.59863
511.214	1.69824
514.106	1.75586
516.999	0.293945
519.892	11.4888
522.784	41.2539
525.677	65.0439
528.57	83.7207
531.463	115.87
534.355	158.44
537.248	165.627
540.141	184.93
543.033	163.374
545.926	145.287
548.819	133.959
551.712	99.8828
554.604	88.6514
557.497	80.4082
560.39	57.1968
563.282	48.9121
566.175	24.6167
569.068	26.2217
571.96	23.0952
574.853	7.60107
577.746	1.26318
580.639	8.82812
583.531	4.43115
586.424	9.11865
589.317	10.8726
592.209	12.0991
595.102	19.6704
597.995	29.5933
600.888	24.4404
603.78	26.1606
606.673	17.4614
609.566	25.2944
612.458	11.5688
615.351	9.34619
618.244	15.2832
621.136	12.5986
624.029	19.7197
626.922	8.74219
629.814	6.74658
632.707	2.53467
635.6	21.2236
638.493	1.57617
641.385	4.9707
644.278	6.64014
647.171	12.6953
650.063	15.1953
652.956	20.7812
655.849	12.8965
658.741	20.0908
661.634	10.5102
664.527	6.36133
667.42	4.35547
670.312	13.5288
673.205	9.6499
676.098	5.59277
678.99	9.10156
681.883	20.1631
684.776	6.55225
687.668	19.1025
690.561	29.2446
693.454	21.7949
696.347	6.91699
699.239	10.8418
702.132	6.77148
705.025	16.1504
707.917	21.4404
710.81	7.39502
713.703	10.7905
716.596	10.0444
719.488	11.7764
722.381	20.2041
725.274	16.5689
728.166	11.5649
731.059	3.68603
733.952	7.02979
736.844	2.28857
739.737	14.7329
742.63	20.1113
745.523	25.4194
748.415	30.8911
751.308	14.1104
754.201	3.47315
757.093	2.27051
759.986	7.04394
762.879	27.4531
765.771	20.5967
768.664	18.8867
771.557	23.1162
774.449	32.1445
777.342	21.6895
780.235	19.4551
783.128	0.619629
786.02	2.7251
788.913	2.39697
791.806	11.0337
794.698	24.1431
797.591	17.8779
800.484	9.54443
803.376	6.41162
806.269	8.46338
809.162	8.98389
812.055	8.78174
814.947	15.9595
817.84	9.14502
820.733	29.1123
823.625	38.752
826.518	47.6934
829.411	51.9175
832.303	73.521
835.196	78.6885
838.089	48.7759
840.982	42.5679
843.874	19.7993
846.767	24.5986
849.66	12.1841
852.552	13.293
855.445	9.50391
858.338	16.9439
861.231	20.6519
864.123	16.186
867.016	1.99756
869.909	12.4839
872.801	2.67969
875.694	2.9668
878.587	4.53809
881.479	4.59131
884.372	1.354
887.265	7.30908
890.158	7.91797
893.05	0.474609
895.943	16.2764
898.836	15.5034
901.728	20.6406
904.621	3.15185
907.514	17.1948
910.406	15.2485
913.299	22.8804
916.192	11.3965
919.085	14.9277
921.977	13.4268
924.87	10.085
927.763	10.1211
930.655	8.78613
933.548	2.92334
936.441	13.2808
939.333	16.5068
942.226	10.6875
945.119	21.6909
948.011	19.2495
950.904	8.74463
953.797	0.204102
956.69	8.4082
959.582	6.28467
962.475	14.4517
965.368	18.5454
968.26	40.5078
971.153	21.7646
974.046	43.0449
976.938	29.8496
979.831	24.3032
982.724	19.8042
985.617	22.5415
988.509	18.8242
991.402	23.9824
994.295	33.4946
997.187	42.689
1000.08	43.2524
1002.97	48.0181
1005.87	57.2959
1008.76	53.8823
1011.65	46.5405
1014.54	49.5781
1017.44	40.7041
1020.33	32.5767
1023.22	28.0068
1026.11	23.9004
1029.01	35.2417
1031.9	30.4834
1034.79	33.23
1037.68	26.8501
1040.58	14.3862
1043.47	30.3926
1046.36	29.2012
1049.26	25.0225
1052.15	6.38086
1055.04	7.05176
1057.93	6.28857
1060.83	12.8066
1063.72	2.17725
1066.61	2.51611
1069.51	7.97656
1072.4	0.526855
1075.29	12.3418
1078.18	3.87842
1081.08	11.1328
1083.97	28.6206
1086.86	23.9575
1089.75	23.2251
1092.65	24.2148
1095.54	28.001
1098.43	36.7881
1101.33	53.3076
1104.22	46.4956
1107.11	73.2334
1110	105.655
1112.89	151.41
1115.79	211.238
1118.68	280.624
1121.57	341.381
1124.47	339.745
1127.36	287.107
1130.25	204.438
1133.14	144.799
1136.04	112.914
1138.93	82.1167
1141.82	59.4502
1144.71	48.3975
1147.61	47.6938
1150.5	37.8901
1153.39	41.0195
1156.29	17.7358
1159.18	14.0122
1162.07	13.9204
1164.96	18.0972
1167.86	14.8076
1170.75	21.7661
1173.64	26.8423
1176.54	30.6821
1179.43	22.3818
1182.32	16.3135
1185.21	17.6519
1188.11	1.0708
1191	4.66309
1193.89	6.09229
1196.78	8.26318
1199.68	18.8877
1202.57	5.97363
1205.46	15.831
1208.35	15.6172
1211.25	15.7231
1214.14	16.356
1217.03	2.97315
1219.92	1.20068
1222.82	1.84375
1225.71	11.1948
1228.6	9.25635
1231.5	21.019
1234.39	14.2983
1237.28	13.2896
1240.17	5.14746
1243.07	9.37158
1245.96	11.6597
1248.85	18.0381
1251.74	9.95996
1254.64	1.02978
1257.53	14.3955
1260.42	34.4736
1263.32	26.7422
1266.21	21.9023
1269.1	19.3359
1271.99	7.68799
1274.89	18.144
1277.78	8.98975
1280.67	18.2539
1283.57	21.3018
1286.46	7.78662
1289.35	5.52295
1292.24	7.02783
1295.13	6.62158
1298.03	11.5483
1300.92	7.02246
