Measurement: Raman, 785 nm, unoriented, Raman Data Processed
Mineral: Milarite
Rruff sample: R070464
Ideal chemistry: KCa_2_(Be_2_AlSi_12_O_30_)xH_2_O
Locality: Rössing Mine, Arandis, Swakopmund District, Namibia
Source: Michael Scott
Description: Fragments from a pale yellow green hexagonal prism
Measured chemistry: (K_1.11_Na_0.21_)_Σ=1.32_Ca_2.00_(Be_2.36_Al_0.64_)_Σ=3_Si_12.00_O_30_·H_2_O; H_2_O assumed ideal from stoichiometry; BeO estimated by difference
Raman shift (cm-1)	intensity
165.272	0
168.165	56.3447
171.058	114.208
173.95	70.0898
176.843	91.4814
179.736	66.6602
182.629	74.2842
185.521	15.6992
188.414	94.3301
191.307	108.728
194.199	226.319
197.092	148.413
199.985	81.7422
202.877	59.0449
205.77	41.3887
208.663	60.3213
211.555	64.1904
214.448	21.085
217.341	60.3779
220.234	57.0127
223.126	222.551
226.019	346.411
228.912	444.548
231.804	438.494
234.697	360.287
237.59	297.096
240.482	317.517
243.375	261.909
246.268	329.352
249.161	382.034
252.053	340.011
254.946	467.288
257.839	547.794
260.731	893.068
263.624	1216.38
266.517	1686.52
269.409	2211.28
272.302	2728.51
275.195	3216.47
278.088	3785.51
280.98	4572.78
283.873	5843.04
286.766	7475.56
289.658	7650.92
292.551	5417.43
295.444	2962.01
298.337	1456.68
301.229	740.895
304.122	339.58
307.015	286.228
309.907	234.04
312.8	145.99
315.693	267.328
318.585	355.566
321.478	547.545
324.371	792.908
327.264	819.769
330.156	625.284
333.049	352.374
335.942	224.258
338.834	115.392
341.727	70.6016
344.62	50.3721
347.512	29.0098
350.405	48.8955
353.298	50.0576
356.19	55.0654
359.083	46.9209
361.976	34.584
364.869	11.1035
367.761	138.691
370.654	289.995
373.547	431.182
376.439	744.268
379.332	1040.26
382.225	1306.28
385.118	1174.63
388.01	824.887
390.903	567.635
393.796	319.379
396.688	294.237
399.581	154.898
402.474	69.5508
405.366	77.2178
408.259	17.4766
411.152	18.6377
414.045	23.585
416.937	37.2656
419.83	12.4092
422.723	108.888
425.615	160.556
428.508	266.531
431.401	394.803
434.293	507.417
437.186	584.273
440.079	674.524
442.971	903.535
445.864	1086.79
448.757	1279.2
451.65	1652.78
454.542	1842.18
457.435	2255.61
460.328	2562.45
463.22	3196.26
466.113	4139.19
469.006	5607.5
471.899	7471.33
474.791	9889.23
477.684	12229.8
480.577	12498
483.469	9656.15
486.362	5885.97
489.255	3252.09
492.147	1742.39
495.04	898.412
497.933	480.666
500.825	257.298
503.718	81.2954
506.611	5.32715
509.504	34.48
512.396	33.5498
515.289	85.7339
518.182	312.398
521.074	630.584
523.967	1091.6
526.86	1752.12
529.753	2250.9
532.645	2713.03
535.538	2593.12
538.431	2160.5
541.323	1829.83
544.216	1524.94
547.109	1237.95
550.001	1078.63
552.894	1031.92
555.787	969.651
558.679	960.554
561.572	818.059
564.465	627.292
567.358	453.185
570.25	296.633
573.143	123.838
576.036	100.508
578.928	56.8188
581.821	33.7598
584.714	12.1055
587.606	36.9898
590.499	12.3262
593.392	22.5166
596.284	3.93799
599.177	80.8603
602.07	38.5176
604.963	34.2749
607.855	57.8623
610.748	10.519
613.641	12.2759
616.533	60.4228
619.426	49.4761
622.319	4.21191
625.212	94.3291
628.104	91.2412
630.997	150.112
633.89	163.292
636.782	192.46
639.675	243.5
642.568	287.926
645.46	320.923
648.353	368.788
651.246	388.197
654.139	347.224
657.031	272.813
659.924	188.892
662.817	194.642
665.709	150.893
668.602	152.231
671.495	75.1401
674.388	50.6016
677.28	73.8628
680.173	31.2842
683.066	33.8149
685.958	19.0591
688.851	66.2842
691.744	39.5112
694.636	46.5581
697.529	77.3809
700.422	70.3687
703.314	15.5508
706.207	21.2656
709.1	28.5244
711.993	11.8896
714.885	52.8247
717.778	7.49414
720.671	25.9849
723.563	19.8491
726.456	53.2158
729.349	1.77978
732.241	23.458
735.134	1.70752
738.027	9.625
740.92	44.6753
743.812	35.333
746.705	36.9316
749.598	45.1357
752.49	52.1382
755.383	73.2505
758.276	98.5811
761.168	80.2783
764.061	135.397
766.954	115.416
769.847	119.446
772.739	177.075
775.632	114.194
778.525	62.9023
781.417	69.8472
784.31	34.3325
787.203	90.0137
790.096	27.7744
792.988	17.1699
795.881	21.0054
798.774	44.8789
801.666	19.6138
804.559	16.7749
807.452	22.4517
810.344	47.8018
813.237	97.2502
816.13	33.5278
819.023	107.477
821.915	140.063
824.808	207.56
827.701	366.35
830.593	522.714
833.486	602.236
836.379	347.631
839.271	142.765
842.164	104.939
845.057	41.0884
847.949	47.0037
850.842	57.2241
853.735	26.8132
856.628	30.2617
859.52	40.1895
862.413	16.769
865.306	42.2041
868.198	27.6355
871.091	49.3608
873.984	25.5718
876.876	32.6985
879.769	10.0261
882.662	27.2217
885.555	23.9504
888.447	60.8774
891.34	38.7866
894.233	23.6128
897.125	24.3811
900.018	7.36499
902.911	68.228
905.803	46.6836
908.696	49.0593
911.589	14.6445
914.482	33.7578
917.374	2.21338
920.267	28.0586
923.16	11.0493
926.052	26.9817
928.945	19.9321
931.838	11.2334
934.731	1.61011
937.623	14.1492
940.516	54.6843
943.409	28.4956
946.301	37.0999
949.194	21.3132
952.087	7.88599
954.979	23.4521
957.872	40.4617
960.765	61.0447
963.658	61.1416
966.55	81.0811
969.443	32.1897
972.336	84.7356
975.228	98.0046
978.121	70.093
981.014	98.1245
983.906	119.333
986.799	105.802
989.692	179.44
992.585	182.177
995.477	196.718
998.37	240.643
1001.26	300.712
1004.15	274.597
1007.05	294.998
1009.94	263.879
1012.83	245.062
1015.73	238.236
1018.62	187.701
1021.51	109.197
1024.4	91.1145
1027.3	80.2805
1030.19	43.5005
1033.08	31.0252
1035.97	1.55322
1038.87	18.4844
1041.76	3.10474
1044.65	40.3918
1047.55	30.2471
1050.44	0.325684
1053.33	13.0571
1056.22	0.662354
1059.12	2.87231
1062.01	24.2532
1064.9	90.5806
1067.8	94.5989
1070.69	134.589
1073.58	164.655
1076.47	158.195
1079.37	201.611
1082.26	186.348
1085.15	175.736
1088.04	152.215
1090.94	166.765
1093.83	206.428
1096.72	197.396
1099.61	250.816
1102.51	375.569
1105.4	464.331
1108.29	666.042
1111.18	927.408
1114.08	1324.2
1116.97	1861.62
1119.86	2464.48
1122.76	3034.74
1125.65	3191.81
1128.54	2892.36
1131.43	2214.14
1134.33	1629.92
1137.22	1151.65
1140.11	884.793
1143.01	681.914
1145.9	568.425
1148.79	523.726
1151.68	444.969
1154.58	360.841
1157.47	345.904
1160.36	301
1163.25	237.142
1166.15	228.994
1169.04	201.45
1171.93	217.971
1174.83	160.799
1177.72	143.37
1180.61	121.677
1183.5	81.083
1186.39	62.5742
1189.29	74.187
1192.18	34.5095
1195.07	11.6636
1197.97	4.0603
1200.86	6.91919
1203.75	11.6165
1206.64	21.6484
1209.54	7.34863
1212.43	8.63965
1215.32	0.095947
1218.21	50.6372
1221.11	81.061
1224	51.9749
1226.89	98.3008
1229.79	110.185
1232.68	73.3389
1235.57	62.5674
1238.46	70.4502
1241.36	79.9849
1244.25	57.7327
1247.14	71.0801
1250.04	21.9229
1252.93	44.3147
