Measurement: Raman, 785 nm, unoriented, Raman Data Processed
Mineral: Milarite
Rruff sample: R070373
Ideal chemistry: KCa_2_(Be_2_AlSi_12_O_30_)xH_2_O
Locality: Guanajuato, Mexico
Source: Royal Ontario Museum
Description: Pale yellow-green hexagonal fragment associated with calcite
Measured chemistry: (K_1.00_Na_0.03_)_Σ=1.03_(Ca_1.98_Mn_0.02_)_Σ=2_(Be_2.00_Al_1.00_)_Σ=3_(Si_11.97_Al_0.03_)_Σ=12_O_30_·H_2_O; H_2_O assumed ideal from stoichiometry; BeO estimated by difference
Raman shift (cm-1)	intensity
154.768	0
157.66	63.6816
160.553	318.369
163.446	103.987
166.338	28.585
169.231	163.69
172.124	267.166
175.017	180.001
177.909	110.244
180.802	6.80859
183.695	52.3525
186.587	64.293
189.48	76.3516
192.373	91.8291
195.265	109.846
198.158	177.659
201.051	169.409
203.944	147.621
206.836	50.4717
209.729	92.4707
212.622	25.46
215.514	88.3945
218.407	113.022
221.3	202.767
224.192	251.952
227.085	286.637
229.978	259.612
232.87	184.862
235.763	78.376
238.656	97.9453
241.549	136.451
244.441	149.09
247.334	164.786
250.227	90.4453
253.119	188.888
256.012	246.66
258.905	450.44
261.798	635.761
264.69	969.844
267.583	1288.53
270.476	1597.76
273.368	1794.81
276.261	1967.32
279.154	2560.4
282.046	3735.75
284.939	5205.14
287.832	5621.14
290.724	3498.28
293.617	1684.69
296.51	654.54
299.403	246.517
302.295	165.967
305.188	124.821
308.081	58.9141
310.973	79.5576
313.866	173.605
316.759	259.332
319.651	456.375
322.544	669.537
325.437	614.068
328.33	376.657
331.222	322.178
334.115	152.633
337.008	118.95
339.9	26.1621
342.793	47.8594
345.686	11.6435
348.579	15.0508
351.471	34.3574
354.364	6.25195
357.257	24.3271
360.149	4.74414
363.042	2.39941
365.935	48.7353
368.827	32.1387
371.72	226.184
374.613	444.665
377.505	672.117
380.398	996.054
383.291	1062.3
386.184	695.974
389.076	304.176
391.969	284.085
394.862	168.312
397.754	143.215
400.647	121.316
403.54	75.8457
406.433	49.0244
409.325	26.0371
412.218	58.4043
415.111	2.78711
418.003	48.168
420.896	53.2109
423.789	60.583
426.681	104.806
429.574	182.675
432.467	270.223
435.36	279.046
438.252	322.428
441.145	549.952
444.038	648.269
446.93	783.818
449.823	1072.59
452.716	1359.61
455.608	1605.95
458.501	1952.07
461.394	2257.3
464.286	2763.24
467.179	3814.15
470.072	5401.98
472.965	7523.06
475.857	9830.82
478.75	9683.88
481.643	6812.98
484.535	3779.19
487.428	1928.65
490.321	1044.65
493.214	633.436
496.106	388.988
498.999	198.073
501.892	96.9199
504.784	29.6562
507.677	38.2861
510.57	49.584
513.462	127.217
516.355	251.589
519.248	408.868
522.14	538.424
525.033	944.028
527.926	1333.54
530.819	1872.16
533.711	2119.36
536.604	2115.78
539.497	2049.5
542.389	1792
545.282	1590.66
548.175	1317.85
551.067	1105.51
553.96	941.205
556.853	749.143
559.745	636.101
562.638	318.59
565.531	198.504
568.424	81.0469
571.316	98.8506
574.209	42.0166
577.102	49.1816
579.994	66.6103
582.887	11.7139
585.78	31.168
588.673	37.2734
591.565	0.357422
594.458	37.706
597.351	3.375
600.243	6.87305
603.136	34.6133
606.029	4.7334
608.921	38.7998
611.814	39.374
614.707	91.6201
617.6	28.6211
620.492	66.5264
623.385	20.9297
626.278	134.394
629.17	116.951
632.063	231.215
634.956	172.769
637.848	202.873
640.741	238.959
643.634	188.045
646.527	309.446
649.419	342.228
652.312	413.357
655.205	387.671
658.097	240.847
660.99	142.32
663.883	88.8857
666.775	110.721
669.668	42.4033
672.561	57.2002
675.454	77.1035
678.346	115.828
681.239	111.892
684.132	27.7412
687.024	72.6914
689.917	29.1172
692.81	19.3193
695.702	141.685
698.595	77.4541
701.488	117.706
704.381	103.165
707.273	46.581
710.166	101.388
713.059	55.0117
715.951	4.11719
718.844	136.761
721.737	113.689
724.63	139.051
727.522	1.30859
730.415	125.356
733.308	11.666
736.2	43.2725
739.093	61.0908
741.986	28.1885
744.878	82.1816
747.771	79.2373
750.664	106.762
753.557	29.4971
756.449	80.6231
759.342	48.6162
762.235	34.5625
765.127	31.4756
768.02	146.178
770.913	139.762
773.805	101.676
776.698	135.731
779.591	37.2246
782.484	2.16504
785.376	62.0518
788.269	57.3379
791.162	151.808
794.054	102.072
796.947	20.6318
799.84	7.41211
802.732	27.5684
805.625	20.8857
808.518	65.6582
811.41	0.90918
814.303	9.17871
817.196	56.1406
820.089	80.708
822.981	58.0449
825.874	171.507
828.767	267.575
831.659	530.928
834.552	418.151
837.445	250.845
840.337	134.984
843.23	116.022
846.123	75.9248
849.016	125.428
851.908	51.502
854.801	5.58106
857.694	57.666
860.586	21.6104
863.479	51.4893
866.372	0.866211
869.264	8.91309
872.157	63.9141
875.05	25.3057
877.943	86.8389
880.835	53.8369
883.728	59.4238
886.621	22.8125
889.513	35.1533
892.406	74.1045
895.299	44.4795
898.192	46.1934
901.084	72.9141
903.977	26.2139
906.87	56.1289
909.762	89.6719
912.655	50.0742
915.548	62.9551
918.44	47.002
921.333	50.0342
924.226	51.6855
927.119	52.4844
930.011	6.65234
932.904	59.2373
935.797	34.3603
938.689	16.4746
941.582	30.2432
944.475	49.207
947.367	92.3467
950.26	47.082
953.153	99.9717
956.045	3.54199
958.938	148.704
961.831	107.088
964.724	117.069
967.616	54.2022
970.509	170.291
973.402	149.301
976.294	119.486
979.187	187.045
982.08	129.222
984.972	128.833
987.865	126.189
990.758	102.115
993.651	128.61
996.543	146.346
999.436	195.642
1002.33	205.586
1005.22	244.761
1008.11	182.914
1011.01	161.414
1013.9	244.625
1016.79	118.143
1019.68	47.7617
1022.58	55.1191
1025.47	95.9111
1028.36	33.6221
1031.26	39.1084
1034.15	85.71
1037.04	12.4688
1039.93	45.877
1042.83	3.65625
1045.72	2.9834
1048.61	17.8066
1051.51	53.3701
1054.4	14.7793
1057.29	5.78125
1060.18	8.29297
1063.08	57.2022
1065.97	25.373
1068.86	54.0381
1071.75	22.9453
1074.65	113.627
1077.54	86.3144
1080.43	105.826
1083.32	98.0508
1086.22	112.496
1089.11	117.762
1092	82.665
1094.89	197.953
1097.79	273.712
1100.68	382.765
1103.57	451.304
1106.47	590.979
1109.36	909.005
1112.25	1105.99
1115.14	1606.74
1118.04	2091.09
1120.93	2366.51
1123.82	2273.37
1126.71	1795.56
1129.61	1226.86
1132.5	847.512
1135.39	634.872
1138.29	457.462
1141.18	402.509
1144.07	336.7
1146.96	306.093
1149.86	257.518
1152.75	155.068
1155.64	123.116
1158.53	191.15
1161.43	102.756
1164.32	161.882
1167.21	168.377
1170.11	119.838
1173	181.56
1175.89	173.465
1178.78	98.46
1181.68	91.0293
1184.57	3.45801
1187.46	71.8769
1190.35	67.7461
1193.25	6.03223
1196.14	91.5137
1199.03	8.14062
1201.92	35.7295
1204.82	24.6963
1207.71	47.2715
1210.6	35.3877
1213.5	50.6699
1216.39	91.8457
1219.28	123.919
1222.17	122.038
1225.07	11.1826
1227.96	51.0312
1230.85	56.7705
1233.74	67.1279
1236.64	41.3174
