Measurement: Raman, 780 nm, unoriented, Raman Data Processed
Mineral: Milarite
Rruff sample: R120135
Ideal chemistry: KCa_2_(Be_2_AlSi_12_O_30_)xH_2_O
Locality: Jaguara√ßu, Minas Gerais, Brazil
Source: Luiz Menezes
Description: Pale yellow hexagonal prisms, associated with minasgeraisite-(Y) R120134
Raman shift (cm-1)	intensity
112.895	0
116.27	8.01044
119.644	51.1599
123.019	128.441
126.394	206.766
129.769	207.765
133.144	126.025
136.518	67.8721
139.893	41.2377
143.268	47.2921
146.643	39.3783
150.018	21.5455
153.393	14.9551
156.767	22.4598
160.142	22.8546
163.517	10.5503
166.892	2.16066
170.267	5.24028
173.642	3.83252
177.016	0.470673
180.391	1.97349
183.766	2.71626
187.141	3.45044
190.516	5.11581
193.89	7.22975
197.265	16.8011
200.64	17.0296
204.015	29.0545
207.39	41.7122
210.764	36.1867
214.139	20.1914
217.514	16.7889
220.889	13.5771
224.264	15.6375
227.638	11.8272
231.013	10.7285
234.388	9.49106
237.763	11.3505
241.138	12.8505
244.513	16.6984
247.887	18.9544
251.262	19.7803
254.637	21.4625
258.012	29.343
261.387	38.9033
264.762	52.8539
268.136	70.4797
271.511	74.0703
274.886	72.4046
278.261	70.943
281.635	78.2865
285.01	93.6022
288.385	97.1721
291.76	59.3876
295.135	28.8142
298.51	13.5603
301.884	5.99922
305.259	3.2829
308.634	0.088882
312.009	1.29674
315.384	0.464294
318.759	0.801056
322.133	2.86171
325.508	5.47877
328.883	6.95371
332.258	8.33252
335.633	11.8851
339.007	21.2243
342.382	35.601
345.757	52.9085
349.132	69.151
352.507	79.8461
355.882	90.279
359.256	97.8513
362.631	106.505
366.006	103.797
369.381	94.9029
372.755	77.7602
376.13	65.5564
379.505	63.9211
382.88	53.1047
386.255	30.9317
389.63	12.1963
393.004	4.1185
396.379	0.683075
399.754	2.46948
403.129	1.17416
406.504	0.401932
409.878	0.101364
413.253	0.273834
416.628	0.990662
420.003	0.682434
423.378	0.180344
426.753	5.54511
430.127	16.2317
433.502	34.0894
436.877	50.1595
440.252	52.3685
443.627	53.7303
447.001	57.4231
450.376	62.8122
453.751	69.5812
457.126	80.4175
460.501	99.7142
463.875	137.637
467.25	218.018
470.625	361.656
474	592.387
477.375	841.623
480.75	820.146
484.124	503.307
487.499	243.625
490.874	121.754
494.249	63.2856
497.624	35.0821
500.998	18.7379
504.373	10.3208
507.748	7.22662
511.123	5.82446
514.498	10.6108
517.873	15.19
521.247	23.1655
524.622	34.3342
527.997	50.0108
531.372	65.3471
534.747	78.8238
538.121	84.4557
541.496	82.9797
544.871	76.2213
548.246	64.06
551.621	50.0311
554.995	38.803
558.37	30.4169
561.745	24.6519
565.12	19.0661
568.495	12.4211
571.87	7.18585
575.244	2.01434
578.619	0.942368
581.994	3.06943
585.369	2.42802
588.744	1.57427
592.119	0.12413
595.493	2.56364
598.868	5.10265
602.243	6.94556
605.618	6.45252
608.993	2.858
612.367	3.25935
615.742	0.192841
619.117	1.38625
622.492	2.01297
625.867	2.78639
629.241	4.20388
632.616	4.36144
635.991	7.12848
639.366	5.97649
642.741	4.57718
646.115	3.98386
649.49	5.04462
652.865	5.08814
656.24	3.05915
659.615	2.00843
662.99	2.27669
666.364	3.63826
669.739	3.85897
673.114	2.7548
676.489	1.65589
679.864	2.86859
683.239	4.52216
686.613	4.44504
689.988	5.99987
693.363	6.50706
696.738	6.52222
700.112	6.39831
703.487	5.84192
706.862	6.08316
710.237	4.24389
713.612	1.88426
716.987	1.52969
720.361	1.45158
723.736	1.23666
727.111	0.28994
730.486	2.17133
733.861	0.726517
737.236	0.668465
740.61	0.278999
743.985	0.564552
747.36	0.766479
750.735	1.19869
754.11	0.956161
757.484	1.40369
760.859	2.69743
764.234	4.01104
767.609	3.72053
770.984	2.6463
774.359	2.48116
777.733	2.00991
781.108	1.65163
784.483	0.102211
787.858	1.10723
791.232	1.53896
794.607	0.556664
797.982	0.048157
801.357	0.065613
804.732	0.00499
808.107	0.621422
811.481	1.27506
814.856	2.00856
818.231	3.01158
821.606	4.10053
824.981	5.27626
828.356	10.581
831.73	19.3194
835.105	18.4617
838.48	8.92713
841.855	4.30047
845.23	3.29943
848.604	3.47681
851.979	2.88858
855.354	3.15273
858.729	4.55732
862.104	4.59409
865.479	4.03554
868.853	2.39437
872.228	3.60087
875.603	3.20004
878.978	2.25147
882.352	1.72712
885.727	3.08786
889.102	1.75166
892.477	1.70457
895.852	1.65543
899.227	1.5745
902.601	1.48029
905.976	0.073753
909.351	1.43958
912.726	0.589211
916.101	1.50985
919.476	1.46281
922.85	0.779182
926.225	0.321663
929.6	0.032433
932.975	0.208199
936.35	0.901886
939.724	1.428
943.099	2.17908
946.474	3.07557
949.849	4.43113
953.224	4.99987
956.598	3.07959
959.973	5.54651
963.348	5.05534
966.723	5.91727
970.098	6.14929
973.472	6.87255
976.847	7.99014
980.222	7.22854
983.597	7.19163
986.972	7.50234
990.347	7.6252
993.721	6.72623
997.096	8.88461
1000.47	10.9597
1003.85	12.5582
1007.22	14.3789
1010.6	13.1247
1013.97	11.208
1017.35	9.50937
1020.72	8.62364
1024.1	6.91868
1027.47	7.16556
1030.84	7.13585
1034.22	6.17237
1037.59	6.62285
1040.97	6.52849
1044.34	6.96711
1047.72	6.02357
1051.09	4.73175
1054.47	2.54726
1057.84	1.29219
1061.22	0.794594
1064.59	0.654617
1067.97	1.02104
1071.34	0.415451
1074.72	1.06229
1078.09	0.161926
1081.47	0.243202
1084.84	0.941406
1088.22	2.31944
1091.59	2.9569
1094.97	3.65987
1098.34	5.06012
1101.71	9.52731
1105.09	13.5242
1108.46	21.6148
1111.84	34.0148
1115.21	51.4842
1118.59	77.0558
1121.96	98.1359
1125.34	95.5226
1128.71	75.5772
1132.09	59.8255
1135.46	56.4507
1138.84	65.3653
1142.21	81.6226
1145.59	103.416
1148.96	123.999
1152.34	140.711
1155.71	149.383
1159.09	142.532
1162.46	134.702
1165.84	112.071
1169.21	87.959
1172.59	66.1603
1175.96	44.5573
1179.34	29.3574
1182.71	16.8601
1186.09	9.46395
1189.46	3.48035
1192.84	0.71286
1196.21	2.98418
1199.59	1.79807
1202.96	0.945816
1206.34	4.65343
1209.71	10.0913
1213.08	21.0336
1216.46	34.329
1219.83	51.1574
1223.21	68.6955
1226.58	89.1462
1229.96	99.5869
1233.33	110.555
1236.71	112.227
1240.08	104.299
1243.46	92.9947
1246.83	78.9778
1250.21	63.8318
1253.58	48.0128
1256.96	33.2969
1260.33	20.8963
1263.71	15.9259
1267.08	5.9005
1270.46	1.59051
1273.83	1.11343
1277.21	1.16438
1280.58	1.31601
1283.95	0
