Measurement: Raman, 532 nm, unoriented, Raman Data Processed
Mineral: Millerite
Rruff sample: R060898
Ideal chemistry: NiS
Locality: Orford, Quebec, Canada
Source: Royal Ontario Museum
Description: Pale brass-yellow prismatic crystal with pronounced striations, associated with calcite and green grossular
Measured chemistry: (Ni_0.97_Co_0.02_Fe_0.01_)_Î£=1_S_1.00_ ; trace amounts of As
Raman shift (cm-1)	intensity
179.859	0
182.752	69.9209
185.644	37.7363
188.537	84.7422
191.43	71.3906
194.323	72.4209
197.215	3.08203
200.108	42.6807
203.001	89.6045
205.893	181.739
208.786	203.431
211.679	158.667
214.571	227.657
217.464	263.274
220.357	239.738
223.25	114.181
226.142	100.578
229.035	294.827
231.928	265.857
234.82	279.774
237.713	363.861
240.606	522.567
243.498	950.015
246.391	1360.76
249.284	2368.85
252.177	1696.58
255.069	514.032
257.962	245.366
260.855	155.717
263.747	211.923
266.64	167.332
269.533	102.052
272.425	72.96
275.318	106.639
278.211	234.058
281.103	210.135
283.996	299.329
286.889	186.297
289.782	269.198
292.674	421.115
295.567	446.315
298.46	534.646
301.352	672.5
304.245	850.167
307.138	709.16
310.031	524.912
312.923	263.291
315.816	134.465
318.709	85.9385
321.601	28.2432
324.494	16.627
327.387	18.4326
330.279	3.62598
333.172	149.607
336.065	115.17
338.957	151.082
341.85	293.922
344.743	511.551
347.635	704.3
350.528	918.008
353.421	1075.67
356.314	878.53
359.206	614.082
362.099	410.978
364.992	600.616
367.884	745.677
370.777	1064.34
373.67	1132.72
376.562	1174.1
379.455	888.828
382.348	569.477
385.241	469.133
388.133	585.718
391.026	662.83
393.919	322.619
396.811	225.025
399.704	78.1992
402.597	119.961
405.49	112.272
408.382	75.2471
411.275	29.6309
414.168	55.1777
417.06	71.9443
419.953	96.8203
422.846	143.568
425.738	54.1201
428.631	25.2227
431.524	117.463
434.416	14.291
437.309	22.938
440.202	98.5506
443.094	176.889
445.987	176.084
448.88	80.043
451.773	72.4766
454.665	183.422
457.558	113.647
460.451	183.769
463.343	152.342
466.236	232.217
469.129	258.652
472.022	320.59
474.914	305.848
477.807	316.83
480.7	283.272
483.592	359.106
486.485	402.457
489.378	219.908
492.27	139.652
495.163	79.6055
498.056	79.3438
500.949	110.246
503.841	22.5879
506.734	443.031
509.627	404.541
512.519	390.652
515.412	69.2246
518.305	99.8379
521.197	117.6
524.09	31.8164
526.983	97.6035
529.875	22.373
532.768	3.37109
535.661	58.0332
538.554	27.5273
541.446	27.2812
544.339	116.057
547.232	102.434
550.124	14.8848
553.017	127.387
555.91	174.725
558.802	276.625
561.695	566.891
564.588	827.656
567.481	972.17
570.373	1166.38
573.266	741.424
576.159	390.824
579.051	183.93
581.944	168.494
584.837	130.34
587.729	49.2715
590.622	50.4355
593.515	38.0605
596.408	36.8555
599.3	53.1738
602.193	12.9082
605.086	4.97852
607.978	78.5293
610.871	21.6836
613.764	153.754
616.656	270.812
619.549	216.416
622.442	358.435
625.335	336.932
628.227	260.728
631.12	217.269
634.013	227.664
636.905	239.76
639.798	266.019
642.691	207.498
645.583	344.752
648.476	324.865
651.369	518.602
654.261	580.186
657.154	679.625
660.047	1011.85
662.94	984.773
665.832	1350.37
668.725	1529.25
671.618	1407.29
674.51	918.6
677.403	664.057
680.296	497.676
683.188	368.44
686.081	207.935
688.974	241.287
691.866	234.369
694.759	225.471
697.652	264.248
700.545	45.1445
703.437	89.9297
706.33	61.082
709.223	9.91406
712.115	77.8652
715.008	56.2031
717.901	54
720.793	44.4512
723.686	114.301
726.579	69.3281
729.472	160.365
732.364	95.4668
735.257	179.322
738.15	28.043
741.042	1.56641
743.935	179.066
746.828	189.615
749.721	27.2207
752.613	68.2246
755.506	57.9297
758.399	131.498
761.291	17.1035
764.184	45.7715
767.077	36.2246
769.969	115.912
772.862	157.945
775.755	51.2188
778.648	114.555
781.54	182.055
784.433	92.7935
787.326	275.514
790.218	159.637
793.111	278.84
796.004	298.584
798.896	310.455
801.789	386.361
804.682	169.85
807.574	228.539
810.467	154.973
813.36	149.106
816.253	225.545
819.145	141.533
822.038	99.2539
824.931	188.453
827.823	153.799
830.716	86.168
833.609	63.4863
836.501	74.6816
839.394	114.168
842.287	14.0703
845.179	23.1582
848.072	82.7129
850.965	72.1582
853.857	5.53516
856.75	23.8535
859.643	46.793
862.536	45.6855
865.428	8.25
868.321	4.29883
871.214	6.56641
874.106	71.1152
876.999	45.9375
879.892	115.996
882.784	34.0586
885.677	110.338
888.57	112.072
891.463	121.277
894.355	233.496
897.248	282.369
900.141	164.373
903.033	154.691
905.926	135.153
908.819	216.355
911.712	161.5
914.604	13.4805
917.497	112.176
920.39	166.522
923.282	266.478
926.175	217.654
929.068	223.615
931.96	189.871
934.853	101.631
937.746	51.5112
940.639	97.5581
943.531	91.4141
946.424	19.9629
949.317	116.894
952.209	24.332
955.102	63.4492
957.995	128.254
960.887	86.3789
963.78	114.934
966.673	73.2344
969.566	69.9981
972.458	131.871
975.351	391.697
978.244	629.822
981.136	840.828
984.029	1130.54
986.922	744.916
989.814	618.082
992.707	381.887
995.6	245.012
998.492	259.008
1001.38	217.869
1004.28	283.627
1007.17	328.701
1010.06	268.807
1012.96	102.936
1015.85	28.8574
1018.74	24.6094
1021.63	7.26562
1024.53	144.385
1027.42	99.5059
1030.31	231.812
1033.2	117.418
1036.1	34.1133
1038.99	146.299
1041.88	190.574
1044.78	168.557
1047.67	69.8027
1050.56	126.154
1053.45	155.846
1056.35	187.315
1059.24	183.562
1062.13	126.08
1065.03	40.0352
1067.92	182.014
1070.81	103.643
1073.7	58.5293
1076.6	88.4902
1079.49	2.24609
1082.38	133.084
1085.27	359.578
1088.17	544.965
1091.06	264.039
1093.95	209.44
1096.84	267.977
1099.74	258.232
1102.63	445.647
1105.52	460.066
1108.41	205.352
1111.31	126.68
1114.2	30.0312
1117.09	91.6133
1119.99	10.4844
1122.88	66.8281
1125.77	14.2871
1128.66	204.164
1131.56	246.734
1134.45	185.256
1137.34	220.244
1140.23	200.428
1143.13	247.205
1146.02	89.457
1148.91	104.219
1151.81	195.096
1154.7	194.066
1157.59	203.269
1160.48	155.82
1163.38	142.162
1166.27	80.7188
1169.16	90.5527
1172.05	106.818
1174.95	169.051
1177.84	182.65
1180.73	161.44
1183.62	229.297
1186.52	69.7754
1189.41	133.25
1192.3	64.5625
1195.2	71.6719
1198.09	169.305
1200.98	5.92773
1203.87	93.3731
1206.77	13.123
1209.66	121.383
1212.55	85.7129
1215.44	101.047
1218.34	77.7324
1221.23	29.1621
1224.12	113.182
1227.02	88.4844
1229.91	233.723
1232.8	180.254
1235.69	254.756
1238.59	201.529
1241.48	121.934
1244.37	230.631
1247.26	237.883
1250.16	135.184
1253.05	271.215
1255.94	132.166
1258.84	277.252
1261.73	88.5957
1264.62	24.373
