Measurement: Raman, 514 nm, unoriented, Raman Data Processed
Mineral: Mimetite
Rruff sample: R040123
Ideal chemistry: Pb^2+^_5_(As^5+^O_4_)_3_Cl
Locality: San Pedro Corralitos, Chihuahua, Mexico
Source: University of Arizona Mineral Museum
Description: Yellow botryoidal group
Measured chemistry: Pb_5.00_((As_0.96_P_0.04_)O_4_)_3_Cl_1.00_
Raman shift (cm-1)	intensity
94.768	0
98.947	2236.97
103.124	2121.97
107.3	1248.93
111.473	969.513
115.644	663.903
119.813	411.49
123.981	40.1016
128.146	72.3955
132.309	58.3779
136.47	128.227
140.63	431.988
144.787	592.144
148.942	922.976
153.096	1103.08
157.247	1213.53
161.396	1476.77
165.544	1897.82
169.689	2309.41
173.833	2719.64
177.974	2989.44
182.114	2812.28
186.251	2545.59
190.387	2086.01
194.52	1744.83
198.652	1353.77
202.782	1106.28
206.909	894.13
211.035	619.457
215.159	493.251
219.281	379.271
223.4	184.27
227.518	111.169
231.634	44.864
235.748	5.05737
239.86	9.51367
243.97	39.9808
248.079	54.6051
252.185	74.6326
256.289	94.2562
260.391	62.0377
264.492	71.0269
268.59	180.695
272.687	261.738
276.781	385.947
280.874	473.947
284.964	669.107
289.053	858.957
293.14	1164.98
297.225	1742.53
301.308	2743.63
305.389	4005.84
309.468	5460.19
313.545	6386.52
317.62	5751.44
321.693	4580.23
325.765	4142.46
329.834	4257.23
333.902	4747.57
337.967	5009.03
342.031	4856.39
346.093	4189.3
350.153	3320.65
354.21	2644.79
358.267	2239.98
362.321	2172.51
366.373	2542.06
370.423	2980.04
374.471	2650.01
378.518	2103.82
382.563	1795.94
386.605	1677.8
390.646	1677.43
394.685	1704.54
398.722	1806.57
402.757	2016.27
406.79	2247.07
410.821	2263.52
414.851	2056.73
418.878	2061.04
422.904	2062.55
426.927	1935.43
430.949	1643.72
434.969	1357.41
438.987	1158.02
443.003	1009.16
447.018	860.535
451.03	710.225
455.041	586.277
459.049	453.187
463.056	367.834
467.061	278.046
471.064	268.76
475.065	230.312
479.064	208.471
483.062	203.077
487.057	187.988
491.051	164.595
495.043	135.602
499.032	170.499
503.02	128.043
507.007	121.613
510.991	123.404
514.973	92.384
518.954	86.2033
522.933	101.536
526.91	58.8387
530.885	73.7508
534.858	80.8024
538.829	66.6763
542.799	50.4271
546.766	28.0998
550.732	46.7441
554.696	40.4065
558.658	34.1364
562.618	19.9553
566.576	9.90918
570.533	6.07233
574.488	13.4898
578.44	18.1861
582.391	19.204
586.341	11.3816
590.288	4.64282
594.233	34.9689
598.177	39.3551
602.119	20.7952
606.059	42.2826
609.997	37.806
613.933	36.3351
617.868	59.6503
621.801	37.04
625.731	26.3958
629.66	20.6013
633.588	7.56018
637.513	19.9518
641.437	13.3643
645.358	10.7795
649.278	22.3316
653.196	34.1491
657.113	6.63843
661.027	24.1469
664.94	36.1268
668.851	12.9586
672.76	24.9327
676.667	1.82465
680.572	22.5956
684.476	14.5895
688.378	23.0384
692.278	43.6152
696.176	66.3089
700.072	86.0989
703.967	106.023
707.86	148.19
711.751	207.736
715.64	241.434
719.527	284.18
723.413	361.058
727.297	392.093
731.179	513.436
735.059	598.826
738.937	699.085
742.814	866.056
746.689	1009.36
750.562	1296.77
754.433	1854.66
758.303	2734.84
762.17	4130.34
766.036	5209.13
769.901	5143.09
773.763	5057.19
777.624	5485.46
781.482	6677.88
785.339	8057.45
789.195	8319.08
793.048	8682.41
796.9	11017.2
800.75	17463.2
804.598	34701.6
808.445	52901.2
812.289	57595.8
816.132	49749.4
819.973	29228.6
823.813	16245.8
827.65	10065.2
831.486	7118.87
835.32	5423.1
839.152	4361.17
842.983	3659.45
846.812	3124.53
850.639	2639.78
854.464	2233.18
858.288	1897.73
862.11	1552.42
865.93	1338.25
869.748	1143.22
873.564	1035.37
877.379	924.655
881.192	840.754
885.004	757.809
888.813	692.817
892.621	592.376
896.427	558.052
900.232	473.797
904.034	378.457
907.835	337.198
911.634	317.993
915.432	407.935
919.227	504.933
923.021	384.123
926.813	215.593
930.604	127.689
934.393	106.936
938.18	91.5349
941.965	86.1211
945.749	63.8881
949.53	86.8417
953.311	97.593
957.089	63.6119
960.866	78.5274
964.641	81.882
968.414	59.5194
972.185	1.55389
975.955	3.08417
979.723	29.7994
983.49	52.1258
987.254	60.0183
991.017	74.9628
994.779	36.9715
998.538	32.9206
1002.3	17.8346
1006.05	36.9448
1009.81	38.1638
1013.56	34.0736
1017.31	20.9841
1021.06	13.8937
1024.81	16.795
1028.55	24.6857
1032.3	6.55695
1036.04	9.62219
1039.78	8.72046
1043.52	2.20544
1047.26	8.42548
1050.99	17.0026
1054.73	16.4753
1058.46	7.06451
1062.19	9.24982
1065.92	13.5309
1069.65	11.4329
1073.37	20.5102
1077.1	12.2383
1080.82	10.8889
1084.54	5.42896
1088.26	7.15387
1091.97	9.12567
1095.69	0.679749
1099.4	0.604004
1103.12	10.3518
1106.83	2.22736
1110.54	37.0087
1114.24	39.6991
1117.95	52.305
1121.65	140.811
1125.35	131.264
1129.06	41.6418
1132.75	44.9335
1136.45	48.139
1140.15	50.2625
1143.84	50.3444
1147.53	45.3385
1151.22	47.3257
1154.91	72.3669
1158.6	86.3661
1162.28	77.3078
1165.97	82.1713
1169.65	109.133
1173.33	93.8682
1177.01	77.8837
1180.69	120.817
1184.36	105.802
1188.04	94.7375
1191.71	119.17
1195.38	95.9059
1199.05	93.076
1202.71	93.9958
1206.38	112.797
1210.04	116.466
1213.71	104.283
1217.37	112.315
1221.03	98.8532
1224.68	104.783
1228.34	118.428
1231.99	112.279
1235.65	120.461
1239.3	97.1076
1242.95	102.751
1246.59	101.607
1250.24	97.2837
1253.88	83.9528
1257.53	98.8591
1261.17	104.484
1264.81	79.1017
1268.45	63.1716
1272.08	49.53
1275.72	66.7143
1279.35	59.4296
1282.98	60.5461
1286.61	65.5491
1290.24	32.4309
1293.87	30.3441
1297.49	50.1246
1301.11	23.0111
1304.73	43.4708
1308.36	8.30975
1311.97	22.0176
1315.59	5.60681
1319.2	12.2725
1322.82	0.246582
1326.43	14.1674
1330.04	10.009
1333.65	13.3441
1337.26	12.6968
1340.86	18.9897
1344.47	24.2633
1348.07	7.50324
1351.67	18.7134
1355.27	32.8817
1358.87	18.1393
1362.46	6.36475
1366.06	34.5319
1369.65	15.6394
1373.24	11.7013
1376.83	7.7879
1380.42	10.8228
1384	12.2439
1387.59	37.3781
1391.17	28.1879
1394.75	8.0152
1398.33	5.75629
1401.91	20.4889
1405.49	37.201
1409.06	28.7887
1412.64	30.3037
1416.21	24.2199
1419.78	23.8256
1423.35	11.9382
1426.91	26.5638
1430.48	49.3163
1434.05	5.10577
1437.61	47.8868
1441.17	21.9145
1444.73	42.5219
1448.29	12.9203
1451.84	12.0977
1455.4	27.5027
1458.95	7.44092
1462.5	22.1335
1466.05	23.4813
1469.6	38.2235
1473.15	32.665
1476.69	23.9217
1480.24	43.0118
1483.78	24.4268
1487.32	5.47327
1490.86	39.1949
1494.39	12.8271
1497.93	38.9061
1501.46	38.4569
1505	3.7052
1508.53	68.4813
1512.06	72.155
1515.59	52.1158
1519.11	16.3937
1522.64	22.4443
