Measurement: Raman, 785 nm, unoriented, Raman Data Processed
Mineral: Mimetite
Rruff sample: R040123
Ideal chemistry: Pb^2+^_5_(As^5+^O_4_)_3_Cl
Locality: San Pedro Corralitos, Chihuahua, Mexico
Source: University of Arizona Mineral Museum
Description: Yellow botryoidal group
Measured chemistry: Pb_5.00_((As_0.96_P_0.04_)O_4_)_3_Cl_1.00_
Raman shift (cm-1)	intensity
65.0939	0
67.9866	11.1044
70.8793	53.9085
73.772	107.897
76.6647	164.388
79.5574	221.127
82.4501	292.333
85.3428	347.801
88.2355	388.45
91.1282	453.115
94.0209	577.659
96.9136	672.215
99.8063	634.679
102.699	552.741
105.592	457.729
108.484	358.329
111.377	264.753
114.27	190.936
117.162	97.7642
120.055	27.843
122.948	30.8327
125.841	16.6061
128.733	72.3718
131.626	176.369
134.519	257.047
137.411	238.141
140.304	281.391
143.197	416.108
146.089	689.63
148.982	929.035
151.875	1114.81
154.768	1051.98
157.66	985.719
160.553	978.799
163.446	1034.54
166.338	1109.29
169.231	1231.34
172.124	1228.44
175.017	1176.21
177.909	1081.15
180.802	957.389
183.695	802.164
186.587	650.063
189.48	544.983
192.373	471.798
195.265	392.805
198.158	281.729
201.051	214.733
203.944	163.875
206.836	59.8696
209.729	12.4565
212.622	52.8872
215.514	63.7334
218.407	70.8008
221.3	10.0537
224.192	2.53125
227.085	4.50342
229.978	0.293945
232.87	5.38135
235.763	49.1148
238.656	34.2622
241.549	55.7119
244.441	77.915
247.334	88.0566
250.227	49.0425
253.119	90.5615
256.012	165.787
258.905	233.35
261.798	255.415
264.69	343.3
267.583	315.181
270.476	414.898
273.368	451.739
276.261	542.536
279.154	557.112
282.046	730.553
284.939	872.759
287.832	1079.94
290.724	1230.11
293.617	1378.7
296.51	1596.91
299.403	1778.63
302.295	2100.24
305.188	2396.66
308.081	2715.88
310.973	2876.26
313.866	3085.22
316.759	3038.92
319.651	2886.27
322.544	2657.06
325.437	2461.18
328.33	2432.93
331.222	2342.05
334.115	2330.19
337.008	2343.03
339.9	2208.43
342.793	2043.91
345.686	1885.15
348.579	1673.04
351.471	1474.56
354.364	1269.08
357.257	1177.67
360.149	1067.45
363.042	1091.54
365.935	1149.05
368.827	1330.95
371.72	1264.56
374.613	958.996
377.505	598.417
380.398	295.481
383.291	98.2695
386.184	42.6694
389.076	9.75049
391.969	3.47852
394.862	1.2793
397.754	20.7876
400.647	16.7812
403.54	6.70752
406.433	31.4424
409.325	92.2451
412.218	110.985
415.111	211.162
418.003	225.22
420.896	244.865
423.789	346.006
426.681	289.289
429.574	208.269
432.467	119.272
435.36	57.0464
438.252	45.3662
441.145	19.4453
444.038	41.9062
446.93	21.4849
449.823	53.1929
452.716	20.1636
455.608	5.57812
458.501	11.1836
461.394	41.1148
464.286	5.01465
467.179	37.5727
470.072	73.228
472.965	187.306
475.857	132.692
478.75	186.25
481.643	235.548
484.535	258.511
487.428	289.811
490.321	323.481
493.214	385.87
496.106	417.729
498.999	451.718
501.892	450.752
504.784	504.889
507.677	458.857
510.57	510.102
513.462	471.222
516.355	464.581
519.248	428.704
522.14	382.709
525.033	378.734
527.926	364.098
530.819	392.182
533.711	390.91
536.604	370.067
539.497	410.483
542.389	410.529
545.282	372.972
548.175	376.967
551.067	323.322
553.96	346.313
556.853	335.248
559.745	347.832
562.638	341.665
565.531	368.299
568.424	364.725
571.316	320.677
574.209	313.887
577.102	318.971
579.994	330.726
582.887	293.543
585.78	305.304
588.673	328.506
591.565	287.541
594.458	262.722
597.351	312.148
600.243	300.919
603.136	283.53
606.029	278.163
608.921	235.67
611.814	199.992
614.707	198.624
617.6	181.292
620.492	145
623.385	107.345
626.278	90.8984
629.17	93.6821
632.063	49.4548
634.956	86.6619
637.848	1.97436
640.741	34.2317
643.634	15.2324
646.527	22.8721
649.419	11.0632
652.312	31.6941
655.205	46.5804
658.097	7.56128
660.99	26.7184
663.883	29.8563
666.775	27.3223
669.668	38.0453
672.561	15.3003
675.454	21.0161
678.346	5.8197
681.239	4.72241
684.132	24.2557
687.024	10.0927
689.917	10.5299
692.81	17.2554
695.702	1.64465
698.595	25.5021
701.488	8.82056
704.381	3.56018
707.273	5.05725
710.166	4.9126
713.059	11.4885
715.951	17.865
718.844	3.27344
721.737	0.455811
724.63	2.02869
727.522	6.93665
730.415	37.7712
733.308	6.80737
736.2	44.8923
739.093	61.3636
741.986	66.6127
744.878	146.651
747.771	229.579
750.664	345.192
753.557	584.231
756.449	905.391
759.342	1332.42
762.235	1799.18
765.127	2032.85
768.02	2152.42
770.913	1855.47
773.805	1690.03
776.698	1676.11
779.591	1760.61
782.484	1996.78
785.376	2172.27
788.269	2296.86
791.162	2530.58
794.054	2989.15
796.947	4022.65
799.84	5614.6
802.732	7953.31
805.625	10967.8
808.518	13490.1
811.41	14042
814.303	12642.5
817.196	9560.59
820.089	6206.41
822.981	3808.93
825.874	2393.57
828.767	1576.72
831.659	1128.02
834.552	816.766
837.445	647.875
840.337	466.378
843.23	379.189
846.123	296.189
849.016	249.605
851.908	216.071
854.801	153.076
857.694	108.197
860.586	82.536
863.479	33.2795
866.372	11.7789
869.264	12.5676
872.157	20.4691
875.05	20.3256
877.943	14.0762
880.835	1.45361
883.728	0.196533
886.621	14.47
889.513	28.5527
892.406	17.6591
895.299	1.53272
898.192	16.3668
901.084	12.167
903.977	25.4002
906.87	44.0961
909.762	93.0117
912.655	123.848
915.548	154.623
918.44	220.201
921.333	185.735
924.226	111.922
927.119	88.9523
930.011	82.0532
932.904	73.1567
935.797	66.3554
938.689	59.6774
941.582	56.2432
944.475	69.5094
947.367	56.5422
950.26	67.8885
953.153	82.2705
956.045	68.7017
958.938	106.768
961.831	109.943
964.724	108.001
967.616	124.516
970.509	125.127
973.402	135.807
976.294	133.907
979.187	182.736
982.08	176.526
984.972	151.965
987.865	149.195
990.758	139.224
993.651	136.138
996.543	147.919
999.436	136.483
1002.33	154.09
1005.22	148.196
1008.11	124.598
1011.01	117.876
1013.9	120.401
1016.79	137.617
1019.68	126.772
1022.58	128.471
1025.47	122.148
1028.36	75.8933
1031.26	110.684
1034.15	84.7117
1037.04	82.6885
1039.93	25.3401
1042.83	46.6372
1045.72	40.346
1048.61	36.4702
1051.51	89.1252
1054.4	66.2971
1057.29	67.4443
1060.18	69.5625
1063.08	82.8403
1065.97	136.169
1068.86	121.431
1071.75	127.887
1074.65	117.327
1077.54	155.959
1080.43	132.474
1083.32	171.642
1086.22	157.338
1089.11	91.457
1092	114.492
1094.89	137.944
1097.79	89.9346
1100.68	70.4541
1103.57	46.3047
1106.47	76.9834
1109.36	30.001
1112.25	99.4131
1115.14	60.1172
1118.04	142.203
1120.93	108.986
1123.82	143.589
1126.71	199.918
1129.61	168.425
1132.5	186.109
1135.39	231.665
1138.29	175.641
1141.18	167.648
1144.07	220.072
1146.96	192.285
1149.86	245.123
1152.75	199.34
1155.64	212.852
1158.53	42.9219
1161.43	49.1406
1164.32	0
