Measurement: Raman, 514 nm, unoriented, Raman Data Processed
Mineral: Mimetite
Rruff sample: R050007
Ideal chemistry: Pb^2+^_5_(As^5+^O_4_)_3_Cl
Locality: Pingtouling, Guangdong, China
Source: Eugene Schlepp
Description: Reddish orange colored hexagonal prisms
Measured chemistry: Pb_5.00_((As_0.99_P_0.01_)O_4_)_3_Cl_1.00_
Raman shift (cm-1)	intensity
54.266	0
58.464	53.069
62.661	18.787
66.856	29.028
71.048	357.794
75.239	1093.42
79.427	2628.91
83.614	4542.99
87.798	5881.36
91.981	6295.94
96.161	7601.87
100.34	8956.71
104.516	7009.59
108.691	5233.22
112.864	3951.49
117.034	3234.68
121.203	2636.21
125.369	2297.02
129.534	2102.07
133.696	1946.31
137.857	2070.69
142.016	2046.25
146.172	2153.89
150.327	2056.98
154.48	2013.67
158.63	1872.54
162.779	1844.51
166.926	1824.96
171.07	1888.27
175.213	1828.34
179.354	1676.87
183.493	1633.04
187.63	1574.84
191.765	1528.32
195.898	1385.46
200.029	1166.25
204.158	1050.69
208.285	936.82
212.41	794.656
216.533	682.691
220.654	549.381
224.773	451.965
228.891	363.937
233.006	320.179
237.119	265.215
241.231	213.548
245.34	177.96
249.448	104.292
253.553	60.407
257.657	24.216
261.758	16.356
265.858	42.384
269.956	23.99
274.052	65.238
278.146	31.203
282.237	44.935
286.327	95.476
290.416	1.865
294.502	63.943
298.586	278.948
302.668	551.141
306.749	711.669
310.827	694.294
314.903	618.174
318.978	601.138
323.051	652.845
327.121	675.599
331.19	863.329
335.257	1025.49
339.322	1168.31
343.385	1145.83
347.446	835.619
351.505	615.564
355.563	446.775
359.618	487.886
363.672	764.001
367.723	1340.64
371.773	1797.78
375.821	1586.62
379.866	1092.64
383.91	801.395
387.952	656.984
391.992	643.203
396.031	512.248
400.067	485.377
404.101	483.664
408.134	574.44
412.165	752.652
416.193	1088.9
420.22	1490.51
424.245	1579.33
428.268	1213.36
432.289	739.827
436.309	487.194
440.326	363.513
444.342	251.4
448.355	152.385
452.367	99.825
456.377	62.299
460.385	57.026
464.391	44.593
468.395	27.994
472.398	35.554
476.398	34.264
480.397	21.117
484.394	22.741
488.389	2.14
492.382	3.289
496.373	12.164
500.362	23.778
504.349	11.13
508.335	23.803
512.319	12.077
516.3	8.674
520.28	1.613
524.259	19.911
528.235	11.633
532.209	16.746
536.182	8.251
540.152	20.129
544.121	7.374
548.088	15.971
552.053	1.783
556.017	8.202
559.978	18.819
563.938	12.766
567.895	2.037
571.851	22.605
575.805	16.48
579.758	31.657
583.708	40.154
587.657	6.077
591.603	8.16
595.548	62.124
599.491	31.985
603.432	45.755
607.372	74.459
611.309	95.09
615.245	63.597
619.179	61.972
623.111	39.215
627.041	74.117
630.97	50.083
634.896	18.792
638.821	38.128
642.744	29.112
646.665	56.057
650.584	38.913
654.502	50.553
658.418	57.42
662.331	67.7
666.244	102.091
670.154	92.209
674.062	118.556
677.969	142.247
681.874	153.35
685.777	186.6
689.678	160.521
693.577	200.575
697.475	236.164
701.371	276.858
705.265	333.937
709.157	344.257
713.047	416.593
716.936	485.677
720.823	568.729
724.708	627.658
728.591	731.251
732.472	826.533
736.352	977.181
740.23	1176.78
744.106	1422.8
747.98	1681.08
751.853	2106.7
755.723	2971.5
759.592	4546.49
763.459	6716.67
767.325	7584.07
771.188	6860.69
775.05	6233.5
778.91	6366.53
782.768	7610.81
786.625	9360.3
790.479	10512
794.332	11977
798.183	16010.2
802.033	28733.7
805.88	52255.4
809.726	46430.4
813.57	36590.6
817.413	25435.2
821.253	15657
825.092	11530
828.929	9757.4
832.764	8565.19
836.598	7376.98
840.429	6128.25
844.259	5189.82
848.088	4534.7
851.914	3941.87
855.739	3388.5
859.562	2600.26
863.383	2002.68
867.203	1621.41
871.02	1398.18
874.836	1217.45
878.65	1128.61
882.463	1025.24
886.274	950.304
890.083	863.8
893.89	799.045
897.695	657.763
901.499	569.203
905.301	559.787
909.102	514.481
912.9	492.133
916.697	451.487
920.492	434.354
924.285	386.938
928.077	263.382
931.867	222.981
935.655	193.927
939.442	201.613
943.226	157.055
947.009	135.93
950.791	113.8
954.57	103.442
958.348	96.036
962.124	91.565
965.899	67.242
969.671	56.638
973.442	40.545
977.211	34.816
980.979	38.351
984.745	29.219
988.509	11.883
992.271	11.567
996.032	15.123
999.791	10.874
1003.55	9.643
1007.3	9.114
1011.06	3.818
1014.81	7.4
1018.56	2.299
1022.31	0.007
1026.06	14.299
1029.8	10.602
1033.55	21.95
1037.29	32.333
1041.03	1.785
1044.77	2.736
1048.5	9.778
1052.24	10.367
1055.97	22.035
1059.7	13.834
1063.43	0.768
1067.16	21.834
1070.89	29.08
1074.61	8.491
1078.34	16.044
1082.06	15.782
1085.78	0.714
1089.5	2.806
1093.21	10.916
1096.93	11.474
1100.64	0.889
1104.35	22.167
1108.06	32.284
1111.77	32.232
1115.48	25.016
1119.18	35.651
1122.89	65.157
1126.59	63.549
1130.29	51.826
1133.99	50.976
1137.68	75.999
1141.38	81.902
1145.07	83.682
1148.76	102.341
1152.45	84.859
1156.14	97.335
1159.83	111.877
1163.51	124.882
1167.19	132.277
1170.88	131.552
1174.56	150.901
1178.23	137.081
1181.91	145.458
1185.59	174.569
1189.26	146.102
1192.93	165.537
1196.6	168.24
1200.27	150.666
1203.94	165.424
1207.6	172.095
1211.27	168.741
1214.93	187.018
1218.59	185.807
1222.25	186.419
1225.9	195.712
1229.56	186.84
1233.21	173.831
1236.86	179.932
1240.51	164.588
1244.16	204.091
1247.81	148.977
1251.45	173.489
1255.1	156.789
1258.74	159.037
1262.38	140.799
1266.02	144.657
1269.66	137.895
1273.29	127.441
1276.93	105.463
1280.56	123.14
1284.19	119.38
1287.82	109.374
1291.45	103.241
1295.07	77.797
1298.7	81.147
1302.32	84.194
1305.94	62.2
1309.56	52.096
1313.18	32.054
1316.8	62.978
1320.41	44.46
1324.02	52.508
1327.63	58.642
1331.24	26.478
1334.85	48.147
1338.46	27.733
1342.06	45.994
1345.67	22.076
1349.27	42.254
1352.87	13.048
1356.47	29.92
1360.07	35.512
1363.66	31.967
1367.25	6.221
1370.85	35.438
1374.44	24.373
1378.03	19.37
1381.61	18.756
1385.2	28.748
1388.78	2.08
1392.37	14.221
1395.95	32.512
1399.53	36.751
1403.1	26.863
1406.68	19.861
1410.26	35.729
1413.83	9.342
1417.4	27.454
1420.97	31.564
1424.54	17.655
1428.1	9.237
1431.67	21.987
1435.23	29.379
1438.8	34.994
1442.36	52.395
1445.91	29.439
1449.47	31.045
1453.03	18.189
1456.58	17.989
1460.13	41.305
1463.68	48.885
1467.23	8.556
1470.78	29.719
1474.33	14.624
1477.87	5.663
1481.42	23.679
1484.96	39.617
1488.5	12.665
1492.04	33.623
1495.57	28.193
1499.11	31.595
1502.64	17.623
1506.17	21.882
1509.71	0.078
1513.23	6.794
1516.76	2.602
1520.29	16.36
1523.81	22.847
1527.34	0
