Measurement: Raman, 532 nm, unoriented, Raman Data Processed
Mineral: Mimetite-M
Rruff sample: R070138
Ideal chemistry: Pb_5_(AsO_4_)_3_Cl
Locality: Eureka Hill Mine, Tintic District, East Tintic Mts, Juab County, Utah, USA
Source: Michael Scott
Description: Colorless thin hexagonal prisms associated with quartz and anglesite
Measured chemistry: Pb_5.00_(As_1.00_O_4_)_3_Cl_1.00_
Raman shift (cm-1)	intensity
114.023	0
117.398	3.22424
120.772	13.5487
124.147	299.103
127.522	777.218
130.897	1281.99
134.272	1849.87
137.647	2383.38
141.021	2622.65
144.396	2871.87
147.771	3319.9
151.146	3815.1
154.521	4195.5
157.895	4497.58
161.27	4766.23
164.645	5104.56
168.02	5396.09
171.395	5348.1
174.769	4965.84
178.144	4472.6
181.519	3933.49
184.894	3432.79
188.269	2892.55
191.644	2426.11
195.018	2047.29
198.393	1708.8
201.768	1434.46
205.143	1287.45
208.518	1130.14
211.893	969.964
215.267	841.871
218.642	754.873
222.017	643.147
225.392	529.267
228.767	393.183
232.141	324.416
235.516	226.419
238.891	180.099
242.266	144.356
245.641	76.9698
249.015	54.9878
252.39	23.0107
255.765	25.5629
259.14	41.1322
262.515	66.2343
265.889	73.418
269.264	61.1294
272.639	61.7634
276.014	59.8005
279.389	7.52148
282.764	110.612
286.138	295.101
289.513	619.814
292.888	1192.07
296.263	2078.05
299.638	3147.86
303.012	4137.27
306.387	4752.44
309.762	5209.72
313.137	5231.75
316.512	4613.93
319.887	3919.04
323.261	3944.65
326.636	4517.12
330.011	5317.84
333.386	5927.63
336.761	5904.2
340.135	5189.42
343.51	4046.52
346.885	2881.32
350.26	1818.28
353.635	1087.19
357.01	643.879
360.384	506.224
363.759	551.682
367.134	761.578
370.509	956.707
373.884	799.687
377.258	496.274
380.633	374.309
384.008	467.902
387.383	662.722
390.758	782.465
394.132	939.521
397.507	1257.8
400.882	1953.15
404.257	2725.66
407.632	3157
411.007	2856.55
414.381	2087.42
417.756	1731.15
421.131	1593.35
424.506	1420.19
427.881	1033.33
431.255	678.481
434.63	502.953
438.005	390.956
441.38	229.409
444.755	124.753
448.13	7.69849
451.504	29.9434
454.879	50.5359
458.254	68.8873
461.629	75.066
465.003	39.0504
468.378	18.898
471.753	7.63214
475.128	9.60706
478.503	12.7286
481.878	60.2502
485.252	38.4305
488.627	66.7943
492.002	82.0063
495.377	103.442
498.752	117.791
502.127	136.716
505.501	140.371
508.876	164.879
512.251	155.47
515.626	138.045
519	118.599
522.375	99.8979
525.75	79.8018
529.125	60.7745
532.5	68.358
535.875	58.6243
539.249	47.6775
542.624	43.3433
545.999	45.2784
549.374	57.3292
552.749	50.4885
556.124	70.126
559.498	68.7941
562.873	70.0797
566.248	62.4587
569.623	51.4609
572.998	69.0548
576.372	76.7012
579.747	77.6468
583.122	85.6146
586.497	95.0478
589.872	133.268
593.246	131.426
596.621	146.459
599.996	180.408
603.371	198.305
606.746	219.872
610.12	214.282
613.495	229.197
616.87	213.337
620.245	185.275
623.62	185.129
626.995	167.394
630.369	170.285
633.744	180.243
637.119	165.502
640.494	168.41
643.869	181.822
647.244	192.678
650.618	189.115
653.993	207.262
657.368	220.467
660.743	218.767
664.117	219.568
667.492	234.985
670.867	213.217
674.242	214.914
677.617	201.947
680.992	184.334
684.366	130.869
687.741	118.805
691.116	83.4732
694.491	59.6707
697.866	43.1453
701.24	29.7399
704.615	7.00842
707.99	13.5284
711.365	66.0879
714.74	48.0939
718.115	51.0614
721.489	60.4928
724.864	77.0104
728.239	80.481
731.614	39.7922
734.989	23.3649
738.363	78.249
741.738	256.034
745.113	539.06
748.488	1053.95
751.863	1896.16
755.237	3207.21
758.612	4915.35
761.987	6493.87
765.362	6976.41
768.737	5735.59
772.112	4585.91
775.486	4420.94
778.861	5045.23
782.236	6180.56
785.611	7251.01
788.986	8262.42
792.361	10803
795.735	17719.4
799.11	29710.1
802.485	47482.2
805.86	64678.7
809.235	65837.2
812.609	63800.9
815.984	52605.1
819.359	31839.7
822.734	17787.6
826.109	10781.3
829.483	7133.98
832.858	5045.06
836.233	3714.14
839.608	2776.33
842.983	2136.05
846.357	1592.76
849.732	1176
853.107	815.947
856.482	578.415
859.857	369.885
863.231	212.404
866.606	108.787
869.981	49.1055
873.356	12.248
876.731	46.5601
880.106	52.7637
883.48	34.0461
886.855	6.79407
890.23	6.85217
893.605	40.2094
896.98	56.2213
900.355	32.3467
903.729	24.8278
907.104	15.311
910.479	11.7782
913.854	30.9303
917.229	47.5227
920.603	87.5778
923.978	105.351
927.353	148.81
930.728	151.844
934.103	199.45
937.477	219.532
940.852	234.846
944.227	270.681
947.602	308.289
950.977	360.447
954.351	386.738
957.726	449.495
961.101	513.552
964.476	581.475
967.851	509.772
971.226	408.317
974.6	333.364
977.975	299.372
981.35	287.873
984.725	241.194
988.1	210.983
991.475	216.297
994.849	202.615
998.224	190.048
1001.6	178.246
1004.97	174.76
1008.35	159.294
1011.72	142.466
1015.1	139.435
1018.47	120.821
1021.85	140.15
1025.22	103.887
1028.6	86.2255
1031.97	89.3234
1035.35	94.037
1038.72	81.6463
1042.1	62.2715
1045.47	62.5266
1048.85	44.9589
1052.22	39.001
1055.6	39.833
1058.97	26.9511
1062.35	11.4349
1065.72	25.3751
1069.1	12.0911
1072.47	5.48651
1075.85	13.3558
1079.22	11.4862
1082.59	8.74609
1085.97	1.92181
1089.34	12.0409
1092.72	17.0288
1096.09	3.10699
1099.47	3.38208
1102.84	9.41711
1106.22	11.8846
1109.59	4.24841
1112.97	11.3549
1116.34	1.38812
1119.72	34.8593
1123.09	28.2652
1126.47	9.30292
1129.84	8.11798
1133.22	21.079
1136.59	9.09448
1139.97	5.93469
1143.34	10.3096
1146.72	9.41986
1150.09	36.5117
1153.47	18.6535
1156.84	26.5608
1160.21	13.5683
1163.59	23.9776
1166.96	0.694702
1170.34	2.78967
1173.71	6.74402
1177.09	12.2886
1180.46	18.3044
1183.84	19.9456
1187.21	1.15478
1190.59	20.8154
1193.96	12.3755
1197.34	26.2152
1200.71	28.9615
1204.09	21.25
1207.46	43.093
1210.84	27.8867
1214.21	42.8044
1217.59	33.9495
1220.96	30.2488
1224.34	52.1284
1227.71	52.709
1231.09	52.4426
1234.46	21.1008
1237.84	27.6937
1241.21	39.7642
1244.59	69.0282
1247.96	31.6559
1251.34	29.7347
1254.71	30.6881
1258.09	47.5442
1261.46	30.3127
1264.83	46.7316
1268.21	33.3842
1271.58	28.131
1274.96	26.5342
1278.33	32.0076
1281.71	20.0034
1285.08	14.7244
1288.46	25.1925
1291.83	15.5765
1295.21	3.02502
1298.58	19.6987
1301.96	17.2356
1305.33	9.30926
1308.71	8.26593
1312.08	9.15503
