Measurement: Raman, 785 nm, unoriented, Raman Data Processed
Mineral: Mimetite-M
Rruff sample: R070138
Ideal chemistry: Pb_5_(AsO_4_)_3_Cl
Locality: Eureka Hill Mine, Tintic District, East Tintic Mts, Juab County, Utah, USA
Source: Michael Scott
Description: Colorless thin hexagonal prisms associated with quartz and anglesite
Measured chemistry: Pb_5.00_(As_1.00_O_4_)_3_Cl_1.00_
Raman shift (cm-1)	intensity
62.0094	0
65.3842	6.43034
68.759	18.6225
72.1338	32.9016
75.5087	71.8725
78.8835	86.6719
82.2583	102.749
85.6331	159.336
89.0079	190.13
92.3827	142.443
95.7575	96.5176
99.1324	45.667
102.507	4.81542
105.882	19.1899
109.257	42.004
112.632	40.5988
116.007	15.8964
119.381	36.9817
122.756	150.861
126.131	391.703
129.506	691.568
132.881	1180.65
136.255	1397.16
139.63	1592.53
143.005	2153.97
146.38	3089.7
149.755	4255.88
153.129	5148.92
156.504	5488.96
159.879	5755.64
163.254	6324.3
166.629	7119.71
170.004	7553.92
173.378	7181.12
176.753	6408.55
180.128	5624.44
183.503	4836.21
186.878	4039.9
190.252	3346.35
193.627	2783.36
197.002	2410.13
200.377	2034
203.752	1757.09
207.126	1582.24
210.501	1350.7
213.876	1179.69
217.251	1034.41
220.626	912.202
224.001	745.326
227.375	599.494
230.75	500.777
234.125	402.509
237.5	284.045
240.875	236.687
244.25	123.591
247.624	85.6242
250.999	40.7739
254.374	8.01526
257.749	18.6206
261.123	52.4486
264.498	46.6313
267.873	57.0326
271.248	47.6372
274.623	34.4598
277.998	7.23877
281.372	107.905
284.747	324.106
288.122	649.754
291.497	1169.81
294.872	1921.31
298.247	3056.42
301.621	4455.18
304.996	5279.94
308.371	5569.19
311.746	6053.95
315.121	5907.9
318.495	5074.4
321.87	4859.19
325.245	5326.82
328.62	6367.49
331.995	7556.06
335.37	8079.87
338.744	7555.37
342.119	6258.83
345.494	4697.53
348.869	3211.08
352.244	2028.74
355.618	1161.94
358.993	670.098
362.368	307.889
365.743	61.6489
369.118	30.957
372.493	102.975
375.867	197.785
379.242	346.584
382.617	632.449
385.992	1084.65
389.366	1500.54
392.741	1577.75
396.116	1742.68
399.491	2402.14
402.866	3365.97
406.241	4486.75
409.615	4751.72
412.99	3493.24
416.365	2091.54
419.74	1377.14
423.115	1211.62
426.49	1083.37
429.864	883.345
433.239	719.766
436.614	646.492
439.989	517.486
443.364	315.827
446.738	198.597
450.113	78.1108
453.488	1.42236
456.863	13.457
460.238	50.2542
463.613	51.9261
466.987	38.4784
470.362	12.8588
473.737	19.3993
477.112	13.8494
480.487	16.309
483.861	28.609
487.236	40.1414
490.611	42.907
493.986	82.1906
497.361	88.7755
500.735	116.067
504.11	124.057
507.485	121.763
510.86	157.756
514.235	156.903
517.61	151.064
520.984	137.2
524.359	124.451
527.734	123.203
531.109	106.989
534.484	86.1833
537.859	92.4686
541.233	71.5802
544.608	76.4691
547.983	66.3713
551.358	59.4372
554.732	57.2284
558.107	65.1597
561.482	61.7013
564.857	58.2207
568.232	49.9938
571.607	59.6942
574.981	37.482
578.356	68.1753
581.731	57.8878
585.106	68.4082
588.481	67.6026
591.856	174.358
595.23	92.3218
598.605	103.474
601.98	99.8099
605.355	126.715
608.73	112.219
612.104	130.005
615.479	108.382
618.854	106.401
622.229	96.0391
625.604	103.752
628.979	106.81
632.353	99.0172
635.728	86.3422
639.103	105.866
642.478	103.329
645.852	85.0666
649.227	91.004
652.602	104.977
655.977	126.046
659.352	112.816
662.727	124.857
666.101	136.159
669.476	134.894
672.851	147.538
676.226	139.521
679.601	128.034
682.976	103.445
686.35	76.2999
689.725	70.5667
693.1	48.3304
696.475	43.1952
699.85	27.6447
703.224	31.7934
706.599	13.5338
709.974	5.30017
713.349	10.6225
716.724	41.8691
720.098	27.2347
723.473	42.6025
726.848	40.248
730.223	44.9777
733.598	40.7286
736.973	2.54437
740.347	70.5149
743.722	186.87
747.097	422.88
750.472	848.581
753.847	1444.85
757.221	2330.65
760.596	3423.54
763.971	4122.44
767.346	3569.24
770.721	2406.99
774.096	1744.61
777.47	1697.22
780.845	2060.19
784.22	2429.57
787.595	2838.7
790.97	3631.02
794.344	5907.91
797.719	10783.8
801.094	20089.7
804.469	34290.2
807.844	44885.2
811.218	51568.8
814.593	52989.5
817.968	38434.4
821.343	21865
824.718	12499.3
828.093	7954.03
831.467	5358.36
834.842	3895.65
838.217	2918.48
841.592	2196.57
844.967	1702.37
848.341	1312.29
851.716	942.036
855.091	684.409
858.466	492.151
861.841	323.611
865.216	196.489
868.59	110.858
871.965	59.2944
875.34	14.548
878.715	10.2734
882.09	15.2212
885.465	29.3599
888.839	22.931
892.214	25.391
895.589	50.0943
898.964	35.4992
902.339	28.6205
905.713	13.1022
909.088	13.5089
912.463	2.95554
915.838	17.4045
919.213	44.5672
922.587	59.1666
925.962	97.5288
929.337	103.783
932.712	121.422
936.087	158.547
939.462	154.46
942.836	190.281
946.211	194.508
949.586	233.531
952.961	245.67
956.336	251.783
959.71	282.211
963.085	345.945
966.46	352.816
969.835	287.207
973.21	239.915
976.585	203.352
979.959	185.162
983.334	167.479
986.709	160.998
990.084	159.645
993.459	141.537
996.833	115.283
1000.21	122.362
1003.58	104.932
1006.96	101.49
1010.33	88.5916
1013.71	83.4719
1017.08	70.9988
1020.46	73.9642
1023.83	73.8401
1027.21	66.2727
1030.58	57.8198
1033.96	58.5336
1037.33	58.9156
1040.71	47.9696
1044.08	45.2248
1047.46	38.8694
1050.83	42.4769
1054.2	27.6002
1057.58	21.7863
1060.95	13.7716
1064.33	5.38721
1067.7	0.972137
1071.08	7.9111
1074.45	3.45154
1077.83	1.46332
1081.2	0.311279
1084.58	5.68722
1087.95	0.361099
1091.33	13.0673
1094.7	7.96878
1098.08	2.20607
1101.45	7.98021
1104.83	17.2619
1108.2	1.72307
1111.58	6.67026
1114.95	14.1372
1118.33	7.48018
1121.7	3.48315
1125.08	17.1337
1128.45	4.33641
1131.83	9.02701
1135.2	1.11282
1138.58	3.75383
1141.95	2.9924
1145.33	4.63397
1148.7	22.5326
1152.08	8.74336
1155.45	9.31609
1158.83	13.4795
1162.2	4.39256
1165.57	7.8326
1168.95	12.4683
1172.32	6.42943
1175.7	1.99487
1179.07	6.6329
1182.45	3.3721
1185.82	1.85582
1189.2	9.79895
1192.57	10.046
1195.95	0.658218
1199.32	13.9614
1202.7	25.7654
1206.07	13.7947
1209.45	10.6772
1212.82	16.7773
1216.2	15.4912
1219.57	9.80916
1222.95	14.5013
1226.32	8.6875
1229.7	2.04333
1233.07	6.04669
