Measurement: Raman, 532 nm, unoriented, Raman Data Processed
Mineral: Mimetite
Rruff sample: R130731
Ideal chemistry: Pb^2+^_5_(As^5+^O_4_)_3_Cl
Locality: Tsumeb mine, Tsumeb, Otavi District, Oshikoto, Namibia
Source: Bob Downs
Description: Pale yellow transparent hexagonal prisms, monoclinic polytype
Raman shift (cm-1)	intensity
121.041	0
124.416	351.766
127.79	566.547
131.165	218.895
134.54	160.938
137.915	705.727
141.29	1392.76
144.665	1901.21
148.039	2053.45
151.414	1951.21
154.789	2052.22
158.164	2301.83
161.539	2807.2
164.913	3305.09
168.288	3738.94
171.663	3897.28
175.038	3698.91
178.413	3355.34
181.788	3099.19
185.162	2731.28
188.537	2432.72
191.912	2108.42
195.287	1758.47
198.662	1403.86
202.036	1101.25
205.411	886.254
208.786	755.705
212.161	638.754
215.536	506.139
218.911	407.221
222.285	261.704
225.66	202.237
229.035	118.294
232.41	68.897
235.785	94.6267
239.159	7.91833
242.534	20.3616
245.909	1.89685
249.284	34.0481
252.659	60.3984
256.033	42.4788
259.408	62.2847
262.783	20.0006
266.158	25.1773
269.533	37.0482
272.908	34.3525
276.282	6.67737
279.657	36.1023
283.032	109.984
286.407	218.142
289.782	426.235
293.156	805.295
296.531	1546.53
299.906	2677.18
303.281	3911.77
306.656	4208.89
310.031	4539.95
313.405	5140.25
316.78	4559.41
320.155	3333.28
323.53	2838.38
326.904	3108.78
330.279	4014.66
333.654	5137.73
337.029	5727.73
340.404	5341.33
343.779	4348.99
347.153	3149.27
350.528	2097.83
353.903	1259.59
357.278	746.952
360.653	484.974
364.027	509.38
367.402	869.039
370.777	1480.41
374.152	1276.53
377.527	608.758
380.902	244.365
384.276	222.192
387.651	444.606
391.026	408.163
394.401	305.944
397.776	504.695
401.151	989.152
404.525	1725.04
407.9	2654.9
411.275	2524.86
414.65	1804.22
418.024	1711.36
421.399	2103.11
424.774	2133.37
428.149	1560.11
431.524	903.135
434.899	542.24
438.273	424.484
441.648	242.782
445.023	107.109
448.398	0.655396
451.773	41.6243
455.147	56.5303
458.522	36.8314
461.897	57.9493
465.272	45.1284
468.647	28.2584
472.022	6.59235
475.396	1.12329
478.771	32.9851
482.146	27.5543
485.521	31.7656
488.896	54.423
492.27	79.0664
495.645	110.687
499.02	106.441
502.395	115.487
505.77	130.419
509.144	119.794
512.519	103.957
515.894	136.179
519.269	112.462
522.644	109.285
526.019	93.3181
529.393	54.2097
532.768	59.8391
536.143	53.0447
539.518	47.026
542.893	61.3942
546.268	49.1257
549.642	39.1616
553.017	50.4902
556.392	46.2194
559.767	65.6166
563.141	38.2024
566.516	48.0485
569.891	53.54
573.266	49.0453
576.641	52.0847
580.016	48.809
583.39	73.7109
586.765	49.146
590.14	78.9742
593.515	79.116
596.89	81.8953
600.264	121.87
603.639	156.096
607.014	159.621
610.389	161.299
613.764	173.799
617.139	165.482
620.513	182.868
623.888	194.43
627.263	167.907
630.638	157.732
634.013	166.589
637.387	171.683
640.762	172.718
644.137	182.983
647.512	170.291
650.887	203.476
654.261	205.026
657.636	210.515
661.011	208.705
664.386	237.59
667.761	193.001
671.135	189.82
674.51	201.264
677.885	164.07
681.26	141.868
684.635	131.443
688.01	103.495
691.384	77.3278
694.759	62.7736
698.134	49.6275
701.509	6.26514
704.884	15.984
708.259	20.6227
711.633	51.3837
715.008	40.4302
718.383	55.6818
721.758	46.0868
725.133	54.493
728.507	58.9864
731.882	44.4348
735.257	14.8691
738.632	94.287
742.007	222.451
745.381	373.019
748.756	719.279
752.131	1199.97
755.506	2257.76
758.881	4084.99
762.255	6914.47
765.63	8902.52
769.005	6970.24
772.38	4996.55
775.755	4268.58
779.13	4770.05
782.504	6741.88
785.879	8899.2
789.254	9724.99
792.629	10879
796.004	14346.3
799.378	23200.7
802.753	46226.4
806.128	72000.1
809.503	56304.3
812.878	59271
816.253	53113.4
819.627	28242.3
823.002	14596.2
826.377	8582.45
829.752	5626.24
833.127	3915.21
836.501	2746.77
839.876	2066.27
843.251	1552.31
846.626	1168.38
850.001	875.672
853.375	563.216
856.75	336.699
860.125	203.123
863.5	98.198
866.875	32.3201
870.25	15.4907
873.624	30.59
876.999	30.095
880.374	34.7351
883.749	39.7662
887.124	12.6187
890.498	20.2202
893.873	16.9569
897.248	12.1284
900.623	32.7969
903.998	24.562
907.372	33.0663
910.747	22.1514
914.122	16.0421
917.497	36.4619
920.872	43.4892
924.246	91.6767
927.621	107.928
930.996	138.379
934.371	146.918
937.746	163.755
941.121	218.893
944.495	230.845
947.87	251.588
951.245	265.215
954.62	288.933
957.995	305.616
961.37	327.094
964.744	336.296
968.119	323.194
971.494	274.017
974.869	262.407
978.244	249.3
981.618	242.841
984.993	203.933
988.368	221.212
991.743	198.935
995.118	191.39
998.492	173.8
1001.87	169.211
1005.24	149.139
1008.62	154.298
1011.99	143.445
1015.37	124.283
1018.74	104.793
1022.12	93.7447
1025.49	93.8766
1028.87	111.776
1032.24	83.2398
1035.62	69.6466
1038.99	72.0497
1042.37	53.45
1045.74	34.748
1049.12	69.4337
1052.49	34.4275
1055.86	52.0397
1059.24	40.5495
1062.61	18.9127
1065.99	10.4467
1069.36	37.2512
1072.74	24.0831
1076.11	30.4348
1079.49	2.90863
1082.86	21.4139
1086.24	6.71729
1089.61	6.79816
1092.99	13.7167
1096.36	13.5374
1099.74	12.1423
1103.11	5.34558
1106.49	1.30853
1109.86	4.83795
1113.24	1.98016
1116.61	11.8769
1119.99	5.40912
1123.36	17.6281
1126.73	7.38342
1130.11	19.3655
1133.48	13.9674
1136.86	3.57635
1140.23	12.2278
1143.61	11.9056
1146.98	11.2239
1150.36	17.8189
1153.73	17.0717
1157.11	20.5816
1160.48	11.2878
1163.86	27.236
1167.23	5.16528
1170.61	24.8227
1173.98	5.78882
1177.36	5.59259
1180.73	0.846924
1184.11	6.20764
1187.48	1.24353
1190.86	17.1888
1194.23	11.7787
1197.61	8.90399
1200.98	4.61267
1204.36	1.59662
1207.73	7.56354
1211.11	35.9252
1214.48	32.7188
1217.86	14.0335
1221.23	53.444
1224.61	30.4517
1227.98	46.9289
1231.36	49.3632
1234.73	63.0542
1238.1	26.0418
1241.48	45.3773
1244.85	51.345
1248.23	57.8185
1251.6	32.1138
1254.98	21.1487
1258.35	36.5419
1261.73	35.5339
1265.1	4.66223
1268.48	8.92987
1271.85	45.7554
1275.23	4.85474
1278.6	16.8221
1281.98	10.2679
1285.35	49.7277
1288.73	15.1237
1292.1	7.54962
1295.48	20.0442
