Measurement: Raman, 532 nm, unoriented, Raman Data Processed
Mineral: Mimetite
Rruff sample: R050007
Ideal chemistry: Pb^2+^_5_(As^5+^O_4_)_3_Cl
Locality: Pingtouling, Guangdong, China
Source: Eugene Schlepp
Description: Reddish orange colored hexagonal prisms
Measured chemistry: Pb_5.00_((As_0.99_P_0.01_)O_4_)_3_Cl_1.00_
Raman shift (cm-1)	intensity
121.699	0
125.074	1.63986
128.449	131.934
131.823	320.299
135.198	593.99
138.573	921.992
141.948	1087.19
145.323	1137.05
148.698	1184.19
152.072	1236.84
155.447	1298.16
158.822	1202.06
162.197	1155.63
165.572	1215.6
168.946	1176.62
172.321	1175.89
175.696	1136.9
179.071	1081.73
182.446	1004.25
185.821	943.24
189.195	868.834
192.57	815.975
195.945	717.307
199.32	591.861
202.695	514.636
206.07	428.412
209.444	398.415
212.819	353.754
216.194	284.783
219.569	241.462
222.944	186.695
226.318	183.044
229.693	147.12
233.068	125.61
236.443	116.705
239.818	73.9689
243.192	51.2571
246.567	25.8208
249.942	11.9813
253.317	14.413
256.692	5.03375
260.067	19.829
263.441	20.2259
266.816	29.6649
270.191	28.6346
273.566	35.3302
276.941	44.4089
280.315	25.9342
283.69	7.28857
287.065	22.4519
290.44	86.8128
293.815	169.394
297.19	329.305
300.564	531.388
303.939	715.869
307.314	810.679
310.689	830.953
314.064	815.282
317.438	841.915
320.813	864.737
324.188	952.081
327.563	1161.99
330.938	1355.98
334.313	1575.88
337.687	1614.58
341.062	1470.3
344.437	1235.46
347.812	937.253
351.187	702.171
354.562	620.393
357.936	772.354
361.311	1054.67
364.686	1572.77
368.061	2106.47
371.436	2209.77
374.81	1589.85
378.185	923.668
381.56	596.082
384.935	405.089
388.31	340.427
391.685	257.497
395.059	199.938
398.434	216.237
401.809	276.945
405.184	354.79
408.559	454.282
411.933	557.171
415.308	702.616
418.683	829.117
422.058	848.935
425.433	644.255
428.808	405.356
432.182	233.006
435.557	146.72
438.932	97.4391
442.307	34.2773
445.682	7.76328
449.056	9.45776
452.431	22.161
455.806	21.3865
459.181	32.0936
462.556	11.6813
465.93	5.20801
469.305	3.16715
472.68	1.66208
476.055	5.59366
479.43	25.6228
482.805	24.2986
486.179	40.6164
489.554	42.0319
492.929	61.1369
496.304	58.6651
499.679	70.0781
503.053	66.2034
506.428	78.4163
509.803	63.3149
513.178	68.7699
516.553	54.3388
519.928	45.756
523.302	27.7979
526.677	23.6092
530.052	21.2591
533.427	32.9311
536.802	16.7467
540.177	17.8652
543.551	13.6356
546.926	26.1667
550.301	23.0533
553.676	25.1285
557.051	16.5394
560.425	3.91458
563.8	22.9855
567.175	26.6531
570.55	17.5221
573.925	9.11917
577.299	19.0711
580.674	36.789
584.049	29.5562
587.424	42.6136
590.799	38.0195
594.174	48.1322
597.548	46.6871
600.923	68.9175
604.298	69.0511
607.673	83.6925
611.048	79.0607
614.423	68.9073
617.797	61.8663
621.172	73.551
624.547	85.4852
627.922	68.7444
631.297	76.7234
634.671	74.3687
638.046	93.2145
641.421	78.4996
644.796	72.3967
648.171	77.8215
651.545	75.1453
654.92	90.2623
658.295	87.7295
661.67	109.897
665.045	121.733
668.42	107.914
671.794	124.559
675.169	110.845
678.544	83.9473
681.919	88.8171
685.294	59.2016
688.668	40.4216
692.043	46.4763
695.418	33.2449
698.793	19.2422
702.168	12.8786
705.543	18.8823
708.917	19.2652
712.292	10.6154
715.667	36.9703
719.042	43.1645
722.417	32.1494
725.792	19.6838
729.166	32.5955
732.541	13.1715
735.916	30.917
739.291	90.8181
742.666	155.122
746.04	267.295
749.415	543.053
752.79	900.903
756.165	1568.2
759.54	2335.93
762.915	3239.45
766.289	3727.5
769.664	3771.68
773.039	3802.88
776.414	4237.56
779.789	5219.03
783.163	6505.85
786.538	7405.46
789.913	7643.65
793.288	8539.01
796.663	10791.4
800.038	13785.5
803.412	18286.3
806.787	18361.6
810.162	14236.8
813.537	11131.5
816.912	7443.1
820.286	4739.25
823.661	3618.76
827.036	3114.63
830.411	2723.91
833.786	2313.93
837.16	1890.08
840.535	1612.02
843.91	1368.99
847.285	1185.58
850.66	1052.68
854.035	824.685
857.409	542.516
860.784	252.265
864.159	107.289
867.534	29.8796
870.909	13.57
874.284	1.52014
877.658	30.1071
881.033	7.22955
884.408	23.8774
887.783	25.1642
891.158	26.4928
894.533	35.4874
897.907	42.7306
901.282	4.98395
904.657	30.2345
908.032	54.3395
911.407	59.2751
914.781	63.7555
918.156	64.6655
921.531	68.4804
924.906	74.2878
928.281	82.3192
931.655	74.0405
935.03	81.338
938.405	95.0981
941.78	107.264
945.155	135.723
948.529	113.528
951.904	102.783
955.279	101.043
958.654	75.5445
962.029	98.7749
965.404	74.6914
968.778	92.9585
972.153	97.4066
975.528	102.533
978.903	110.047
982.278	89.0561
985.653	97.3884
989.027	78.3388
992.402	64.5326
995.777	79.0493
999.152	70.8448
1002.53	59.4306
1005.9	63.4694
1009.28	65.9694
1012.65	60.8735
1016.03	53.6737
1019.4	36.1204
1022.78	47.9116
1026.15	33.2403
1029.53	41.8222
1032.9	39.5305
1036.28	33.1347
1039.65	26.7328
1043.02	26.4593
1046.4	14.9243
1049.77	16.1397
1053.15	4.89209
1056.52	7.70642
1059.9	3.0961
1063.27	6.62433
1066.65	4.15341
1070.02	2.7677
1073.4	6.9744
1076.77	13.49
1080.15	6.51666
1083.52	4.95349
1086.9	5.6201
1090.27	6.06412
1093.65	4.3867
1097.02	16.7267
1100.4	5.04483
1103.77	8.24214
1107.15	4.21304
1110.52	1.50626
1113.9	10.6508
1117.27	9.34367
1120.64	10.9266
1124.02	2.28989
1127.39	4.44958
1130.77	16.0256
1134.14	18.4583
1137.52	5.78357
1140.89	13.9909
1144.27	6.7894
1147.64	9.6409
1151.02	7.38098
1154.39	5.73477
1157.77	10.9634
1161.14	9.99606
1164.52	8.30536
1167.89	19.9459
1171.27	15.2605
1174.64	17.3917
1178.02	14.4018
1181.39	15.9093
1184.77	12.4743
1188.14	20.4698
1191.52	14.098
1194.89	18.437
1198.27	15.4183
1201.64	24.9771
1205.02	25.7976
1208.39	36.5278
1211.77	31.8212
1215.14	15.8249
1218.52	19.5091
1221.89	20.6533
1225.27	29.4607
1228.64	21.7058
1232.01	22.7888
1235.39	14.2213
1238.76	17.154
1242.14	20.2343
1245.51	9.24612
1248.89	20.1909
1252.26	9.83313
1255.64	19.1226
1259.01	14.9268
1262.39	8.50207
1265.76	15.7195
1269.14	11.0012
1272.51	11.5108
1275.89	22.7057
1279.26	20.0657
1282.64	16.2098
1286.01	1.47287
1289.39	11.9489
1292.76	2.80417
1296.14	0.049606
