Measurement: Raman, 532 nm, unoriented, Raman Data Processed
Mineral: Mimetite
Rruff sample: R050527
Ideal chemistry: Pb^2+^_5_(As^5+^O_4_)_3_Cl
Locality: Tsumeb mine, Tsumeb, Otavi District, Oshikoto, Namibia
Source: University of Arizona Mineral Museum
Description: Yellow hexagonal prisms, monoclinic polytype
Measured chemistry: Pb_5.00_(As_1.00_O_4_)_3_Cl_1.00_
Raman shift (cm-1)	intensity
144.441	0
147.816	39.7341
151.191	172.15
154.565	272.789
157.94	357.133
161.315	482.577
164.69	640.152
168.065	809.85
171.44	878.658
174.814	876.179
178.189	831.488
181.564	758.534
184.939	656.294
188.314	548.495
191.688	437.69
195.063	320.578
198.438	225.72
201.813	135.023
205.188	96.5673
208.562	58.8463
211.937	35.31
215.312	14.9186
218.687	4.52466
222.062	6.85944
225.437	10.6005
228.811	18.6716
232.186	18.3665
235.561	11.8506
238.936	7.32871
242.311	5.67502
245.685	2.45319
249.06	1.54449
252.435	2.24786
255.81	1.38214
259.185	0.666901
262.56	0.100006
265.934	0.662415
269.309	1.06448
272.684	5.36252
276.059	11.9998
279.434	26.7108
282.808	51.3109
286.183	97.3775
289.558	179.223
292.933	319.688
296.308	538.771
299.683	850.593
303.057	1201.26
306.432	1464.6
309.807	1690.61
313.182	1866.12
316.557	1699.05
319.932	1369.89
323.306	1196.5
326.681	1235.83
330.056	1400.59
333.431	1563.42
336.805	1627.99
340.18	1520.84
343.555	1280.08
346.93	945.832
350.305	614.475
353.68	363.166
357.054	204.512
360.429	122.332
363.804	105.528
367.179	145.513
370.554	200.528
373.928	176.285
377.303	80.7322
380.678	22.4395
384.053	22.821
387.428	85.975
390.803	144
394.177	174.4
397.552	235.775
400.927	346.37
404.302	516.435
407.677	669.36
411.051	664.549
414.426	509.232
417.801	404.747
421.176	364.394
424.551	342.535
427.926	269.767
431.3	188.113
434.675	126.879
438.05	94.1793
441.425	66.3718
444.8	38.0673
448.174	18.029
451.549	5.78436
454.924	6.8803
458.299	14.7469
461.674	20.0867
465.048	15.8607
468.423	13.1284
471.798	5.4637
475.173	2.69994
478.548	8.43329
481.923	16.8688
485.297	21.7622
488.672	26.7553
492.047	34.0834
495.422	40.9995
498.797	44.4619
502.171	50.6835
505.546	54.2563
508.921	57.5093
512.296	62.7303
515.671	57.6732
519.046	55.7698
522.42	49.4423
525.795	43.7626
529.17	37.8169
532.545	31.6739
535.92	29.36
539.294	28.49
542.669	27.8561
546.044	26.707
549.419	26.1332
552.794	26.2042
556.169	27.2386
559.543	24.1855
562.918	23.5988
566.293	19.6949
569.668	21.5214
573.043	18.5136
576.418	17.5156
579.792	16.6241
583.167	18.8492
586.542	18.9758
589.917	20.8672
593.292	22.2123
596.666	23.9877
600.041	24.5228
603.416	29.78
606.791	32.0314
610.166	34.0971
613.54	36.8411
616.915	37.2257
620.29	35.1103
623.665	36.0005
627.04	32.8438
630.414	34.0809
633.789	31.4926
637.164	30.7072
640.539	31.264
643.914	33.6081
647.289	35.2074
650.663	38.3322
654.038	39.1562
657.413	40.8717
660.788	42.9646
664.163	43.7409
667.538	44.2262
670.912	43.5797
674.287	42.1586
677.662	38.2667
681.037	33.7602
684.412	28.1364
687.786	22.7419
691.161	17.9413
694.536	16.4311
697.911	8.58514
701.286	4.59482
704.66	0.647736
708.035	1.55696
711.41	5.62331
714.785	10.1827
718.16	11.641
721.534	12.8026
724.909	15.3451
728.284	12.8176
731.659	8.80008
735.034	3.27057
738.409	11.4199
741.783	37.1494
745.158	83.8286
748.533	163.084
751.908	302.513
755.283	508.717
758.658	793.616
762.032	1152.24
765.407	1374.73
768.782	1247.35
772.157	1063.72
775.532	1016.03
778.906	1140.37
782.281	1420.25
785.656	1686.61
789.031	1828.49
792.406	2149.95
795.78	3134.82
799.155	4949.99
802.53	8273.44
805.905	12995.5
809.28	15408.7
812.654	15322
816.029	13079.4
819.404	7981.35
822.779	4318.32
826.154	2536.39
829.529	1636.32
832.903	1134.95
836.278	830.102
839.653	630.97
843.028	485.073
846.403	378.539
849.778	287.865
853.152	215.714
856.527	152.919
859.902	92.8896
863.277	55.1292
866.652	25.6911
870.026	10.182
873.401	3.18256
876.776	6.19958
880.151	7.27914
883.526	7.89487
886.9	5.98856
890.275	4.24867
893.65	9.5112
897.025	8.18265
900.4	9.49216
903.775	7.88474
907.149	5.53735
910.524	3.88184
913.899	22.9306
917.274	47.7762
920.649	64.714
924.024	50.0674
927.398	29.5073
930.773	29.6963
934.148	32.5311
937.523	38.1014
940.898	44.9852
944.272	50.575
947.647	58.0093
951.022	62.8193
954.397	64.7243
957.772	65.7035
961.146	58.0446
964.521	51.2138
967.896	45.2366
971.271	44.2527
974.646	45.0914
978.021	49.56
981.395	49.5405
984.77	51.6482
988.145	48.389
991.52	43.6617
994.895	42.6782
998.269	39.6371
1001.64	37.0334
1005.02	34.5486
1008.39	30.6717
1011.77	30.1093
1015.14	27.7261
1018.52	25.4313
1021.89	24.9297
1025.27	22.6376
1028.64	18.4641
1032.02	17.0171
1035.39	17.1943
1038.77	15.5056
1042.14	13.5177
1045.52	9.67136
1048.89	8.85388
1052.27	6.91393
1055.64	5.20453
1059.02	5.26018
1062.39	2.69319
1065.77	1.70396
1069.14	2.22311
1072.52	0.484642
1075.89	1.91158
1079.27	1.21075
1082.64	0.37291
1086.02	0.795998
1089.39	1.48213
1092.76	0.687435
1096.14	0.876564
1099.51	1.20157
1102.89	0.315617
1106.26	1.28738
1109.64	1.85378
1113.01	2.32462
1116.39	0.759789
1119.76	1.19834
1123.14	2.9291
1126.51	1.23019
1129.89	1.19247
1133.26	1.84871
1136.64	0.827824
1140.01	0.469738
1143.39	1.01397
1146.76	2.83318
1150.14	2.01215
1153.51	2.51912
1156.89	3.0165
1160.26	0.872295
1163.63	1.65157
1167.01	0.039463
1170.38	0.424126
1173.76	6.15939
1177.13	0.418373
1180.51	1.29525
1183.88	1.2598
1187.26	2.54281
1190.63	1.90317
1194.01	2.98711
1197.38	2.49481
1200.76	2.49837
1204.13	3.40633
1207.51	3.83809
1210.88	5.10878
1214.26	4.92372
1217.63	6.43276
1221.01	5.72844
1224.38	6.57077
1227.76	5.63192
1231.13	5.97482
1234.51	5.64735
1237.88	4.82169
1241.26	5.79433
1244.63	6.49768
1248.01	6.39354
1251.38	6.53661
1254.76	5.40074
1258.13	5.34779
1261.51	3.79828
1264.88	3.06663
1268.26	4.45646
1271.63	2.32117
1275	0.583969
1278.38	1.51381
1281.75	1.63262
1285.13	0.508823
1288.5	0.737616
1291.88	0.860498
1295.25	0.46155
1298.63	0.001209
1302	0.574734
