Measurement: Raman, 780 nm, unoriented, Raman Data Processed
Mineral: Mimetite
Rruff sample: R050527
Ideal chemistry: Pb^2+^_5_(As^5+^O_4_)_3_Cl
Locality: Tsumeb mine, Tsumeb, Otavi District, Oshikoto, Namibia
Source: University of Arizona Mineral Museum
Description: Yellow hexagonal prisms, monoclinic polytype
Measured chemistry: Pb_5.00_(As_1.00_O_4_)_3_Cl_1.00_
Raman shift (cm-1)	intensity
145.41	0
148.303	8.64868
151.195	43.8353
154.088	88.2858
156.981	141.187
159.873	192.475
162.766	252.839
165.659	311.954
168.551	358.76
171.444	371.496
174.337	369.998
177.23	348.745
180.122	319.34
183.015	280.232
185.908	231.239
188.8	184.626
191.693	138.543
194.586	99.8805
197.478	67.3514
200.371	41.9217
203.264	22.0559
206.156	10.861
209.049	5.49985
211.942	0.305634
214.835	2.25055
217.727	5.45346
220.62	6.23795
223.513	4.8035
226.405	6.20732
229.298	5.56372
232.191	2.60196
235.083	4.3072
237.976	0.425797
240.869	2.45729
243.762	4.73608
246.654	4.54762
249.547	3.04144
252.44	3.98715
255.332	4.52481
258.225	3.90575
261.118	4.20012
264.01	4.95749
266.903	3.85869
269.796	3.07436
272.689	3.71297
275.581	4.65472
278.474	8.4574
281.367	20.0781
284.259	40.5714
287.152	71.3188
290.045	115.897
292.938	181.174
295.83	263.362
298.723	354.61
301.616	446.33
304.508	531.145
307.401	601.51
310.294	662.848
313.186	676.956
316.079	605.357
318.972	506.757
321.865	451.357
324.757	443.231
327.65	467.096
330.543	503.543
333.435	526.14
336.328	515.57
339.221	477.309
342.113	397.107
345.006	308.189
347.899	214.718
350.791	138.689
353.684	80.3131
356.577	42.1435
359.469	20.6794
362.362	10.5884
365.255	11.7614
368.148	22.6903
371.04	29.986
373.933	21.8296
376.826	10.2043
379.718	7.91513
382.611	17.7004
385.504	37.6492
388.397	62.6987
391.289	79.7679
394.182	93.3062
397.075	112.495
399.967	144.103
402.86	183.708
405.753	215.007
408.645	221.664
411.538	190.119
414.431	138.7
417.324	105.082
420.216	85.9667
423.109	75.3238
426.002	61.5659
428.894	44.719
431.787	32.5321
434.68	26.6716
437.572	20.6339
440.465	15.743
443.358	10.4535
446.25	5.3505
449.143	1.77267
452.036	2.07252
454.929	3.58758
457.821	6.26865
460.714	5.96143
463.607	5.51688
466.5	3.75263
469.392	1.74055
472.285	0.13678
475.178	1.4781
478.07	4.56646
480.963	6.53945
483.856	8.23682
486.748	10.74
489.641	11.988
492.534	14.2219
495.426	15.7221
498.319	18.1536
501.212	18.9068
504.104	21.1473
506.997	22.3123
509.89	22.8509
512.783	22.9898
515.675	22.3165
518.568	20.5146
521.461	18.845
524.354	17.4967
527.246	15.1601
530.139	13.817
533.032	13.0324
535.924	12.2366
538.817	12.5614
541.71	12.3763
544.602	12.1629
547.495	11.4966
550.388	11.621
553.28	11.2016
556.173	11.4835
559.066	10.5123
561.959	9.69899
564.851	9.4119
567.744	8.57082
570.637	8.75012
573.529	8.0438
576.422	8.02096
579.315	6.85268
582.207	7.34832
585.1	6.603
587.993	6.32805
590.885	6.30274
593.778	7.14287
596.671	7.52527
599.564	6.57888
602.456	7.22959
605.349	8.06202
608.242	7.31931
611.134	7.78225
614.027	7.73777
616.92	7.56761
619.812	6.81865
622.705	6.88205
625.598	6.51091
628.491	6.64318
631.383	5.89115
634.276	6.24952
637.169	6.2154
640.061	7.20129
642.954	6.6214
645.847	6.26219
648.74	7.02657
651.632	7.42584
654.525	8.23369
657.418	8.45575
660.31	9.701
663.203	9.1888
666.096	10.1724
668.988	9.50531
671.881	9.14632
674.774	8.13694
677.667	7.37444
680.559	6.56023
683.452	5.14294
686.345	4.52543
689.237	3.73396
692.13	2.35975
695.023	2.06416
697.915	0.37476
700.808	0.156193
703.701	0.384399
706.593	1.00233
709.486	2.00811
712.379	2.2853
715.272	2.98469
718.164	3.33629
721.057	3.51112
723.95	3.73283
726.842	3.02582
729.735	2.94078
732.628	0.322861
735.52	3.52675
738.413	9.15625
741.306	17.3898
744.199	31.3495
747.091	58.5594
749.984	89.0867
752.877	131.816
755.769	182.719
758.662	244.259
761.555	309.205
764.447	344.057
767.34	315.45
770.233	272.932
773.126	247.791
776.018	254.069
778.911	288.079
781.804	333.219
784.696	379.902
787.589	425.398
790.482	512.808
793.375	706.381
796.267	995.619
799.16	1439.38
802.053	2058.08
804.945	2750.72
807.838	3152.2
810.731	3215.75
813.623	3040.14
816.516	2349.92
819.409	1466.12
822.302	882.466
825.194	557.878
828.087	380.945
830.98	273.338
833.872	205.348
836.765	157.839
839.658	125.36
842.55	101.899
845.443	80.0311
848.336	64.9369
851.229	50.3612
854.121	38.3886
857.014	29.1728
859.907	17.1812
862.799	9.50925
865.692	6.40398
868.585	2.10229
871.477	0.580505
874.37	1.41446
877.263	1.50567
880.155	2.46652
883.048	2.207
885.941	1.55695
888.834	2.89473
891.726	1.26671
894.619	2.21285
897.512	2.21516
900.404	2.13368
903.297	0.407448
906.19	0.039898
909.082	3.10165
911.975	5.21643
914.868	8.3465
917.761	12.1558
920.653	13.0424
923.546	10.4118
926.439	7.08566
929.331	7.02849
932.224	7.69645
935.117	9.14712
938.01	9.93899
940.902	11.125
943.795	12.2255
946.688	13.0177
949.58	13.5265
952.473	14.6381
955.366	13.8439
958.258	11.8679
961.151	10.1927
964.044	8.6767
966.937	8.02217
969.829	7.42694
972.722	7.86745
975.615	7.722
978.507	8.16014
981.4	8.09973
984.293	8.08611
987.185	7.26657
990.078	6.73208
992.971	6.22874
995.864	5.27677
998.756	5.4874
1001.65	4.72014
1004.54	4.25461
1007.43	4.68032
1010.33	3.92179
1013.22	3.18908
1016.11	2.89214
1019	2.78352
1021.9	2.03717
1024.79	2.21129
1027.68	1.94893
1030.58	1.27037
1033.47	1.02688
1036.36	0.507515
1039.25	0.17909
1042.15	0.425379
1045.04	0.954069
1047.93	0.260283
1050.83	0.644258
1053.72	0.224922
1056.61	0.221399
1059.5	0.332415
1062.4	0.733358
1065.29	0.628908
1068.18	0.56522
1071.07	0.865744
1073.97	0.847893
1076.86	1.28789
1079.75	1.66528
1082.64	1.85854
1085.54	2.0508
1088.43	2.47101
1091.32	2.56348
1094.21	3.42203
1097.11	2.77619
1100	3.72856
1102.89	3.91229
1105.79	4.42389
1108.68	4.59446
1111.57	4.78288
1114.46	5.4808
1117.36	5.86772
1120.25	5.95963
1123.14	6.62939
1126.04	6.43507
1128.93	7.16072
1131.82	7.06998
1134.71	7.90324
1137.61	7.56923
1140.5	10.4271
1143.39	7.23501
1146.28	6.25616
1149.18	6.00544
1152.07	5.67237
1154.96	4.22606
1157.86	3.23278
1160.75	2.41436
1163.64	0.875393
1166.53	0.37352
1169.42	0.837982
1172.32	0.599915
1175.21	0.216675
1178.1	1.21992
1181	4.11871
1183.89	1.2071
1186.78	1.35027
1189.67	0.787697
1192.57	0.535645
1195.46	1.00113
1198.35	2.46543
1201.24	4.65531
1204.14	5.53777
1207.03	10.2241
1209.92	13.1666
1212.82	14.8713
1215.71	18.352
1218.6	22.3569
1221.49	26.4381
1224.39	30.4641
1227.28	36.463
1230.17	40.9876
1233.07	44.8305
1235.96	47.5753
1238.85	49.1756
1241.74	48.7055
1244.64	49.9778
1247.53	49.0304
1250.42	48.0417
1253.31	44.5253
1256.21	40.0617
1259.1	34.864
1261.99	33.491
1264.88	27.1244
1267.78	21.8287
1270.67	17.5222
1273.56	12.2375
1276.45	9.59586
1279.35	5.49255
1282.24	0.343658
1285.13	0.241364
