Measurement: Raman, 532 nm, unoriented, Raman Data Processed
Mineral: Mimetite
Rruff sample: R040123
Ideal chemistry: Pb^2+^_5_(As^5+^O_4_)_3_Cl
Locality: San Pedro Corralitos, Chihuahua, Mexico
Source: University of Arizona Mineral Museum
Description: Yellow botryoidal group
Measured chemistry: Pb_5.00_((As_0.96_P_0.04_)O_4_)_3_Cl_1.00_
Raman shift (cm-1)	intensity
114.949	0
118.324	14.7201
121.699	1.69507
125.074	164.644
128.449	430.984
131.823	723.034
135.198	1071.49
138.573	1379.69
141.948	1548.88
145.323	1622.69
148.698	1790.52
152.072	1943.73
155.447	2027.95
158.822	2040.56
162.197	2053.97
165.572	2138.23
168.946	2261.76
172.321	2283.16
175.696	2294.3
179.071	2181.38
182.446	2044.13
185.821	1867.83
189.195	1677.45
192.57	1532.78
195.945	1366.73
199.32	1208.91
202.695	1044.7
206.07	968.857
209.444	838.372
212.819	732.565
216.194	665.757
219.569	578.14
222.944	496.186
226.318	425.999
229.693	349.507
233.068	313.991
236.443	217.513
239.818	195.042
243.192	165.383
246.567	116.58
249.942	99.9296
253.317	41.668
256.692	32.6829
260.067	3.58087
263.441	13.7485
266.816	33.9233
270.191	53.5576
273.566	46.3906
276.941	52.7086
280.315	35.294
283.69	23.3917
287.065	67.8751
290.44	199.889
293.815	397.277
297.19	729.94
300.564	1223.5
303.939	1812.17
307.314	2398.31
310.689	2958.83
314.064	3255.64
317.438	2965.91
320.813	2484.9
324.188	2093.55
327.563	1932.66
330.938	1955.25
334.313	2077.99
337.687	2138.58
341.062	2099.83
344.437	1837.41
347.812	1456.09
351.187	1099.87
354.562	793.55
357.936	690.384
361.311	839.587
364.686	1123.21
368.061	1555.67
371.436	1620.38
374.81	1113.96
378.185	527.205
381.56	229.093
384.935	120.981
388.31	60.0745
391.685	63.9511
395.059	94.5116
398.434	128.201
401.809	201.83
405.184	346.498
408.559	470.881
411.933	582.452
415.308	717.52
418.683	850.225
422.058	966.556
425.433	956.513
428.808	855.197
432.182	711.375
435.557	602.081
438.932	463.021
442.307	367.083
445.682	265.031
449.056	208.775
452.431	146.068
455.806	74.6848
459.181	15.303
462.556	25.4802
465.93	30.5689
469.305	48.2365
472.68	29.4465
476.055	1.42023
479.43	10.0181
482.805	13.7777
486.179	23.0104
489.554	25.8756
492.929	41.3796
496.304	50.1136
499.679	62.9205
503.053	71.762
506.428	84.0069
509.803	93.4704
513.178	88.3265
516.553	86.812
519.928	85.8936
523.302	83.6495
526.677	71.8631
530.052	61.9257
533.427	56.2164
536.802	42.4088
540.177	37.8405
543.551	44.7409
546.926	60.2678
550.301	55.2623
553.676	64.5128
557.051	56.2014
560.425	46.7661
563.8	66.6479
567.175	57.1409
570.55	50.4571
573.925	42.4909
577.299	56.6532
580.674	53.5026
584.049	47.1243
587.424	50.8779
590.799	65.662
594.174	78.5601
597.548	94.0847
600.923	105.72
604.298	95.1509
607.673	123.225
611.048	101.401
614.423	120.423
617.797	123.311
621.172	128.167
624.547	116.989
627.922	137.412
631.297	115.72
634.671	135.228
638.046	143.29
641.421	143.959
644.796	137.971
648.171	163.863
651.545	155.476
654.92	162.199
658.295	169.325
661.67	168.029
665.045	166.113
668.42	155.612
671.794	142.471
675.169	127.613
678.544	110.805
681.919	98.3872
685.294	78.9881
688.668	61.5599
692.043	36.0287
695.418	22.6818
698.793	5.42072
702.168	10.7428
705.543	0.235535
708.917	17.027
712.292	34.2678
715.667	24.463
719.042	54.9486
722.417	32.694
725.792	36.2686
729.166	22.6154
732.541	13.2259
735.916	56.8174
739.291	109.111
742.666	218.476
746.04	401.15
749.415	767.898
752.79	1407.8
756.165	2360.92
759.54	3668.64
762.915	4719.34
766.289	5086.46
769.664	4879.69
773.039	4650.56
776.414	4840.18
779.789	5407.38
783.163	5979.8
786.538	6481.1
789.913	6910.63
793.288	8479.96
796.663	12003.5
800.038	18373.2
803.412	27738
806.787	38217.2
810.162	42991.3
813.537	39332.9
816.912	28746.9
820.286	17144.7
823.661	9700.64
827.036	5967.87
830.411	3906.15
833.786	2709.71
837.16	1976.98
840.535	1526.24
843.91	1126.18
847.285	877.054
850.66	722.452
854.035	526.018
857.409	375.999
860.784	216.451
864.159	103.715
867.534	33.2159
870.909	13.7678
874.284	38.1005
877.658	49.7508
881.033	44.377
884.408	39.2532
887.783	27.3145
891.158	7.448
894.533	13.3427
897.907	11.618
901.282	0.247864
904.657	17.9273
908.032	100.827
911.407	210.931
914.781	349.255
918.156	431.164
921.531	339.295
924.906	170.917
928.281	97.4001
931.655	72.0608
935.03	74.8195
938.405	79.2841
941.78	83.0187
945.155	87.5887
948.529	96.7946
951.904	113.184
955.279	115.082
958.654	107.187
962.029	117.018
965.404	110.949
968.778	121.4
972.153	126.09
975.528	151.494
978.903	160.053
982.278	179.245
985.653	158.273
989.027	156.008
992.402	138.736
995.777	130.275
999.152	118.333
1002.53	114.901
1005.9	117.737
1009.28	93.5875
1012.65	89.6163
1016.03	97.6515
1019.4	85.3347
1022.78	61.9511
1026.15	77.2159
1029.53	67.2165
1032.9	46.3753
1036.28	59.9933
1039.65	37.7359
1043.02	17.0921
1046.4	43.835
1049.77	32.6262
1053.15	24.0803
1056.52	22.7852
1059.9	2.91293
1063.27	24.6621
1066.65	2.53101
1070.02	3.07233
1073.4	7.62497
1076.77	2.01239
1080.15	1.25247
1083.52	3.79166
1086.9	0.390961
1090.27	2.67908
1093.65	4.37128
1097.02	9.47739
1100.4	4.43649
1103.77	4.63544
1107.15	5.2478
1110.52	3.7179
1113.9	9.08453
1117.27	10.6836
1120.64	14.2931
1124.02	8.78107
1127.39	18.2134
1130.77	19.266
1134.14	7.0997
1137.52	0.701294
1140.89	8.88068
1144.27	11.21
1147.64	14.7134
1151.02	10.2885
1154.39	19.8859
1157.77	19.5089
1161.14	13.0043
1164.52	2.95895
1167.89	17.4952
1171.27	18.9485
1174.64	9.20041
1178.02	24.5957
1181.39	8.98605
1184.77	17.0869
1188.14	19.7725
1191.52	7.00885
1194.89	37.9764
1198.27	15.9777
1201.64	19.0923
1205.02	16.2246
1208.39	21.6083
1211.77	3.24753
1215.14	17.2194
1218.52	32.9891
1221.89	23.2108
1225.27	37.9237
1228.64	29.5294
1232.01	28.4265
1235.39	28.118
1238.76	17.2246
1242.14	12.1885
1245.51	29.709
1248.89	29.4636
1252.26	37.3736
1255.64	24.1683
1259.01	34.3749
1262.39	19.3314
1265.76	12.222
1269.14	10.3435
1272.51	15.4012
1275.89	16.2314
1279.26	4.48468
1282.64	0.710846
1286.01	10.6357
1289.39	6.59872
1292.76	12.7406
1296.14	4.1839
1299.51	18.4177
1302.88	2.46838
1306.26	0
