Measurement: Raman, 532 nm, unoriented, Raman Data Processed
Mineral: Mimetite
Rruff sample: R060920
Ideal chemistry: Pb^2+^_5_(As^5+^O_4_)_3_Cl
Locality: Tsumeb mine, Tsumeb, Otavi District, Oshikoto, Namibia
Source: Marcus Origlieri
Description: Yellow to brownish hexagonal prism, monoclinic polytype
Raman shift (cm-1)	intensity
114.291	0
117.666	53.959
121.041	334.453
124.416	1035.26
127.79	1095.48
131.165	838.834
134.54	916.354
137.915	1356.71
141.29	1909.36
144.665	2345.03
148.039	2576.64
151.414	2785.07
154.789	3194.23
158.164	3655.14
161.539	4374.6
164.913	4953.61
168.288	5516.23
171.663	5687.95
175.038	5366.58
178.413	4908.83
181.788	4489.12
185.162	3856.31
188.537	3195.05
191.912	2502.36
195.287	1889.48
198.662	1461.24
202.036	1138.9
205.411	938.917
208.786	738.084
212.161	641.853
215.536	481.346
218.911	370.566
222.285	251.546
225.66	145.333
229.035	96.7601
232.41	50.5432
235.785	4.20837
239.159	4.42358
242.534	29.8939
245.909	46.1168
249.284	57.2349
252.659	38.7745
256.033	62.4996
259.408	55.8672
262.783	23.5624
266.158	39.4694
269.533	34.9658
272.908	30.7428
276.282	43.0875
279.657	76.9193
283.032	187.991
286.407	381.28
289.782	696.666
293.156	1198.85
296.531	2079.71
299.906	3488.02
303.281	5060.81
306.656	6167.09
310.031	7498.84
313.405	8748.96
316.78	7629.23
320.155	5483.18
323.53	4501.72
326.904	4741.6
330.279	5941.34
333.654	7264.25
337.029	7957.59
340.404	7455.5
343.779	6161.74
347.153	4514.34
350.528	2929.69
353.903	1732.19
357.278	958.943
360.653	500.058
364.027	350.559
367.402	443.564
370.777	705.24
374.152	686.179
377.527	459.8
380.902	265.706
384.276	355.29
387.651	611.92
391.026	678.472
394.401	636.043
397.776	980.4
401.151	1749.13
404.525	2854.34
407.9	4021.88
411.275	3840.94
414.65	2453.49
418.024	1721.45
421.399	1665.81
424.774	1579.68
428.149	1134.88
431.524	676.668
434.899	473.416
438.273	357.107
441.648	236.675
445.023	100.867
448.398	28.9871
451.773	42.2966
455.147	65.6921
458.522	70.6158
461.897	73.7296
465.272	29.7502
468.647	35.1016
472.022	2.23688
475.396	0.790497
478.771	24.5198
482.146	45.488
485.521	76.3003
488.896	84.0948
492.27	101.932
495.645	112.657
499.02	126.764
502.395	149.619
505.77	153.188
509.144	164.53
512.519	178.929
515.894	144.926
519.269	124.585
522.644	121.618
526.019	87.1262
529.393	89.0989
532.768	70.5263
536.143	73.4487
539.518	66.463
542.893	63.9934
546.268	53.3878
549.642	53.893
553.017	59.0606
556.392	65.7527
559.767	55.6003
563.141	67.3311
566.516	67.5375
569.891	37.1054
573.266	61.0495
576.641	47.9294
580.016	51.2996
583.39	44.7523
586.765	53.2271
590.14	60.0546
593.515	71.9726
596.89	92.7408
600.264	95.2461
603.639	99.5339
607.014	127.998
610.389	131.506
613.764	138.395
617.139	146.855
620.513	141.315
623.888	158.652
627.263	142.94
630.638	134.992
634.013	142.411
637.387	135.077
640.762	135.934
644.137	130.879
647.512	146.298
650.887	160.014
654.261	170.961
657.636	179.375
661.011	195.91
664.386	206.846
667.761	186.897
671.135	189.629
674.51	194.242
677.885	159.318
681.26	139.664
684.635	128.979
688.01	106.173
691.384	86.9161
694.759	85.0425
698.134	30.2197
701.509	23.5816
704.884	13.9689
708.259	13.2153
711.633	52.0201
715.008	37.6018
718.383	50.2076
721.758	60.9009
725.133	52.0363
728.507	47.1973
731.882	14.1583
735.257	16.7341
738.632	73.8436
742.007	169.318
745.381	347.227
748.756	657.543
752.131	1095.97
755.506	1987.14
758.881	3339.51
762.255	5421.73
765.63	7057.57
769.005	5742.35
772.38	4212.66
775.755	3728.35
779.13	4342.46
782.504	5928.03
785.879	7188.87
789.254	7088.72
792.629	7674.5
796.004	10261.6
799.378	16923
802.753	32659.2
806.128	54411.2
809.503	52223.3
812.878	61066.1
816.253	57550.9
819.627	31650.8
823.002	16372.6
826.377	9739.54
829.752	6304.01
833.127	4387.99
836.501	3227.45
839.876	2432.56
843.251	1879.89
846.626	1428.87
850.001	1090.44
853.375	754.587
856.75	515.199
860.125	327.42
863.5	193.439
866.875	83.778
870.25	9.02832
873.624	16.5974
876.999	32.2379
880.374	7.57165
883.749	5.33752
887.124	27.2699
890.498	11.5876
893.873	14.9185
897.248	14.9479
900.623	17.4229
903.998	43.27
907.372	29.7207
910.747	14.2116
914.122	34.7576
917.497	78.3741
920.872	147.135
924.246	138.839
927.621	115.47
930.996	139.478
934.371	165.218
937.746	157.095
941.121	191.747
944.495	214.839
947.87	252.788
951.245	253.788
954.62	274.6
957.995	278.896
961.37	270.301
964.744	251.203
968.119	233.037
971.494	216.579
974.869	191.41
978.244	211.891
981.618	222.05
984.993	211.217
988.368	197.103
991.743	193.498
995.118	182.27
998.492	170.104
1001.87	159.556
1005.24	138.083
1008.62	142.056
1011.99	126.083
1015.37	118.41
1018.74	112.167
1022.12	101.242
1025.49	91.8848
1028.87	90.2826
1032.24	79.7765
1035.62	56.7317
1038.99	60.1652
1042.37	44.2192
1045.74	41.9787
1049.12	35.9557
1052.49	23.4206
1055.86	26.5039
1059.24	20.2536
1062.61	15.0634
1065.99	4.44089
1069.36	5.4952
1072.74	3.57784
1076.11	0.655853
1079.49	4.68436
1082.86	1.46465
1086.24	0.157951
1089.61	1.83687
1092.99	2.91981
1096.36	3.12553
1099.74	0.705597
1103.11	1.09281
1106.49	6.32266
1109.86	4.04019
1113.24	15.5869
1116.61	10.6514
1119.99	8.16473
1123.36	17.7222
1126.73	13.1248
1130.11	8.35829
1133.48	11.4745
1136.86	3.11291
1140.23	0.058952
1143.61	7.133
1146.98	18.7113
1150.36	9.28159
1153.73	15.9765
1157.11	13.3303
1160.48	12.3959
1163.86	18.9406
1167.23	4.32633
1170.61	4.93295
1173.98	4.03695
1177.36	14.6933
1180.73	0.503799
1184.11	9.79527
1187.48	13.3801
1190.86	14.5405
1194.23	4.63023
1197.61	15.2873
1200.98	18.7792
1204.36	22.9731
1207.73	22.5861
1211.11	26.8794
1214.48	40.1404
1217.86	24.2541
1221.23	28.455
1224.61	47.4931
1227.98	34.443
1231.36	32.8845
1234.73	25.1053
1238.1	31.0295
1241.48	43.2201
1244.85	23.9875
1248.23	33.7495
1251.6	37.6073
1254.98	21.5411
1258.35	32.0489
1261.73	20.3208
1265.1	8.70084
1268.48	8.29949
1271.85	22.6637
1275.23	7.85754
1278.6	3.30547
1281.98	15.6899
1285.35	7.90122
1288.73	0
