Measurement: Raman, 785 nm, unoriented, Raman Data Processed
Mineral: Mimetite
Rruff sample: R050007
Ideal chemistry: Pb^2+^_5_(As^5+^O_4_)_3_Cl
Locality: Pingtouling, Guangdong, China
Source: Eugene Schlepp
Description: Reddish orange colored hexagonal prisms
Measured chemistry: Pb_5.00_((As_0.99_P_0.01_)O_4_)_3_Cl_1.00_
Raman shift (cm-1)	intensity
107.52	0
110.413	31.1305
113.305	60.8969
116.198	79.1607
119.091	8.43411
121.984	19.9311
124.876	12.1248
127.769	122.79
130.662	308.535
133.554	484.515
136.447	562.208
139.34	716.834
142.232	1138.76
145.125	1685.87
148.018	2189.12
150.911	2416.57
153.803	2310.27
156.696	2177.91
159.589	2182.03
162.481	2319.11
165.374	2568.95
168.267	2768.46
171.16	2845.62
174.052	2747.9
176.945	2679.77
179.838	2541.08
182.73	2563.62
185.623	2440.16
188.516	2370.08
191.408	2262.19
194.301	2092.8
197.194	1893.44
200.087	1746.04
202.979	1560
205.872	1443.15
208.765	1301.6
211.657	1127.47
214.55	1014.31
217.443	886.239
220.335	814.678
223.228	704.133
226.121	620.192
229.013	528.385
231.906	504.767
234.799	444.653
237.692	340.241
240.584	278.916
243.477	188.518
246.37	109.546
249.262	4.39453
252.155	45.479
255.048	72.7451
257.941	100.425
260.833	43.1819
263.726	54.4482
266.619	28.084
269.511	80.6536
272.404	152.883
275.297	183.951
278.19	225.165
281.082	249.925
283.975	307.084
286.868	368.581
289.76	472.944
292.653	592.863
295.546	765.549
298.438	977.711
301.331	1368.87
304.224	1569.17
307.116	1632.34
310.009	1655.68
312.902	1557.73
315.795	1469.93
318.687	1372.67
321.58	1300.28
324.473	1405.56
327.365	1617.4
330.258	1900.98
333.151	2267.87
336.043	2554.43
338.936	2712.86
341.829	2471.21
344.721	2231.58
347.614	1854.77
350.507	1554.69
353.4	1332.32
356.292	1287.31
359.185	1428.31
362.078	1673.85
364.97	2131.26
367.863	2809.94
370.756	3285.1
373.649	2794.52
376.541	1829.56
379.434	975.245
382.327	514.279
385.219	276.639
388.112	143.212
391.005	30.7014
393.897	12.1606
396.79	48.9312
399.683	26.3953
402.575	97.2427
405.468	272.132
408.361	475.484
411.254	611.231
414.146	818.195
417.039	1121.76
419.932	1312.51
422.824	1389.96
425.717	1023.89
428.61	639.675
431.502	401.933
434.395	153.274
437.288	112.115
440.181	28.4419
443.073	7.88037
445.966	43.7043
448.859	37.2495
451.751	12.4741
454.644	6.43115
457.537	1.10059
460.43	13.0886
463.322	39.6545
466.215	57.2188
469.108	64.5938
472	108.774
474.893	103.01
477.786	116.831
480.678	167.64
483.571	159.99
486.464	150.967
489.356	189.143
492.249	163.799
495.142	197.223
498.035	192.755
500.927	185.088
503.82	171.487
506.713	121.306
509.605	136.479
512.498	118.433
515.391	91.9574
518.284	77.905
521.176	19.499
524.069	32.531
526.962	50.8535
529.854	55.0492
532.747	41.0798
535.64	22.7487
538.533	20.2344
541.425	2.09094
544.318	11.0956
547.211	34.3453
550.103	2.18726
552.996	19.8214
555.889	18.8514
558.781	2.32495
561.674	28.5857
564.567	25.9435
567.459	37.6016
570.352	25.6359
573.245	39.2096
576.138	41.9019
579.03	52.0343
581.923	53.839
584.816	56.7375
587.708	58.225
590.601	27.4944
593.494	45.6007
596.386	48.2944
599.279	45.0598
602.172	45.4694
605.064	66.0519
607.957	54.469
610.85	38.8433
613.743	175.535
616.635	76.3074
619.528	47.3224
622.421	67.8665
625.313	47.7324
628.206	70.6166
631.099	38.6221
633.991	47.8665
636.884	73.2013
639.777	63.6002
642.67	82.6545
645.562	105.413
648.455	112.615
651.348	139.69
654.24	145.338
657.133	141.001
660.026	178.806
662.918	170.621
665.811	186.034
668.704	166.619
671.597	154.336
674.489	154.591
677.382	152.216
680.275	135.939
683.167	126.564
686.06	91.1058
688.953	88.52
691.846	61.6703
694.738	33.042
697.631	48.4138
700.524	17.3273
703.416	13.5107
706.309	28.3117
709.202	7.86804
712.094	37.2483
714.987	35.6437
717.88	52.2108
720.773	26.9528
723.665	14.1447
726.558	23.6923
729.451	13.7715
732.343	57.0688
735.236	42.9109
738.129	103.415
741.021	169.387
743.914	233.393
746.807	381.488
749.699	640.24
752.592	1083.49
755.485	1753.45
758.378	2675.75
761.27	3866.71
764.163	4806.02
767.056	4873.27
769.948	4374.32
772.841	3883.11
775.734	3804.51
778.626	4306.3
781.519	5377.11
784.412	6627.49
787.305	7396.35
790.197	7908.19
793.09	9128.1
795.983	12171.8
798.875	17076.4
801.768	25315.5
804.661	33562.9
807.553	31185
810.446	24763
813.339	20957.6
816.232	15523.4
819.124	9451.78
822.017	5672.72
824.91	3715.18
827.802	2717.06
830.695	2145.1
833.588	1661.68
836.481	1329.82
839.373	1049.1
842.266	842.025
845.159	729.614
848.051	586.54
850.944	456.701
853.837	326.648
856.729	237.758
859.622	109.519
862.515	60.988
865.408	5.73914
868.3	18.2082
871.193	21.6367
874.086	37.3315
876.978	33.3192
879.871	28.8513
882.764	13.6071
885.656	14.6226
888.549	20.1469
891.442	36.1686
894.335	16.9166
897.227	11.4689
900.12	45.4299
903.013	19.5141
905.905	16.7856
908.798	3.67004
911.691	34.9093
914.583	57.2076
917.476	73.4324
920.369	88.3556
923.261	63.4531
926.154	66.0487
929.047	92.1977
931.94	84.1573
934.832	86.418
937.725	95.1934
940.618	111.143
943.51	125.018
946.403	122.673
949.296	142.239
952.188	134.942
955.081	140.297
957.974	153.921
960.867	147.059
963.759	140.896
966.652	164.394
969.545	170.409
972.437	174.3
975.33	199.76
978.223	213.071
981.115	226.525
984.008	215.938
986.901	256.99
989.794	232.454
992.686	257.732
995.579	281.575
998.472	291.245
1001.36	304.256
1004.26	322.36
1007.15	332.848
1010.04	344.329
1012.93	358.877
1015.83	395.41
1018.72	392.771
1021.61	418.082
1024.51	428.075
1027.4	455.458
1030.29	450.39
1033.18	444.743
1036.08	484.138
1038.97	504.979
1041.86	525.751
1044.76	550.588
1047.65	554.91
1050.54	604.723
1053.43	588.959
1056.33	574.708
1059.22	567.158
1062.11	513.221
1065	467.043
1067.9	461.792
1070.79	399.501
1073.68	345.831
1076.58	264.664
1079.47	236.598
1082.36	185.124
1085.25	104.959
1088.14	69.895
1091.04	49.1585
1093.93	39.6265
1096.82	42.2485
1099.72	71.0371
1102.61	80.9561
1105.5	81.7842
1108.39	74.5449
1111.29	55.4658
1114.18	20.27
1117.07	42.375
1119.96	106.941
1122.86	119.241
1125.75	235.485
1128.64	230.771
1131.54	405.711
1134.43	423.839
1137.32	565.182
1140.21	701.054
1143.11	893.915
1146	1037.42
1148.89	1297.13
1151.79	1552.99
1154.68	1808.47
1157.57	1949.35
1160.46	2333.65
1163.36	2514.83
1166.25	2960.05
1169.14	3066.11
1172.03	3625.43
1174.93	3896.81
1177.82	4140.95
1180.71	4506.07
1183.6	4927.56
1186.5	5201.31
1189.39	5379.34
1192.28	5622.47
1195.17	5841.26
1198.07	5899.33
1200.96	5868.11
1203.85	5403.57
1206.75	4833.15
1209.64	4267.93
1212.53	3495.24
1215.42	2684.28
1218.32	1931.73
1221.21	1302.78
1224.1	671.436
1226.99	203.152
1229.89	37.0195
1232.78	8.64453
