Measurement: Raman, 532 nm, unoriented, Raman Data Processed
Mineral: Mimetite
Rruff sample: R070309
Ideal chemistry: Pb^2+^_5_(As^5+^O_4_)_3_Cl
Locality: Vrancice, Czechoslovakia
Source: Michael Scott
Description: Creamy white massive associated with white calcite. Crystal structure analysis demonstrated full occupancy by Pb with no ordering of Ca.
Raman shift (cm-1)	intensity
139.055	0
142.43	141.033
145.805	392.975
149.18	637.505
152.554	1066.16
155.929	1520.21
159.304	1802
162.679	2079.74
166.054	2371.14
169.429	2844.34
172.803	3100.12
176.178	3199.14
179.553	3019.94
182.928	2677.05
186.303	2301.39
189.678	2000.65
193.052	1811.48
196.427	1548.64
199.802	1280.26
203.177	1107.59
206.552	933.095
209.926	911.987
213.301	697.574
216.676	556.117
220.051	430.509
223.426	284.815
226.8	289.006
230.175	113.217
233.55	82.1641
236.925	23.2534
240.3	21.8721
243.675	23.4927
247.049	0.480469
250.424	80.9546
253.799	82.811
257.174	143.178
260.549	148.552
263.923	42.3384
267.298	9.00537
270.673	128.956
274.048	391.172
277.423	758.966
280.798	1403.41
284.173	2220.87
287.547	3264.02
290.922	4556.45
294.297	5581.69
297.672	6592.18
301.046	7837.27
304.421	9685.77
307.796	12419
311.171	15936.4
314.546	19276.7
317.921	21539.2
321.295	21641.6
324.67	19320.2
328.045	16029.2
331.42	13133.2
334.795	10967.1
338.17	9577.04
341.544	8910.49
344.919	8773.2
348.294	9166.42
351.669	9631.66
355.044	9628.51
358.418	8728.41
361.793	7569.53
365.168	6375.97
368.543	5066.06
371.918	3861.3
375.293	2848.88
378.667	2020.14
382.042	1245.34
385.417	649.713
388.792	296.676
392.167	11.0352
395.541	100.342
398.916	22.3467
402.291	54.5029
405.666	210.516
409.041	386.154
412.416	662.674
415.79	814.256
419.165	956.61
422.54	836.852
425.915	701.766
429.29	549.726
432.664	311.944
436.039	197.172
439.414	29.9936
442.789	9.96484
446.164	63.6148
449.538	31.8496
452.913	40.8262
456.288	40.4497
459.663	102.039
463.038	32.4477
466.413	26.0757
469.787	69.062
473.162	39.8726
476.537	97.2349
479.912	169.389
483.287	202.803
486.661	240.735
490.036	300.109
493.411	313.368
496.786	377.511
500.161	324.873
503.536	388.081
506.911	405.437
510.285	369.22
513.66	365.485
517.035	325.941
520.41	314.566
523.784	213.985
527.159	215.918
530.534	204.2
533.909	203.08
537.284	195.97
540.659	230.701
544.033	177.547
547.408	193.325
550.783	162.002
554.158	118.587
557.533	184.181
560.908	166.723
564.282	155.285
567.657	122.792
571.032	146.262
574.407	102.324
577.782	148.037
581.156	108.267
584.531	110.208
587.906	91.6454
591.281	98.0715
594.656	129.043
598.031	72.6792
601.405	137.98
604.78	140.014
608.155	132.89
611.53	73.0365
614.905	109.046
618.279	81.3416
621.654	82.0018
625.029	129.385
628.404	124.533
631.779	124.565
635.154	107.315
638.528	138.014
641.903	131.439
645.278	57.9393
648.653	67.4713
652.028	133.08
655.403	123.742
658.777	130.921
662.152	130.131
665.527	116.238
668.902	60.2978
672.277	59.902
675.651	79.7588
679.026	55.3458
682.401	66.144
685.776	56.0736
689.151	40.3424
692.525	75.3226
695.9	49.886
699.275	57.4868
702.65	74.2758
706.025	54.9148
709.399	62.1948
712.774	84.5028
716.149	286.907
719.524	663.126
722.899	917.544
726.274	870.61
729.648	710.092
733.023	441.979
736.398	269.394
739.773	89.6826
743.148	130.594
746.523	399.475
749.897	944.975
753.272	1669.75
756.647	2635.5
760.022	3682.41
763.397	4852.71
766.771	6000.78
770.146	7078.07
773.521	8128
776.896	9729.45
780.271	11640.9
783.646	13908.2
787.02	16850.9
790.395	20524.7
793.77	25338.3
797.145	30782.1
800.52	37240.4
803.894	43458.3
807.269	49380.9
810.644	54716.8
814.019	57706.2
817.394	58778.6
820.769	59017.3
824.143	57396.2
827.518	53061
830.893	45698
834.268	36817.8
837.643	27784.9
841.018	20435.2
844.392	14834.4
847.767	10635.1
851.142	7568.85
854.517	5257.26
857.891	3593.61
861.266	2313.23
864.641	1478.64
868.016	784.098
871.391	416.123
874.766	81.7783
878.14	-0.704537
881.515	19.7354
884.89	39.7891
888.265	3.69538
891.64	22.1303
895.015	28.4681
898.389	10.5622
901.764	38.3343
905.139	41.0859
908.514	129.338
911.889	234.497
915.264	385.208
918.638	443.982
922.013	534.318
925.388	631.424
928.763	660.919
932.138	732.659
935.512	809.806
938.887	881.45
942.262	939.04
945.637	904.382
949.012	914.425
952.386	811.809
955.761	873.931
959.136	751.995
962.511	753.91
965.886	622.379
969.261	584.324
972.635	568.854
976.01	576.017
979.385	528.871
982.76	520.802
986.135	493.812
989.51	486.3
992.884	457.91
996.259	381.041
999.634	302.435
1003.01	291.152
1006.38	247.411
1009.76	249.269
1013.13	245.463
1016.51	234.248
1019.88	239.17
1023.26	160.857
1026.63	113.636
1030.01	105.21
1033.38	105.897
1036.76	153.785
1040.13	96.1982
1043.51	135.037
1046.88	75.9688
1050.26	31.5088
1053.63	29.1738
1057.01	5.63574
1060.38	92.1055
1063.76	64.8301
1067.13	1.5625
1070.51	77.6348
1073.88	15.5049
1077.26	13.1934
1080.63	95.1045
1084	57.6387
1087.38	23.6035
1090.75	30.5156
1094.13	16.7988
1097.5	79.4756
1100.88	3.02637
1104.25	38.7412
1107.63	20.3418
1111	42.5615
1114.38	13.8398
1117.75	24.0752
1121.13	18.5645
1124.5	59.0547
1127.88	30.6797
1131.25	10.9268
1134.63	11.082
1138	36.1748
1141.38	42.5996
1144.75	11.3193
1148.13	20.8916
1151.5	35.8818
1154.88	58.5879
1158.25	2.26953
1161.62	82.0596
1165	13.417
1168.38	48.3281
1171.75	18.7637
1175.12	44.3457
1178.5	66.6074
1181.87	32.6797
1185.25	89
1188.62	19.3672
1192	1.53516
1195.37	78.2432
1198.75	11.6631
1202.12	81.4981
1205.5	95.9404
1208.87	59.9707
1212.25	80.2754
1215.62	62.6963
1219	44.6895
1222.37	54.6172
1225.75	1.14941
1229.12	17.0977
1232.5	71.2637
1235.87	102.716
1239.25	3.57324
1242.62	44.8691
1246	40.4346
1249.37	21.1611
1252.74	67.7119
1256.12	63.8359
1259.49	34.9082
1262.87	57.9434
1266.24	49.2695
1269.62	29.6357
1272.99	136.419
1276.37	67.0752
1279.74	94.3643
1283.12	116.156
1286.49	117.387
1289.87	104.459
1293.24	11.8809
1296.62	106.91
1299.99	22.957
1303.37	51.542
