Measurement: Raman, 785 nm, unoriented, Raman Data Processed
Mineral: Mimetite
Rruff sample: R070309
Ideal chemistry: Pb^2+^_5_(As^5+^O_4_)_3_Cl
Locality: Vrancice, Czechoslovakia
Source: Michael Scott
Description: Creamy white massive associated with white calcite. Crystal structure analysis demonstrated full occupancy by Pb with no ordering of Ca.
Raman shift (cm-1)	intensity
145.607	0
148.5	86.4526
151.393	182.299
154.286	182.083
157.178	132.196
160.071	224.279
162.964	335.218
165.856	503.56
168.749	654.55
171.642	715.155
174.534	768.903
177.427	760.439
180.32	714.223
183.212	657.139
186.105	559.964
188.998	478.588
191.891	413.424
194.783	363.291
197.676	292.402
200.569	247.141
203.461	252.769
206.354	184.916
209.247	155.596
212.139	107.663
215.032	79.3629
217.925	51.8772
220.818	73.4642
223.71	51.4845
226.603	39.4362
229.496	11.0204
232.388	9.0636
235.281	13.954
238.174	6.63281
241.066	10.8273
243.959	32.3387
246.852	9.51062
249.745	15.4745
252.637	22.0509
255.53	15.2926
258.423	13.3954
261.315	47.5234
264.208	28.7656
267.101	1.25244
269.993	32.0007
272.886	67.147
275.779	151.602
278.672	247.379
281.564	373.829
284.457	557.596
287.35	772.77
290.242	1019.58
293.135	1246.18
296.028	1430.54
298.921	1610.36
301.813	1770.87
304.706	2081.81
307.599	2518.99
310.491	3013.44
313.384	3621.21
316.277	4097.29
319.169	4327.57
322.062	4249.82
324.955	3846.94
327.847	3290.99
330.74	2777.43
333.633	2362.49
336.526	2078.53
339.418	1909.51
342.311	1767.34
345.204	1671.85
348.096	1720.32
350.989	1803.75
353.882	1830.06
356.774	1840.67
359.667	1758.82
362.56	1641.31
365.452	1432.57
368.345	1225.39
371.238	1020.31
374.131	824.638
377.023	648.736
379.916	447.915
382.809	298.356
385.701	196.437
388.594	73.0715
391.487	55.2957
394.38	21.2964
397.272	2.8689
400.165	5.59668
403.058	9.32129
405.95	23.562
408.843	41.6824
411.736	64.9475
414.628	87.2302
417.521	115.541
420.414	100.066
423.307	100.221
426.199	32.6466
429.092	30.9891
431.985	33.5312
434.877	13.3024
437.77	22.7318
440.663	3.94897
443.555	10.3988
446.448	6.06165
449.341	18.3926
452.234	28.4254
455.126	0.503784
458.019	13.6845
460.912	26.0792
463.804	8.49231
466.697	5.10022
469.59	22.8849
472.483	23.8385
475.375	49.6825
478.268	18.9861
481.161	42.6248
484.053	23.8294
486.946	72.8328
489.839	62.9292
492.731	65.3688
495.624	68.8207
498.517	103.387
501.409	99.9033
504.302	89.0623
507.195	103.691
510.088	93.1849
512.98	121.548
515.873	91.3945
518.766	104.851
521.658	117.544
524.551	61.1333
527.444	77.4544
530.337	58.8665
533.229	67.3948
536.122	95.0023
539.015	78.3922
541.907	70.1725
544.8	68.7035
547.693	59.0935
550.585	87.2333
553.478	41.6438
556.371	83.6714
559.263	95.1733
562.156	95.2441
565.049	89.4447
567.942	60.8684
570.834	82.891
573.727	65.1561
576.62	45.2338
579.512	83.5704
582.405	57.4314
585.298	54.2452
588.19	80.5859
591.083	59.4103
593.976	65.0417
596.869	40.0991
599.761	48.4192
602.654	49.4435
605.547	51.6482
608.439	40.6703
611.332	52.5035
614.225	72.0057
617.117	26.9104
620.01	45.7378
622.903	47.756
625.795	45.5306
628.688	37.5398
631.581	41.877
634.474	55.2395
637.366	57.1025
640.259	74.6061
643.152	51.1943
646.044	84.9598
648.937	73.8049
651.83	50.3481
654.722	88.1084
657.615	67.7246
660.508	73.9141
663.401	77.141
666.293	48.1655
669.186	62.1193
672.079	49.0181
674.971	24.507
677.864	28.1394
680.757	34.3905
683.649	1.57044
686.542	15.1565
689.435	5.18335
692.328	10.3155
695.22	20.0671
698.113	8.10535
701.006	10.3129
703.898	14.7025
706.791	2.526
709.684	13.7957
712.577	35.6356
715.469	83.4576
718.362	102.682
721.255	137.196
724.147	144.061
727.04	135.197
729.933	74.3763
732.825	49.3768
735.718	25.2467
738.611	39.2203
741.504	15.1852
744.396	24.1526
747.289	27.3445
750.182	33.6792
753.074	81.325
755.967	130.589
758.86	260.959
761.752	350.902
764.645	438.567
767.538	559.775
770.431	600.36
773.323	717.728
776.216	762.02
779.109	882.797
782.001	1031.06
784.894	1199.85
787.787	1397.45
790.679	1736.04
793.572	2054.09
796.465	2644.25
799.357	3316.95
802.25	4181.2
805.143	5133.27
808.036	6092.89
810.928	6947.17
813.821	7304.9
816.714	7058.88
819.606	6793.55
822.499	6585.48
825.392	6350.03
828.284	5831.52
831.177	5153.69
834.07	4375.55
836.963	3508.42
839.855	2725.55
842.748	2088.58
845.641	1636.49
848.533	1265.24
851.426	938.148
854.319	715.752
857.212	546.901
860.104	399.338
862.997	290.418
865.89	205.484
868.782	156.3
871.675	121.26
874.568	45.5648
877.46	31.9093
880.353	26.1797
883.246	12.4141
886.139	7.07922
889.031	2.96521
891.924	22.6457
894.817	37.9597
897.709	18.3525
900.602	24.5026
903.495	3.9978
906.388	17.6802
909.28	2.3429
912.173	24.594
915.066	27.2692
917.958	25.8628
920.851	47.08
923.744	37.5657
926.636	32.7112
929.529	57.5225
932.422	53.5585
935.314	67.11
938.207	64.6137
941.1	65.6713
943.993	63.2483
946.885	74.3825
949.778	68.1746
952.671	71.2056
955.563	68.3242
958.456	37.045
961.349	61.2831
964.241	45.9481
967.134	37.3607
970.027	30.9749
972.92	34.8567
975.812	17.8123
978.705	6.79633
981.598	23.9776
984.49	35.4279
987.383	3.58203
990.276	17.7733
993.168	27.2831
996.061	6.46417
998.954	9.74207
1001.85	0.40741
1004.74	17.7101
1007.63	2.51642
1010.52	23.3043
1013.42	2.31732
1016.31	13.3834
1019.2	10.5701
1022.1	13.0804
1024.99	27.2676
1027.88	12.3451
1030.77	40.4824
1033.67	28.0223
1036.56	38.7385
1039.45	12.4434
1042.34	12.6427
1045.24	4.999
1048.13	12.1581
1051.02	5.48202
1053.91	2.4082
1056.81	5.45842
1059.7	11.6181
1062.59	9.2621
1065.49	0.0666412
1068.38	7.79931
1071.27	13.4207
1074.16	7.58901
1077.06	-0.274703
1079.95	18.7745
1082.84	10.9964
1085.73	17.1263
1088.63	11.4759
1091.52	8.95531
1094.41	-3.01163
1097.31	0.463027
1100.2	4.66576
1103.09	11.7747
1105.98	9.25817
1108.88	8.8261
1111.77	9.34013
1114.66	13.4612
1117.56	9.33842
1120.45	5.26547
1123.34	7.69841
1126.23	13.8359
1129.12	-0.319686
1132.02	14.5461
1134.91	-2.45804
1137.8	13.8789
1140.7	9.4065
1143.59	10.9582
1146.48	9.10414
1149.37	6.33012
1152.27	3.71183
1155.16	-8.56294
1158.05	-1.59473
1160.94	7.55982
1163.84	11.0698
1166.73	10.9843
1169.62	-1.11744
1172.52	1.78452
1175.41	8.47947
1178.3	7.07473
1181.19	-3.23827
1184.09	-6.54249
1186.98	-6.2803
1189.87	4.82658
1192.77	-6.4285
1195.66	4.84837
1198.55	3.10994
1201.44	-7.88791
1204.34	11.0554
1207.23	0.362445
1210.12	3.47385
1213.01	-6.05587
1215.91	0
