Measurement: Raman, 780 nm, unoriented, Raman Data Processed
Mineral: Mimetite-M
Rruff sample: R070146
Ideal chemistry: Pb_5_(AsO_4_)_3_Cl
Locality: Treue Freundschaft Mine, Johanngeorgenstadt, Erzgebirge, Saxony, Germany
Source: Michael Scott
Description: Yellowish green crystals coated with white feathery hydroxylapatite.
Raman shift (cm-1)	intensity
111.621	0
114.514	16.4678
117.407	33.7146
120.3	59.4338
123.192	49.6309
126.085	22.0969
128.978	8.58618
131.87	2.078
134.763	22.5708
137.656	68.9393
140.549	125.776
143.441	187.455
146.334	234.255
149.227	276.525
152.119	304.515
155.012	327.279
157.905	353.589
160.798	388.691
163.69	437.822
166.583	529.105
169.476	591.076
172.368	654.339
175.261	697.434
178.154	702.389
181.046	661.483
183.939	579.832
186.832	485.564
189.725	392.418
192.617	303.627
195.51	230.615
198.403	156.733
201.295	126.603
204.188	74.5352
207.081	55.5761
209.973	36.0043
212.866	25.677
215.759	4.78552
218.651	7.09412
221.544	24.6797
224.437	60.884
227.33	76.6593
230.222	115.067
233.115	122.398
236.008	143.624
238.9	175.663
241.793	194.055
244.686	234.667
247.578	247.991
250.471	266.432
253.364	268.832
256.257	269.331
259.149	253.877
262.042	228.051
264.935	183.269
267.827	126.637
270.72	66.7905
273.613	12.031
276.505	39.8545
279.398	53.8359
282.291	68.8579
285.184	44.8489
288.076	7.69434
290.969	81.1165
293.862	196.477
296.755	350.231
299.647	530.904
302.54	733.227
305.433	905.667
308.325	1039.34
311.218	1109.92
314.111	1090.94
317.003	932.849
319.896	732.937
322.789	608.214
325.682	561.216
328.574	603.75
331.467	667.777
334.36	707.506
337.252	734.956
340.145	693.199
343.038	587.926
345.93	464.805
348.823	354.578
351.716	242.849
354.608	194.657
357.501	188.117
360.394	179.704
363.287	218.476
366.179	297.452
369.072	376.271
371.965	444.592
374.857	409.658
377.75	376.527
380.643	370.664
383.536	409.954
386.428	451.363
389.321	521.948
392.214	567.892
395.106	584.226
397.999	649.491
400.892	669.249
403.784	713.616
406.677	770.971
409.57	801.772
412.462	823.279
415.355	847.905
418.248	895.525
421.141	941.68
424.033	996.388
426.926	950.21
429.819	917.329
432.711	871.696
435.604	812.707
438.497	746.764
441.389	661.808
444.282	581.039
447.175	469.857
450.068	388.988
452.96	306.534
455.853	203.565
458.746	151.986
461.639	104.59
464.531	60.7888
467.424	24.5339
470.317	4.04517
473.209	28.0327
476.102	23.1916
478.995	27.7402
481.887	26.4546
484.78	24.9595
487.673	27.1914
490.565	17.9204
493.458	10.5177
496.351	9.14648
499.244	5.71887
502.136	17.6759
505.029	32.4625
507.922	58.5005
510.814	55.0786
513.707	76.4796
516.6	95.7041
519.492	116.097
522.385	143.05
525.278	176.495
528.171	204.114
531.063	230.28
533.956	255.985
536.849	289.531
539.741	312.917
542.634	332.705
545.527	354.624
548.419	381.797
551.312	397.462
554.205	418.692
557.098	427.359
559.99	448.471
562.883	465.214
565.776	470.139
568.668	462.274
571.561	475.742
574.454	469.315
577.346	449.332
580.239	450.145
583.132	436.721
586.025	403.142
588.917	396.307
591.81	368.588
594.703	349.559
597.596	329.992
600.488	302.937
603.381	292.695
606.274	264.964
609.166	244.005
612.059	210.557
614.952	197.696
617.844	170.974
620.737	149.391
623.63	117.583
626.523	107.385
629.415	82.5717
632.308	69.6498
635.201	45.9922
638.093	40.0267
640.986	32.807
643.879	25.0768
646.771	11.1033
649.664	10.5917
652.557	3.7207
655.449	11.8336
658.342	14.1028
661.235	8.19275
664.128	2.47644
667.02	9.25354
669.913	3.96619
672.806	1.00916
675.698	9.82935
678.591	11.8569
681.484	15.183
684.376	18.7474
687.269	26.9133
690.162	38.5242
693.055	34.2701
695.947	33.0082
698.84	38.4727
701.733	41.4924
704.625	39.8661
707.518	38.2867
710.411	33.7449
713.303	28.9772
716.196	24.7111
719.089	13.6368
721.982	4.84338
724.874	0.74646
727.767	1.89917
730.66	3.56299
733.552	4.71558
736.445	6.05615
739.338	0.135742
742.231	21.3776
745.123	18.8618
748.016	52.1165
750.909	111.309
753.801	162.737
756.694	246.239
759.587	358.079
762.479	496.589
765.372	608.226
768.265	623.51
771.158	553.519
774.05	522.519
776.943	517.633
779.836	598.157
782.728	755.109
785.621	932.04
788.514	1102.23
791.406	1353.11
794.299	1870.45
797.192	2602.83
800.085	3581.8
802.977	5018.43
805.87	6559.16
808.763	7105.92
811.655	6377.82
814.548	5105.91
817.441	3414.38
820.333	1960.37
823.226	1119.66
826.119	679.157
829.012	424.715
831.904	275.803
834.797	183.36
837.69	108.836
840.582	69.285
843.475	51.8933
846.368	29.4261
849.26	12.7991
852.153	0.099426
855.046	6.36737
857.939	7.90631
860.831	5.88385
863.724	4.90546
866.617	3.61121
869.509	0.802307
872.402	4.15002
875.295	13.9111
878.188	13.2637
881.08	25.0469
883.973	23.0858
886.866	28.9716
889.758	14.8257
892.651	6.08807
895.544	10.89
898.436	4.58343
901.329	5.0426
904.222	2.42957
907.115	14.5155
910.007	61.8163
912.9	57.7709
915.793	90.0428
918.685	133.087
921.578	137.855
924.471	80.011
927.364	26.6016
930.256	9.21155
933.149	1.87677
936.042	2.05518
938.934	0.896851
941.827	9.15167
944.72	12.2706
947.612	13.3239
950.505	21.9172
953.398	19.8306
956.29	30.5508
959.183	21.9145
962.076	17.174
964.969	23.747
967.861	25.101
970.754	31.7205
973.647	30.2889
976.539	38.3336
979.432	39.77
982.325	50.694
985.217	50.0237
988.11	56.8879
991.003	54.6235
993.896	53.0212
996.788	52.7679
999.681	48.4466
1002.57	55.1328
1005.47	53.2775
1008.36	55.7748
1011.25	48.9337
1014.14	56.2447
1017.04	65.2759
1019.93	60.3066
1022.82	61.6984
1025.71	54.5463
1028.61	53.9076
1031.5	50.6475
1034.39	55.3924
1037.29	49.632
1040.18	60.8721
1043.07	47.5052
1045.96	48.3569
1048.86	38.5574
1051.75	33.6802
1054.64	35.8133
1057.54	30.9861
1060.43	23.5352
1063.32	20.8172
1066.21	7.44415
1069.11	2.08691
1072	1.52173
1074.89	4.79572
1077.78	5.24481
1080.68	2.53857
1083.57	13.1829
1086.46	9.08984
1089.36	8.11633
1092.25	21.996
1095.14	17.8086
1098.03	32.8617
1100.93	33.3606
1103.82	25.8059
1106.71	23.9332
1109.6	27.462
1112.5	29.6044
1115.39	16.6918
1118.28	8.85608
1121.17	13.5422
1124.07	7.96851
1126.96	1.44373
1129.85	1.35986
