Measurement: Raman, 532 nm, unoriented, Raman Data Processed
Mineral: Mimetite-M
Rruff sample: R070146
Ideal chemistry: Pb_5_(AsO_4_)_3_Cl
Locality: Treue Freundschaft Mine, Johanngeorgenstadt, Erzgebirge, Saxony, Germany
Source: Michael Scott
Description: Yellowish green crystals coated with white feathery hydroxylapatite.
Raman shift (cm-1)	intensity
108.846	0
112.221	26.2372
115.596	206.492
118.971	254.908
122.345	487.094
125.72	826.369
129.095	1121.25
132.47	1336.76
135.845	1401.85
139.22	1606.44
142.594	1866.94
145.969	2117.95
149.344	2237.23
152.719	2261.53
156.094	2263.14
159.468	2263.15
162.843	2296.63
166.218	2358.25
169.593	2402.93
172.968	2445.59
176.343	2441.24
179.717	2364.53
183.092	2182.05
186.467	1967.31
189.842	1745.16
193.217	1503.49
196.591	1233.74
199.966	1022.23
203.341	824.278
206.716	659.396
210.091	536.302
213.465	437.698
216.84	371.672
220.215	316.124
223.59	246.041
226.965	180
230.339	125.958
233.714	92.9993
237.089	73.348
240.464	35.3287
243.839	21.1804
247.214	1.67053
250.588	7.9071
253.963	26.1249
257.338	34.1703
260.713	31.9283
264.088	36.551
267.462	42.5883
270.837	45.0609
274.212	41.8478
277.587	30.2648
280.962	21.0398
284.337	82.0214
287.711	225.802
291.086	414.476
294.461	708.674
297.836	1122.14
301.211	1658.05
304.586	2212.44
307.96	2558.82
311.335	2762.18
314.71	2695.64
318.085	2207.53
321.46	1841.16
324.834	1711.62
328.209	1791.46
331.584	1947.15
334.959	2071.96
338.334	2069.68
341.709	1871.1
345.083	1469.88
348.458	1036.77
351.833	695.477
355.208	511.366
358.583	462.887
361.957	555.876
365.332	768.895
368.707	1061.25
372.082	1185.57
375.457	883.796
378.832	518.861
382.206	315.442
385.581	261.123
388.956	271.833
392.331	279.469
395.705	305.449
399.08	381.051
402.455	499.124
405.83	655.289
409.205	773.678
412.58	874.148
415.954	973.643
419.329	1080.36
422.704	1115.42
426.079	903.316
429.454	596.045
432.829	359.287
436.203	202.456
439.578	128.138
442.953	58.9398
446.328	9.16138
449.703	22.6937
453.077	28.6513
456.452	33.04
459.827	25.6494
463.202	28.2365
466.577	12.7413
469.952	5.71484
473.326	6.24414
476.701	15.0848
480.076	25.1791
483.451	35.5889
486.826	50.3328
490.2	59.25
493.575	64.0769
496.95	73.2842
500.325	79.8185
503.7	87.8958
507.075	84.6598
510.449	82.998
513.824	78.543
517.199	61.771
520.574	50.6514
523.949	37.4583
527.323	35.8342
530.698	24.4688
534.073	22.3608
537.448	33.8873
540.823	66.4761
544.197	32.2222
547.572	40.4605
550.947	53.1335
554.322	54.5486
557.697	44.9373
561.072	33.6758
564.446	21.9203
567.821	35.074
571.196	23.6774
574.571	32.8224
577.946	33.3278
581.321	34.0329
584.695	47.1313
588.07	59.0088
591.445	56.4148
594.82	71.0626
598.194	76.0491
601.569	100.07
604.944	103.452
608.319	110.205
611.694	108.365
615.069	116.418
618.443	96.6926
621.818	86.9824
625.193	85.1685
628.568	79.6688
631.943	81.4388
635.317	74.2078
638.692	87.2732
642.067	76.4432
645.442	80.2237
648.817	87.0864
652.192	84.3025
655.566	91.0182
658.941	91.504
662.316	92.6961
665.691	85.4034
669.066	78.301
672.441	75.2954
675.815	56.1775
679.19	57.2794
682.565	42.7306
685.94	35.5328
689.315	21.0337
692.689	12.9276
696.064	7.89093
699.439	0.653748
702.814	7.81396
706.189	13.5045
709.563	17.8845
712.938	25.5916
716.313	21.9177
719.688	23.4325
723.063	19.2996
726.438	13.0564
729.812	11.9899
733.187	0.581299
736.562	18.663
739.937	74.5826
743.312	134.503
746.687	248.138
750.061	464.731
753.436	849.485
756.811	1420.96
760.186	2234.15
763.561	3193.31
766.935	3651.34
770.31	3247.22
773.685	2766.28
777.06	2630.86
780.435	2983.37
783.809	3750.18
787.184	4486.03
790.559	5065.9
793.934	6673.03
797.309	10021.9
800.683	15867.1
804.058	25066
807.433	32571.4
810.808	29896.3
814.183	23439.1
817.558	14804.3
820.932	7868.15
824.307	4531.93
827.682	2935.39
831.057	2056.93
834.432	1486.94
837.807	1135.36
841.181	875.967
844.556	679.893
847.931	534.036
851.306	401.893
854.681	277.712
858.055	179.917
861.43	91.0691
864.805	43.9495
868.18	5.08997
871.555	19.9647
874.929	25.5764
878.304	20.2078
881.679	4.52808
885.054	7.85413
888.429	4.52759
891.804	14.8561
895.178	28.468
898.553	23.3539
901.928	10.1031
905.303	0.165771
908.678	55.3983
912.053	178.743
915.427	354.568
918.802	602.526
922.177	634.052
925.552	306.689
928.927	115.08
932.301	60.1244
935.676	54.8608
939.051	57.207
942.426	82.1627
945.801	94.5261
949.176	107.058
952.55	110.091
955.925	109.536
959.3	95.7709
962.675	94.7076
966.05	94.6437
969.424	122.292
972.799	130.193
976.174	152.934
979.549	183.322
982.924	205.027
986.298	192.752
989.673	193.158
993.048	170.16
996.423	164.582
999.798	143.608
1003.17	132.467
1006.55	123.084
1009.92	111.053
1013.3	95.5199
1016.67	93.296
1020.05	70.2307
1023.42	61.9158
1026.8	59.785
1030.17	48.7794
1033.55	35.9009
1036.92	36.085
1040.3	30.7312
1043.67	28.9965
1047.05	20.7148
1050.42	7.82745
1053.8	7.53241
1057.17	5.19568
1060.54	1.48224
1063.92	1.12439
1067.29	4.94812
1070.67	6.10962
1074.04	4.86548
1077.42	7.94446
1080.79	1.14954
1084.17	8.58661
1087.54	4.98846
1090.92	5.91223
1094.29	0.992493
1097.67	4.19263
1101.04	4.90704
1104.42	4.98712
1107.79	6.96356
1111.17	6.10693
1114.54	7.95752
1117.92	9.14783
1121.29	9.66357
1124.67	11.6833
1128.04	11.7649
1131.42	14.586
1134.79	15.6298
1138.16	1.05603
1141.54	5.48877
1144.91	9.40558
1148.29	7.74359
1151.66	5.24219
1155.04	1.29321
1158.41	6.53772
1161.79	3.14734
1165.16	4.82434
1168.54	16.4176
1171.91	12.454
1175.29	15.5264
1178.66	7.59521
1182.04	15.4205
1185.41	12.8088
1188.79	11.9667
1192.16	10.9294
1195.54	14.5297
1198.91	12.1709
1202.29	18.5475
1205.66	20.2906
1209.04	12.2439
1212.41	14.8817
1215.79	20.939
1219.16	10.9923
1222.54	19.5848
1225.91	9.55981
1229.29	12.2584
1232.66	6.07898
1236.04	3.00501
1239.41	3.79541
1242.79	6.25073
1246.16	8.00391
1249.53	5.77527
1252.91	8.08252
1256.28	4.95276
1259.66	4.18042
1263.03	0.99884
1266.41	1.50946
1269.78	7.62952
1273.16	3.98651
1276.53	10.9753
1279.91	1.789
1283.28	2.58948
1286.66	1.56451
1290.03	1.71655
1293.41	2.06702
1296.78	2.95837
1300.16	2.92389
1303.53	0
