Measurement: Raman, 532 nm, unoriented, Raman Data Processed
Mineral: Minasgeraisite-(Y)
Rruff sample: R120134
Ideal chemistry: CaY_2_Be_2_Si_2_O_10_
Locality: Jaguara√ßu, Minas Gerais, Brazil
Source: Luiz Menezes
Description: Purple crystals on muscovite, associated with milarite R120135
Raman shift (cm-1)	intensity
200.249	0
203.141	2.22534
206.034	8.83569
208.927	15.4115
211.819	17.9341
214.712	18.8358
217.605	13.4719
220.497	8.35681
223.39	10.1394
226.283	20.803
229.175	31.9802
232.068	39.4124
234.961	44.6399
237.854	44.5338
240.746	57.3677
243.639	67.505
246.532	78.1438
249.424	84.9347
252.317	95.5691
255.21	96.7703
258.103	89.5867
260.995	81.8169
263.888	73.4597
266.781	64.9696
269.673	55.8177
272.566	50.9363
275.459	36.4745
278.351	24.9723
281.244	16.2548
284.137	8.2876
287.029	3.40625
289.922	1.19812
292.815	1.06506
295.708	2.17224
298.6	1.73633
301.493	0.129517
304.386	11.4038
307.278	18.2279
310.171	25.3652
313.064	41.7461
315.957	50.7052
318.849	59.1538
321.742	70.8758
324.635	87.9167
327.527	93.4878
330.42	108.939
333.313	118.787
336.205	125.205
339.098	133.845
341.991	141.005
344.884	138.469
347.776	132.487
350.669	124.206
353.562	116.14
356.454	102.586
359.347	90.875
362.24	88.4583
365.132	85.017
368.025	79.2516
370.918	71.4828
373.81	65.5005
376.703	57.0073
379.596	48.6022
382.489	32.5077
385.381	28.4154
388.274	22.0703
391.167	17.9128
394.059	14.095
396.952	6.71033
399.845	0.705444
402.738	3.64758
405.63	4.15283
408.523	4.81226
411.416	5.46838
414.308	0.732544
417.201	5.50366
420.094	16.0665
422.986	23.9213
425.879	35.5072
428.772	56.2794
431.664	71.9757
434.557	83.9048
437.45	100.822
440.343	121.51
443.235	143.067
446.128	154.441
449.021	168.22
451.913	179.186
454.806	186.396
457.699	192.586
460.591	187.316
463.484	184.185
466.377	164.617
469.27	146.157
472.162	125.821
475.055	114.554
477.948	95.7933
480.84	85.2334
483.733	67.3213
486.626	49.2413
489.519	39.2512
492.411	28.9862
495.304	17.0458
498.197	12.9851
501.089	5.71985
503.982	5.57031
506.875	3.49963
509.767	9.88415
512.66	16.8983
515.553	20.4362
518.446	23.0613
521.338	35.8688
524.231	40.9863
527.124	54.1271
530.016	60.9058
532.909	78.5162
535.802	104.508
538.694	121.009
541.587	144.192
544.48	165.068
547.372	188.336
550.265	222.44
553.158	235.998
556.051	250.445
558.943	256.772
561.836	249.238
564.729	227.227
567.621	192.957
570.514	162.317
573.407	128.177
576.299	91.3587
579.192	56.9877
582.085	32.1391
584.978	13.7974
587.87	1.70294
590.763	9.16211
593.656	15.1995
596.548	10.2851
599.441	3.89697
602.334	21.5797
605.226	51.3337
608.119	84.9343
611.012	115.507
613.905	147.496
616.797	185.038
619.69	213.933
622.583	232.378
625.475	244.76
628.368	251.455
631.261	246.227
634.154	237.176
637.046	226.328
639.939	210.794
642.832	196.057
645.724	187.125
648.617	172.725
651.51	154.096
654.402	139.066
657.295	122.363
660.188	108.986
663.081	97.851
665.973	93.2052
668.866	83.2711
671.759	76.0087
674.651	67.025
677.544	64.1096
680.437	53.9624
683.329	44.7923
686.222	43.714
689.115	40.2035
692.008	34.8854
694.9	28.5725
697.793	22.6867
700.686	19.4548
703.578	14.1367
706.471	14.1932
709.364	11.4479
712.256	10.2462
715.149	9.47784
718.042	7.60077
720.934	11.9703
723.827	13.5646
726.72	8.26123
729.613	9.23541
732.505	7.58545
735.398	8.3877
738.291	5.64178
741.183	2.84943
744.076	2.64105
746.969	2.18695
749.861	4.55145
752.754	2.66602
755.647	1.66852
758.54	3.55719
761.432	1.90332
764.325	1.29773
767.218	0.149963
770.11	1.56775
773.003	0.006165
775.896	1.49262
778.788	6.54462
781.681	5.8941
784.574	6.23071
787.467	11.0129
790.359	10.5409
793.252	19.2049
796.145	15.9174
799.037	18.0972
801.93	17.9004
804.823	17.1527
807.716	18.913
810.608	22.6178
813.501	18.6068
816.394	18.1697
819.286	13.0832
822.179	14.8273
825.072	10.8976
827.964	9.91107
830.857	3.18396
833.75	3.49048
836.643	1.88696
839.535	5.01282
842.428	1.30585
845.321	3.30676
848.213	2.89886
851.106	1.60486
853.999	0.74115
856.891	0.075867
859.784	0.404297
862.677	2.98724
865.569	1.39923
868.462	3.4826
871.355	1.02411
874.248	4.59326
877.14	4.95721
880.033	7.93396
882.926	12.2822
885.818	13.4667
888.711	20.2855
891.604	28.224
894.496	36.2731
897.389	43.242
900.282	56.5604
903.175	64.3483
906.067	70.5038
908.96	82.8944
911.853	88.3486
914.745	88.0462
917.638	93.6434
920.531	89.821
923.423	88.679
926.316	78.7104
929.209	71.6603
932.102	64.4051
934.994	59.2534
937.887	56.3093
940.78	46.2728
943.672	40.642
946.565	39.0783
949.458	32.5504
952.351	26.4774
955.243	21.395
958.136	21.1008
961.029	22.7624
963.921	22.3978
966.814	22.532
969.707	24.1715
972.599	22.7665
975.492	19.958
978.385	19.6072
981.278	20.1359
984.17	21.1512
987.063	21.8517
989.956	18.5017
992.848	18.3972
995.741	19.8114
998.634	15.3156
1001.53	16.466
1004.42	11.4329
1007.31	10.319
1010.21	9.80951
1013.1	10.5904
1015.99	11.2146
1018.88	7.69287
1021.77	5.3056
1024.67	0.991455
1027.56	1.66498
1030.45	0.00293
1033.35	1.93768
1036.24	1.99829
1039.13	3.52277
1042.02	1.64008
1044.92	0.767761
1047.81	2.58813
1050.7	1.79401
1053.6	5.51917
1056.49	5.0827
1059.38	0.220764
1062.27	3.83307
1065.17	1.67248
1068.06	0.091064
1070.95	4.05981
1073.84	0.134277
1076.74	0.554016
1079.63	4.38422
1082.52	4.14502
1085.41	5.05872
1088.31	2.83661
1091.2	3.86725
1094.09	2.66949
1096.99	1.53394
1099.88	1.65515
1102.77	2.27356
1105.66	0.6474
1108.56	0.332825
1111.45	3.23846
1114.34	2.4505
1117.23	2.31293
1120.13	4.99768
1123.02	7.26776
1125.91	3.18762
1128.81	7.29822
1131.7	11.1418
1134.59	7.94513
1137.48	8.98749
1140.38	7.01379
1143.27	11.3645
1146.16	12.2967
1149.05	9.0943
1151.95	9.21289
1154.84	11.0109
1157.73	11.3494
1160.62	8.30743
1163.52	11.0797
1166.41	5.01691
1169.3	4.4754
1172.2	7.41888
1175.09	7.16956
1177.98	8.99939
1180.87	6.81177
1183.77	4.67248
1186.66	4.5473
1189.55	3.33398
1192.44	5.53912
1195.34	3.9353
1198.23	7.07977
1201.12	4.86719
1204.02	4.34021
1206.91	2.57422
1209.8	7.67651
1212.69	7.76593
1215.59	4.71771
1218.48	1.25983
1221.37	4.4585
1224.26	4.16443
1227.16	4.80914
1230.05	1.08978
1232.94	4.70471
1235.84	3.27563
1238.73	0.206482
1241.62	0.387268
1244.51	4.21136
1247.41	2.80572
1250.3	6.14191
1253.19	5.80371
1256.08	4.07037
1258.98	5.4555
1261.87	6.25116
1264.76	6.50195
1267.65	6.79547
1270.55	4.18957
1273.44	3.68243
1276.33	2.87775
1279.23	1.32428
1282.12	2.36707
1285.01	2.14301
1287.9	2.00617
1290.8	2.83496
1293.69	0.804993
1296.58	1.61963
1299.47	0.797668
