Measurement: Raman, 780 nm, unoriented, Raman Data Processed
Mineral: Minasgeraisite-(Y)
Rruff sample: R120134
Ideal chemistry: CaY_2_Be_2_Si_2_O_10_
Locality: Jaguara√ßu, Minas Gerais, Brazil
Source: Luiz Menezes
Description: Purple crystals on muscovite, associated with milarite R120135
Raman shift (cm-1)	intensity
110.966	0
114.341	3.26269
117.716	7.96069
121.091	51.1875
124.466	69.4158
127.84	92.1738
131.215	106.885
134.59	121.01
137.965	147.812
141.34	175.079
144.714	215.242
148.089	253.093
151.464	290.744
154.839	320.255
158.214	330.01
161.589	347.656
164.963	347.371
168.338	353.344
171.713	348.719
175.088	334.097
178.463	319.341
181.838	295.595
185.212	263.877
188.587	210.845
191.962	165.749
195.337	126.339
198.712	87.2251
202.086	65.0698
205.461	55.7976
208.836	37.4832
212.211	9.27954
215.586	2.67749
218.96	11.2847
222.335	11.1707
225.71	7.6792
229.085	17.5366
232.46	33.6321
235.834	46.9062
239.209	59.3997
242.584	85.5464
245.959	121.276
249.334	127.556
252.709	147.192
256.083	156.653
259.458	170.557
262.833	171.417
266.208	177.342
269.583	178.55
272.957	165.731
276.332	154.21
279.707	136.517
283.082	109.101
286.457	89.4485
289.832	79.3474
293.206	57.2339
296.581	48.1958
299.956	37.0107
303.331	17.7285
306.706	23.9805
310.08	11.4119
313.455	5.56763
316.83	5.58814
320.205	3.40503
323.58	8.73389
326.954	5.28345
330.329	4.03735
333.704	15.8328
337.079	38.9038
340.454	29.5625
343.829	31.4458
347.203	19.0735
350.578	0.120117
353.953	0.348633
357.328	7.92358
360.703	16.6384
364.077	29.1243
367.452	58.207
370.827	83.761
374.202	99.4265
377.577	128.306
380.952	160.636
384.326	184.704
387.701	213.762
391.076	231.369
394.451	251.263
397.826	248.12
401.2	255.857
404.575	251.196
407.95	221.882
411.325	201.971
414.7	204.869
418.075	179.32
421.449	174.412
424.824	157.486
428.199	143.973
431.574	150.254
434.949	151.973
438.323	155.004
441.698	169.594
445.073	184.473
448.448	193.241
451.823	205.517
455.197	196.807
458.572	191.474
461.947	168.756
465.322	133.153
468.697	97.4067
472.072	85.9394
475.446	59.7165
478.821	37.8313
482.196	33.9839
485.571	14.4363
488.946	10.2732
492.32	5.55835
495.695	4.12036
499.07	17.4675
502.445	2.51221
505.82	2.53735
509.195	25.8809
512.569	45.5547
515.944	76.8603
519.319	91.8643
522.694	94.8394
526.068	98.9624
529.443	108.413
532.818	118.278
536.193	140.455
539.568	180.639
542.943	213.82
546.317	244.876
549.692	275.872
553.067	301.367
556.442	317.754
559.817	324.244
563.192	298.463
566.566	262.153
569.941	214.343
573.316	156.085
576.691	106.52
580.066	77.0278
583.44	38.8052
586.815	20.2935
590.19	7.4187
593.565	24.4509
596.94	14.8318
600.314	6.85449
603.689	49.0659
607.064	95.3208
610.439	145.068
613.814	191.886
617.188	243.664
620.563	284.433
623.938	327.481
627.313	354.715
630.688	359.818
634.063	374.94
637.437	365.36
640.812	360.263
644.187	341.153
647.562	327.254
650.937	308.201
654.312	275.484
657.686	251.163
661.061	230.636
664.436	220.823
667.811	202.607
671.186	185.286
674.56	166.524
677.935	157.82
681.31	124.907
684.685	116.531
688.06	105.955
691.434	92.8624
694.809	79.066
698.184	71.46
701.559	58.0347
704.934	54.907
708.308	44.2153
711.683	43.8597
715.058	39.2779
718.433	37.4096
721.808	38.2941
725.183	35.0848
728.557	32.4585
731.932	32.7463
735.307	25.2651
738.682	24.7398
742.057	15.955
745.432	14.0262
748.806	11.7009
752.181	1.01099
755.556	0.52417
758.931	5.7511
762.306	5.52063
765.68	1.72241
769.055	3.08032
772.43	4.07532
775.805	0.214233
779.18	0.269043
782.554	0.207642
785.929	1.57458
789.304	11.958
792.679	16.7057
796.054	17.2882
799.428	21.786
802.803	14.7023
806.178	25.7115
809.553	25.6469
812.928	23.8125
816.303	28.0914
819.677	28.4781
823.052	25.4443
826.427	22.3982
829.802	16.6919
833.177	11.7938
836.552	8.02271
839.926	2.56726
843.301	3.50452
846.676	1.50549
850.051	3.53125
853.426	1.90527
856.8	2.88257
860.175	3.91699
863.55	4.26685
866.925	1.84497
870.3	3.12598
873.674	5.47864
877.049	10.2561
880.424	17.627
883.799	28.1583
887.174	36.1779
890.548	47.1068
893.923	56.952
897.298	72.7602
900.673	93.379
904.048	101.15
907.423	112.774
910.797	119.328
914.172	118.881
917.547	121.633
920.922	112.748
924.297	96.6809
927.671	90.6882
931.046	84.4199
934.421	72.3442
937.796	62.6377
941.171	53.7334
944.545	52.7466
947.92	43.1438
951.295	38.5207
954.67	40.9498
958.045	37.7566
961.42	37.9221
964.794	36.677
968.169	41.9139
971.544	35.6506
974.919	32.4557
978.294	33.0631
981.668	43.6365
985.043	29.1788
988.418	34.4194
991.793	33.5215
995.168	29.3093
998.543	27.2549
1001.92	27.7806
1005.29	19.7167
1008.67	18.1228
1012.04	7.39771
1015.42	15.4127
1018.79	6.71094
1022.17	2.39404
1025.54	0.442749
1028.92	5.98572
1032.29	5.55969
1035.67	0.747559
1039.04	4.57288
1042.41	1.94128
1045.79	1.76013
1049.16	0.896057
1052.54	8.14868
1055.91	13.1263
1059.29	12.7786
1062.66	5.71863
1066.04	3.50995
1069.41	0.574097
1072.79	3.47302
1076.16	1.81427
1079.54	4.34418
1082.91	3.59009
1086.29	4.15362
1089.66	2.56177
1093.04	14.3798
1096.41	3.47528
1099.79	3.30353
1103.16	0.060303
1106.54	6.76337
1109.91	10.438
1113.29	6.16815
1116.66	10.7246
1120.04	19.5097
1123.41	17.9377
1126.79	22.1473
1130.16	21.8074
1133.54	22.1206
1136.91	24.4144
1140.29	29.3486
1143.66	26.7341
1147.03	28.8108
1150.41	29.9622
1153.78	33.4684
1157.16	33.3563
1160.53	37.1009
1163.91	36.4448
1167.28	39.1544
1170.66	40.4648
1174.03	39.0248
1177.41	37.5045
1180.78	28.3583
1184.16	25.6984
1187.53	21.5372
1190.91	17.9678
1194.28	12.0481
1197.66	15.6626
1201.03	10.499
1204.41	7.90796
1207.78	0.126953
1211.16	1.02698
1214.53	0.649902
1217.91	3.21338
1221.28	1.9187
1224.65	11.074
1228.03	3.73889
1231.4	16.3596
1234.78	27.255
1238.15	43.794
1241.53	49.0696
1244.9	62.7689
1248.28	63.6993
1251.65	68.5585
1255.03	65.0269
1258.4	64.5068
1261.78	59.3873
1265.15	59.5879
1268.53	51.075
1271.9	46.891
1275.28	28.0726
1278.65	16.073
1282.03	5.7738
