Measurement: Raman, 532 nm, unoriented, Raman Data Processed
Mineral: Minasragrite
Rruff sample: R130365
Ideal chemistry: V^4+^O(SO_4_)5H_2_O
Locality: Minas Ragra Mine, Pasco, Peru
Source: Tom Loomis
Description: Glassy blue crystals on patronite, associated with R130366 retgersite
Raman shift (cm-1)	intensity
174.696	0
177.589	1.09362
180.482	1.96627
183.374	3.64605
186.267	5.8095
189.16	5.18349
192.053	5.66179
194.945	3.32505
197.838	1.1055
200.731	0.537727
203.623	0.257172
206.516	0.766418
209.409	0.434486
212.301	1.28939
215.194	0.179276
218.087	2.21814
220.98	0.968781
223.872	2.4035
226.765	3.12892
229.658	4.1115
232.55	5.61142
235.443	6.26647
238.336	7.23409
241.228	8.23128
244.121	9.66878
247.014	10.8148
249.906	12.3689
252.799	15.7945
255.692	18.7593
258.585	21.3827
261.477	24.5844
264.37	29.3456
267.263	40.2558
270.155	52.9017
273.048	63.0016
275.941	63.193
278.834	52.7112
281.726	40.8665
284.619	33.3709
287.512	31.3113
290.404	33.8404
293.297	39.2501
296.19	47.0954
299.082	56.0755
301.975	66.6932
304.868	72.7682
307.76	76.1345
310.653	77.2395
313.546	70.5292
316.439	57.0358
319.331	43.0592
322.224	30.6943
325.117	22.5291
328.009	15.4721
330.902	11.2813
333.795	8.36642
336.688	5.4161
339.58	4.19988
342.473	3.16862
345.366	2.08107
348.258	1.48354
351.151	1.33946
354.044	0.660427
356.936	0.379986
359.829	0.272255
362.722	0.202442
365.615	0.48267
368.507	1.5575
371.4	1.04774
374.293	1.2515
377.185	1.5e-05
380.078	0.750462
382.971	0.217525
385.863	0.298439
388.756	1.03529
391.649	0.688587
394.541	2.3685
397.434	0.812923
400.327	4.01076
403.22	2.25255
406.112	3.81845
409.005	3.85357
411.898	5.48763
414.79	7.9585
417.683	10.9213
420.576	14.0586
423.469	17.9352
426.361	23.6632
429.254	29.4085
432.147	36.3206
435.039	39.3832
437.932	34.7131
440.825	26.4252
443.717	21.7794
446.61	19.3475
449.503	18.9748
452.396	19.2855
455.288	21.5701
458.181	24.9067
461.074	29.2823
463.966	35.9773
466.859	39.9718
469.752	39.3432
472.644	33.2769
475.537	27.4047
478.43	21.4955
481.322	19.3027
484.215	17.1474
487.108	14.9259
490.001	13.7227
492.893	11.2591
495.786	9.29826
498.679	8.76254
501.571	8.71817
504.464	8.30313
507.357	8.70442
510.25	9.09315
513.142	8.28885
516.035	8.50985
518.928	8.24183
521.82	8.04277
524.713	5.70625
527.606	5.83363
530.498	4.38877
533.391	2.95384
536.284	2.10381
539.177	2.00859
542.069	0.803692
544.962	0.118343
547.855	0.089771
550.747	0.036057
553.64	0.553169
556.533	0.48415
559.425	0.343616
562.318	0.729511
565.211	0.580956
568.104	0.02459
570.996	0.680771
573.889	1.16483
576.782	2.11076
579.674	3.72663
582.567	4.70843
585.46	6.68038
588.352	9.48871
591.245	10.2751
594.138	12.76
597.03	14.9591
599.923	14.2779
602.816	12.6357
605.709	10.2192
608.601	8.023
611.494	6.75592
614.387	6.09633
617.279	5.75941
620.172	5.10305
623.065	4.53899
625.957	4.93684
628.85	4.77696
631.743	4.71291
634.636	3.96308
637.528	4.61827
640.421	4.20378
643.314	4.42894
646.206	4.94167
649.099	5.61146
651.992	5.63466
654.885	5.05675
657.777	5.02533
660.67	4.03875
663.563	3.90054
666.455	3.08251
669.348	3.5011
672.241	2.11795
675.133	2.51785
678.026	2.02985
680.919	1.12313
683.812	1.63401
686.704	1.12872
689.597	1.22518
692.49	1.0834
695.382	0.445858
698.275	0.140244
701.168	0.862061
704.06	0.487198
706.953	0.505882
709.846	0.437588
712.739	0.401783
715.631	0.048508
718.524	0.457485
721.417	0.022987
724.309	0.159119
727.202	0.183239
730.095	0.134628
732.987	0.399818
735.88	0.447269
738.773	0.611382
741.665	0.646015
744.558	1.49971
747.451	1.70376
750.344	1.27107
753.236	1.16661
756.129	1.75198
759.022	1.59529
761.914	2.19665
764.807	1.94722
767.7	2.17741
770.592	1.9352
773.485	2.11559
776.378	1.94606
779.271	1.87719
782.163	1.75765
785.056	1.34887
787.949	1.4087
790.841	1.63887
793.734	1.10613
796.627	2.17152
799.519	1.2133
802.412	1.48473
805.305	0.997913
808.198	1.78504
811.09	1.6633
813.983	1.56067
816.876	2.22387
819.768	1.41702
822.661	2.92603
825.554	2.16296
828.447	2.49232
831.339	1.12191
834.232	1.53768
837.125	0.904255
840.017	1.33108
842.91	1.4847
845.803	1.14826
848.695	1.8979
851.588	0.730877
854.481	0.2514
857.374	1.68796
860.266	1.20196
863.159	0.643524
866.052	0.745461
868.944	1.12962
871.837	1.22316
874.73	0.779537
877.622	0.482723
880.515	1.4087
883.408	0.433743
886.301	0.033924
889.193	0.033443
892.086	0.26524
894.979	0.347313
897.871	0.003384
900.764	0.736298
903.657	0.302509
906.549	0.302094
909.442	0.37429
912.335	0.500813
915.227	0.428581
918.12	0.231117
921.013	1.15494
923.906	0.267948
926.798	0.863274
929.691	1.3847
932.584	2.1307
935.476	3.48349
938.369	4.57068
941.262	6.69894
944.154	8.78461
947.047	12.2622
949.94	17.7062
952.833	25.331
955.725	37.5826
958.618	57.243
961.511	84.8409
964.403	122.487
967.296	164.603
970.189	198.755
973.082	189.792
975.974	148.106
978.867	109.458
981.76	82.9823
984.652	60.6217
987.545	46.5827
990.438	33.1065
993.33	18.1921
996.223	9.13818
999.116	5.66062
1002.01	4.16013
1004.9	2.24804
1007.79	2.21708
1010.69	3.16233
1013.58	2.42619
1016.47	4.06187
1019.37	5.81206
1022.26	9.85928
1025.15	16.1958
1028.04	26.7097
1030.94	39.171
1033.83	52.8324
1036.72	58.5758
1039.61	49.9455
1042.51	38.8948
1045.4	34.4823
1048.29	35.0366
1051.18	39.4154
1054.08	40.425
1056.97	33.3742
1059.86	21.9783
1062.76	13.668
1065.65	7.94856
1068.54	4.66279
1071.43	1.9459
1074.33	1.64439
1077.22	0.32988
1080.11	0.3242
1083	0.355789
1085.9	0.565037
1088.79	0.306942
1091.68	0.807438
1094.58	0.299458
1097.47	0.270943
1100.36	1.06328
1103.25	0.705864
1106.15	1.0746
1109.04	2.09564
1111.93	2.88677
1114.82	3.41015
1117.72	3.70546
1120.61	4.54755
1123.5	4.75698
1126.39	6.25742
1129.29	6.61552
1132.18	7.54217
1135.07	7.60032
1137.96	7.37925
1140.86	6.5258
1143.75	6.57184
1146.64	5.60447
1149.54	4.78731
1152.43	3.91714
1155.32	2.93913
1158.21	2.47095
1161.11	2.08722
1164	1.95937
1166.89	1.2582
1169.79	1.22942
1172.68	1.38907
1175.57	1.12555
1178.46	0.947056
1181.36	0.789654
1184.25	0.977257
1187.14	0.426517
1190.03	0.527225
1192.93	0.551819
1195.82	0.389301
1198.71	0.461727
1201.61	0.56525
1204.5	0.023785
1207.39	0.552685
1210.28	0.622917
1213.18	0.632401
1216.07	0.096157
1218.96	0.268887
1221.85	0.905022
1224.75	0.329082
1227.64	0.759846
1230.53	0.712234
1233.42	0.425476
1236.32	0.213596
1239.21	0.570381
1242.1	0.713959
1244.99	0.208469
1247.89	0.103977
1250.78	0.463112
1253.67	0.349953
1256.57	0.454967
1259.46	0.5839
1262.35	0.90321
1265.24	0.536648
1268.14	0.060547
1271.03	0.530128
1273.92	1.56647
1276.82	0.24905
1279.71	0.158138
1282.6	0.655483
1285.49	0.42823
1288.39	0.452549
1291.28	0.467533
1294.17	0.151272
1297.06	0.660233
1299.96	0.498524
