Measurement: Raman, 532 nm, unoriented, Raman Data Processed
Mineral: Minium
Rruff sample: R050426
Ideal chemistry: Pb^2+^_2_Pb^4+^O_4_
Locality: El Chichi mine, Culiacan, Sinalog, Mexico
Source: University of Arizona Mineral Museum
Description: Orange earthy coating
Measured chemistry: Pb^2+^_2.00_Pb^4+^_1.00_O_4_
Raman shift (cm-1)	intensity
145.816	0
148.709	123.264
151.602	181.402
154.494	384.165
157.387	882.024
160.28	1339.01
163.173	1539.71
166.065	607.165
168.958	161.347
171.851	61.3372
174.743	34.1399
177.636	27.5574
180.529	7.06982
183.421	1.27148
186.314	0.828613
189.207	1.72607
192.1	52.189
194.992	103.374
197.885	121.889
200.778	194.843
203.67	283.381
206.563	356.436
209.456	577.258
212.348	664.081
215.241	1056.42
218.134	1229.64
221.026	1432.22
223.919	1580.62
226.812	1498.04
229.705	1377.23
232.597	1117.03
235.49	894.223
238.383	657.643
241.275	480.991
244.168	374.324
247.061	277.927
249.954	214.904
252.846	94.0679
255.739	78.2017
258.632	17.7549
261.524	13.1152
264.417	24.6934
267.31	30.8501
270.202	27.4229
273.095	0.556641
275.988	72.8892
278.881	107.431
281.773	146.567
284.666	200.034
287.559	285.713
290.451	394.372
293.344	526.695
296.237	727.694
299.13	1015
302.022	1200.09
304.915	1403.92
307.808	1428.84
310.7	1412.67
313.593	1312.88
316.486	1277.58
319.378	1162.38
322.271	1005.38
325.164	979.825
328.057	768.676
330.949	613.249
333.842	505.911
336.735	401.805
339.627	265.731
342.52	220.571
345.413	135.361
348.305	109.28
351.198	89.0752
354.091	32.7661
356.983	55.5723
359.876	12.8887
362.769	20.981
365.662	76.9463
368.554	172.059
371.447	270.693
374.34	353.194
377.232	440.444
380.125	585.244
383.018	696.445
385.911	764.589
388.803	717.293
391.696	531.813
394.589	330.5
397.481	300.786
400.374	165.722
403.267	65.1162
406.159	22.6665
409.052	38.8926
411.945	20.523
414.837	29.9385
417.73	47.3779
420.623	37.7105
423.516	81.8164
426.408	95.2256
429.301	46.5444
432.194	25.9106
435.086	46.2222
437.979	71.9688
440.872	232.07
443.764	268.252
446.657	402.945
449.55	625.337
452.443	941.5
455.335	1284.85
458.228	1717.68
461.121	2287.99
464.014	2920.43
466.906	3664.03
469.799	4439.86
472.692	4994.18
475.584	5039.15
478.477	4659.75
481.37	3862.6
484.262	2921.06
487.155	2064.55
490.048	1460.68
492.94	1023.06
495.833	776.175
498.726	613.411
501.619	561.131
504.511	569.614
507.404	696.53
510.297	982.471
513.189	1253.57
516.082	1711.64
518.975	2248.84
521.867	2885.75
524.76	3963.41
527.653	5416.44
530.546	7508.65
533.438	10118.9
536.331	13238.6
539.224	16217.7
542.116	18279.8
545.009	18487.7
547.902	15974
550.794	11795
553.687	7864.1
556.58	5245.33
559.473	3428.32
562.365	2312.82
565.258	1603.93
568.151	1175.4
571.043	779.92
573.936	570.778
576.829	342.012
579.721	115.208
582.614	12.6787
585.507	68.5088
588.4	101.659
591.292	61.1055
594.185	17.9863
597.078	19.0635
599.97	11.8096
602.863	103.006
605.756	163.057
608.649	184.377
611.541	149.268
614.434	157.158
617.327	184.946
620.219	243.882
623.112	197.799
626.005	211.096
628.897	234.993
631.79	167.332
634.683	132.034
637.576	42.1953
640.468	30.582
643.361	78.6016
646.254	49.0039
649.146	12.9805
652.039	12.2139
654.932	5.83203
657.824	34.167
660.717	37.1318
663.61	36.1211
666.503	125.686
669.395	130.939
672.288	110.384
675.181	113.831
678.073	172.482
680.966	212.57
683.859	226.992
686.751	171.881
689.644	232.935
692.537	242.026
695.43	254.602
698.322	292.376
701.215	336.237
704.108	284.886
707	309.383
709.893	190.552
712.786	133.5
715.678	188.712
718.571	121.791
721.464	54.3877
724.357	47.6357
727.249	5.04297
730.142	39.0615
733.035	8.52539
735.927	34.5078
738.82	109.233
741.713	15.0576
744.606	27.4873
747.498	137.409
750.391	117.346
753.284	62.1748
756.176	37.5889
759.069	100.297
761.962	70.3359
764.854	134.672
767.747	51.3633
770.64	137.75
773.533	68.1231
776.425	23.7393
779.318	123.508
782.211	26.5068
785.103	100.272
787.996	50.8984
790.889	26.9424
793.781	20.3203
796.674	10.9336
799.567	63.4404
802.46	15.7646
805.352	63.9443
808.245	22.4717
811.138	51.4004
814.03	45.8516
816.923	73.5029
819.816	52.5967
822.708	129.095
825.601	190.56
828.494	179.221
831.386	155.116
834.279	153.593
837.172	178.075
840.065	144.714
842.957	220.588
845.85	280.192
848.743	316.413
851.635	201.849
854.528	178.188
857.421	153.448
860.313	323.591
863.206	340.363
866.099	287.805
868.992	313.042
871.884	246.149
874.777	261.316
877.67	316.969
880.562	275.169
883.455	236.994
886.348	158.517
889.24	171.523
892.133	144.481
895.026	85.1504
897.919	59.5879
900.811	105.314
903.704	1.53906
906.597	51.124
909.489	123.002
912.382	36.8506
915.275	3.13086
918.168	87.4697
921.06	31.1045
923.953	74.0469
926.846	27.043
929.738	75.3691
932.631	6.84961
935.524	2.42871
938.416	0.177734
941.309	92.1172
944.202	65.6113
947.095	1.07422
949.987	150.496
952.88	17.4434
955.773	16.9961
958.665	5.32422
961.558	92.1562
964.451	146.85
967.343	91.2441
970.236	129.047
973.129	124.102
976.021	15.4395
978.914	3.89648
981.807	2.66211
984.7	7.39844
987.592	91.3691
990.485	68.5742
993.378	55.459
996.27	31.6348
999.163	140.875
1002.06	8.51758
1004.95	41.4355
1007.84	239.221
1010.73	290.369
1013.63	358.188
1016.52	427.106
1019.41	389.541
1022.3	499.227
1025.2	721.488
1028.09	775.387
1030.98	1048.98
1033.88	981.922
1036.77	885.309
1039.66	800.342
1042.55	960.555
1045.45	890.068
1048.34	1077.74
1051.23	1146.99
1054.12	1160.3
1057.02	1247
1059.91	1372.37
1062.8	1580.8
1065.69	1798.19
1068.59	1906.96
1071.48	2099.66
1074.37	2022.58
1077.27	2049.76
1080.16	2192.25
1083.05	2264.79
1085.94	2305.84
1088.84	2182.27
1091.73	2068.44
1094.62	1992.12
1097.52	1791.48
1100.41	1683.78
1103.3	1284
1106.19	1099.47
1109.09	874.135
1111.98	847.285
1114.87	817.848
1117.76	600.527
1120.66	412.775
1123.55	238.375
1126.44	144.434
1129.34	167.191
1132.23	101.238
1135.12	52.7832
1138.01	85.6406
1140.91	118.902
1143.8	77.4981
1146.69	26.8379
1149.58	99.0957
1152.48	3.0293
1155.37	4.54883
1158.26	115.131
1161.15	38.2949
1164.05	46.8555
1166.94	58.582
1169.83	47.502
1172.72	76.2773
1175.62	154.201
1178.51	124.023
1181.4	237.707
1184.3	236.383
1187.19	173.236
1190.08	157.971
1192.97	110.92
1195.87	98.293
1198.76	131.092
1201.65	164.424
1204.55	186.543
1207.44	188.486
1210.33	237.863
1213.22	189.875
1216.12	220.008
1219.01	385.334
1221.9	467.457
1224.79	381.764
1227.69	194.965
1230.58	117.539
1233.47	182.432
1236.37	117.756
1239.26	178.779
1242.15	116.008
1245.04	77.5938
1247.94	76.0762
1250.83	151.363
1253.72	52.2773
1256.61	21.582
1259.51	71.5566
1262.4	193.031
1265.29	280.703
1268.18	221.113
1271.08	168.445
1273.97	205.963
1276.86	199.445
1279.76	87.7285
1282.65	195.172
1285.54	58.9082
1288.43	175.158
1291.33	14.875
