Measurement: Raman, 785 nm, unoriented, Raman Data Processed
Mineral: Minium
Rruff sample: R050426
Ideal chemistry: Pb^2+^_2_Pb^4+^O_4_
Locality: El Chichi mine, Culiacan, Sinalog, Mexico
Source: University of Arizona Mineral Museum
Description: Orange earthy coating
Measured chemistry: Pb^2+^_2.00_Pb^4+^_1.00_O_4_
Raman shift (cm-1)	intensity
117.061	0
119.954	771.605
122.846	942.017
125.739	101.306
128.632	40.9204
131.524	156.038
134.417	1018.7
137.31	1972.68
140.202	3146.32
143.095	4924.25
145.988	7756.86
148.881	13123.2
151.773	17196.1
154.666	8372.6
157.559	4146.55
160.451	2891.8
163.344	2236.17
166.237	1819.22
169.13	1402.06
172.022	1043.4
174.915	848.37
177.808	811.026
180.7	693.352
183.593	706.911
186.486	568.964
189.378	391.145
192.271	380.081
195.164	278.441
198.056	352.697
200.949	416.409
203.842	665.416
206.735	1178.46
209.627	1815.65
212.52	2714.42
215.413	3731.81
218.305	5103.11
221.198	6644.73
224.091	7260.45
226.983	6526.9
229.876	5832.54
232.769	5299.68
235.662	4527.65
238.554	3479.29
241.447	2542.46
244.34	1829.41
247.232	1375.98
250.125	1025.97
253.018	726.469
255.911	439.087
258.803	260.082
261.696	99.5049
264.589	74.0229
267.481	42.9941
270.374	107.416
273.267	104.89
276.159	14.9273
279.052	92.96
281.945	281.965
284.837	532.543
287.73	892.163
290.623	1244.57
293.516	1884.77
296.408	2732.78
299.301	3939.87
302.194	5197.1
305.086	6537.76
307.979	7848.66
310.872	9015.33
313.764	9106.54
316.657	7607
319.55	5061.77
322.442	3335.18
325.335	2053.07
328.228	1252.65
331.121	736.537
334.013	388.052
336.906	245.244
339.799	138.038
342.691	107.983
345.584	79.2344
348.477	16.3574
351.37	1.59033
354.262	118.642
357.155	163.305
360.048	276.844
362.94	489.569
365.833	731.009
368.726	1198.49
371.618	1937.93
374.511	3164.68
377.404	4904.7
380.296	6786.6
383.189	9192.6
386.082	12557.4
388.975	16165.8
391.867	15889.5
394.76	10562.9
397.653	5672.17
400.545	3130.58
403.438	1803.12
406.331	1082.47
409.224	580.457
412.116	290.154
415.009	187.38
417.902	32.2085
420.794	9.08594
423.687	87.2075
426.58	91.7158
429.472	52.6265
432.365	14.8599
435.258	82.9829
438.151	277.997
441.043	544.841
443.936	799.172
446.829	1155.98
449.721	1557.94
452.614	1916.03
455.507	2052.76
458.399	1834.17
461.292	1524.52
464.185	1244.14
467.077	1227.34
469.97	1222.15
472.863	1334.05
475.756	1368.55
478.648	1291.88
481.541	1018.75
484.434	692.924
487.326	309.663
490.219	149.769
493.112	5.61426
496.005	30.8105
498.897	67.8926
501.79	199.481
504.683	419.466
507.575	728.729
510.468	1055.72
513.361	1600.83
516.253	2115.09
519.146	2664.29
522.039	3256.52
524.932	3971.51
527.824	5043.48
530.717	6582.46
533.61	9160.59
536.502	12756
539.395	17274.9
542.288	22545.9
545.18	28705.5
548.073	33184.3
550.966	30588.1
553.858	21659.9
556.751	13151.4
559.644	7786.23
562.537	4807.31
565.429	3158.33
568.322	2158.55
571.215	1458.21
574.107	1017.43
577	707.433
579.893	436.718
582.785	290.704
585.678	152.603
588.571	72.0488
591.463	24.7334
594.356	50.1096
597.249	23.6777
600.142	41.3308
603.034	36.4507
605.927	50.9673
608.82	19.793
611.712	1.59253
614.605	1.16284
617.498	38.614
620.39	81.4448
623.283	70.0986
626.176	132.804
629.069	78.665
631.961	45.8923
634.854	113.758
637.747	76.104
640.639	64.1975
643.532	37.4258
646.425	54.2637
649.317	53.0144
652.21	48.7476
655.103	38.394
657.995	65.9534
660.888	44.9917
663.781	76.4509
666.674	76.2634
669.566	35.2031
672.459	84.3691
675.352	68.8999
678.244	50.269
681.137	48.958
684.03	89.5242
686.923	56.0981
689.815	80.2739
692.708	68.2573
695.601	97.2617
698.493	108.031
701.386	88.4094
704.279	95.4871
707.171	73.8198
710.064	62.926
712.957	61.8499
715.85	52.1453
718.742	48.9026
721.635	37.0518
724.528	49.1475
727.42	46.1587
730.313	9.86108
733.206	38.7454
736.098	36.7654
738.991	8.88379
741.884	21.3315
744.777	21.522
747.669	3.5581
750.562	7.94873
753.455	6.60791
756.347	17.2471
759.24	39.0212
762.133	28.6702
765.025	32.1728
767.918	32.3938
770.811	37.5842
773.703	74.1631
776.596	0.065674
779.489	54.9563
782.382	34.0044
785.274	30.563
788.167	28.2944
791.06	25.175
793.952	23.9202
796.845	50.5054
799.738	14.7747
802.63	54.8904
805.523	51.8975
808.416	41.988
811.309	10.5654
814.201	24.5649
817.094	48.032
819.987	31.5679
822.879	30.4487
825.772	21.0569
828.665	33.4202
831.557	1.0249
834.45	55.2625
837.343	11.7336
840.236	56.739
843.128	28.8743
846.021	30.9868
848.914	38.6257
851.806	35.345
854.699	37.2563
857.592	49.687
860.484	14.8806
863.377	43.2905
866.27	35.9951
869.163	50.8633
872.055	58.4421
874.948	60.5144
877.841	27.8213
880.733	38.8335
883.626	43.6045
886.519	46.0496
889.411	36.9409
892.304	34.7332
895.197	48.8069
898.09	28.6013
900.982	38.0576
903.875	32.7332
906.768	37.6455
909.66	20.2205
912.553	64.7112
915.446	23.0173
918.338	43.1296
921.231	13.7688
924.124	10.7376
927.016	49.8013
929.909	14.106
932.802	19.991
935.695	33.5928
938.587	36.4661
941.48	45.6145
944.373	18.7417
947.265	11.0913
950.158	6.54102
953.051	12.9502
955.943	0.921631
958.836	0.489014
961.729	9.46558
964.622	4.22046
967.514	2.06885
970.407	36.2744
973.3	7.78247
976.192	6.63477
979.085	31.239
981.978	10.241
984.87	18.5596
987.763	5.10059
990.656	8.86963
993.549	8.29395
996.441	2.89038
999.334	9.84448
1002.23	36.8215
1005.12	79.4497
1008.01	5.22339
1010.9	27.8105
1013.8	55.9358
1016.69	66.8286
1019.58	47.2593
1022.48	63.0518
1025.37	80.1567
1028.26	88.8201
1031.15	75.2295
1034.05	113.933
1036.94	115.568
1039.83	102.041
1042.72	144.596
1045.62	150.894
1048.51	177.991
1051.4	244.109
1054.3	371.872
1057.19	372.57
1060.08	228.956
1062.97	149.039
1065.87	139.886
1068.76	138.936
1071.65	166.75
1074.54	205.091
1077.44	252.766
1080.33	232.099
1083.22	248.463
1086.12	275.268
1089.01	289.302
1091.9	244.44
1094.79	295.532
1097.69	282.568
1100.58	223.901
1103.47	225.487
1106.36	237.601
1109.26	202.493
1112.15	180.186
1115.04	149.075
1117.93	155.228
1120.83	117.154
1123.72	87.272
1126.61	61.4626
1129.51	56.1682
1132.4	59.8127
1135.29	43.2647
1138.18	8.38696
1141.08	10.4087
1143.97	7.20996
1146.86	28.5715
1149.75	15.3757
1152.65	22.8835
1155.54	10.0906
1158.43	21.968
1161.33	21.3191
1164.22	15.0044
1167.11	55.7488
1170	37.0603
1172.9	45.874
1175.79	11.4841
1178.68	72.3232
1181.57	52.4695
1184.47	65.9143
1187.36	68.9487
1190.25	84.667
1193.14	115.445
1196.04	111.994
1198.93	114.072
1201.82	130.133
1204.72	171.389
1207.61	158.49
1210.5	145.61
1213.39	180.493
1216.29	151.404
1219.18	205.206
1222.07	219.769
1224.96	226.21
1227.86	230.119
1230.75	232.612
1233.64	184.415
1236.54	182.539
1239.43	192.867
1242.32	157.316
1245.21	183.367
1248.11	138.324
1251	133.028
1253.89	78.906
1256.78	62.3169
1259.68	31.7476
1262.57	12.9536
1265.46	18.6677
1268.36	9.51929
