Measurement: Raman, 785 nm, unoriented, Raman Data Processed
Mineral: Minium
Rruff sample: R070508
Ideal chemistry: Pb^2+^_2_Pb^4+^O_4_
Locality: Gila Bend, Maricopa County, Arizona, USA
Source: James Shigley
Description: Bright orange earthy coating
Raman shift (cm-1)	intensity
117.061	0
119.954	1075.54
122.846	1099.32
125.739	59.4058
128.632	205.105
131.524	1204.79
134.417	3385.52
137.31	5622.98
140.202	8305.18
143.095	11650.5
145.988	15219.6
148.881	23857.6
151.773	30736.8
154.666	15803.6
157.559	7752.06
160.451	5325.6
163.344	3821.32
166.237	2916.66
169.13	2240.04
172.022	1676.74
174.915	1250.57
177.808	967.253
180.7	751.107
183.593	542.671
186.486	270.704
189.378	4.40039
192.271	91.5347
195.164	92.3003
198.056	10.313
200.949	365.062
203.842	1037.91
206.735	2096.49
209.627	3402
212.52	5008.66
215.413	7010.11
218.305	9379.11
221.198	11896.6
224.091	13034.6
226.983	11825.8
229.876	10522.5
232.769	9271.64
235.662	7873.52
238.554	6106.11
241.447	4513.64
244.34	3373.76
247.232	2412.6
250.125	1715.74
253.018	1252.61
255.911	805.447
258.803	442.559
261.696	82.1885
264.589	41.4863
267.481	166.949
270.374	67.0649
273.267	157.639
276.159	484.388
279.052	927.943
281.945	1486.56
284.837	2187.09
287.73	2843.12
290.623	3467.3
293.516	4445.94
296.408	5862.88
299.301	7865.36
302.194	10040.1
305.086	12204.3
307.979	14235.9
310.872	15704
313.764	15732.9
316.657	12861.4
319.55	8717.29
322.442	5403.54
325.335	3271.34
328.228	1841.7
331.121	1077.89
334.013	506.459
336.906	265.11
339.799	30.9565
342.691	44.9502
345.584	59.5063
348.477	24.4692
351.37	135.029
354.262	282.04
357.155	479.653
360.048	776.97
362.94	1177.23
365.833	1740.7
368.726	2748.87
371.618	4386.05
374.511	6935.04
377.404	10156.6
380.296	13779.7
383.189	17896.6
386.082	23393.9
388.975	28755.3
391.867	27346.8
394.76	17998.9
397.653	9854.68
400.545	5434.09
403.438	3062.58
406.331	1721.73
409.224	982.918
412.116	438.045
415.009	115.186
417.902	28.5459
420.794	101.724
423.687	168.277
426.58	139.038
429.472	98.0513
432.365	3.2251
435.258	305.498
438.151	670.955
441.043	1141.22
443.936	1646.53
446.829	2289.26
449.721	2877.72
452.614	3261.53
455.507	3398.79
458.399	3097.6
461.292	2677.88
464.185	2288.39
467.077	2276.2
469.97	2281.35
472.863	2393.56
475.756	2402.62
478.648	2065.73
481.541	1620.17
484.434	941.811
487.326	538.734
490.219	138.153
493.112	10.3667
496.005	106.274
498.897	205.74
501.79	586.934
504.683	986.224
507.575	1626.51
510.468	2303.91
513.361	3300.03
516.253	4243.2
519.146	5335.55
522.039	6539.86
524.932	8120.77
527.824	10310.4
530.717	13704.1
533.61	18978.6
536.502	26029.2
539.395	34172.3
542.288	43464.9
545.18	53628.4
548.073	59654.9
550.966	53967.9
553.858	38216.5
556.751	23443
559.644	14239.8
562.537	8984.61
565.429	5899.95
568.322	4067.16
571.215	2782.45
574.107	1889.62
577	1283.14
579.893	868.143
582.785	558.799
585.678	316.72
588.571	131.147
591.463	38.9448
594.356	31.8491
597.249	58.9036
600.142	105.625
603.034	85.9631
605.927	34.0122
608.82	68.7373
611.712	20.9297
614.605	50.1538
617.498	71.6548
620.39	122.954
623.283	144.403
626.176	178.21
629.069	197.877
631.961	168.655
634.854	132.414
637.747	128.39
640.639	139.839
643.532	83.9441
646.425	124.521
649.317	121.094
652.21	149.44
655.103	105.231
657.995	156.718
660.888	150.575
663.781	171.94
666.674	163.946
669.566	214.256
672.459	196.636
675.352	269.295
678.244	221.719
681.137	239.752
684.03	247.638
686.923	192.958
689.815	174.703
692.708	184.036
695.601	203.652
698.493	181.409
701.386	144.358
704.279	149.351
707.171	149.172
710.064	119.788
712.957	61.2544
715.85	82.1001
718.742	61.2036
721.635	75.895
724.528	28.7378
727.42	69.5293
730.313	10.2285
733.206	16.959
736.098	33.2341
738.991	63.2366
741.884	6.96289
744.777	13.3386
747.669	1.85889
750.562	5.42822
753.455	28.4231
756.347	36.9446
759.24	22.593
762.133	66.6689
765.025	62.4248
767.918	43.9597
770.811	47.7502
773.703	75.9065
776.596	48.7593
779.489	66.2913
782.382	52.4673
785.274	29.8586
788.167	32.7994
791.06	63.4158
793.952	38.8426
796.845	43.1707
799.738	36.1797
802.63	16.1811
805.523	31.4086
808.416	37.7234
811.309	15.1139
814.201	30.4395
817.094	2.98413
819.987	6.73047
822.879	27.3411
825.772	16.2307
828.665	20.0909
831.557	28.2422
834.45	75.0264
837.343	55.0395
840.236	69.7096
843.128	59.6858
846.021	65.8246
848.914	50.5944
851.806	49.3463
854.699	57.1628
857.592	111.092
860.484	47.5422
863.377	112.641
866.27	80.9681
869.163	81.4194
872.055	73.7617
874.948	75.2141
877.841	73.0345
880.733	59.9855
883.626	63.9026
886.519	50.0782
889.411	33.0917
892.304	26.2819
895.197	30.817
898.09	22.8917
900.982	24.5625
903.875	27.6326
906.768	18.2611
909.66	29.2199
912.553	60.2421
915.446	15.0111
918.338	30.4059
921.231	10.0394
924.124	5.11438
927.016	23.9319
929.909	29.4666
932.802	1.40369
935.695	25.4681
938.587	16.0102
941.48	61.0537
944.373	17.9584
947.265	22.9761
950.158	21.0671
953.051	9.45593
955.943	30.3729
958.836	40.541
961.729	37.3855
964.622	61.8693
967.514	4.479
970.407	41.781
973.3	4.09155
976.192	17.1997
979.085	4.57886
981.978	45.3972
984.87	4.44336
987.763	12.2949
990.656	4.25854
993.549	19.3679
996.441	0.826904
999.334	4.74707
1002.23	10.8396
1005.12	12.7891
1008.01	0.350098
1010.9	28.4175
1013.8	5.68042
1016.69	2.67212
1019.58	32.147
1022.48	18.4409
1025.37	66.6335
1028.26	87.7642
1031.15	64.7622
1034.05	108.819
1036.94	130.333
1039.83	178.155
1042.72	283.782
1045.62	635.729
1048.51	1042.59
1051.4	1647.15
1054.3	2776.24
1057.19	1672.33
1060.08	532.054
1062.97	215.82
1065.87	145.511
1068.76	179.083
1071.65	202.89
1074.54	270.313
1077.44	331.887
1080.33	349.626
1083.22	394.321
1086.12	502.008
1089.01	564.096
1091.9	651.57
1094.79	665.612
1097.69	701.642
1100.58	709.888
1103.47	701.613
1106.36	678.767
1109.26	657.403
1112.15	558.978
1115.04	552.438
1117.93	404.818
1120.83	319.807
1123.72	271.09
1126.61	252.833
1129.51	142.521
1132.4	88.21
1135.29	41.5679
1138.18	40.4558
1141.08	6.85059
1143.97	27.4077
1146.86	42.8198
1149.75	19.0371
1152.65	11.0308
1155.54	26.1558
1158.43	1.38672
1161.33	65.437
1164.22	65.3076
1167.11	194.358
1170	228.642
1172.9	329.102
1175.79	373.661
1178.68	506.438
1181.57	598.695
1184.47	689.14
1187.36	764.901
1190.25	872.894
1193.14	890.881
1196.04	1042.62
1198.93	1108.19
1201.82	1224.01
1204.72	1169
1207.61	1328.88
1210.5	1402.84
1213.39	1446.97
1216.29	1512.83
1219.18	1377.8
1222.07	1384.28
1224.96	1334.56
1227.86	1277.54
1230.75	1283.92
1233.64	1205.05
1236.54	1329.3
1239.43	1353.9
1242.32	1443.33
1245.21	1493.84
1248.11	1469.92
1251	1332.78
1253.89	1174.21
1256.78	870.086
1259.68	522.532
1262.57	298.584
1265.46	16.8398
1268.36	20.8179
