Measurement: Raman, 532 nm, unoriented, Raman Data Processed
Mineral: Minium
Rruff sample: R070508
Ideal chemistry: Pb^2+^_2_Pb^4+^O_4_
Locality: Gila Bend, Maricopa County, Arizona, USA
Source: James Shigley
Description: Bright orange earthy coating
Raman shift (cm-1)	intensity
142.924	0
145.816	205.796
148.709	824.902
151.602	1090.53
154.494	1488.83
157.387	2304.02
160.28	3131.59
163.173	3684.04
166.065	1544.9
168.958	381.199
171.851	154.534
174.743	70.1846
177.636	9.89258
180.529	15.9653
183.421	93.2983
186.314	56.626
189.207	27.999
192.1	83.9678
194.992	242.275
197.885	293.002
200.778	504.672
203.67	679.403
206.563	1052.14
209.456	1430.48
212.348	1780.15
215.241	2275.23
218.134	2761.82
221.026	3146.21
223.919	3258.66
226.812	2918.08
229.705	2685.38
232.597	2264.35
235.49	1758.92
238.383	1273.7
241.275	891.391
244.168	623.125
247.061	355.063
249.954	220.613
252.846	165.245
255.739	61.4482
258.632	31.2427
261.524	24.6191
264.417	25.063
267.31	3.17676
270.202	54.644
273.095	133.854
275.988	170.801
278.881	270.121
281.773	383.689
284.666	429.312
287.559	628.477
290.451	832.776
293.344	1041.74
296.237	1462.54
299.13	1868.46
302.022	2271.49
304.915	2639.68
307.808	2805.56
310.7	2764.16
313.593	2538.44
316.486	2393.05
319.378	2151.7
322.271	2009.98
325.164	1818.42
328.057	1459.5
330.949	1174.63
333.842	940.845
336.735	678.12
339.627	489.047
342.52	307.793
345.413	168.82
348.305	133.712
351.198	127.997
354.091	92.4092
356.983	64.0381
359.876	23.9746
362.769	58.7852
365.662	251.848
368.554	303.772
371.447	372.044
374.34	597.942
377.232	807.145
380.125	1079.03
383.018	1109
385.911	1350.46
388.803	1247.81
391.696	911.479
394.589	652.395
397.481	421.414
400.374	251.276
403.267	180.177
406.159	109.333
409.052	34.7549
411.945	3.56445
414.837	31.6582
417.73	82.8057
420.623	144.125
423.516	111.666
426.408	91.7881
429.301	2.0459
432.194	34.6719
435.086	167.669
437.979	283.345
440.872	318.829
443.764	576.437
446.657	769.936
449.55	1312.71
452.443	1988.62
455.335	2723.66
458.228	3842.31
461.121	5009.38
464.014	6361.77
466.906	7986.59
469.799	9422.3
472.692	10262.6
475.584	10172.9
478.477	9221.16
481.37	7556.48
484.262	5703.69
487.155	3987.63
490.048	2706.59
492.94	1895.64
495.833	1490.27
498.726	1293.9
501.619	1182.38
504.511	1509.64
507.404	1542.72
510.297	2044.73
513.189	2749.27
516.082	3534.74
518.975	4670.73
521.867	6315.63
524.76	8547.94
527.653	11717.9
530.546	16307.5
533.438	21821
536.331	28141.9
539.224	33743.3
542.116	37681.5
545.009	37441.7
547.902	32081.9
550.794	23503.9
553.687	15797.1
556.58	10326.3
559.473	6861.36
562.365	4663.93
565.258	3209.33
568.151	2116.83
571.043	1539.6
573.936	946.744
576.829	553.998
579.721	122.436
582.614	72.9102
585.507	152.044
588.4	95.0918
591.292	149.029
594.185	52.2764
597.078	7.31934
599.97	75.7139
602.863	85.8525
605.756	275.477
608.649	390.317
611.541	426.581
614.434	403.488
617.327	385.534
620.219	471.726
623.112	479.431
626.005	415.322
628.897	391.556
631.79	377.043
634.683	301.947
637.576	113.042
640.468	61.6045
643.361	89.665
646.254	105.591
649.146	10.2383
652.039	6.65332
654.932	98.9756
657.824	148.338
660.717	66.7158
663.61	124.228
666.503	303.606
669.395	227.233
672.288	273.447
675.181	249.401
678.073	376.907
680.966	376.935
683.859	479.421
686.751	446.945
689.644	502.817
692.537	545.854
695.43	627.088
698.322	602.55
701.215	647.339
704.108	633.18
707	497.083
709.893	331.779
712.786	237.386
715.678	260.525
718.571	204.541
721.464	2.79883
724.357	55.5195
727.249	57.6992
730.142	77.6064
733.035	76.5801
735.927	8.93555
738.82	75.8457
741.713	19.7637
744.606	82.4336
747.498	133.654
750.391	129.197
753.284	187.606
756.176	107.652
759.069	180.529
761.962	176.135
764.854	70.8281
767.747	238.326
770.64	213.619
773.533	193.258
776.425	122.439
779.318	121.494
782.211	137.248
785.103	174.4
787.996	264.826
790.889	191.31
793.781	14.6016
796.674	67.4844
799.567	41.3027
802.46	176.596
805.352	104.836
808.245	96.0547
811.138	137.56
814.03	124.643
816.923	93.0391
819.816	135.516
822.708	336.102
825.601	336.213
828.494	388.541
831.386	368.094
834.279	373.949
837.172	380.762
840.065	425.519
842.957	538.174
845.85	607.084
848.743	666.377
851.635	571.463
854.528	552.766
857.421	493.279
860.313	577.24
863.206	633.893
866.099	591.82
868.992	597.545
871.884	552.088
874.777	496.574
877.67	542.445
880.562	522.404
883.455	346.67
886.348	256.91
889.24	187.404
892.133	265.336
895.026	177.865
897.919	25.9277
900.811	78.3047
903.704	4.25195
906.597	163.6
909.489	72.5723
912.382	153.158
915.275	6.99023
918.168	72.7031
921.06	97.6894
923.953	18.3086
926.846	26.1816
929.738	38.9707
932.631	35.7461
935.524	31.6875
938.416	18.8848
941.309	84.5859
944.202	189.377
947.095	275.424
949.987	113.623
952.88	141.301
955.773	125.035
958.665	124.006
961.558	228.127
964.451	186.815
967.343	187.609
970.236	266.697
973.129	201.935
976.021	115.473
978.914	17.7773
981.807	75.6445
984.7	62.623
987.592	80.166
990.485	73.916
993.378	49.9922
996.27	4.72461
999.163	9.69531
1002.06	204.809
1004.95	198.33
1007.84	493.236
1010.73	623.465
1013.63	723.838
1016.52	898.346
1019.41	1136.24
1022.3	1084.14
1025.2	1426.65
1028.09	1841.82
1030.98	1998.1
1033.88	1817.96
1036.77	1801.82
1039.66	1936.4
1042.55	2127.71
1045.45	2441.85
1048.34	2786.42
1051.23	3329.08
1054.12	3204.47
1057.02	2904
1059.91	3108.25
1062.8	3422.94
1065.69	3811.12
1068.59	3962.83
1071.48	4359.52
1074.37	4481.47
1077.27	4577.75
1080.16	4843.13
1083.05	4969.03
1085.94	5097.59
1088.84	4856.86
1091.73	4678.72
1094.62	4369.88
1097.52	3812.5
1100.41	3460.23
1103.3	2830
1106.19	2319.78
1109.09	1902.85
1111.98	1693.89
1114.87	1443.99
1117.76	1048.89
1120.66	732.148
1123.55	463.123
1126.44	193.346
1129.34	285.053
1132.23	183.326
1135.12	59.4668
1138.01	32.7656
1140.91	77.6543
1143.8	69.2578
1146.69	8.375
1149.58	98.8731
1152.48	33.918
1155.37	66.3594
1158.26	78.7344
1161.15	51.2012
1164.05	27.4316
1166.94	17.3477
1169.83	60.2734
1172.72	1.53125
1175.62	196.586
1178.51	212.346
1181.4	357.978
1184.3	330.82
1187.19	365.184
1190.08	282.664
1192.97	178.465
1195.87	293.475
1198.76	349.94
1201.65	361.707
1204.55	351.66
1207.44	180.502
1210.33	326.164
1213.22	306.973
1216.12	361.141
1219.01	433.984
1221.9	667.15
1224.79	540.875
1227.69	337.014
1230.58	205.297
1233.47	112.25
1236.37	160.666
1239.26	179.668
1242.15	211.644
1245.04	139.027
1247.94	246.514
1250.83	310.578
1253.72	80.2559
1256.61	3.42969
1259.51	139.461
1262.4	227.799
1265.29	257.16
1268.18	544.068
1271.08	214.93
1273.97	190.871
1276.86	100.523
1279.76	110.449
1282.65	97.4297
1285.54	154.41
1288.43	203.707
1291.33	77.2773
1294.22	57.6016
