Measurement: Raman, 532 nm, unoriented, Raman Data Processed
Mineral: Minyulite
Rruff sample: R070151
Ideal chemistry: KAl_2_(PO_4_)_2_F4H_2_O
Locality: Minyulo Well, Dandaragan, Western Australia, Australia
Source: James Shigley
Description: Radiating colorless transparent thin prismatic crystals
Measured chemistry: K_1.00_Al_2.00_(P_1.00_O_4_)_2_F_1.00_Â·4H_2_O;  H_2_O estimated by difference
Raman shift (cm-1)	intensity
162.235	0
165.127	70.8984
168.02	286.637
170.913	250.715
173.805	434.592
176.698	361.779
179.591	639.652
182.483	601.582
185.376	508.836
188.269	302.19
191.162	231.727
194.054	39.2598
196.947	118.609
199.84	216.904
202.732	528.064
205.625	1052.89
208.518	1370.02
211.411	1195.64
214.303	653.938
217.196	547.479
220.089	425.887
222.981	467.565
225.874	607.102
228.767	710.561
231.659	804.625
234.552	913.961
237.445	1055.52
240.338	1157.42
243.23	1264.24
246.123	1056.18
249.016	653.828
251.908	380.699
254.801	211.617
257.694	14.2051
260.586	56.9434
263.479	47.9492
266.372	6.69141
269.264	26.373
272.157	84.8125
275.05	302.857
277.943	514.285
280.835	979.664
283.728	1427.7
286.621	1869.23
289.514	2375.29
292.406	3069.92
295.299	3117.43
298.192	2711.05
301.084	2141.1
303.977	1359.83
306.87	854.543
309.762	326.984
312.655	174.586
315.548	36.5938
318.44	33.5273
321.333	38.332
324.226	9.32422
327.119	2.19141
330.011	138.328
332.904	30.9141
335.797	192.777
338.689	399.098
341.582	431.121
344.475	347.797
347.368	123.934
350.26	202.938
353.153	125.508
356.046	385.238
358.938	507.027
361.831	1058.65
364.724	1426.14
367.616	2305.39
370.509	3219.92
373.402	3900.85
376.295	3616.82
379.187	2614.49
382.08	1815.97
384.973	1010.69
387.865	632.637
390.758	329.883
393.651	132.359
396.543	306.731
399.436	365.961
402.329	515.723
405.221	563.586
408.114	278.144
411.007	223.715
413.9	192.562
416.792	86.957
419.685	104.094
422.578	107.859
425.47	6.67578
428.363	235.453
431.256	316.305
434.149	534.434
437.041	846.824
439.934	1120.34
442.827	1636.91
445.719	1981.54
448.612	1539.32
451.505	1111.24
454.397	865.555
457.29	708.027
460.183	674.586
463.075	636.18
465.968	721.195
468.861	1027.36
471.754	1172.88
474.646	1823.2
477.539	2574.37
480.432	3690.27
483.324	5226.38
486.217	6962.84
489.11	8678.03
492.003	9823.24
494.895	9194.79
497.788	7177.38
500.681	4994.6
503.573	3525.34
506.466	2317.1
509.359	1678.26
512.251	1247.86
515.144	966.391
518.037	667.898
520.93	358.117
523.822	248.519
526.715	321.894
529.608	32.1055
532.5	111.887
535.393	45.3867
538.286	15.793
541.178	49.1211
544.071	5.38672
546.964	70.918
549.857	65.2969
552.749	185.707
555.642	98.125
558.535	214.348
561.427	255.981
564.32	615.148
567.213	766.082
570.106	550.379
572.998	971.57
575.891	1089.51
578.784	1578.04
581.676	1784.42
584.569	2687.12
587.462	3540.12
590.354	3976.18
593.247	3278.86
596.14	2130.34
599.033	1112.5
601.925	733.402
604.818	683.133
607.711	194.402
610.603	332.078
613.496	241.215
616.389	265.203
619.281	152.394
622.174	141.758
625.067	245.644
627.96	165.625
630.852	139.914
633.745	266.66
636.638	317.137
639.53	323.277
642.423	492.68
645.316	667.301
648.208	1146.95
651.101	1207.16
653.994	1468.62
656.886	1444.98
659.779	1225.36
662.672	920.309
665.565	848.512
668.457	523.172
671.35	268.867
674.243	311.91
677.135	259.106
680.028	198.457
682.921	19.8984
685.813	165.219
688.706	53.7773
691.599	109.289
694.492	128.301
697.384	45.6875
700.277	0.1875
703.17	159.297
706.062	101.293
708.955	79.8828
711.848	37.6367
714.74	32.9883
717.633	334.016
720.526	29.3516
723.419	22.8242
726.311	75.4062
729.204	85.3008
732.097	146.539
734.989	16.2344
737.882	227.723
740.775	112.394
743.668	297.902
746.56	72.4492
749.453	56.9062
752.346	148.398
755.238	238.852
758.131	246.039
761.024	7.80078
763.917	109.059
766.809	184.484
769.702	111.356
772.595	72.9961
775.487	63.375
778.38	75.4258
781.273	90.8203
784.165	81.3516
787.058	231.031
789.951	366.906
792.843	166.535
795.736	93.4609
798.629	275.719
801.522	118.004
804.414	214.016
807.307	212.816
810.2	250.867
813.092	119.703
815.985	360.742
818.878	172.973
821.77	172.672
824.663	366.508
827.556	103.969
830.449	24.4492
833.341	166.043
836.234	103.023
839.127	71.6289
842.019	16.6133
844.912	36.3086
847.805	164.84
850.697	160.371
853.59	114.727
856.483	237.394
859.376	193.769
862.268	185.207
865.161	158.078
868.054	340.102
870.946	267.41
873.839	155.203
876.732	341.805
879.625	178.363
882.517	333.5
885.41	310.91
888.303	326.871
891.195	267.977
894.088	341.523
896.981	191.258
899.874	315.363
902.766	470.312
905.659	202.644
908.552	307.375
911.444	188.75
914.337	117
917.23	178.223
920.122	117.547
923.015	261.078
925.908	228.211
928.801	91.3984
931.693	97.9922
934.586	287.102
937.479	19.25
940.371	169.727
943.264	84.4531
946.157	111.391
949.049	134.227
951.942	90.6328
954.835	25.5312
957.727	2.46875
960.62	7.625
963.513	41.3359
966.406	92.3984
969.298	237.398
972.191	103.586
975.084	135.266
977.976	519.383
980.869	627.141
983.762	861.102
986.654	1186.84
989.547	1798.66
992.44	2438.2
995.333	3571.7
998.225	5288.06
1001.12	8221.35
1004.01	12441.9
1006.9	17510.2
1009.8	21103.9
1012.69	20446.4
1015.58	16023
1018.47	10971.7
1021.37	7135.76
1024.26	4717.29
1027.15	3073.3
1030.05	2176.47
1032.94	1911.98
1035.83	1521.35
1038.72	1386.33
1041.62	1132.44
1044.51	1032.59
1047.4	865.695
1050.29	729.758
1053.19	645.688
1056.08	313.398
1058.97	150.523
1061.87	547
1064.76	719.391
1067.65	924.695
1070.54	1211.76
1073.44	1544.62
1076.33	1582.91
1079.22	1705.62
1082.11	1800.37
1085.01	1948.72
1087.9	2039.88
1090.79	1829.94
1093.68	1476.27
1096.58	725.484
1099.47	392.344
1102.36	42.0156
1105.26	14.6875
1108.15	121.859
1111.04	22.4062
1113.93	65.5234
1116.83	22.3828
1119.72	94
1122.61	49.2734
1125.5	152.547
1128.4	324.242
1131.29	44.9219
1134.18	221.875
1137.08	211.484
1139.97	294.258
1142.86	245.695
1145.75	307.641
1148.65	446.766
1151.54	298.086
1154.43	376.219
1157.32	321.305
1160.22	358.875
1163.11	399.633
1166	229.828
1168.89	306.586
1171.79	344.625
1174.68	436.812
1177.57	369.812
1180.46	321.227
1183.36	235.031
1186.25	160.93
1189.14	167.703
1192.04	240.398
1194.93	237.164
1197.82	322.242
1200.71	87.8203
1203.61	158.398
1206.5	144.609
1209.39	146.695
1212.29	70.5938
1215.18	130.57
1218.07	126.297
1220.96	249.641
1223.86	252.156
1226.75	109.641
1229.64	18.9766
1232.53	68.4922
1235.43	66.8281
1238.32	400.211
1241.21	39.1797
1244.11	341.289
1247	161.68
1249.89	242.562
1252.78	282.891
1255.68	240.852
1258.57	182.492
1261.46	321.531
1264.35	401.164
1267.25	191.656
1270.14	176.938
1273.03	91.3047
1275.92	306.688
1278.82	277.359
1281.71	231.133
1284.6	224.648
1287.49	116.422
1290.39	109.07
1293.28	156.43
1296.17	165.086
1299.07	154.633
