Measurement: Raman, 780 nm, unoriented, Raman Data Processed
Mineral: Minyulite
Rruff sample: R100072
Ideal chemistry: KAl_2_(PO_4_)_2_F4H_2_O
Locality: Tom's quarry, Kapunda, South Australia, Australia
Source: Marcus Origlieri
Description: Parallel aggregates of tabular colorless crystals associated with sprays of white, thin platy aldermanite, R100073, and colorless needle wavellite.
Raman shift (cm-1)	intensity
103.104	0
106.479	32.9492
109.854	81.3848
113.228	66.2363
116.603	12.832
119.978	24.8223
123.353	5.62305
126.728	31.3594
130.102	83.4746
133.477	106.484
136.852	78.8965
140.227	83.5762
143.602	137.006
146.977	189.828
150.351	214.783
153.726	283.867
157.101	359.287
160.476	486.205
163.851	585.072
167.226	615.812
170.6	534.672
173.975	527.611
177.35	555.477
180.725	560.701
184.1	606.969
187.474	422.537
190.849	240.053
194.224	157.617
197.599	84.4609
200.974	83.1269
204.349	91.6484
207.723	224.168
211.098	240.379
214.473	167.166
217.848	107.711
221.223	100.426
224.597	137.185
227.972	182.029
231.347	207.375
234.722	274.162
238.097	387.316
241.471	533.902
244.846	537.723
248.221	314.182
251.596	116.373
254.971	19.9297
258.346	1.12891
261.72	8.78906
265.095	7.80273
268.47	0.806641
271.845	20.3359
275.22	71.8945
278.594	164.887
281.969	228.322
285.344	367.34
288.719	471.06
292.094	545.143
295.469	544.006
298.843	481.133
302.218	350.031
305.593	222.775
308.968	101.338
312.343	21.6543
315.717	20.4707
319.092	25.0938
322.467	0.714844
325.842	11.4385
329.217	30.6152
332.592	40.7852
335.966	65.8525
339.341	135.331
342.716	92.125
346.091	56.6602
349.466	11.1846
352.841	5.25684
356.215	45.7002
359.59	112.877
362.965	196.293
366.34	312.473
369.715	555.583
373.089	791.851
376.464	755.812
379.839	463.545
383.214	245.043
386.589	154.951
389.964	77.7852
393.338	4.32129
396.713	17.9219
400.088	82.9971
403.463	169.586
406.838	224.22
410.212	103.936
413.587	13.7871
416.962	1.80273
420.337	5.9707
423.712	27.1162
427.087	34.294
430.461	80.8486
433.836	121.753
437.211	163.243
440.586	284.365
443.961	446.548
447.335	489.836
450.71	339.283
454.085	226
457.46	158.537
460.835	140.93
464.209	102.052
467.584	65.9619
470.959	62.9746
474.334	140.916
477.709	193.848
481.084	301.889
484.458	364.893
487.833	439.37
491.208	566.226
494.583	680.653
497.958	620.763
501.332	421.767
504.707	323.358
508.082	220.809
511.457	158.37
514.832	93.2939
518.207	62.9453
521.581	39.0674
524.956	3.81348
528.331	23.8652
531.706	23.9209
535.081	6.82422
538.455	9.27344
541.83	2.80664
545.205	7.55469
548.58	15.5059
551.955	10.1328
555.33	45.4287
558.704	55.626
562.079	87.3486
565.454	140.843
568.829	224.211
572.204	267.401
575.578	287.769
578.953	231.132
582.328	244.151
585.703	351.807
589.078	514.82
592.452	670.116
595.827	578.644
599.202	363.96
602.577	213.583
605.952	130.019
609.327	68.6289
612.701	45.291
616.076	31.6621
619.451	14.9678
622.826	2.57422
626.201	19.6553
629.576	66.9356
632.95	64.5557
636.325	86.8643
639.7	91.4092
643.075	109.485
646.45	106.443
649.824	135.012
653.199	177.67
656.574	176.051
659.949	202.788
663.324	113.152
666.698	68.9131
670.073	77.4004
673.448	48.2344
676.823	61.9629
680.198	63.084
683.573	28.0547
686.947	27.2031
690.322	8.2002
693.697	16.584
697.072	12.377
700.447	9.67676
703.822	33.9326
707.196	15.9893
710.571	10.4229
713.946	37.2139
717.321	40.2129
720.696	46.7705
724.07	58.7656
727.445	52.7529
730.82	65.3887
734.195	60.2285
737.57	57.0166
740.944	45.9375
744.319	46.0039
747.694	44.21
751.069	79.999
754.444	52.54
757.818	44.0791
761.193	36.6504
764.568	23.1562
767.943	50.5059
771.318	28.8701
774.693	14.4414
778.067	14.8896
781.442	6.38965
784.817	5.82031
788.192	20.6787
791.567	24.5498
794.942	63.1201
798.316	14.9102
801.691	2.97323
805.066	23.8594
808.441	28.6172
811.816	0.086914
815.19	1.73633
818.565	45.6943
821.94	46.7363
825.315	42.4346
828.69	34.082
832.064	24.5098
835.439	18.3672
838.814	42.8926
842.189	31.3242
845.564	18.873
848.939	65.335
852.313	38.7324
855.688	31.0498
859.063	45.4863
862.438	12.4844
865.813	9.63281
869.188	25.2705
872.562	26.4043
875.937	66.4912
879.312	28.708
882.687	74.0732
886.062	80.0176
889.436	10.9004
892.811	36.0576
896.186	15.4385
899.561	29.502
902.936	22.6396
906.311	5.88184
909.685	14.6885
913.06	6.62109
916.435	38.2217
919.81	37.9844
923.185	11.4824
926.559	4.82422
929.934	13.7266
933.309	34.7041
936.684	1.18066
940.059	3.37793
943.433	19.042
946.808	14.8887
950.183	31.9346
953.558	9.38086
956.933	11.3359
960.308	24.7822
963.682	3.59277
967.057	22.4229
970.432	18.1025
973.807	19.2793
977.182	30.2266
980.557	41.2119
983.931	57.1338
987.306	72.1133
990.681	124.774
994.056	176.527
997.431	272.176
1000.8	464.881
1004.18	757.118
1007.55	1309.95
1010.93	2062.19
1014.3	2169.55
1017.68	1398.96
1021.05	749.035
1024.43	415.629
1027.8	263.22
1031.18	211.291
1034.55	143.369
1037.93	156.043
1041.3	132.405
1044.68	129.533
1048.05	118.656
1051.43	94.3428
1054.8	82.75
1058.18	66.6006
1061.55	81.9375
1064.93	95.4141
1068.3	115.557
1071.68	163.906
1075.05	186.739
1078.43	197.397
1081.8	247.435
1085.18	286.401
1088.55	232.576
1091.92	130.017
1095.3	45.8975
1098.67	26.3955
1102.05	3.34375
1105.42	16.6963
1108.8	40.6846
1112.17	28.4609
1115.55	12.7832
1118.92	11.6885
1122.3	22.4297
1125.67	1.66211
1129.05	21.9424
1132.42	11.8398
1135.8	23.8418
1139.17	63.0469
1142.55	71.209
1145.92	75.3232
1149.3	72.3603
1152.67	76.4902
1156.05	84.7148
1159.42	73.584
1162.8	83.9023
1166.17	79.4795
1169.55	96.0215
1172.92	128.716
1176.3	110.941
1179.67	103.14
1183.05	79.7519
1186.42	64.1885
1189.8	75.0938
1193.17	69.9385
1196.55	74.2002
1199.92	59.6797
1203.29	63.1982
1206.67	70.4463
1210.04	54.877
1213.42	50.7832
1216.79	45.7051
1220.17	39.1455
1223.54	26.9619
1226.92	35.5381
1230.29	20.3809
1233.67	20.2705
1237.04	40.5742
1240.42	16.1387
1243.79	5.17481
1247.17	17.4072
1250.54	2.67481
1253.92	3.6543
1257.29	33.9424
1260.67	58.2891
1264.04	54.5674
1267.42	43.2022
1270.79	5.25879
1274.17	12.2012
1277.54	30.5391
1280.91	19.9785
1284.29	32.9883
