Measurement: Raman, 785 nm, unoriented, Raman Data Processed
Mineral: Minyulite
Rruff sample: R070151
Ideal chemistry: KAl_2_(PO_4_)_2_F4H_2_O
Locality: Minyulo Well, Dandaragan, Western Australia, Australia
Source: James Shigley
Description: Radiating colorless transparent thin prismatic crystals
Measured chemistry: K_1.00_Al_2.00_(P_1.00_O_4_)_2_F_1.00_Â·4H_2_O;  H_2_O estimated by difference
Raman shift (cm-1)	intensity
167.111	0
170.004	95.3389
172.896	78.5474
175.789	177.074
178.682	284.364
181.574	480.214
184.467	501.878
187.36	273.453
190.252	24.916
193.145	18.1553
196.038	6.45117
198.93	47.6675
201.823	159.69
204.716	352.543
207.609	560.629
210.501	582.128
213.394	492.304
216.287	422.341
219.179	437.223
222.072	533.589
224.965	598.56
227.857	638.747
230.75	651.425
233.643	621.424
236.536	548.861
239.428	616.685
242.321	738.714
245.214	776.602
248.106	729.297
250.999	372.834
253.892	196.04
256.784	60.6763
259.677	21.5195
262.57	14.3828
265.463	7.77051
268.355	33.1836
271.248	67.5713
274.141	107.968
277.033	266.142
279.926	432.863
282.819	672.396
285.712	1016.52
288.604	1470.83
291.497	1824.78
294.39	2288.93
297.282	2421.46
300.175	2232.7
303.068	1776.07
305.96	1324.72
308.853	818.123
311.746	492.742
314.639	315.341
317.531	198.955
320.424	91.0644
323.317	110.846
326.209	76.6172
329.102	80.6152
331.995	112.082
334.887	77.1191
337.78	63.6221
340.673	9.17627
343.565	31.9087
346.458	2.83301
349.351	14.9727
352.244	82.1836
355.136	128.352
358.029	202.706
360.922	287.719
363.814	320.522
366.707	550.822
369.6	749.614
372.493	1014.82
375.385	1029.82
378.278	788.033
381.171	524.714
384.063	394.175
386.956	304.988
389.849	234.945
392.741	189.362
395.634	130.228
398.527	231.45
401.419	354.863
404.312	500.981
407.205	426.313
410.098	311.549
412.99	136.356
415.883	111.934
418.776	32.2847
421.668	18.3164
424.561	3.23535
427.454	58.5684
430.346	25.3901
433.239	7.75342
436.132	67.9106
439.024	61.6665
441.917	120.63
444.81	212.814
447.703	221.932
450.595	202.547
453.488	88.0859
456.381	40.1572
459.273	17.5415
462.166	172.006
465.059	196.642
467.952	327.377
470.844	580.517
473.737	988.073
476.63	1376.52
479.522	2052.01
482.415	2803.49
485.308	3675.65
488.2	4631.69
491.093	5407.83
493.986	5566.95
496.878	4665.86
499.771	3486.48
502.664	2399.06
505.557	1696.02
508.449	1163.53
511.342	837.538
514.235	555.245
517.127	427.429
520.02	335.588
522.913	197.782
525.806	127.517
528.698	119.825
531.591	104.338
534.484	27.9834
537.376	49.3867
540.269	27.0923
543.162	39.0869
546.054	24.6094
548.947	5.04102
551.84	20.5723
554.732	22.1191
557.625	36.8023
560.518	1.71826
563.411	76.2598
566.303	96.6728
569.196	31.4966
572.089	67.1372
574.981	126.889
577.874	184.758
580.767	252.52
583.659	303.377
586.552	415.661
589.445	576.533
592.338	535.268
595.23	341.168
598.123	257.026
601.016	147.89
603.908	101.297
606.801	96.1914
609.694	58.2451
612.587	46.7285
615.479	53.9404
618.372	1.46533
621.265	71.3594
624.157	84.1631
627.05	52.2822
629.943	46.1323
632.835	67.5059
635.728	99.1953
638.621	111.919
641.514	113.699
644.406	248.24
647.299	216.601
650.192	295.482
653.084	322.535
655.977	340.968
658.87	308.634
661.762	257.519
664.655	73.9907
667.548	83.4273
670.441	21.7895
673.333	33.2544
676.226	7.96143
679.119	8.70068
682.011	5.77393
684.904	40.189
687.797	4.38965
690.689	9.9375
693.582	60.3745
696.475	3.5669
699.367	2.36963
702.26	14.7974
705.153	16.9204
708.046	20.604
710.938	11.7515
713.831	41.5259
716.724	40.1006
719.616	0.001953
722.509	39.2598
725.402	12.8574
728.294	59.2476
731.187	91.8125
734.08	92.8223
736.973	45.749
739.865	76.6582
742.758	32.2368
745.651	43.1567
748.543	37.794
751.436	47.1592
754.329	52.0356
757.221	43.4199
760.114	32.8359
763.007	87.958
765.899	67.9443
768.792	52.5772
771.685	44.7319
774.578	18.2319
777.47	36.352
780.363	48.0063
783.256	48.3543
786.148	43.1509
789.041	50.6262
791.934	89.5149
794.827	9.35278
797.719	44.3845
800.612	3.28272
803.505	19.1602
806.397	23.6814
809.29	41.7444
812.183	38.072
815.075	76.7874
817.968	65.6433
820.861	36.0339
823.754	10.7224
826.646	54.3474
829.539	21.626
832.432	61.0388
835.324	45.3901
838.217	27.2554
841.11	18.8218
844.002	35.5007
846.895	64.6067
849.788	51.5601
852.681	68.7327
855.573	36.8235
858.466	24.2849
861.359	22.355
864.251	22.0969
867.144	60.552
870.037	68.9561
872.929	45.7092
875.822	33.7986
878.715	45.9605
881.607	2.24097
884.5	79.6177
887.393	24.0544
890.286	73.312
893.178	40.0779
896.071	36.5234
898.964	40.656
901.856	58.4568
904.749	62.5042
907.642	31.5
910.534	62.4846
913.427	43.0806
916.32	36.9163
919.213	22.4421
922.105	3.98901
924.998	42.8157
927.891	48.5549
930.783	21.2329
933.676	26.2888
936.569	8.65601
939.462	8.11011
942.354	17.4214
945.247	12.8154
948.14	40.9582
951.032	24.6431
953.925	25.0637
956.818	29.3447
959.71	15.2498
962.603	51.5823
965.496	66.3494
968.389	51.676
971.281	60.8823
974.174	87.929
977.067	126.482
979.959	187.3
982.852	311.496
985.745	402.195
988.637	548.266
991.53	726.123
994.423	1016.76
997.316	1569.51
1000.21	2415.66
1003.1	3561.5
1005.99	5073.02
1008.89	6601.89
1011.78	6853.35
1014.67	5633.17
1017.56	3895.36
1020.46	2496.7
1023.35	1577.37
1026.24	1069.92
1029.13	691.78
1032.03	494.376
1034.92	427.815
1037.81	339.802
1040.71	255.519
1043.6	216.441
1046.49	213.087
1049.38	175.805
1052.28	190.171
1055.17	145.447
1058.06	173.775
1060.95	201.921
1063.85	289.435
1066.74	367.062
1069.63	457.697
1072.53	552.127
1075.42	594.747
1078.31	653.502
1081.2	664.104
1084.1	632.085
1086.99	624.255
1089.88	601.321
1092.78	528.016
1095.67	311.879
1098.56	198.91
1101.45	82.8337
1104.35	49.7617
1107.24	37.4062
1110.13	26.3538
1113.02	13.3852
1115.92	6.98511
1118.81	3.59351
1121.7	6.70215
1124.59	22.1375
1127.49	38.1824
1130.38	25.3801
1133.27	51.0581
1136.16	23.2151
1139.06	22.6074
1141.95	48.5864
1144.84	32.6008
1147.74	63.2683
1150.63	98.4021
1153.52	75.8767
1156.41	47.197
1159.31	74.7788
1162.2	74.9453
1165.09	74.4028
1167.98	51.4946
1170.88	43.5613
1173.77	0.516846
1176.66	30.8784
1179.56	23.6838
1182.45	61.9595
1185.34	48.7671
1188.23	46.8201
1191.13	20.095
1194.02	18.7876
1196.91	35.1526
1199.8	47.1509
1202.7	39.0564
1205.59	55.051
1208.48	6.18384
1211.38	31.5891
1214.27	25.8279
1217.16	43.3909
1220.05	23.7568
1222.95	36.1697
1225.84	34.1794
1228.73	57.4856
1231.62	6.32275
1234.52	33.5042
