Measurement: Raman, 532 nm, unoriented, Raman Data Processed
Mineral: Minyulite
Rruff sample: R100072
Ideal chemistry: KAl_2_(PO_4_)_2_F4H_2_O
Locality: Tom's quarry, Kapunda, South Australia, Australia
Source: Marcus Origlieri
Description: Parallel aggregates of tabular colorless crystals associated with sprays of white, thin platy aldermanite, R100073, and colorless needle wavellite.
Raman shift (cm-1)	intensity
181.612	0
184.505	61.3262
187.398	117.75
190.29	155.272
193.183	122.248
196.076	46.7451
198.968	14.791
201.861	0.799805
204.754	38.5596
207.647	119.079
210.539	153.797
213.432	136.231
216.325	101.913
219.217	73.8506
222.11	91.1953
225.003	119.71
227.895	161.425
230.788	202.026
233.681	212.717
236.573	201.301
239.466	222.894
242.359	285.898
245.252	276.33
248.144	174.251
251.037	106.228
253.93	76.9023
256.822	52.5371
259.715	2.99707
262.608	26.2207
265.5	14.7432
268.393	21.0264
271.286	12.165
274.179	5.52832
277.071	46.208
279.964	54.2568
282.857	93.2236
285.75	166.722
288.642	290.18
291.535	336.726
294.428	362.203
297.32	365.433
300.213	332.909
303.106	240.379
305.998	152.114
308.891	77.6914
311.784	30.6514
314.676	18.4512
317.569	22.6797
320.462	15.7803
323.355	17.71
326.247	24.6162
329.14	21.4736
332.033	41.8682
334.925	40.166
337.818	56.5557
340.711	96.5107
343.603	54.1445
346.496	19.0215
349.389	7.38477
352.281	13.7754
355.174	24.873
358.067	79.4453
360.96	116.194
363.852	156.081
366.745	173.557
369.638	239.097
372.53	322.478
375.423	346.316
378.316	260.137
381.209	163.783
384.101	113.04
386.994	63.918
389.887	59.8135
392.779	29.085
395.672	10.1738
398.565	19.2764
401.457	54.9668
404.35	123.551
407.243	138.74
410.135	64.0772
413.028	58.4385
415.921	54.3027
418.814	38.669
421.706	27.5283
424.599	10.3398
427.492	22.4531
430.384	26.041
433.277	27.2471
436.17	73.8594
439.062	101.819
441.955	148.626
444.848	156.454
447.741	137.833
450.633	86.5078
453.526	30.7402
456.419	2.75195
459.311	3.42578
462.204	6.94336
465.097	27.2607
467.99	9.81934
470.882	23.3633
473.775	37.9258
476.668	81.8154
479.56	165.258
482.453	219.32
485.346	282.277
488.238	355.448
491.131	443.167
494.024	473.973
496.916	454.765
499.809	372.595
502.702	273.244
505.595	179.972
508.487	122.409
511.38	85.3857
514.273	58.9746
517.165	31.9102
520.058	13.1807
522.951	5.07227
525.844	42.3223
528.736	14.626
531.629	1.24805
534.522	5.14746
537.414	12.4893
540.307	8.92871
543.2	7.80273
546.092	2.48047
548.985	25.8789
551.878	22.1816
554.771	26.2871
557.663	33.7842
560.556	64.0957
563.449	78.0332
566.341	138.241
569.234	185.847
572.127	208.189
575.019	185.548
577.912	147.477
580.805	157.805
583.697	233.205
586.59	356.933
589.483	427.528
592.376	456.544
595.268	365.635
598.161	242.759
601.054	149.183
603.946	100.497
606.839	83.3184
609.732	93.8389
612.625	78.9727
615.517	78.3037
618.41	49.4082
621.303	5.50195
624.195	30.208
627.088	13.706
629.981	15.6152
632.873	17.0361
635.766	40.4414
638.659	32.334
641.552	9.70215
644.444	19.8506
647.337	18.8086
650.23	43.4248
653.122	72.8887
656.015	96.2676
658.908	107.341
661.8	70.1279
664.693	39.0273
667.586	13.2666
670.479	44.0772
673.371	27.2402
676.264	37.4004
679.157	17.2773
682.049	54.6758
684.942	42.9424
687.835	19.3545
690.727	36.7754
693.62	25.4473
696.513	24.791
699.405	38.2969
702.298	32.4619
705.191	10.5771
708.084	29.3555
710.976	68.1016
713.869	75.4941
716.762	40.457
719.654	8.07031
722.547	16.2178
725.44	18.8164
728.332	41.1377
731.225	20.8691
734.118	34.4492
737.011	22.1084
739.903	34.0713
742.796	2.72656
745.689	31.4297
748.581	55.0547
751.474	44.542
754.367	2.62891
757.26	9.70215
760.152	3.01758
763.045	26.0166
765.938	25.2217
768.83	14.7227
771.723	11.5752
774.616	32.5147
777.508	39.9688
780.401	38.2188
783.294	19.2773
786.187	26.6504
789.079	15.5967
791.972	54.3779
794.865	50.2783
797.757	19
800.65	14.0615
803.543	17.6533
806.435	12.3389
809.328	18.9795
812.221	16.0957
815.114	1.13379
818.006	6.86231
820.899	37.7334
823.792	32.9863
826.684	4.66992
829.577	13.1895
832.47	47.0293
835.362	36.2676
838.255	20.7695
841.148	0.568359
844.04	4.68359
846.933	46.0879
849.826	24.9795
852.719	15.9092
855.611	4.32519
858.504	22.8896
861.397	42.4219
864.289	34.2324
867.182	18.8555
870.075	33.794
872.967	49.4141
875.86	53.3301
878.753	52.9795
881.646	51.2402
884.538	27.7422
887.431	20.0312
890.324	65.001
893.216	53.5088
896.109	107.942
899.002	95.1113
901.894	95.3418
904.787	72.9707
907.68	75.2764
910.573	80.0322
913.465	64.6807
916.358	84.4609
919.251	106.126
922.143	87.1904
925.036	72.6602
927.929	75.7686
930.822	42.291
933.714	26.1074
936.607	1.13769
939.5	15.917
942.392	14.502
945.285	13.8037
948.178	3.31738
951.07	8.20801
953.963	20.2148
956.856	38.6797
959.749	74.9365
962.641	58.8193
965.534	50.9014
968.427	68.7227
971.319	71.3379
974.212	93.9648
977.105	122.399
979.997	131.093
982.89	136.588
985.783	130.009
988.676	179.948
991.568	212.492
994.461	182.887
997.354	243.265
1000.25	355.156
1003.14	543.036
1006.03	804.936
1008.92	1152.44
1011.82	1452.56
1014.71	1326.51
1017.6	874.062
1020.5	538.282
1023.39	330.489
1026.28	189.328
1029.17	169.69
1032.07	130.283
1034.96	137.126
1037.85	93.374
1040.74	27.9336
1043.64	14.2334
1046.53	47.3945
1049.42	52.7822
1052.32	25.9609
1055.21	62.5635
1058.1	47.0185
1060.99	27.4834
1063.89	15.2783
1066.78	3.88281
1069.67	24.8243
1072.56	22.7109
1075.46	83.957
1078.35	110.577
1081.24	127.088
1084.13	99.0147
1087.03	109.001
1089.92	106.457
1092.81	81.7256
1095.7	48.4648
1098.6	27.4551
1101.49	18.582
1104.38	1.40039
1107.28	5.52148
1110.17	14.9609
1113.06	5.87868
1115.95	13.499
1118.85	24.79
1121.74	24.8486
1124.63	12.5293
1127.53	17.8955
1130.42	3.94824
1133.31	13.8242
1136.2	32.9062
1139.1	44.5518
1141.99	42.5117
1144.88	11.1865
1147.77	12.3359
1150.67	64.8213
1153.56	81.5098
1156.45	91.582
1159.35	47.834
1162.24	15.79
1165.13	33.0166
1168.02	55.9824
1170.92	55.044
1173.81	48.4473
1176.7	53.0068
1179.59	12.8467
1182.49	34.4648
1185.38	60.4795
1188.27	34.9746
1191.16	10.8828
1194.06	20.0166
1196.95	27.293
1199.84	36.2402
1202.73	20.5889
1205.63	45.291
1208.52	44.0996
1211.41	55.3047
1214.31	75.2861
1217.2	47.6621
1220.09	14.9219
1222.98	10.4971
1225.88	19.7656
1228.77	27.0449
1231.66	57.4619
1234.56	41.5098
1237.45	27.2861
1240.34	11.5137
1243.23	6.26856
1246.13	23.3184
1249.02	68.0098
1251.91	82.3184
1254.8	55.6426
1257.7	28.8711
1260.59	19.5566
1263.48	12.5039
1266.38	31.1035
1269.27	63.6065
1272.16	27.0547
1275.05	35.1572
1277.95	0.37793
1280.84	4.86719
1283.73	10.0917
1286.62	10.3398
1289.52	16.0625
1292.41	1.39941
1295.3	58.6397
1298.19	48.7188
1301.09	49.2949
