Measurement: Raman, 532 nm, unoriented, Raman Data Processed
Mineral: Miserite
Rruff sample: R060095
Ideal chemistry: KCa_6_Si_8_O_22_(OH)
Locality: Magnet Cove, Garland County, Arkansas, USA
Source: University of Arizona Mineral Museum
Description: Massive pink fine fibers associated with eudialyte, wollastonite, and orthoclase
Measured chemistry: K_1.00_(Ca_5.85_Mn_0.05_Ti_0.05_[box]_0.05_)_Σ=6_Si_8.00_O_22_(F_1.46_(OH)_0.54_)_Σ=2_
Raman shift (cm-1)	intensity
133.762	0
137.137	1.41171
140.511	2.53397
143.886	0.731796
147.261	2.97786
150.636	0.377625
154.011	1.25707
157.386	0.83429
160.76	0.439316
164.135	0.250397
167.51	4.01172
170.885	5.24103
174.26	6.47949
177.634	5.9837
181.009	9.57596
184.384	7.72418
187.759	4.53134
191.134	0.009827
194.508	0.363922
197.883	0.691711
201.258	0.959045
204.633	3.53656
208.008	3.69833
211.382	3.27124
214.757	1.98929
218.132	0.944031
221.507	2.06705
224.882	5.46652
228.257	6.79105
231.631	10.0505
235.006	11.3283
238.381	12.8718
241.756	13.3582
245.131	13.964
248.506	14.0437
251.88	14.11
255.255	14.4577
258.63	14.3468
262.005	16.368
265.38	17.8388
268.754	16.5862
272.129	14.8718
275.504	10.998
278.879	6.53256
282.254	4.49466
285.628	3.43726
289.003	2.65774
292.378	3.18698
295.753	0.673401
299.128	0.013336
302.503	1.84833
305.877	2.49609
309.252	4.48889
312.627	2.58508
316.002	0.238281
319.377	0.85437
322.752	2.51535
326.126	2.80826
329.501	1.10034
332.876	0.796844
336.251	1.02856
339.625	0.223358
343	0.464478
346.375	0.054169
349.75	0.507355
353.125	0.292786
356.5	0.439728
359.875	0.887421
363.249	2.00839
366.624	4.64172
369.999	6.58005
373.374	8.9548
376.748	11.1283
380.123	12.7986
383.498	14.3548
386.873	15.1979
390.248	14.6783
393.623	15.8655
396.997	13.8362
400.372	13.2612
403.747	11.2695
407.122	11.7035
410.497	11.5879
413.872	11.6412
417.246	9.25107
420.621	7.27289
423.996	5.97958
427.371	7.05371
430.746	7.06055
434.12	4.99405
437.495	4.7652
440.87	5.0224
444.245	4.78604
447.62	5.59143
450.995	2.19449
454.369	2.66754
457.744	4.6506
461.119	7.77267
464.494	7.97745
467.869	2.36429
471.243	0.189148
474.618	0.176788
477.993	0.329803
481.368	0.099396
484.743	0.268585
488.118	0.303802
491.492	0.666107
494.867	1.23721
498.242	1.91559
501.617	2.55463
504.991	6.48663
508.366	7.58844
511.741	7.72082
515.116	6.82465
518.491	5.793
521.866	5.16422
525.24	4.26508
528.615	4.8627
531.99	6.60986
535.365	8.25421
538.74	8.54477
542.115	10.7209
545.489	9.02988
548.864	4.71606
552.239	2.88818
555.614	2.17471
558.989	0.122131
562.363	0.124969
565.738	0.876312
569.113	0.672821
572.488	0.957947
575.863	0.451172
579.237	1.42276
582.612	0.194
585.987	0.329254
589.362	0.243774
592.737	1.02475
596.112	1.77924
599.486	4.05444
602.861	7.44037
606.236	12.1389
609.611	16.9771
612.986	27.9019
616.361	38.6548
619.735	53.6069
623.11	69.6695
626.485	78.1278
629.86	87.1573
633.235	105.988
636.609	136.023
639.984	163.961
643.359	159.816
646.734	121.959
650.109	88.4409
653.484	68.5588
656.858	51.8141
660.233	39.1823
663.608	30.9548
666.983	22.8029
670.357	14.7577
673.732	9.64578
677.107	6.88535
680.482	3.3699
683.857	2.05786
687.232	0.797333
690.606	1.48355
693.981	1.31506
697.356	0.21933
700.731	1.55157
704.106	0.21048
707.481	0.186005
710.855	1.13934
714.23	2.44635
717.605	0.196777
720.98	0.002106
724.355	2.31122
727.729	6.63132
731.104	8.93378
734.479	11.4621
737.854	14.8077
741.229	17.4269
744.604	15.7268
747.978	14.7778
751.353	15.0917
754.728	17.2668
758.103	19.7025
761.477	27.1462
764.852	33.2957
768.227	47.4515
771.602	58.3861
774.977	70.9638
778.352	84.2299
781.726	85.4851
785.101	78.0327
788.476	63.6807
791.851	52.8419
795.226	44.2011
798.601	39.3271
801.975	30.082
805.35	21.9323
808.725	16.4988
812.1	9.8024
815.475	6.88803
818.849	6.65411
822.224	7.36551
825.599	6.19067
828.974	4.81717
832.349	3.94543
835.723	3.84933
839.098	4.1488
842.473	3.61792
845.848	4.68677
849.223	4.37122
852.598	5.87692
855.972	8.48355
859.347	7.00934
862.722	6.5994
866.097	4.55118
869.472	2.40021
872.846	1.1474
876.221	0.565887
879.596	1.42163
882.971	1.68918
886.346	0.369446
889.721	1.19061
893.095	2.93936
896.47	3.22638
899.845	4.88522
903.22	6.44812
906.595	8.18631
909.97	10.9723
913.344	13.7984
916.719	17.3902
920.094	20.6883
923.469	23.6419
926.844	22.9124
930.218	22.5934
933.593	17.7061
936.968	17.0319
940.343	17.5702
943.718	15.0497
947.092	16.5129
950.467	13.1697
953.842	11.8947
957.217	10.5933
960.592	9.00885
963.966	7.92303
967.341	4.70062
970.716	4.20148
974.091	1.75519
977.466	2.40503
980.841	2.65045
984.215	3.22492
987.59	0.681763
990.965	1.01947
994.34	0.004822
997.715	1.36127
1001.09	1.82953
1004.46	1.80023
1007.84	3.87152
1011.21	2.1532
1014.59	5.03088
1017.96	2.22986
1021.34	1.73187
1024.71	1.56372
1028.09	0.881653
1031.46	1.75977
1034.84	1.66821
1038.21	2.70929
1041.59	2.75623
1044.96	4.42175
1048.34	6.47809
1051.71	10.013
1055.09	12.4769
1058.46	15.3176
1061.84	19.8368
1065.21	21.5153
1068.59	16.155
1071.96	12.0392
1075.34	4.99469
1078.71	4.32385
1082.09	1.70264
1085.46	1.67065
1088.84	5.24731
1092.21	4.66986
1095.58	5.96625
1098.96	8.21051
1102.33	11.8289
1105.71	18.7673
1109.08	27.1842
1112.46	42.8572
1115.83	55.8867
1119.21	74.6431
1122.58	91.8811
1125.96	83.986
1129.33	46.8186
1132.71	20.2162
1136.08	8.15045
1139.46	3.44922
1142.83	1.62708
1146.21	2.45172
1149.58	0.195251
1152.96	0.013245
1156.33	1.59332
1159.71	0.480713
1163.08	1.58075
1166.45	0.767395
1169.83	0.689087
1173.2	0.107849
1176.58	0.976929
1179.95	1.50751
1183.33	2.896
1186.7	0.25592
1190.08	2.70947
1193.45	3.34717
1196.83	3.55158
1200.2	2.81592
1203.58	2.89514
1206.95	3.53827
1210.33	3.67499
1213.7	2.86731
1217.08	3.35229
1220.45	3.99261
1223.83	6.27625
1227.2	4.1557
1230.58	3.63129
1233.95	2.60095
1237.33	3.6969
1240.7	0.473145
1244.08	1.7334
1247.45	3.16345
1250.83	3.922
1254.2	3.61798
1257.58	4.23022
1260.95	3.11414
1264.33	5.15521
1267.7	3.55505
1271.08	4.59216
1274.45	3.38788
1277.82	3.2749
1281.2	1.3963
1284.57	2.71551
1287.95	2.10907
1291.32	3.55396
1294.7	2.25281
1298.07	0.215271
1301.45	6.23157
1304.82	1.89294
