Measurement: Raman, 532 nm, unoriented, Raman Data Processed
Mineral: Mixite
Rruff sample: R070503
Ideal chemistry: Cu^2+^_6_Bi^3+^(As^5+^O_4_)_3_(OH)_6_3H_2_O
Locality: Hilarion mine, near Kamariza, Lavrion District, Greece
Source: Bob Jenkins
Description: Radiating aggregates of bluish-green acicular crystals
Measured chemistry: (Cu_5.73_Ca_0.22_Zn_0.06_Fe_0.01_)_Σ=6.02_(Bi_0.52_Ca_0.48_)_Σ=1.00_(AsO_4_)_2.86_(OH)_6_·3.58H_2_O
Raman shift (cm-1)	intensity
137.62	0
140.513	27.5
143.406	69.1395
146.298	207.63
149.191	366.127
152.084	567.497
154.976	825.912
157.869	979.843
160.762	976.31
163.655	1054.98
166.547	1140.84
169.44	1282.27
172.333	1228.14
175.225	1102.29
178.118	944.106
181.011	802.485
183.904	703.189
186.796	589.85
189.689	562.22
192.582	413.226
195.474	314.401
198.367	188.836
201.26	66.4228
204.153	6.32202
207.045	17.2782
209.938	8.6156
212.831	121.962
215.723	264.205
218.616	427.228
221.509	599.623
224.401	860.675
227.294	968.451
230.187	837.387
233.079	525.872
235.972	254.533
238.865	152.59
241.758	141.83
244.65	162.458
247.543	188.459
250.436	223.641
253.328	143.783
256.221	71.5656
259.114	8.00378
262.007	21.6343
264.899	37.894
267.792	12.5477
270.685	50.3057
273.577	94.666
276.47	176.71
279.363	191.724
282.255	203.199
285.148	168.451
288.041	168.407
290.933	166.276
293.826	192.405
296.719	229.228
299.612	334.055
302.504	436.37
305.397	576.659
308.29	685.317
311.182	758.424
314.075	871.707
316.968	981.253
319.861	992.564
322.753	884.411
325.646	725.192
328.539	536.833
331.431	409.926
334.324	273.156
337.217	202.215
340.109	126.556
343.002	68.1981
345.895	17.7853
348.788	3.98511
351.68	7.0816
354.573	18.0424
357.466	21.5845
360.358	43.1925
363.251	3.75732
366.144	16.3273
369.036	40.5957
371.929	107.14
374.822	181.471
377.714	284.712
380.607	407.255
383.5	488.934
386.393	594.8
389.285	673.193
392.178	671.851
395.071	669.527
397.963	593.929
400.856	450.045
403.749	344.665
406.642	342.087
409.534	480.488
412.427	682
415.32	917.17
418.212	1110.2
421.105	1098.78
423.998	917.595
426.89	695.284
429.783	428.113
432.676	174.494
435.568	40.2611
438.461	52.8475
441.354	34.8737
444.247	44.6108
447.139	183.816
450.032	375.018
452.925	657.922
455.817	930.089
458.71	1255.47
461.603	1681.16
464.496	2259.59
467.388	2979.98
470.281	3775.9
473.174	4324.2
476.066	4260.57
478.959	3428.37
481.852	2521.03
484.745	1929.93
487.637	1429.76
490.53	1082.27
493.423	761.075
496.315	542.412
499.208	411.603
502.101	333.109
504.993	308.801
507.886	236.608
510.779	140.167
513.672	77.9576
516.564	31.4729
519.457	108.883
522.35	200.201
525.242	306.027
528.135	431.451
531.028	467.188
533.92	425.448
536.813	374
539.706	198.799
542.598	158.655
545.491	88.0813
548.384	63.7505
551.277	60.1738
554.169	71.8495
557.062	95.4092
559.955	74.0633
562.847	99.5633
565.74	63.5212
568.633	25.3942
571.525	20.9976
574.418	12.7063
577.311	31.4223
580.204	26.8693
583.096	31.5312
585.989	20.4358
588.882	17.5142
591.774	18.9502
594.667	25.8223
597.56	33.1842
600.452	60.4875
603.345	45.7881
606.238	70.524
609.131	80.934
612.023	97.8801
614.916	96.3789
617.809	116.179
620.701	113.967
623.594	142.727
626.487	138.93
629.38	127.849
632.272	158.698
635.165	144.596
638.058	166.984
640.95	139.618
643.843	152.327
646.736	170.221
649.628	152.01
652.521	152.204
655.414	168.104
658.307	148.081
661.199	167.372
664.092	178.615
666.985	175.103
669.877	190.546
672.77	166.676
675.663	203.566
678.556	196.829
681.448	203.834
684.341	213.255
687.234	219.785
690.126	208.327
693.019	215.563
695.912	222.561
698.804	219.224
701.697	223.918
704.59	205.636
707.482	193.828
710.375	175.294
713.268	166.305
716.161	144.704
719.053	125.52
721.946	103.908
724.839	88.7974
727.731	60.2402
730.624	46.2437
733.517	61.2585
736.409	33.638
739.302	12.3987
742.195	8.19928
745.088	16.8042
747.98	20.7543
750.873	30.6633
753.766	59.1346
756.658	44.3486
759.551	14.4169
762.444	29.7883
765.337	11.4373
768.229	8.6123
771.122	34.7397
774.015	37.2319
776.907	78.6921
779.8	113.537
782.693	156.972
785.585	231.32
788.478	338.397
791.371	496.084
794.264	714.459
797.156	1043.87
800.049	1538.47
802.942	2025.38
805.834	2626.42
808.727	3056.88
811.62	3233.26
814.512	3137.47
817.405	2928.56
820.298	2781.74
823.191	2761.52
826.083	2818.31
828.976	2850.27
831.869	2799.36
834.761	2930.88
837.654	3273.23
840.547	3958.36
843.439	5087.53
846.332	6797.29
849.225	8708.35
852.118	10242
855.01	10530.3
857.903	9032.72
860.796	6505.65
863.688	4308.91
866.581	2962.9
869.474	2155.95
872.366	1721.73
875.259	1432.24
878.152	1302.53
881.045	1153.57
883.937	958.472
886.83	804.463
889.723	646.677
892.615	512.873
895.508	408.281
898.401	360.574
901.293	333.604
904.186	284.086
907.079	301.754
909.972	266.296
912.864	206.358
915.757	151.016
918.65	98.5604
921.542	11.9313
924.435	32.5984
927.328	79.4795
930.221	71.6461
933.113	61.9551
936.006	42.0178
938.899	1.03113
941.791	11.6043
944.684	26.1865
947.577	22.028
950.469	73.2293
953.362	71.3688
956.255	97.3966
959.148	141.489
962.04	162.881
964.933	196.91
967.826	218.593
970.718	261.064
973.611	304.063
976.504	368.44
979.396	436.443
982.289	482.477
985.182	520.368
988.074	583.178
990.967	598.268
993.86	549.964
996.753	519.018
999.645	448.409
1002.54	380.952
1005.43	317.332
1008.32	261.872
1011.22	208.831
1014.11	152.675
1017	136.114
1019.89	95.2563
1022.79	56.6851
1025.68	63.9692
1028.57	58.8901
1031.46	45.2319
1034.36	39.9463
1037.25	20.7523
1040.14	34.1379
1043.04	34.4047
1045.93	25.9947
1048.82	22.6551
1051.71	1.09347
1054.61	26.7791
1057.5	8.00491
1060.39	17.376
1063.29	9.07687
1066.18	1.90857
1069.07	10.8927
1071.96	19.044
1074.86	18.4294
1077.75	3.54315
1080.64	2.41342
1083.53	9.98959
1086.43	0.462463
1089.32	22.3977
1092.21	4.37189
1095.1	8.85428
1098	5.11688
1100.89	21.7019
1103.78	26.3363
1106.67	8.681
1109.57	14.7292
1112.46	11.373
1115.35	42.1251
1118.25	30.2707
1121.14	28.018
1124.03	27.7475
1126.92	45.3632
1129.82	61.7573
1132.71	73.956
1135.6	48.5862
1138.49	47.9278
1141.39	52.868
1144.28	42.3622
1147.17	38.1358
1150.07	38.7025
1152.96	38.057
1155.85	19.8159
1158.74	21.8964
1161.64	15.4792
1164.53	13.258
1167.42	2.94037
1170.32	36.7456
1173.21	28.3072
1176.1	7.69379
1178.99	8.77698
1181.88	13.5907
1184.78	5.67212
1187.67	22.6603
1190.56	6.37685
1193.46	4.54695
1196.35	15.0747
1199.24	11.0502
1202.13	14.7706
1205.03	15.1003
1207.92	7.56595
1210.81	6.9216
1213.7	1.90028
1216.6	27.3881
1219.49	18.4883
1222.38	11.9436
1225.28	10.7723
1228.17	4.29343
1231.06	19.1728
1233.95	12.7917
1236.85	4.77548
1239.74	2.27187
1242.63	21.4469
1245.53	23.8687
1248.42	9.17021
1251.31	21.9267
1254.2	12.1425
1257.1	17.1089
1259.99	15.18
1262.88	9.86897
1265.77	9.48882
1268.67	15.8363
1271.56	32.9332
1274.45	13.5831
1277.35	4.36099
1280.24	0.361099
1283.13	5.96431
1286.02	8.39447
1288.91	3.45261
