Measurement: Raman, 780 nm, unoriented, Raman Data Processed
Mineral: Moissanite
Rruff sample: R110106
Ideal chemistry: SiC
Locality: Synthetic
Source: Gemological Institute of America
Description: A cut, colorless (0.45ct) gemstone, sublimation grown.
Raman shift (cm-1)	intensity
92.0856	0
95.4604	105.409
98.8353	78.6494
102.21	89.4614
105.585	115.135
108.96	60.4188
112.335	34.9971
115.709	2.55518
119.084	0.380981
122.459	18.5245
125.834	147.671
129.209	627.919
132.583	1488.94
135.958	1521.83
139.333	2610.36
142.708	4763.92
146.083	8834.34
149.458	30394.1
152.832	696.082
156.207	7.08807
159.582	2.53388
162.957	0.905029
166.332	8.34375
169.706	2.99017
173.081	23.0388
176.456	10.2256
179.831	11.6669
183.206	13.3131
186.581	14.722
189.955	22.571
193.33	20.2509
196.705	26.8919
200.08	25.5837
203.455	30.6971
206.829	42.8965
210.204	40.8488
213.579	40.9971
216.954	22.8985
220.329	34.1167
223.703	51.2767
227.078	34.01
230.453	47.9086
233.828	84.3967
237.203	91.6288
240.578	237.192
243.952	23.5406
247.327	59.5775
250.702	89.751
254.077	83.8143
257.452	155.763
260.827	266.299
264.201	839.418
267.576	822.61
270.951	6.05261
274.326	3.65967
277.701	8.14539
281.075	8.17407
284.45	7.18933
287.825	2.93689
291.2	13.3682
294.575	27.1445
297.95	29.5671
301.324	29.7773
304.699	29.1013
308.074	38.9883
311.449	30.4315
314.824	32.6437
318.198	36.9224
321.573	19.9276
324.948	13.1611
328.323	6.31848
331.698	6.32886
335.072	5.53796
338.447	2.64502
341.822	5.12744
345.197	5.40649
348.572	8.8313
351.947	3.35522
355.321	12.4698
358.696	0.7948
362.071	25.8487
365.446	7.5304
368.821	6.02966
372.195	11.9008
375.57	11.514
378.945	6.94897
382.32	4.64294
385.695	11.7223
389.07	34.4741
392.444	19.4188
395.819	25.8852
399.194	27.8728
402.569	37.5624
405.944	22.9708
409.318	30.7688
412.693	29.4373
416.068	30.8944
419.443	32.1775
422.818	39.0181
426.192	30.7511
429.567	14.983
432.942	8.71033
436.317	14.4022
439.692	3.35168
443.067	4.89807
446.441	6.7533
449.816	18.3092
453.191	7.64856
456.566	5.20837
459.941	8.63623
463.315	3.0542
466.69	12.7153
470.065	10.9475
473.44	8.80444
476.815	2.95129
480.19	8.97681
483.564	6.00684
486.939	12.6396
490.314	63.5299
493.689	76.4076
497.064	154.895
500.438	346.413
503.813	1091.56
507.188	787.399
510.563	302.932
513.938	691.204
517.313	51.9312
520.687	13.8632
524.062	3.15918
527.437	17.1197
530.812	26.028
534.187	34.9467
537.562	43.5117
540.936	32.937
544.311	29.8498
547.686	29.4586
551.061	40.8601
554.436	44.9288
557.81	43.9933
561.185	54.5233
564.56	45.3499
567.935	38.749
571.31	47.402
574.684	62.3076
578.059	63.4523
581.434	85.2173
584.809	60.5344
588.184	75.6831
591.558	65.2843
594.933	56.1736
598.308	74.4071
601.683	76.431
605.058	66.7567
608.433	50.2672
611.807	44.1016
615.182	40.3507
618.557	17.5118
621.932	21.3438
625.307	21.3933
628.682	14.0158
632.056	4.18518
635.431	9.87451
638.806	7.38916
642.181	3.10327
645.556	2.85681
648.93	6.98987
652.305	18.8534
655.68	14.1711
659.055	14.4484
662.43	1.84814
665.804	3.64136
669.179	7.70361
672.554	26.0321
675.929	22.9011
679.304	48.8044
682.679	33.0828
686.053	22.4294
689.428	28.2324
692.803	11.8049
696.178	20.1321
699.553	54.4932
702.928	73.7283
706.302	27.1279
709.677	20.8909
713.052	49.428
716.427	61.8623
719.802	42.8015
723.176	53.7222
726.551	77.4243
729.926	121.05
733.301	185.345
736.676	270.543
740.051	366.791
743.425	492.506
746.8	687.462
750.175	1054.51
753.55	2473.21
756.925	3572.9
760.299	6135.95
763.674	13834.7
767.049	31400.8
770.424	7622.65
773.799	5006.55
777.173	9787.57
780.548	13808
783.923	29199.6
787.298	83677.5
790.673	54950.4
794.048	8164.7
797.422	5432.86
800.797	1451.79
804.172	600.837
807.547	330.781
810.922	160.784
814.296	83.4075
817.671	35.6365
821.046	16.9377
824.421	12.0846
827.796	19.2622
831.17	17.8
834.545	20.5674
837.92	25.8567
841.295	8.79297
844.67	7.18787
848.045	0.483643
851.419	9.26099
854.794	27.9236
858.169	31.764
861.544	27.3385
864.919	45.175
868.293	49.4871
871.668	51.9264
875.043	55.6899
878.418	59.6624
881.793	90.9188
885.168	139.966
888.542	293.48
891.917	81.9374
895.292	8.86511
898.667	21.0144
902.042	35.9907
905.417	51.9238
908.791	48.999
912.166	34.3879
915.541	37.5883
918.916	75.7626
922.291	97.1682
925.665	154.099
929.04	218.873
932.415	285.731
935.79	375.023
939.165	399.782
942.539	503.854
945.914	768.125
949.289	1376.5
952.664	3486.37
956.039	7496.77
959.414	14155.3
962.788	34596.8
966.163	65886.9
969.538	20531.5
972.913	5769.58
976.288	2315.37
979.663	1235.53
983.037	751.419
986.412	482.204
989.787	327.252
993.162	217.972
996.537	153.194
999.911	92.0271
1003.29	46.7755
1006.66	12.3417
1010.04	8.33704
1013.41	8.03241
1016.78	8.34979
1020.16	11.7147
1023.53	8.82758
1026.91	7.46515
1030.29	0.879761
1033.66	22.6691
1037.03	37.1164
1040.41	51.1762
1043.78	62.0458
1047.16	88.2186
1050.53	95.9483
1053.91	100.894
1057.28	110.176
1060.66	116.503
1064.03	127.637
1067.41	145.433
1070.78	154.027
1074.16	164.681
1077.53	170.195
1080.91	195.773
1084.28	216.694
1087.66	227.084
1091.03	210.977
1094.41	219.739
1097.78	207.972
1101.16	208.933
1104.53	194.105
1107.91	206.354
1111.28	203.679
1114.65	203.477
1118.03	211.207
1121.4	207.572
1124.78	226.004
1128.15	220.049
1131.53	190.873
1134.9	168.728
1138.28	120.738
1141.65	110.36
1145.03	77.1965
1148.4	67.2632
1151.78	58.3831
1155.15	32.1071
1158.53	24.6522
1161.9	18.355
1165.28	1.17834
1168.65	4.80231
1172.03	2.07574
1175.4	3.80627
1178.78	13.2137
1182.15	0.001648
1185.53	4.83911
1188.9	5.92108
1192.28	1.52203
1195.65	2.48987
1199.03	8.12732
1202.4	24.1222
1205.78	20.7365
1209.15	36.8636
1212.53	29.3668
1215.9	31.5906
1219.27	43.0142
1222.65	53.6575
1226.02	57.4199
1229.4	67.3894
1232.77	69.7452
1236.15	52.0112
1239.52	58.2579
1242.9	28.8151
1246.27	23.1729
1249.65	18.1428
1253.02	8.97601
1256.4	8.05829
1259.77	6.50092
1263.15	12.1486
1266.52	34.7484
1269.9	27.5563
1273.27	16.5564
1276.65	13.3315
1280.02	12.7997
1283.4	7.4779
