Measurement: Raman, 532 nm, unoriented, Raman Data Processed
Mineral: Moissanite
Rruff sample: R061083
Ideal chemistry: SiC
Locality: Synthetic
Source: Los Alamos National Labs
Description: Colorless fragments from a broken high pressure anvil cell
Raman shift (cm-1)	intensity
82.9955	0
86.3703	7.79591
89.7451	17.1377
93.1199	13.2906
96.4947	24.3905
99.8696	6.87793
103.244	7.09568
106.619	0.365509
109.994	13.8946
113.369	3.21294
116.744	32.0555
120.118	61.5444
123.493	101.939
126.868	118.027
130.243	122.745
133.618	89.1418
136.993	152.088
140.367	564.182
143.742	1040.22
147.117	1887.03
150.492	677.411
153.867	51.4653
157.241	40.6854
160.616	30.4493
163.991	22.1901
167.366	36.3137
170.741	12.5747
174.115	20.7311
177.49	17.5241
180.865	15.9803
184.24	16.6265
187.615	17.6944
190.989	11.1181
194.364	10.2633
197.739	4.10033
201.114	10.7562
204.489	14.7888
207.864	12.5829
211.238	4.90294
214.613	8.44065
217.988	4.6704
221.363	13.2741
224.738	63.852
228.113	177.117
231.487	650.824
234.862	1302
238.237	1556.38
241.612	611.989
244.987	10.3704
248.361	9.88432
251.736	7.08251
255.111	12.7402
258.486	34.815
261.861	45.0808
265.236	199.797
268.61	0.144547
271.985	9.74217
275.36	10.2149
278.735	0.97924
282.11	0.821434
285.484	8.21378
288.859	16.2085
292.234	5.25397
295.609	23.2736
298.984	20.5161
302.358	17.1197
305.733	16.6643
309.108	35.1309
312.483	23.8057
315.858	27.4165
319.233	27.9098
322.607	19.8424
325.982	13.994
329.357	18.2858
332.732	23.7023
336.107	10.0556
339.481	3.20747
342.856	6.71553
346.231	3.32735
349.606	6.11114
352.981	1.59358
356.355	0.291016
359.73	1.77687
363.105	1.73674
366.48	9.38231
369.855	9.40359
373.229	17.2787
376.604	10.0168
379.979	14.1228
383.354	14.0213
386.729	21.1438
390.104	30.6823
393.478	34.3246
396.853	18.3452
400.228	24.6776
403.603	41.3071
406.978	28.8083
410.353	28.5258
413.727	28.9488
417.102	46.0524
420.477	22.4486
423.852	15.7889
427.227	17.1538
430.601	20.3378
433.976	12.8026
437.351	10.4067
440.726	7.23614
444.101	10.8998
447.475	0.342285
450.85	6.26376
454.225	3.70135
457.6	6.9682
460.975	13.9589
464.349	11.8418
467.724	2.03909
471.099	9.46372
474.474	4.71805
477.849	10.7223
481.224	14.3732
484.598	0.093628
487.973	4.77902
491.348	56.2426
494.723	159.275
498.098	279.463
501.473	567.823
504.847	1538.48
508.222	230.047
511.597	221.112
514.972	80.9738
518.347	2.62628
521.721	6.76556
525.096	10.0021
528.471	16.5675
531.846	38.6166
535.221	31.4098
538.595	24.6185
541.97	35.2478
545.345	49.2519
548.72	41.5841
552.095	47.0585
555.47	50.4134
558.844	56.536
562.219	48.9974
565.594	80.3621
568.969	77.7994
572.344	91.2719
575.718	126.41
579.093	125.294
582.468	119.027
585.843	142.468
589.218	134.164
592.592	156.094
595.967	167.699
599.342	174.097
602.717	179.259
606.092	167.053
609.467	163.77
612.841	129.419
616.216	117.089
619.591	130.558
622.966	96.1583
626.341	81.7365
629.715	79.4096
633.09	66.6365
636.465	28.8825
639.84	18.799
643.215	39.9812
646.59	23.9415
649.964	12.6129
653.339	21.6312
656.714	10.8666
660.089	11.244
663.464	11.9329
666.838	5.61749
670.213	14.7058
673.588	23.0889
676.963	25.0808
680.338	33.1113
683.712	2.59412
687.087	23.9434
690.462	2.72589
693.837	17.1926
697.212	52.6388
700.587	104.101
703.961	91.4141
707.336	20.1462
710.711	12.8234
714.086	96.3016
717.461	44.3579
720.835	3.51819
724.21	1.64343
727.585	60.3842
730.96	86.7555
734.335	202.002
737.71	316.265
741.084	459.8
744.459	653.148
747.834	875.945
751.209	1140.27
754.584	1689.99
757.958	2370.4
761.333	3504.17
764.708	5632.82
768.083	7013.77
771.458	7181.08
774.832	16027.6
778.207	30195.6
781.582	56101.9
784.957	111727
788.332	153899
791.707	33448.9
795.081	34127.9
798.456	43677.4
801.831	5473.48
805.206	1964.86
808.581	961.351
811.955	547.712
815.33	293.548
818.705	157.7
822.08	70.3008
825.455	36.041
828.83	18.3495
832.204	17.1192
835.579	22.6442
838.954	17.3502
842.329	6.72247
845.704	1.66443
849.078	6.9624
852.453	24.0689
855.828	10.1645
859.203	35.5587
862.578	38.5427
865.952	45.3978
869.327	72.9777
872.702	88.6075
876.077	177.102
879.452	343.83
882.827	591.056
886.201	1079.44
889.576	1746.27
892.951	266.974
896.326	174.902
899.701	163.895
903.075	161.191
906.45	169.18
909.825	157.378
913.2	156.685
916.575	161.982
919.949	173.798
923.324	197.831
926.699	211.408
930.074	207.176
933.449	192.704
936.823	162.273
940.198	111.109
943.573	28.1157
946.948	9.75024
950.323	2.51685
953.698	75.8653
957.072	315.854
960.447	763.473
963.822	1436.78
967.197	2543.6
970.572	3754.74
973.947	1051.31
977.321	287.179
980.696	128.067
984.071	83.9501
987.446	67.0372
990.821	53.6838
994.195	43.2837
997.57	41.3977
1000.95	28.5095
1004.32	8.38937
1007.7	0.196625
1011.07	17.6401
1014.44	2.33575
1017.82	14.5975
1021.19	2.43384
1024.57	5.11151
1027.94	15.6916
1031.32	22.1689
1034.69	61.0738
1038.07	46.9447
1041.44	79.9661
1044.82	100.546
1048.19	146.083
1051.57	128.209
1054.94	142.999
1058.32	146.54
1061.69	140.443
1065.07	151.057
1068.44	175.769
1071.82	202.001
1075.19	214.252
1078.57	242.744
1081.94	288.868
1085.32	332.035
1088.69	334.129
1092.07	304.024
1095.44	319.993
1098.82	297.9
1102.19	312.538
1105.56	304.13
1108.94	293.759
1112.31	310.551
1115.69	315.075
1119.06	340.634
1122.44	316.28
1125.81	314.816
1129.19	324.318
1132.56	298.813
1135.94	261.687
1139.31	221.776
1142.69	184.587
1146.06	155.088
1149.44	130.841
1152.81	124.909
1156.19	101.507
1159.56	51.4449
1162.94	61.9293
1166.31	41.9233
1169.69	19.2653
1173.06	0.221619
1176.43	3.82764
1179.81	13.3441
1183.18	14.0456
1186.56	6.73053
1189.93	5.97846
1193.31	10.1266
1196.68	23.5859
1200.06	31.7405
1203.43	39.8706
1206.81	40.0694
1210.18	62.6157
1213.56	71.5602
1216.93	70.9649
1220.31	83.936
1223.68	92.7277
1227.06	102.7
1230.43	113.87
1233.81	102.321
1237.18	89.2847
1240.56	57.6833
1243.93	33.1091
1247.31	3.54712
1250.68	20.6478
1254.06	5.29507
1257.43	2.1106
1260.81	23.202
1264.18	13.3843
1267.56	31.9701
1270.93	56.4633
1274.31	63.8534
1277.68	48.8741
1281.06	39.0805
1284.43	44.7266
1287.8	38.7993
1291.18	32.1373
1294.55	28.9217
1297.93	1.24219
