Measurement: Raman, 785 nm, unoriented, Raman Data Processed
Mineral: Moissanite
Rruff sample: R061083
Ideal chemistry: SiC
Locality: Synthetic
Source: Los Alamos National Labs
Description: Colorless fragments from a broken high pressure anvil cell
Raman shift (cm-1)	intensity
86.917	0
90.2918	9.03067
93.6666	2.0025
97.0414	6.0847
100.416	30.7879
103.791	35.4712
107.166	24.3656
110.541	7.99834
113.915	10.7901
117.29	2.03639
120.665	7.922
124.04	0.366623
127.415	8.66074
130.79	23.5841
134.164	22.0203
137.539	71.3157
140.914	224.829
144.289	951.853
147.664	3531.01
151.038	560.805
154.413	50.7884
157.788	37.4121
161.163	35.5043
164.538	30.2133
167.913	16.441
171.287	32.3248
174.662	13.0221
178.037	22.4762
181.412	19.0984
184.787	21.8568
188.161	22.6558
191.536	14.5652
194.911	12.5075
198.286	2.85104
201.661	18.7213
205.036	14.965
208.41	5.25698
211.785	16.7156
215.16	6.08862
218.535	12.8439
221.91	15.529
225.284	24.1681
228.659	58.0096
232.034	172.926
235.409	468.749
238.784	903.348
242.159	142.604
245.533	16.8313
248.908	21.5286
252.283	16.4788
255.658	18.0521
259.033	35.7172
262.407	76.5325
265.782	259.923
269.157	11.9703
272.532	8.15878
275.907	1.1421
279.281	5.73099
282.656	10.7919
286.031	2.45176
289.406	0.493973
292.781	7.15546
296.156	8.5703
299.53	9.13996
302.905	6.94594
306.28	5.24289
309.655	12.9526
313.03	17.3556
316.404	14.1554
319.779	8.07854
323.154	7.65787
326.529	13.8632
329.904	4.18635
333.279	1.2856
336.653	17.1926
340.028	10.0496
343.403	2.90813
346.778	1.52608
350.153	6.38212
353.527	0.515007
356.902	1.20664
360.277	4.10824
363.652	3.61607
367.027	8.69714
370.401	3.11996
373.776	6.46712
377.151	9.27699
380.526	7.72068
383.901	5.02668
387.276	12.0117
390.65	16.1042
394.025	12.4397
397.4	9.20108
400.775	9.29662
404.15	17.0231
407.524	13.6477
410.899	21.4056
414.274	21.9556
417.649	34.4191
421.024	2.07683
424.399	9.13762
427.773	9.23377
431.148	19.9615
434.523	7.33046
437.898	1.0759
441.273	13.6898
444.647	3.84776
448.022	9.89224
451.397	12.5125
454.772	4.03726
458.147	3.59351
461.522	10.5449
464.896	12.76
468.271	6.37302
471.646	3.02771
475.021	1.29939
478.396	11.3063
481.77	9.91362
485.145	2.4884
488.52	0.514343
491.895	4.33461
495.27	28.7844
498.644	105.772
502.019	272.141
505.394	675.846
508.769	109.314
512.144	232.409
515.519	29.4165
518.893	5.39436
522.268	9.52693
525.643	2.72151
529.018	11.2244
532.393	15.198
535.768	20.1478
539.142	18.0964
542.517	7.95453
545.892	16.4781
549.267	28.5174
552.641	21.8381
556.016	12.0092
559.391	14.8344
562.766	27.5007
566.141	9.02594
569.516	11.3859
572.89	19.6094
576.265	26.3926
579.64	26.3841
583.015	39.1387
586.39	33.5716
589.764	41.8125
593.139	30.4404
596.514	30.0392
599.889	35.6383
603.264	22.5129
606.639	21.8955
610.013	25.1282
613.388	18.7225
616.763	24.3164
620.138	30.0788
623.513	22.1649
626.888	22.7789
630.262	11.092
633.637	6.45843
637.012	0.928772
640.387	13.8357
643.761	14.8505
647.136	3.84579
650.511	2.43869
653.886	1.90488
657.261	5.27655
660.636	9.93124
664.01	4.19595
667.385	2.34561
670.76	22.9724
674.135	21.967
677.51	3.16135
680.885	14.3367
684.259	26.96
687.634	17.8202
691.009	3.91107
694.384	6.22998
697.759	3.49881
701.133	9.30499
704.508	35.4458
707.883	5.84006
711.258	18.1357
714.633	17.6248
718.008	10.1392
721.382	8.08917
724.757	6.01114
728.132	15.263
731.507	41.6263
734.881	64.6709
738.256	94.2261
741.631	123.762
745.006	155.45
748.381	202.988
751.756	248.964
755.13	393.469
758.505	769.466
761.88	1840.51
765.255	4412.11
768.63	2753.53
772.005	1120.83
775.379	1640.68
778.754	4367.96
782.129	12673.6
785.504	33175.8
788.879	29325.4
792.253	8048.31
795.628	13014.9
799.003	7290.13
802.378	1064.83
805.753	429.82
809.128	223.893
812.502	112.469
815.877	75.8578
819.252	32.5536
822.627	10.385
826.002	2.8822
829.376	13.4858
832.751	17.0987
836.126	4.00308
839.501	1.59766
842.876	4.125
846.25	19.459
849.625	10.4674
853	13.3697
856.375	16.9316
859.75	21.8025
863.125	15.0697
866.499	26.0744
869.874	17.1839
873.249	37.2745
876.624	32.7007
879.999	52.5099
883.373	131.647
886.748	183.841
890.123	138.612
893.498	46.9571
896.873	39.7719
900.247	51.9177
903.622	65.3974
906.997	51.6145
910.372	72.5958
913.747	55.0843
917.122	56.596
920.496	59.5805
923.871	52.3041
927.246	67.3457
930.621	76.1021
933.996	70.6622
937.37	73.7414
940.745	39.3694
944.12	4.85657
947.495	4.65305
950.87	2.44644
954.245	11.6673
957.619	22.8082
960.994	65.2335
964.369	137.895
967.744	302.705
971.119	348.585
974.494	81.8653
977.868	28.4571
981.243	15.3359
984.618	14.6923
987.993	1.80972
991.368	14.5667
994.742	12.804
998.117	26.2824
1001.49	22.221
1004.87	12.1151
1008.24	11.888
1011.62	3.0625
1014.99	3.99292
1018.37	0.623688
1021.74	4.63678
1025.12	1.07495
1028.49	3.93524
1031.87	5.2214
1035.24	13.5956
1038.62	28.7146
1041.99	18.55
1045.37	22.3847
1048.74	23.2566
1052.11	40.5731
1055.49	45.679
1058.86	18.1061
1062.24	40.9326
1065.61	40.1477
1068.99	44.1183
1072.36	33.9966
1075.74	48.1706
1079.11	64.3135
1082.49	58.8053
1085.86	77.1888
1089.24	62.2073
1092.61	61.2163
1095.99	69.4806
1099.36	65.1287
1102.74	67.6708
1106.11	78.7305
1109.49	47.6445
1112.86	87.1067
1116.24	66.4726
1119.61	61.9031
1122.98	102.965
1126.36	83.4304
1129.73	74.4583
1133.11	49.2206
1136.48	54.2078
1139.86	46.9595
1143.23	55.6148
1146.61	35.2148
1149.98	26.7596
1153.36	18.3216
1156.73	21.2283
1160.11	17.4189
1163.48	10.5385
1166.86	6.53656
1170.23	20.261
1173.61	2.89224
1176.98	7.92349
1180.36	2.43842
1183.73	9.38001
1187.11	17.7891
1190.48	14.3105
1193.86	0.978577
1197.23	10.8854
1200.61	1.46072
1203.98	19.0079
1207.36	13.9642
1210.73	19.1444
1214.11	24.5235
1217.48	17.3283
1220.86	26.4742
1224.23	41.6374
1227.61	37.7384
1230.98	26.7264
1234.35	27.7048
1237.73	18.7921
1241.1	19.4992
1244.48	19.3135
1247.85	20.7874
1251.23	17.199
1254.6	4.23273
1257.98	13.1552
1261.35	24.8743
1264.73	19.457
1268.1	17.859
