Measurement: Raman, 532 nm, unoriented, Raman Data Processed
Mineral: Moissanite
Rruff sample: R150016
Ideal chemistry: SiC
Locality: China
Source: Rob Lavinsky
Description: Semi-metallic hexagonal plates
Raman shift (cm-1)	intensity
90.2653	0
93.6401	22.4752
97.0149	23.0243
100.39	5.08893
103.765	2.77783
107.139	10.6898
110.514	26.7303
113.889	48.8935
117.264	70.9638
120.639	81.6567
124.013	91.1441
127.388	96.2026
130.763	104.081
134.138	140.459
137.513	138.189
140.888	157.082
144.262	186.42
147.637	254.618
151.012	578.097
154.387	65.3153
157.762	61.2062
161.137	62.0541
164.511	61.8933
167.886	59.7253
171.261	54.9557
174.636	52.1966
178.011	47.061
181.385	49.7267
184.76	46.4933
188.135	45.9005
191.51	46.3506
194.885	38.4301
198.26	31.6392
201.634	27.9495
205.009	24.6583
208.384	21.5343
211.759	16.8216
215.133	17.198
218.508	17.3256
221.883	15.8134
225.258	24.2661
228.633	23.6916
232.008	27.2771
235.382	48.5235
238.757	60.3379
242.132	102.613
245.507	6.33618
248.882	4.64993
252.256	5.35355
255.631	2.01175
259.006	4.28723
262.381	6.7504
265.756	14.3935
269.131	0.004669
272.505	3.85013
275.88	3.35416
279.255	0.961334
282.63	1.94751
286.005	1.65372
289.38	2.42319
292.754	1.10449
296.129	3.14841
299.504	1.81537
302.879	2.68613
306.254	5.0445
309.628	5.47769
313.003	5.44046
316.378	6.37454
319.753	4.82156
323.128	7.16382
326.502	7.09525
329.877	7.77661
333.252	5.74548
336.627	4.25265
340.002	6.66254
343.377	4.16693
346.751	4.7489
350.126	5.47943
353.501	5.3154
356.876	3.63846
360.251	5.52502
363.625	4.54501
367	5.61127
370.375	4.8103
373.75	3.70129
377.125	6.37497
380.5	6.32455
383.874	6.6716
387.249	7.1976
390.624	6.75156
393.999	5.88385
397.374	1.76306
400.748	3.38889
404.123	3.16336
407.498	1.11221
410.873	1.28766
414.248	0.140045
417.623	2.18875
420.997	3.15366
424.372	2.82736
427.747	3.17746
431.122	1.61801
434.497	0.418945
437.872	1.12244
441.246	2.4726
444.621	1.23465
447.996	1.43716
451.371	0.751495
454.745	1.86157
458.12	1.87448
461.495	1.27484
464.87	2.17306
468.245	2.10852
471.62	1.76526
474.994	0.362366
478.369	0.490662
481.744	0.816528
485.119	0.549744
488.494	2.22354
491.868	5.61697
495.243	6.75409
498.618	10.1031
501.993	23.9623
505.368	46.9762
508.743	23.6557
512.117	16.2373
515.492	22.8909
518.867	3.06268
522.242	6.02356
525.617	3.76523
528.991	2.44257
532.366	3.6442
535.741	5.65076
539.116	4.63245
542.491	4.53763
545.866	2.46991
549.24	1.52307
552.615	0.399811
555.99	0.026245
559.365	1.50653
562.74	0.149353
566.115	0.704224
569.489	0.775177
572.864	0.527832
576.239	1.0217
579.614	2.40762
582.989	4.03952
586.363	4.48355
589.738	4.5379
593.113	3.67542
596.488	4.05646
599.863	4.65741
603.237	4.78433
606.612	5.8569
609.987	5.13779
613.362	4.55655
616.737	4.37399
620.112	2.83997
623.486	5.73273
626.861	6.38962
630.236	7.1796
633.611	6.81891
636.986	8.84271
640.361	8.57199
643.735	8.60657
647.11	9.77811
650.485	8.71655
653.86	9.75693
657.235	9.34543
660.609	8.37204
663.984	8.27539
667.359	7.86664
670.734	7.11456
674.109	4.68622
677.484	4.16599
680.858	3.57916
684.233	2.112
687.608	0.330658
690.983	0.35321
694.357	1.93301
697.732	0.913818
701.107	1.92856
704.482	0.43457
707.857	0.170532
711.232	1.53165
714.606	1.51941
717.981	2.97696
721.356	3.95392
724.731	5.83929
728.106	12.4359
731.481	16.2077
734.855	19.0317
738.23	22.8731
741.605	23.093
744.98	24.2232
748.355	26.899
751.729	38.1342
755.104	104.772
758.479	184.261
761.854	313.823
765.229	637.587
768.604	997.397
771.978	257.082
775.353	211.041
778.728	555.45
782.103	861.671
785.478	1859.34
788.852	3736.07
792.227	2489
795.602	1217.86
798.977	1244.93
802.352	251.41
805.726	68.9187
809.101	34.1025
812.476	15.8784
815.851	10.8902
819.226	11.2506
822.601	13.45
825.975	14.4666
829.35	15.4049
832.725	13.5475
836.1	10.2102
839.475	6.75378
842.85	5.53055
846.224	1.42551
849.599	1.89346
852.974	1.60291
856.349	0.433228
859.724	0.687866
863.098	1.85504
866.473	0.013672
869.848	2.23669
873.223	0.669189
876.598	0.679169
879.972	2.41652
883.347	3.89157
886.722	7.02261
890.097	8.19304
893.472	2.43712
896.847	0.000824
900.221	0.166779
903.596	0.251389
906.971	0.986374
910.346	0.153
913.721	1.23968
917.096	0.671509
920.47	3.72713
923.845	6.80014
927.22	9.8658
930.595	12.3829
933.97	19.9344
937.344	26.7834
940.719	33.9095
944.094	47.3608
947.469	68.4765
950.844	114.031
954.218	203.094
957.593	413.223
960.968	706.553
964.343	1187.36
967.718	1931.7
971.092	1500.96
974.467	481.452
977.842	194.442
981.217	100.903
984.592	61.1866
987.967	40.504
991.341	27.6074
994.716	18.2236
998.091	13.0329
1001.47	9.82684
1004.84	5.66875
1008.22	2.90933
1011.59	2.90323
1014.97	0.59671
1018.34	0.783966
1021.72	0.711731
1025.09	1.46709
1028.46	0.08577
1031.84	0.378174
1035.21	1.22107
1038.59	2.57469
1041.96	2.72586
1045.34	4.68486
1048.71	6.74503
1052.09	5.97807
1055.46	6.57057
1058.84	5.3326
1062.21	7.30418
1065.59	7.0332
1068.96	8.77789
1072.34	10.065
1075.71	11.9651
1079.09	13.2128
1082.46	12.8991
1085.84	14.5237
1089.21	14.7705
1092.59	14.7935
1095.96	16.0722
1099.34	15.5941
1102.71	13.8182
1106.09	14.7814
1109.46	15.635
1112.84	16.2542
1116.21	15.6695
1119.58	16.8808
1122.96	16.1198
1126.33	15.6753
1129.71	14.8865
1133.08	12.3827
1136.46	11.7263
1139.83	8.85803
1143.21	7.4799
1146.58	8.99886
1149.96	5.64482
1153.33	4.42406
1156.71	4.55843
1160.08	2.83507
1163.46	2.33301
1166.83	1.0578
1170.21	0.585983
1173.58	0.590149
1176.96	0.4254
1180.33	0.546036
1183.71	0.532211
1187.08	1.11008
1190.46	0.377487
1193.83	0.412079
1197.2	0.721313
1200.58	1.37808
1203.95	1.83369
1207.33	2.16791
1210.7	2.75958
1214.08	3.58083
1217.45	2.42052
1220.83	4.38196
1224.2	4.41353
1227.58	4.5867
1230.95	5.56398
1234.33	4.96153
1237.7	5.0871
1241.08	3.56387
1244.45	2.65672
1247.83	3.31039
1251.2	0.61557
1254.58	0.598969
1257.95	1.09732
1261.33	0.672485
1264.7	1.29913
1268.08	1.74014
1271.45	0.422348
1274.83	3.31393
1278.2	2.25319
1281.58	3.52959
1284.95	3.25722
1288.33	2.39322
1291.7	2.70158
1295.08	2.04013
1298.45	1.48912
1301.83	0
