Measurement: Raman, 780 nm, unoriented, Raman Data Processed
Mineral: Moissanite
Rruff sample: R150016
Ideal chemistry: SiC
Locality: China
Source: Rob Lavinsky
Description: Semi-metallic hexagonal plates
Raman shift (cm-1)	intensity
93.4884	0
96.8632	20.0987
100.238	7.68189
103.613	1.04547
106.988	2.58777
110.362	1.26068
113.737	2.18915
117.112	1.49036
120.487	0.344482
123.862	2.74841
127.237	3.34735
130.611	8.28882
133.986	12.0125
137.361	15.4459
140.736	24.5942
144.111	33.5502
147.485	47.2104
150.86	91.778
154.235	0.265381
157.61	1.8584
160.985	4.75653
164.359	3.87054
167.734	4.36365
171.109	4.53821
174.484	4.55389
177.859	1.53534
181.234	0.034302
184.608	0.471375
187.983	2.43341
191.358	4.57834
194.733	1.84091
198.108	2.11478
201.482	1.96942
204.857	3.18332
208.232	4.6557
211.607	2.00711
214.982	4.46646
218.357	4.01111
221.731	5.05356
225.106	7.76828
228.481	5.98566
231.856	8.24994
235.231	14.8768
238.605	17.6942
241.98	23.0816
245.355	0.881104
248.73	1.31622
252.105	0.47049
255.48	1.63773
258.854	0.186279
262.229	0.975159
265.604	4.90994
268.979	0.641541
272.354	2.25052
275.728	2.02008
279.103	1.17932
282.478	1.43323
285.853	0.651855
289.228	4.06342
292.602	3.93515
295.977	4.03793
299.352	6.83279
302.727	8.26727
306.102	6.38229
309.476	6.19632
312.851	8.5784
316.226	9.91885
319.601	7.60272
322.976	10.2495
326.351	8.93747
329.725	9.57098
333.1	9.0918
336.475	10.2971
339.85	10.2996
343.225	10.0793
346.599	9.83383
349.974	9.97626
353.349	10.8627
356.724	11.0172
360.099	10.8848
363.474	10.1999
366.848	9.78986
370.223	9.13501
373.598	8.98135
376.973	8.40897
380.348	8.46435
383.722	6.27506
387.097	6.93072
390.472	6.13162
393.847	7.44699
397.222	4.1535
400.596	3.8472
403.971	3.72073
407.346	2.61258
410.721	2.7149
414.096	2.90979
417.471	2.90643
420.845	2.78842
424.22	2.12814
427.595	2.34592
430.97	4.02496
434.345	1.923
437.719	1.44016
441.094	0.351074
444.469	0.206909
447.844	0.523468
451.219	0.466156
454.594	0.323456
457.968	0.193909
461.343	1.60873
464.718	2.80911
468.093	1.21817
471.468	0.64093
474.842	0.991028
478.217	0.119141
481.592	0.200623
484.967	1.10651
488.342	0.78537
491.716	1.52997
495.091	1.8522
498.466	2.88716
501.841	2.83873
505.216	5.34033
508.591	4.19299
511.965	5.32371
515.34	4.86993
518.715	4.27827
522.09	4.66641
525.465	5.18544
528.84	4.87096
532.214	5.42488
535.589	4.56177
538.964	6.75314
542.339	4.41399
545.713	2.29067
549.088	1.35466
552.463	1.95447
555.838	0.722717
559.213	1.35403
562.588	0.625977
565.962	1.00029
569.337	2.51701
572.712	2.05196
576.087	2.04623
579.462	2.86943
582.837	2.61844
586.211	3.02225
589.586	3.07506
592.961	4.18669
596.336	4.60545
599.711	6.53882
603.085	10.2856
606.46	4.58791
609.835	4.96297
613.21	4.2634
616.585	4.85759
619.96	3.91045
623.334	3.1575
626.709	2.96291
630.084	4.16664
633.459	3.40768
636.833	5.40964
640.208	5.45328
643.583	6.9247
646.958	4.6757
650.333	3.85657
653.708	5.04512
657.082	4.17665
660.457	5.13475
663.832	4.97415
667.207	3.82709
670.582	2.92749
673.957	3.72658
677.331	4.4886
680.706	4.364
684.081	0.000534
687.456	0.931152
690.831	0.285583
694.205	0.74707
697.58	0.121384
700.955	0.517319
704.33	0.373413
707.705	0.897598
711.079	0.045944
714.454	2.26112
717.829	4.58864
721.204	6.04846
724.579	10.3043
727.953	14.6792
731.328	16.9453
734.703	16.0626
738.078	18.4921
741.453	18.2666
744.828	16.5342
748.202	16.269
751.577	14.7962
754.952	21.5525
758.327	24.941
761.702	35.0957
765.077	67.9929
768.451	104.654
771.826	31.1154
775.201	28.9212
778.576	50.0404
781.951	66.2897
785.325	140.13
788.7	334.223
792.075	175.612
795.45	90.7558
798.825	114.179
802.199	9.30759
805.574	1.14565
808.949	1.92485
812.324	0.165314
815.699	1.12042
819.073	4.92639
822.448	9.42691
825.823	12.2065
829.198	15.3329
832.573	17.1069
835.948	17.4147
839.322	15.1305
842.697	14.4922
846.072	14.3804
849.447	13.5239
852.822	12.3765
856.197	9.83289
859.571	7.43977
862.946	6.51775
866.321	3.99431
869.696	3.49039
873.071	3.2816
876.445	3.49202
879.82	3.65472
883.195	5.21722
886.57	5.20819
889.945	3.02078
893.319	2.93044
896.694	2.17419
900.069	3.45229
903.444	2.3788
906.819	2.47771
910.193	2.13779
913.568	1.8378
916.943	2.47978
920.318	0.796112
923.693	1.06972
927.068	1.66411
930.442	0.574051
933.817	0.12056
937.192	0.997726
940.567	0.043869
943.942	1.91083
947.317	4.09141
950.691	11.7824
954.066	29.6081
957.441	73.329
960.816	123.904
964.191	219.202
967.565	392.856
970.94	274.649
974.315	78.0291
977.69	28.5619
981.065	13.572
984.439	7.12756
987.814	3.37352
991.189	1.52235
994.564	1.47253
997.939	0.60218
1001.31	0.624573
1004.69	0.8162
1008.06	0.009888
1011.44	0.212563
1014.81	0.776588
1018.19	1.14195
1021.56	0.168053
1024.94	0.580841
1028.31	1.35573
1031.69	1.55181
1035.06	1.83346
1038.44	2.02423
1041.81	2.65969
1045.19	2.82388
1048.56	3.1269
1051.94	2.8491
1055.31	1.85701
1058.68	2.72443
1062.06	2.25724
1065.43	3.4655
1068.81	2.36346
1072.18	2.29459
1075.56	3.06856
1078.93	2.76685
1082.31	3.39355
1085.68	2.83556
1089.06	2.66235
1092.43	2.09151
1095.81	1.80259
1099.18	1.91038
1102.56	2.32516
1105.93	1.53424
1109.31	2.48532
1112.68	2.01989
1116.06	2.05299
1119.43	2.33594
1122.81	1.48681
1126.18	1.42546
1129.56	1.10117
1132.93	1.03316
1136.31	1.60197
1139.68	1.31692
1143.06	0.861031
1146.43	0.975143
1149.81	0.95755
1153.18	0.424385
1156.56	1.11303
1159.93	1.23154
1163.31	0.348434
1166.68	0.460098
1170.05	0.601166
1173.43	0.872162
1176.8	2.03036
1180.18	0.367531
1183.55	0.797409
1186.93	0.899681
1190.3	1.18734
1193.68	1.09972
1197.05	1.28547
1200.43	1.18523
1203.8	1.68545
1207.18	0.795494
1210.55	1.86316
1213.93	0.881599
1217.3	0.47628
1220.68	1.15672
1224.05	0.321693
1227.43	1.22844
1230.8	1.30612
1234.18	1.96618
1237.55	0.096405
1240.92	0.529175
1244.3	0.803169
1247.67	0.9655
1251.05	1.23129
1254.42	2.56861
1257.8	0.48793
1261.17	1.07446
1264.55	1.90405
1267.92	1.15401
1271.3	0.957283
1274.67	0.171997
1278.05	0.439445
1281.42	0.588211
1284.8	0
