Measurement: Raman, 780 nm, unoriented, Raman Data Processed
Mineral: Molybdite
Rruff sample: R100217
Ideal chemistry: MoO_3_
Locality: Mining concentrate
Source: Mike Carducci, Climax Molybdenum Technology Center
Description: Gray unconsolidated powder
Raman shift (cm-1)	intensity
156.173	0
159.066	256.519
161.959	11.118
164.851	21.9301
167.744	4.11353
170.637	13.293
173.53	0.727783
176.422	69.0619
179.315	136.118
182.208	92.8646
185.1	109.628
187.993	147.758
190.886	181.379
193.778	259.81
196.671	360.924
199.564	128.496
202.457	45.9022
205.349	71.543
208.242	107.028
211.135	152.801
214.027	241.311
216.92	323.5
219.813	260.387
222.705	309.796
225.598	473.527
228.491	566.536
231.383	625.921
234.276	705.565
237.169	760.736
240.061	802.474
242.954	769.773
245.847	492.723
248.74	189.772
251.632	94.0667
254.525	131.733
257.418	292.922
260.31	619.318
263.203	1193.68
266.096	1844.06
268.988	2429.16
271.881	3312.63
274.774	4015
277.667	4338.01
280.559	4653.51
283.452	4475.87
286.345	3719.8
289.237	3202.25
292.13	2110.89
295.023	812.168
297.916	280.366
300.808	83.1177
303.701	3.58917
306.594	25.0485
309.486	43.2649
312.379	19.8842
315.272	44.843
318.164	237.41
321.057	387.238
323.95	393.515
326.842	481.745
329.735	577.46
332.628	674.239
335.521	778.416
338.413	496.926
341.306	143.517
344.199	89.3013
347.091	121.581
349.984	177.539
352.877	236.226
355.769	340.067
358.662	504.02
361.555	702.624
364.448	775.441
367.34	782.673
370.233	817.854
373.126	834.137
376.018	849.423
378.911	670.778
381.804	324.052
384.696	129.428
387.589	51.3527
390.482	15.4891
393.375	1.37451
396.267	1.21863
399.16	4.50116
402.053	6.36975
404.945	1.87653
407.838	4.16913
410.731	1.05887
413.623	2.85947
416.516	4.20889
419.409	4.9653
422.301	10.0367
425.194	13.6475
428.087	15.7224
430.98	19.6225
433.872	28.3088
436.765	34.2387
439.658	45.3371
442.55	62.493
445.443	84.4346
448.336	120.498
451.228	166.19
454.121	218.927
457.014	256.687
459.907	290.233
462.799	317.626
465.692	326.488
468.585	318.613
471.477	264.846
474.37	205.872
477.263	151.265
480.156	107.782
483.048	80.5078
485.941	59.5597
488.834	41.7109
491.726	28.8625
494.619	17.4003
497.512	18.4799
500.404	12.6201
503.297	9.47354
506.19	8.47034
509.082	6.23654
511.975	7.38614
514.868	4.54275
517.761	6.4476
520.653	4.08115
523.546	5.76215
526.439	2.29764
529.331	3.93851
532.224	2.8732
535.117	4.89331
538.01	2.29474
540.902	1.38437
543.795	1.58292
546.688	3.66104
549.58	4.38953
552.473	2.65537
555.366	6.32272
558.258	0.974518
561.151	4.28366
564.044	2.22315
566.937	0.928894
569.829	2.0387
572.722	2.36243
575.615	1.79703
578.507	0.483917
581.4	0.421997
584.293	2.42148
587.185	3.49048
590.078	3.23859
592.971	5.92807
595.863	9.57797
598.756	19.0767
601.649	17.997
604.542	23.1679
607.434	29.7173
610.327	33.4337
613.22	40.053
616.112	50.9709
619.005	55.5944
621.898	67.8119
624.79	79.2667
627.683	94.497
630.576	109.617
633.468	137.363
636.361	169.124
639.254	231.618
642.147	322.519
645.039	475.752
647.932	723.797
650.825	1023.48
653.717	1279.61
656.61	1475.66
659.503	1635.74
662.395	1644.89
665.288	1449.29
668.181	1032.2
671.073	620.61
673.966	368.077
676.859	231.347
679.752	146.437
682.644	95.7002
685.537	62.8115
688.43	41.0741
691.322	31.1478
694.215	15.6857
697.108	8.22339
700	9.5788
702.893	7.03876
705.786	3.48505
708.679	1.85138
711.571	4.76599
714.464	6.01215
717.357	3.96771
720.25	5.93793
723.142	4.45673
726.035	6.91809
728.928	2.38916
731.82	4.77466
734.713	0.03656
737.606	7.34711
740.498	18.5624
743.391	23.3862
746.284	34.1762
749.177	49.5546
752.069	58.3882
754.962	70.8133
757.855	87.3774
760.747	109.972
763.64	129.238
766.533	151.183
769.425	174.999
772.318	206.478
775.211	247.395
778.103	284.459
780.996	346.204
783.889	421.392
786.782	529.646
789.674	684.417
792.567	910.399
795.46	1263.06
798.352	1869.59
801.245	2979.09
804.138	4754.13
807.03	6536.14
809.923	7785.2
812.816	8735.04
815.708	9128.44
818.601	7940.52
821.494	5133.29
824.387	2798.66
827.279	1586.42
830.172	972.88
833.065	642.351
835.957	454.324
838.85	325.54
841.743	240.889
844.635	181.873
847.528	140.339
850.421	103.945
853.313	79.4013
856.206	60.3679
859.099	44.5729
861.992	27.0866
864.884	22.0619
867.777	16.4038
870.67	3.51923
873.562	4.31985
876.455	0.672974
879.348	7.43072
882.24	4.45383
885.133	4.16452
888.026	6.13886
890.919	6.54059
893.811	0.488159
896.704	2.78906
899.597	2.04169
902.489	2.56848
905.382	7.6929
908.275	6.67087
911.168	5.62201
914.06	8.3465
916.953	14.6984
919.846	16.2939
922.738	14.3732
925.631	16.3519
928.524	15.8877
931.416	16.3771
934.309	15.0511
937.202	15.7899
940.095	12.0719
942.987	9.18912
945.88	9.87146
948.773	8.54651
951.665	2.34238
954.558	10.9011
957.451	10.9363
960.343	12.4374
963.236	22.6165
966.129	28.6984
969.021	47.783
971.914	71.0363
974.807	91.0508
977.7	157.054
980.592	516.724
983.485	1812.72
986.378	1698.73
989.27	2313.65
992.163	2710.03
995.056	2777.23
997.948	433.234
1000.84	141.026
1003.73	75.8286
1006.63	42.9606
1009.52	21.843
1012.41	6.45508
1015.3	3.29178
1018.2	3.63571
1021.09	1.14215
1023.98	2.68863
1026.88	0.695465
1029.77	2.37622
1032.66	3.26031
1035.55	5.27838
1038.45	5.63907
1041.34	0.981384
1044.23	1.89597
1047.12	3.09235
1050.02	6.853
1052.91	6.32388
1055.8	4.83624
1058.69	0.803009
1061.59	10.2325
1064.48	3.22906
1067.37	4.60556
1070.27	2.21335
1073.16	7.07077
1076.05	3.80551
1078.94	2.65537
1081.84	4.47907
1084.73	4.64484
1087.62	1.21472
1090.52	4.9696
1093.41	1.82999
1096.3	0.117065
1099.19	2.5452
1102.09	1.04416
1104.98	2.29813
1107.87	2.98488
1110.76	0.224426
1113.66	0.964447
1116.55	4.2063
1119.44	1.60677
1122.33	6.63768
1125.23	3.54733
1128.12	9.5361
1131.01	5.22443
1133.9	2.43822
1136.8	7.00815
1139.69	3.80394
1142.58	6.78328
1145.48	6.66251
1148.37	5.22893
1151.26	7.33258
1154.15	5.38171
1157.05	2.61276
1159.94	6.2621
1162.83	8.62952
1165.72	6.00729
1168.62	5.14766
1171.51	3.73946
1174.4	4.21149
1177.3	4.44794
1180.19	3.7953
1183.08	0.890366
1185.97	3.99843
1188.87	6.09416
1191.76	0.591537
1194.65	2.10846
1197.55	5.52519
1200.44	0.948624
1203.33	0.209183
1206.22	2.07086
1209.12	6.1395
1212.01	0.496796
1214.9	4.82941
1217.79	8.04961
1220.69	4.51106
1223.58	4.63737
1226.47	7.62941
1229.36	5.91104
1232.26	4.26688
1235.15	4.10643
1238.04	4.8214
1240.93	3.31418
1243.83	4.43039
1246.72	4.91089
1249.61	4.43047
1252.51	4.0575
1255.4	5.93831
1258.29	7.04341
1261.18	2.35828
1264.08	3.70927
1266.97	3.20821
1269.86	3.19981
1272.76	6.71735
1275.65	5.88034
1278.54	6.46274
1281.43	2.53252
1284.33	0
