Measurement: Raman, 532 nm, unoriented, Raman Data Processed
Mineral: Molybdenite
Rruff sample: R060124
Ideal chemistry: MoS_2_
Locality: Crown Point mine, near Chelan, Washington, USA
Source: University of Arizona Mineral Museum
Description: Steel gray distorted hexagonal tablet on quartz
Measured chemistry: Mo_1.00_S_2.00_
Raman shift (cm-1)	intensity
145.225	0
148.118	0.489803
151.011	0.943556
153.903	1.10753
156.796	1.21757
159.689	1.51176
162.581	2.4054
165.474	1.19758
168.367	2.13138
171.259	1.74442
174.152	2.13684
177.045	2.29044
179.938	1.83058
182.83	2.13785
185.723	1.9309
188.616	1.30258
191.508	1.65836
194.401	1.30528
197.294	1.47216
200.186	1.18625
203.079	1.52298
205.972	2.46768
208.864	2.31181
211.757	2.11586
214.65	2.18574
217.543	2.26109
220.435	2.18336
223.328	2.20172
226.221	1.8739
229.113	1.92161
232.006	1.00886
234.899	0.494293
237.792	0.052152
240.684	0.489777
243.577	0.01227
246.47	0.463119
249.362	0.471515
252.255	0.442467
255.148	0.134465
258.041	0.149778
260.933	0.053376
263.826	0.108535
266.719	0.241389
269.611	0.812547
272.504	0.627779
275.397	0.75484
278.289	1.82712
281.182	2.36097
284.075	3.8779
286.967	4.0269
289.86	0.389772
292.753	0.067409
295.646	0.196231
298.538	0.107166
301.431	0.171048
304.324	0.155605
307.216	0.017857
310.109	0.074193
313.002	0.408474
315.895	0.18664
318.787	0.05455
321.68	0.037218
324.573	0.25667
327.465	0.109095
330.358	0.110515
333.251	0.01494
336.144	0.079702
339.036	0.214835
341.929	0.152746
344.822	0.376489
347.714	0.292838
350.607	0.395942
353.5	0.983726
356.392	1.82993
359.285	1.78912
362.178	2.81458
365.07	6.05413
367.963	13.0476
370.856	14.9457
373.749	18.8723
376.641	26.9741
379.534	43.8804
382.427	58.2988
385.32	28.8989
388.212	8.56291
391.105	13.4369
393.998	23.6749
396.89	28.544
399.783	39.883
402.676	65.0884
405.568	106.579
408.461	137.149
411.354	43.3233
414.247	10.1458
417.139	5.43997
420.032	3.47272
422.925	3.37784
425.817	3.04392
428.71	3.09798
431.603	3.42775
434.495	4.23594
437.388	4.8851
440.281	5.66001
443.173	6.7381
446.066	7.98332
448.959	9.09951
451.852	8.53583
454.744	8.22439
457.637	6.00283
460.53	5.42319
463.423	4.63107
466.315	3.43025
469.208	2.49868
472.101	0.760546
474.993	0.071089
477.886	0.15654
480.779	0.185326
483.671	0.333075
486.564	0.014497
489.457	0.173467
492.349	0.227937
495.242	0.094048
498.135	0.310515
501.028	0.623368
503.92	0.580273
506.813	0.49919
509.706	0.283369
512.598	0.600985
515.491	0.634759
518.384	0.932554
521.277	0.728612
524.169	1.10721
527.062	1.2266
529.955	0.89211
532.847	0.973141
535.74	1.04779
538.633	0.982731
541.525	0.73357
544.418	1.09722
547.311	1.4614
550.204	1.15237
553.096	1.18007
555.989	1.58754
558.882	1.97937
561.774	2.3149
564.667	2.54281
567.56	2.84653
570.452	2.77646
573.345	2.68775
576.238	2.64233
579.131	2.42227
582.023	2.65573
584.916	3.12937
587.809	2.82322
590.701	3.14232
593.594	2.73426
596.487	3.28274
599.38	3.20807
602.272	1.98878
605.165	1.46295
608.058	1.17294
610.95	1.33928
613.843	1.24563
616.736	1.32073
619.629	1.66985
622.521	1.74701
625.414	1.63068
628.307	1.9743
631.199	1.65272
634.092	1.21384
636.985	1.28014
639.877	1.23093
642.77	0.77282
645.663	0.507131
648.556	0.296812
651.448	0.168521
654.341	0.092017
657.234	0.302484
660.126	0.1117
663.019	0.220392
665.912	0.127614
668.804	0.191936
671.697	0.122318
674.59	0.052483
677.482	0.136061
680.375	0.106226
683.268	0.277772
686.161	0.088913
689.053	0.054961
691.946	0.119153
694.839	0.342637
697.731	0.576553
700.624	0.415061
703.517	0.644199
706.409	0.635899
709.302	0.857376
712.195	0.754708
715.088	0.832008
717.98	0.74827
720.873	0.694781
723.766	0.795545
726.659	1.02878
729.551	1.03426
732.444	0.791889
735.337	1.72887
738.229	1.69097
741.122	2.03792
744.015	1.88883
746.907	2.44124
749.8	2.15768
752.693	2.21052
755.586	2.08311
758.478	1.47897
761.371	1.19288
764.264	0.986899
767.156	0.472338
770.049	0.413073
772.942	0.254325
775.835	1.14267
778.727	1.29629
781.62	1.53505
784.513	1.41874
787.405	1.00021
790.298	0.564733
793.191	0.229561
796.083	0.165595
798.976	0.182112
801.869	0.270888
804.761	0.400771
807.654	0.756033
810.547	1.00755
813.44	1.2125
816.332	1.35977
819.225	1.3117
822.118	1.55949
825.01	1.05318
827.903	1.43646
830.796	0.702209
833.688	0.509508
836.581	0.36084
839.474	0.434562
842.367	0.514602
845.259	0.73729
848.152	0.679383
851.045	0.731646
853.937	0.597701
856.83	0.724404
859.723	0.685501
862.616	0.342153
865.508	0.367062
868.401	0.564671
871.294	0.47888
874.186	0.342558
877.079	0.210905
879.972	0.320271
882.865	0.443947
885.757	0.477253
888.65	0.29999
891.543	0.101319
894.435	0.302446
897.328	0.165099
900.221	0.480684
903.113	0.261375
906.006	0.24546
908.899	0.590097
911.792	0.09052
914.684	0.190976
917.577	0.388841
920.47	0.115668
923.362	0.190309
926.255	0.154005
929.148	0.098669
932.04	0.190981
934.933	0.155514
937.826	0.486436
940.719	0.572987
943.611	0.299309
946.504	0.048416
949.397	0.170591
952.289	0.422783
955.182	0.55758
958.075	0.59655
960.967	0.345427
963.86	0.46149
966.753	0.681184
969.646	0.483499
972.538	0.194855
975.431	0.605528
978.324	0.401287
981.216	0.090244
984.109	0.27598
987.002	0.405903
989.894	0.153421
992.787	0.42628
995.68	0.360622
998.573	0.539522
1001.47	0.670278
1004.36	0.471604
1007.25	0.685249
1010.14	0.55488
1013.04	0.341666
1015.93	0.278566
1018.82	0.262652
1021.71	0.446173
1024.61	0.664049
1027.5	0.384111
1030.39	0.229174
1033.29	0.821831
1036.18	0.535196
1039.07	0.792967
1041.96	0.622715
1044.86	0.362292
1047.75	0.567484
1050.64	0.349393
1053.53	0.624458
1056.43	0.320063
1059.32	0.482168
1062.21	0.338857
1065.11	0.26823
1068	0.174527
1070.89	0.266313
1073.78	0.557807
1076.68	0.487369
1079.57	0.333069
1082.46	0.436792
1085.35	0.296918
1088.25	0.30657
1091.14	0.162305
1094.03	0.620983
1096.92	0.151615
1099.82	0.5014
1102.71	0.388311
1105.6	0.403201
1108.49	0.203366
1111.39	0.350457
1114.28	0.194357
1117.17	0.280442
1120.07	0.575623
1122.96	0.460877
1125.85	0.076232
1128.74	0.025316
1131.64	0.433872
1134.53	0.402262
1137.42	0.241044
1140.32	0.668495
1143.21	0.107117
1146.1	0.321543
1148.99	0.128376
1151.89	0.386884
1154.78	0.778856
1157.67	0.157589
1160.56	0.433889
1163.46	0.333201
1166.35	0.535859
1169.24	0.20898
1172.13	0.264856
1175.03	0.319411
1177.92	0.164857
1180.81	0.19904
1183.71	0.244042
1186.6	0.406088
1189.49	0.002541
1192.38	0.391665
1195.28	0.325639
1198.17	0.689056
1201.06	0.083042
1203.95	0.573284
1206.85	0.548671
1209.74	0.183326
1212.63	0.094058
1215.53	0.371863
1218.42	0.39182
1221.31	0.254987
1224.2	0.507163
1227.1	0.162065
1229.99	0.03942
1232.88	0.399271
1235.77	0.555041
1238.67	0.139009
1241.56	0.278903
1244.45	0.423037
1247.35	0.05348
1250.24	0.56473
1253.13	0.265574
1256.02	0.109613
1258.92	0.282362
1261.81	0.307274
1264.7	0.404213
1267.59	0.453598
1270.49	0.053441
1273.38	0.394692
1276.27	0.121493
1279.16	0.354881
1282.06	0.497894
1284.95	0.464858
1287.84	0.338084
1290.74	0.20591
1293.63	0.557657
1296.52	0.152807
1299.41	0.006007
