Measurement: Raman, 785 nm, unoriented, Raman Data Processed
Mineral: Molybdophyllite
Rruff sample: R070222
Ideal chemistry: Pb_8_Mg_9_[Si_10_O_30_(OH)_8_(CO_3_)_3_]H_2_O
Locality: Langban, Filipstad, Varmland, Sweden
Source: Michael Scott
Description: Colorless tabular crystals associated with hausmannite, with cell parameters that match the so-called molybdophyllite-18 phase (Kolitsch et al, 2012)
Raman shift (cm-1)	intensity
153.321	0
156.214	101.836
159.107	32.8198
161.999	2.67676
164.892	85.3
167.785	110.067
170.677	171.385
173.57	101.096
176.463	130.7
179.356	201.677
182.248	204.315
185.141	173.375
188.034	184.994
190.926	183.62
193.819	234.617
196.712	310.18
199.604	302.718
202.497	228.365
205.39	279.314
208.282	198.87
211.175	218.429
214.068	266.787
216.961	238.858
219.853	172.275
222.746	136.644
225.639	47.4546
228.531	32.5664
231.424	5.64551
234.317	50.752
237.209	7.74927
240.102	12.4622
242.995	53.3904
245.888	129.382
248.78	163.026
251.673	246.932
254.566	227.468
257.458	142.242
260.351	189.188
263.244	82.8613
266.137	79.4663
269.029	98.6663
271.922	62.5593
274.815	57.3132
277.707	14.7219
280.6	20.4736
283.493	96.9841
286.385	139.935
289.278	183.285
292.171	231.919
295.063	329.441
297.956	389.604
300.849	473.274
303.742	548.566
306.634	594.567
309.527	579.754
312.42	525.663
315.312	475.593
318.205	433.325
321.098	345.497
323.99	333.64
326.883	299.357
329.776	259.566
332.669	308.051
335.561	267.2
338.454	175.923
341.347	101.659
344.239	59.0828
347.132	87.4585
350.025	63.4526
352.918	81.7656
355.81	15.8899
358.703	0.878174
361.596	0.139404
364.488	1.64844
367.381	48.9636
370.274	24.6454
373.166	38.7371
376.059	80.0732
378.952	82.0276
381.844	100.828
384.737	127.238
387.63	163.536
390.523	251.513
393.415	301.433
396.308	349.786
399.201	427.51
402.093	467.764
404.986	533.19
407.879	586.273
410.772	654.624
413.664	769.79
416.557	758.448
419.45	767.258
422.342	736.924
425.235	634.705
428.128	602.377
431.02	555.629
433.913	481.388
436.806	418.091
439.699	393.422
442.591	389.94
445.484	331.701
448.377	315.902
451.269	294.762
454.162	212.286
457.055	189.74
459.947	167.257
462.84	139.103
465.733	106.899
468.625	93.307
471.518	70.3372
474.411	87.5189
477.304	58.0962
480.196	85.5815
483.089	55.2988
485.982	55.8608
488.874	60.0997
491.767	13.613
494.66	15.7084
497.553	0.767822
500.445	13.0571
503.338	3.7865
506.231	6.92322
509.123	14.2164
512.016	27.4122
514.909	10.3082
517.802	54.3506
520.694	22.0125
523.587	9.33252
526.48	7.25415
529.372	23.8292
532.265	16.2344
535.158	12.4229
538.05	7.33325
540.943	28.1511
543.836	26.8796
546.729	38.1423
549.621	16.457
552.514	37.0481
555.407	54.6603
558.299	82.7292
561.192	59.3114
564.085	59.3276
566.977	77.3486
569.87	61.9401
572.763	85.2086
575.655	82.6119
578.548	59.5207
581.441	108.255
584.333	121.19
587.226	135.636
590.119	166.905
593.012	122.807
595.904	141.641
598.797	141.718
601.69	93.8679
604.582	69.0741
607.475	62.707
610.368	61.9678
613.26	33.0046
616.153	31.2811
619.046	5.50476
621.939	3.38062
624.831	3.95007
627.724	12.5701
630.617	5.32507
633.509	2.22107
636.402	7.7301
639.295	0.194824
642.188	4.84656
645.08	2.98096
647.973	11.3314
650.866	16.0848
653.758	69.0087
656.651	107.956
659.544	210.758
662.436	297.892
665.329	353.42
668.222	399.483
671.115	297.81
674.007	259.483
676.9	169.245
679.793	174.855
682.685	164.505
685.578	166.795
688.471	145.744
691.363	170.847
694.256	134.57
697.149	112.572
700.042	64.555
702.934	47.41
705.827	22.5051
708.72	62.313
711.612	7.52197
714.505	41.6118
717.398	10.943
720.29	20.021
723.183	41.2666
726.076	32.4374
728.968	7.40137
731.861	7.24365
734.754	7.05042
737.647	2.72034
740.539	0.176758
743.432	19.8709
746.325	25.1176
749.217	2.36841
752.11	29.0426
755.003	13.0742
757.895	25.3289
760.788	18.7801
763.681	49.2219
766.574	51.9319
769.466	99.2073
772.359	143.641
775.252	150.706
778.144	154.175
781.037	144.054
783.93	135.346
786.822	146.607
789.715	116.045
792.608	94.7289
795.501	91.9078
798.393	86.3689
801.286	89.5156
804.179	97.5802
807.071	129.003
809.964	160.216
812.857	238.105
815.75	256.161
818.642	301.539
821.535	350.661
824.428	344.444
827.32	316.262
830.213	243.088
833.106	168.361
835.998	129.733
838.891	107.879
841.784	90.6197
844.677	119.639
847.569	108.215
850.462	46.5648
853.355	45.7976
856.247	12.9618
859.14	6.29602
862.033	3.16663
864.925	22.1405
867.818	8.83215
870.711	10.6255
873.604	37.8323
876.496	22.4128
879.389	59.1022
882.282	69.9745
885.174	95.4796
888.067	133.21
890.96	166.584
893.852	184.58
896.745	222.666
899.638	260.387
902.53	307.05
905.423	300.695
908.316	258.478
911.209	266.607
914.101	168.006
916.994	154.419
919.887	157.851
922.779	108.829
925.672	81.2312
928.565	71.6305
931.457	64.4831
934.35	54.8601
937.243	46.2192
940.136	7.41382
943.028	12.1665
945.921	9.86133
948.814	11.1492
951.706	11.1393
954.599	20.1215
957.492	69.4872
960.385	61.3805
963.277	60.5641
966.17	99.3617
969.063	118.13
971.955	125.906
974.848	198.075
977.741	278.004
980.633	350.853
983.526	469.842
986.419	550.764
989.312	651.496
992.204	758.357
995.097	759.66
997.99	665.157
1000.88	426.337
1003.77	267.84
1006.67	131.429
1009.56	38.1311
1012.45	20.205
1015.35	38.5529
1018.24	17.2722
1021.13	4.58435
1024.02	61.6558
1026.92	195.508
1029.81	432.842
1032.7	859.619
1035.6	1403.5
1038.49	1875.83
1041.38	2264.15
1044.27	2304.08
1047.17	1945.34
1050.06	1432.9
1052.95	850.923
1055.84	367.221
1058.74	118.548
1061.63	25.2102
1064.52	11.9651
1067.41	3.95264
1070.31	26.4565
1073.2	26.7854
1076.09	87.4553
1078.98	92.6437
1081.88	132.35
1084.77	140.816
1087.66	150.037
1090.56	189.114
1093.45	168.581
1096.34	167.217
1099.23	132.516
1102.13	135.747
1105.02	86.6988
1107.91	76.0263
1110.81	53.9893
1113.7	33.502
1116.59	32.7913
1119.48	26.8074
1122.38	19.1304
1125.27	1.45764
1128.16	24.7862
1131.05	1.41858
1133.95	0.677246
1136.84	36.9956
1139.73	41.0426
1142.62	31.0244
1145.52	69.8339
1148.41	48.6619
1151.3	35.984
1154.19	37.6114
1157.09	16.5104
1159.98	38.9382
1162.87	48.2019
1165.77	49.9882
1168.66	65.2893
1171.55	82.8291
1174.44	97.9027
1177.34	78.9674
1180.23	106.982
1183.12	64.154
1186.02	124.523
1188.91	90.1865
1191.8	112.205
1194.69	92.0846
1197.59	70.4692
1200.48	81.5582
1203.37	58.9293
1206.26	28.6644
1209.16	11.7398
1212.05	30.3628
1214.94	67.0283
1217.84	23.264
1220.73	2.0321
1223.62	8.25818
1226.51	18.3447
