Measurement: Raman, 785 nm, unoriented, Raman Data Processed
Mineral: Molybdofornacite
Rruff sample: R061057
Ideal chemistry: Cu^2+^Pb^2+^_2_Mo^6+^O_4_As^5+^O_4_(OH)
Locality: Mina Dulcinea, Carreras Pintos, Inca de Oro, Atacama Region, Chile
Source: Bob Jenkins
Description: Apple green tabular crystals associated with yellow wulfenite
Measured chemistry: Cu_1.00_Pb_2.00_(Mo_0.82_Cr^6+^_0.18_)_Σ=1_O_4_(As_0.93_P_0.07_)_Σ=1_O_4_(OH); OH estimated by difference and charge balance
Raman shift (cm-1)	intensity
172.15	0
175.043	10.4686
177.936	20.4352
180.828	20.8783
183.721	15.6106
186.614	29.9014
189.507	37.8214
192.399	23.3913
195.292	49.8566
198.185	52.1484
201.077	64.3342
203.97	72.8129
206.863	74.9175
209.756	82.0063
212.648	68.0996
215.541	80.9128
218.434	63.694
221.326	40.8203
224.219	33.1119
227.112	37.6716
230.004	6.75372
232.897	0.32135
235.79	7.49496
238.683	1.41885
241.575	0.905609
244.468	3.5976
247.361	1.37671
250.253	11.1243
253.146	12.8244
256.039	10.6752
258.931	15.5538
261.824	0.230927
264.717	5.33905
267.61	12.1663
270.502	26.7063
273.395	46.8
276.288	88.1345
279.18	161.918
282.073	247.779
284.966	402.55
287.858	551.808
290.751	714.621
293.644	872.7
296.536	997.475
299.429	1104.38
302.322	1189.63
305.215	1272.3
308.107	1295.35
311	1357.25
313.893	1432.83
316.785	1531.3
319.678	1715.56
322.571	1960.72
325.464	2220.57
328.356	2354.04
331.249	2337.01
334.142	2120.92
337.034	1839.57
339.927	1658.09
342.82	1447.86
345.712	1296.46
348.605	1132.32
351.498	928.227
354.39	707.992
357.283	509.156
360.176	340.551
363.068	246.23
365.961	197.059
368.854	204.143
371.747	251.943
374.639	261.67
377.532	287.266
380.425	230.19
383.317	86.8005
386.21	22.7958
389.103	3.84857
391.995	32.2163
394.888	83.8825
397.781	120.887
400.674	170.782
403.566	225.285
406.459	233.448
409.352	214.792
412.244	171.094
415.137	134.69
418.03	97.0456
420.923	52.3297
423.815	18.9484
426.708	11.7036
429.601	7.88715
432.493	0.078857
435.386	6.24042
438.279	18.2957
441.171	21.4527
444.064	9.02622
446.957	11.2789
449.849	5.35507
452.742	14.1491
455.635	7.23242
458.528	23.1509
461.42	11.8694
464.313	4.71887
467.206	5.32358
470.098	6.30969
472.991	17.305
475.884	5.62074
478.777	3.48373
481.669	10.1041
484.562	9.9019
487.455	13.1181
490.347	25.6852
493.24	24.246
496.133	27.2528
499.025	22.5902
501.918	20.2969
504.811	19.1252
507.704	23.6784
510.596	23.1395
513.489	26.2998
516.382	31.2602
519.274	33.6355
522.167	36.7107
525.06	32.8073
527.952	32.513
530.845	38.0653
533.738	21.7925
536.631	28.2407
539.523	22.3971
542.416	28.7731
545.309	31.6418
548.201	12.1573
551.094	12.6993
553.987	14.1606
556.88	25.3267
559.772	17.4375
562.665	9.72943
565.558	2.28835
568.45	1.61313
571.343	14.8418
574.236	12.7043
577.128	9.25838
580.021	12.5416
582.914	1.819
585.806	18.5086
588.699	11.708
591.592	13.2261
594.485	5.04668
597.377	7.63449
600.27	11.8862
603.163	4.12906
606.055	7.24625
608.948	6.63855
611.841	4.03273
614.733	9.92566
617.626	8.72069
620.519	7.49396
623.412	2.34657
626.304	22.1809
629.197	10.4509
632.09	8.80899
634.982	12.265
637.875	17.2312
640.768	21.4834
643.66	18.9371
646.553	25.6865
649.446	39.099
652.338	32.9486
655.231	44.2156
658.124	49.6267
661.017	53.5117
663.909	59.4233
666.802	52.1532
669.695	62.05
672.587	61.6317
675.48	68.7682
678.373	69.2841
681.265	61.4134
684.158	64.6406
687.051	66.5319
689.944	59.0792
692.836	63.6104
695.729	72.4838
698.622	79.078
701.514	46.2678
704.407	53.8156
707.3	53.0926
710.192	59.3931
713.085	59.5965
715.978	38.4435
718.871	43.5668
721.763	34.4644
724.656	32.0234
727.549	22.1494
730.441	16.9708
733.334	27.1799
736.227	12.4563
739.12	0.302307
742.012	10.4026
744.905	11.7161
747.798	9.21234
750.69	14.1008
753.583	15.9416
756.476	7.09384
759.368	16.2117
762.261	15.0843
765.154	11.493
768.047	9.24942
770.939	7.98599
773.832	0.657166
776.725	0.460907
779.617	10.2504
782.51	18.3398
785.403	50.3367
788.295	82.2873
791.188	111.997
794.081	161.841
796.973	235.422
799.866	316.812
802.759	423.352
805.652	516.577
808.544	701.639
811.437	880.971
814.33	1101.12
817.222	1378.91
820.115	1608.3
823.008	1936.47
825.9	2212.73
828.793	2449.04
831.686	2516.16
834.579	2451.07
837.471	2305.33
840.364	2063.62
843.257	1842.53
846.149	1621.76
849.042	1425.59
851.935	1222.36
854.827	1032.7
857.72	868.382
860.613	771.614
863.506	674.556
866.398	607.179
869.291	607.384
872.184	658.616
875.076	760.441
877.969	902.036
880.862	1239.86
883.755	1788.22
886.647	2608.48
889.54	3666.44
892.433	4322.27
895.325	4071.23
898.218	3005.22
901.111	1897.36
904.003	1141.6
906.896	659.547
909.789	379.191
912.682	232.293
915.574	122.396
918.467	85.7726
921.36	34.5887
924.252	32.6254
927.145	12.2669
930.038	13.1483
932.93	2.74442
935.823	13.3201
938.716	21.6599
941.609	22.7437
944.501	17.8174
947.394	15.9425
950.287	18.3045
953.179	5.22559
956.072	13.0803
958.965	22.2466
961.857	33.0599
964.75	45.7371
967.643	42.2724
970.535	56.804
973.428	53.2123
976.321	53.0041
979.214	61.2908
982.106	67.4926
984.999	74.4919
987.892	72.1385
990.784	67.6675
993.677	75.4037
996.57	71.2863
999.462	63.8034
1002.36	68.6611
1005.25	49.6897
1008.14	46.514
1011.03	45.3472
1013.93	41.178
1016.82	45.7823
1019.71	38.0681
1022.6	36.2972
1025.5	36.1503
1028.39	35.898
1031.28	40.7722
1034.17	47.9073
1037.07	30.8404
1039.96	32.3461
1042.85	30.6357
1045.75	33.7766
1048.64	34.6699
1051.53	31.8121
1054.42	27.2983
1057.32	30.9574
1060.21	19.1766
1063.1	18.1957
1065.99	28.0381
1068.89	19.6396
1071.78	21.5036
1074.67	12.8447
1077.57	18.2211
1080.46	16.6126
1083.35	9.87698
1086.24	10.4884
1089.14	16.4917
1092.03	17.0168
1094.92	11.0249
1097.81	5.34451
1100.71	10.4862
1103.6	1.95074
1106.49	4.57407
1109.38	10.386
1112.28	9.05008
1115.17	5.03294
1118.06	3.20715
1120.96	2.09438
1123.85	7.78101
1126.74	0.925308
1129.63	2.16215
1132.53	2.72765
1135.42	3.68951
1138.31	6.52979
1141.2	7.59789
1144.1	3.96248
1146.99	16.2497
1149.88	4.52481
1152.78	9.23369
1155.67	0.325638
1158.56	3.3085
1161.45	4.8504
1164.35	2.17599
1167.24	6.52066
1170.13	6.22574
1173.02	7.73575
1175.92	10.6592
1178.81	10.6122
1181.7	10.9797
1184.6	6.86421
1187.49	6.42828
1190.38	9.40099
1193.27	10.9454
1196.17	5.21786
1199.06	6.95373
1201.95	5.42667
1204.84	3.08691
1207.74	2.65317
1210.63	12.5893
1213.52	7.39095
1216.41	3.31255
1219.31	18.7687
1222.2	9.81833
1225.09	1.84345
1227.99	1.06033
1230.88	19.3401
1233.77	9.94366
1236.66	9.45683
1239.56	2.41005
1242.45	5.88527
1245.34	8.12536
1248.23	5.70412
1251.13	3.45169
1254.02	3.32976
1256.91	10.3438
1259.81	4.80307
1262.7	8.7316
1265.59	11.1728
