Measurement: Raman, 532 nm, unoriented, Raman Data Processed
Mineral: Molybdofornacite
Rruff sample: R150121
Ideal chemistry: Cu^2+^Pb^2+^_2_Mo^6+^O_4_As^5+^O_4_(OH)
Locality: San Pablo Mine, Inca de Oro, Cha√±aral Province, Chile
Source: Bob Jenkins
Description: Tabular grass-green crystals, associated with wulfenite, malachite, and quartz
Raman shift (cm-1)	intensity
132.692	58.712
136.066	57.6535
139.441	58.4374
142.816	55.4728
146.191	53.1457
149.566	45.6713
152.94	43.3389
156.315	44.21
159.69	41.0483
163.065	52.2745
166.44	65.2508
169.815	78.09
173.189	88.3371
176.564	100.075
179.939	108.304
183.314	110.945
186.689	103.638
190.064	94.8319
193.438	90.8376
196.813	85.8781
200.188	75.1398
203.563	56.3102
206.938	36.442
210.312	20.7423
213.687	12.7288
217.062	7.29303
220.437	1.71185
223.812	1.20941
227.186	0.088715
230.561	0.026672
233.936	0.310669
237.311	0.889069
240.686	2.13248
244.06	1.88846
247.435	3.7482
250.81	6.0683
254.185	8.87259
257.56	8.81076
260.935	5.95843
264.309	0.546783
267.684	11.0208
271.059	32.1026
274.434	68.906
277.809	122.621
281.183	196.066
284.558	309.259
287.933	467.934
291.308	630.74
294.683	756.015
298.058	844.928
301.432	936.658
304.807	1040.24
308.182	1173.38
311.557	1351.09
314.932	1553.44
318.307	1787.83
321.681	2039.15
325.056	2233.66
328.431	2319.52
331.806	2243.87
335.181	2024.26
338.555	1719.54
341.93	1401.22
345.305	1102.4
348.68	862.342
352.055	655.946
355.43	486.007
358.804	347.631
362.179	241.62
365.554	173.82
368.929	133.485
372.304	112.651
375.678	105.089
379.053	99.6756
382.428	69.6753
385.803	32.0776
389.178	6.66992
392.553	3.43854
395.927	0.809631
399.302	15.9554
402.677	30.3038
406.052	40.9739
409.427	37.575
412.801	26.5483
416.176	10.4843
419.551	0.138977
422.926	7.22336
426.301	11.6689
429.675	9.15036
433.05	1.31827
436.425	8.44025
439.8	21.9508
443.175	41.2456
446.55	58.7068
449.924	75.3772
453.299	88.1655
456.674	91.8002
460.049	86.658
463.424	72.7452
466.798	53.4106
470.173	33.9406
473.548	18.8039
476.923	9.92853
480.298	6.0966
483.673	5.93477
487.047	0.751389
490.422	3.93283
493.797	1.5065
497.172	1.74452
500.547	2.9946
503.921	3.93518
507.296	1.57182
510.671	4.17282
514.046	1.02313
517.421	0.562584
520.795	0.04911
524.17	1.23986
527.545	1.07256
530.92	2.94817
534.295	3.37605
537.67	4.18616
541.044	2.94456
544.419	3.28168
547.794	0.548874
551.169	0.040154
554.544	1.19347
557.918	1.70897
561.293	3.39448
564.668	3.86974
568.043	6.29565
571.418	7.69733
574.793	9.44484
578.167	10.5708
581.542	11.9186
584.917	12.5629
588.292	19.9996
591.667	18.0659
595.042	17.473
598.416	19.3363
601.791	19.5273
605.166	20.879
608.541	24.2239
611.916	25.6532
615.29	29.2189
618.665	30.9287
622.04	33.4733
625.415	36.1839
628.79	39.6984
632.164	42.249
635.539	45.1487
638.914	48.225
642.289	51.865
645.664	57.0171
649.039	61.3985
652.413	67.034
655.788	74.9395
659.163	84.4001
662.538	95.2543
665.913	107.055
669.288	117.186
672.662	123.159
676.037	124.468
679.412	119.98
682.787	109.874
686.162	100.24
689.536	91.9956
692.911	79.1567
696.286	66.5686
699.661	55.2037
703.036	42.9416
706.41	29.4259
709.785	18.1442
713.16	5.83467
716.535	4.24828
719.91	13.1421
723.284	20.1385
726.659	23.4894
730.034	21.4636
733.409	15.3127
736.784	0.619263
740.159	16.2489
743.533	32.4098
746.908	50.2993
750.283	69.3537
753.658	97.15
757.033	143.921
760.408	215.298
763.782	304.33
767.157	400.73
770.532	474.759
773.907	508.058
777.282	506.98
780.656	497.259
784.031	485.896
787.406	481.546
790.781	504.728
794.156	568.885
797.53	691.645
800.905	886.874
804.28	1156.5
807.655	1501.11
811.03	1893.49
814.405	2310.53
817.779	2655.37
821.154	2876.57
824.529	2927.95
827.904	2854.45
831.279	2580.56
834.654	2137.58
838.028	1647.61
841.403	1231.13
844.778	906.09
848.153	657.555
851.528	461.635
854.902	306.445
858.277	184.506
861.652	87.9822
865.027	25.0474
868.402	5.63501
871.777	12.6902
875.151	91.6282
878.526	275.898
881.901	654.366
885.276	1295.07
888.651	2275.4
892.025	3549.23
895.4	4266.59
898.775	3379.58
902.15	1869.27
905.525	872.043
908.899	379.379
912.274	149.267
915.649	42.0079
919.024	1.58417
922.399	13.3436
925.774	15.3873
929.148	13.3247
932.523	14.4474
935.898	12.9381
939.273	11.2265
942.648	2.76588
946.023	5.66663
949.397	14.2768
952.772	26.9858
956.147	33.8657
959.522	46.2888
962.896	57.5884
966.271	67.899
969.646	76.5671
973.021	84.8123
976.396	92.1995
979.771	96.1889
983.145	97.4008
986.52	98.2852
989.895	94.8221
993.27	91.311
996.645	84.1985
1000.02	77.7161
1003.39	70.5874
1006.77	66.7935
1010.14	61.1519
1013.52	58.1243
1016.89	55.5926
1020.27	51.5727
1023.64	51.2755
1027.02	50.086
1030.39	48.1071
1033.77	46.3489
1037.14	44.3487
1040.52	42.9391
1043.89	41.0485
1047.27	38.5391
1050.64	35.5898
1054.02	33.9081
1057.39	32.5263
1060.77	28.4418
1064.14	26.3917
1067.52	22.8715
1070.89	21.2924
1074.27	18.5503
1077.64	16.6644
1081.02	15.4438
1084.39	12.3837
1087.77	12.3404
1091.14	10.3257
1094.51	8.91457
1097.89	6.35427
1101.26	5.2829
1104.64	4.72668
1108.01	3.03289
1111.39	2.96771
1114.76	1.28934
1118.14	1.35289
1121.51	0.070099
1124.89	0.385826
1128.26	0.724304
1131.64	0.305984
1135.01	0.639992
1138.39	1.18713
1141.76	1.08896
1145.14	0.493004
1148.51	1.0056
1151.89	0.278694
1155.26	0.263878
1158.64	0.230293
1162.01	0.116287
1165.38	0.084274
1168.76	0.035698
1172.13	0.566284
1175.51	1.41775
1178.88	0.917
1182.26	2.32101
1185.63	1.63665
1189.01	2.5908
1192.38	2.21037
1195.76	2.57812
1199.13	2.19537
1202.51	1.49611
1205.88	2.1441
1209.26	0.965118
1212.63	0.382767
1216.01	1.24185
1219.38	0.916801
1222.76	0.81707
1226.13	1.71351
1229.51	0.803436
1232.88	1.10593
1236.26	1.49847
1239.63	2.28632
1243.01	1.46291
1246.38	1.54528
1249.76	1.34622
1253.13	1.21541
1256.51	1.10831
1259.88	2.09718
1263.26	1.33209
1266.63	1.09474
1270.01	1.73527
1273.38	1.07538
1276.76	1.75941
1280.13	0.475266
1283.5	0.741814
1286.88	0.071976
1290.25	2.49324
1293.63	0.917061
1297	0.039146
1300.38	0.599991
