Measurement: Raman, 780 nm, unoriented, Raman Data Processed
Mineral: Molybdofornacite
Rruff sample: R150122
Ideal chemistry: Cu^2+^Pb^2+^_2_Mo^6+^O_4_As^5+^O_4_(OH)
Locality: Dulcinea de Llampos Mine, Copiap√≥ Province, Chile
Source: Bob Jenkins
Description: Tabular olive-green crystals, associated with wulfenite and malachite. Note that the c-cell edge is half of what is usually reported.
Raman shift (cm-1)	intensity
146.521	0
149.414	3.02624
152.307	1.45026
155.199	3.40747
158.092	6.3559
160.985	7.01556
163.877	10.7055
166.77	8.37427
169.663	11.8249
172.555	13.7753
175.448	13.1114
178.341	14.9574
181.234	18.9645
184.126	16.6055
187.019	15.6582
189.912	12.3164
192.804	11.4596
195.697	9.60458
198.59	4.68146
201.482	6.38791
204.375	2.82538
207.268	0.379608
210.161	3.93481
213.053	3.07342
215.946	1.63101
218.839	2.05124
221.731	2.42599
224.624	0.616699
227.517	1.10184
230.409	1.17398
233.302	0.527496
236.195	1.45035
239.088	0.12851
241.98	0.22644
244.873	0.738586
247.766	1.37988
250.658	0.329407
253.551	4.49496
256.444	4.16168
259.336	5.20917
262.229	3.86102
265.122	0.577606
268.014	1.14322
270.907	2.58127
273.8	6.51184
276.693	14.1443
279.585	23.7578
282.478	36.5016
285.371	49.067
288.263	68.2256
291.156	91.719
294.049	115.238
296.942	139.722
299.834	161.704
302.727	183.053
305.62	197.38
308.512	215.564
311.405	239.809
314.298	267.525
317.19	306.524
320.083	349.999
322.976	407.025
325.868	464.76
328.761	515.538
331.654	551.155
334.547	562.958
337.439	558.304
340.332	542.771
343.225	530.023
346.117	515.745
349.01	482.365
351.903	429.416
354.796	353.78
357.688	275.96
360.581	212.892
363.474	167.626
366.366	141.173
369.259	133.226
372.152	127.305
375.044	118.803
377.937	105.048
380.83	87.7394
383.722	65.398
386.615	46.0953
389.508	32.4188
392.401	25.0991
395.293	20.206
398.186	18.4122
401.079	16.6546
403.971	13.4548
406.864	11.7668
409.757	8.82175
412.649	4.94031
415.542	1.20148
418.435	2.43802
421.327	3.26672
424.22	4.3006
427.113	3.17673
430.006	1.97241
432.898	0.918518
435.791	1.62119
438.684	0.379974
441.576	2.73947
444.469	3.14658
447.362	4.40723
450.255	8.56998
453.147	7.68976
456.04	11.3797
458.933	11.4361
461.825	13.0601
464.718	12.1177
467.611	12.0636
470.503	12.3741
473.396	12.5441
476.289	10.9358
479.182	9.47028
482.074	9.40561
484.967	8.41519
487.86	6.97858
490.752	5.72928
493.645	4.91519
496.538	3.44235
499.43	3.70557
502.323	2.43167
505.216	1.85568
508.108	2.99796
511.001	0.144379
513.894	3.21817
516.787	2.02835
519.679	1.18607
522.572	0.488892
525.465	0.253296
528.357	0.992401
531.25	1.54559
534.143	0.033508
537.035	1.37784
539.928	0.876099
542.821	1.18103
545.713	1.20657
548.606	1.4122
551.499	2.48465
554.392	0.214355
557.284	0.471802
560.177	0.418274
563.07	0.645599
565.962	1.94644
568.855	3.69083
571.748	2.63452
574.64	3.03833
577.533	6.01443
580.426	3.72211
583.319	4.89435
586.211	5.97241
589.104	7.6835
591.997	7.71402
594.889	7.42184
597.782	8.14731
600.675	6.75162
603.567	7.83072
606.46	5.98489
609.353	7.01547
612.246	7.36948
615.138	8.7579
618.031	8.4928
620.924	7.74954
623.816	8.99478
626.709	8.73932
629.602	7.4968
632.494	7.17105
635.387	9.76465
638.28	9.45523
641.173	7.97311
644.065	7.40085
646.958	8.34256
649.851	8.47763
652.743	8.11145
655.636	9.02399
658.529	10.1915
661.421	9.86838
664.314	11.5563
667.207	12.9984
670.1	11.6166
672.992	13.2056
675.885	12.5958
678.778	13.5606
681.67	12.5759
684.563	11.7017
687.456	12.3239
690.348	13.0832
693.241	11.6251
696.134	9.54456
699.027	7.27011
701.919	7.71539
704.812	6.07053
707.705	7.61526
710.597	4.62692
713.49	3.96979
716.383	1.87781
719.275	1.82877
722.168	1.44894
725.061	0.439819
727.953	1.72812
730.846	1.66254
733.739	1.10861
736.632	2.13135
739.524	1.65744
742.417	1.64062
745.31	2.17706
748.202	3.39706
751.095	1.3129
753.988	0.065063
756.88	2.20749
759.773	7.38934
762.666	7.36975
765.559	9.08231
768.451	11.6251
771.344	15.0528
774.237	15.2158
777.129	18.7223
780.022	21.584
782.915	25.0351
785.808	31.6584
788.7	36.2587
791.593	46.9326
794.486	59.2848
797.378	76.7856
800.271	96.5287
803.164	118.112
806.056	148.312
808.949	181.528
811.842	214.748
814.734	252.588
817.627	286.362
820.52	321.141
823.413	344.278
826.305	357.736
829.198	361.055
832.091	348.037
834.983	326.073
837.876	288.634
840.769	248.868
843.661	209.037
846.554	172.716
849.447	138.768
852.34	114.282
855.232	94.7113
858.125	80.2374
861.018	68.0976
863.91	62.95
866.803	61.4522
869.696	60.9045
872.588	66.6711
875.481	73.4824
878.374	87.1202
881.266	107.868
884.159	134.478
887.052	164.766
889.945	185.768
892.837	190.258
895.73	163.842
898.623	126.921
901.515	84.8845
904.408	53.8167
907.301	32.5746
910.193	17.4521
913.086	9.44348
915.979	5.80237
918.872	0.613159
921.764	2.19934
924.657	3.448
927.55	3.70715
930.442	4.1731
933.335	1.90204
936.228	1.48401
939.12	1.48554
942.013	2.36307
944.906	0.702545
947.799	0.57663
950.691	1.84943
953.584	3.55919
956.477	5.30194
959.369	6.94327
962.262	7.3558
965.155	9.58925
968.047	11.7622
970.94	11.8619
973.833	13.5145
976.726	14.1535
979.618	16.138
982.511	15.0975
985.404	13.6841
988.296	14.3625
991.189	13.1067
994.082	12.6831
996.974	12.1722
999.867	12.0668
1002.76	10.3083
1005.65	11.1445
1008.54	9.56992
1011.44	8.72165
1014.33	8.3378
1017.22	8.8452
1020.12	7.91391
1023.01	7.27582
1025.9	9.65419
1028.79	8.1573
1031.69	8.23506
1034.58	6.36319
1037.47	8.97315
1040.37	6.99156
1043.26	7.69569
1046.15	6.15187
1049.04	5.6732
1051.94	5.3474
1054.83	4.62833
1057.72	5.52345
1060.61	5.84563
1063.51	5.94955
1066.4	4.13817
1069.29	5.03102
1072.18	4.13283
1075.08	3.42636
1077.97	3.13026
1080.86	1.74022
1083.76	2.77928
1086.65	4.15681
1089.54	2.33386
1092.43	2.07983
1095.33	0.957642
1098.22	0.681015
1101.11	1.48947
1104	0.051163
1106.9	0.059875
1109.79	2.00923
1112.68	0.337402
1115.58	0.738419
1118.47	0.003281
1121.36	1.2561
1124.25	1.03012
1127.15	1.67761
1130.04	0.612259
1132.93	0.281601
1135.82	0.971771
1138.72	2.04556
1141.61	1.75882
1144.5	1.39569
1147.39	0.22142
1150.29	0.964249
1153.18	1.97228
1156.07	1.27602
1158.97	2.96063
1161.86	2.17111
1164.75	2.07364
1167.64	2.66344
1170.54	0.601273
1173.43	3.47246
1176.32	1.79352
1179.21	2.3773
1182.11	2.60371
1185	1.99933
1187.89	2.76918
1190.79	2.52696
1193.68	2.27014
1196.57	2.24484
1199.46	2.43677
1202.36	3.2094
1205.25	2.18033
1208.14	2.03673
1211.03	1.31062
1213.93	1.49609
1216.82	1.24577
1219.71	0.386627
1222.61	0.975693
1225.5	1.54372
1228.39	0.192459
1231.28	0.620255
1234.18	5.0246
1237.07	1.97995
1239.96	1.1012
1242.85	0.054504
1245.75	1.41385
1248.64	2.64952
1251.53	2.30176
1254.42	0.435089
1257.32	3.00038
1260.21	1.25624
1263.1	1.79729
1265.99	2.08327
1268.89	2.04443
1271.78	1.82599
1274.67	0.811432
1277.57	0.061325
1280.46	1.52676
1283.35	0.718445
