Measurement: Raman, 532 nm, unoriented, Raman Data Processed
Mineral: Molybdofornacite
Rruff sample: R061057
Ideal chemistry: Cu^2+^Pb^2+^_2_Mo^6+^O_4_As^5+^O_4_(OH)
Locality: Mina Dulcinea, Carreras Pintos, Inca de Oro, Atacama Region, Chile
Source: Bob Jenkins
Description: Apple green tabular crystals associated with yellow wulfenite
Measured chemistry: Cu_1.00_Pb_2.00_(Mo_0.82_Cr^6+^_0.18_)_Σ=1_O_4_(As_0.93_P_0.07_)_Σ=1_O_4_(OH); OH estimated by difference and charge balance
Raman shift (cm-1)	intensity
152.378	0
155.27	23.9274
158.163	13.6101
161.056	35.0914
163.948	83.5708
166.841	58.2006
169.734	50.2129
172.626	91.3029
175.519	60.881
178.412	88.7667
181.305	67.4211
184.197	107.28
187.09	74.8131
189.983	114.691
192.875	116.691
195.768	122.24
198.661	99.6145
201.553	75.6133
204.446	101.79
207.339	76.0951
210.232	30.4608
213.124	44.4065
216.017	33.9188
218.91	25.1864
221.802	20.7922
224.695	18.4072
227.588	37.2306
230.48	21.5404
233.373	18.3523
236.266	20.2445
239.159	35.4862
242.051	20.8962
244.944	44.0714
247.837	6.87598
250.729	3.62427
253.622	34.611
256.515	26.6765
259.407	29.3663
262.3	26.6881
265.193	14.0928
268.086	6.91418
270.978	21.0966
273.871	71.0353
276.764	158.996
279.656	373.35
282.549	653.533
285.442	966.055
288.334	1316.8
291.227	1555.83
294.12	1673.39
297.012	1663.49
299.905	1644.52
302.798	1632.52
305.691	1559.53
308.583	1589.84
311.476	1595.37
314.369	1756.4
317.261	1937.62
320.154	2249.36
323.047	2695.44
325.94	3066.92
328.832	3336.01
331.725	3350
334.618	2945.43
337.51	2559.66
340.403	2087.24
343.296	1766.59
346.188	1552.89
349.081	1348.44
351.974	1107.53
354.866	846.845
357.759	618.559
360.652	434.4
363.545	386.359
366.437	379.359
369.33	399.71
372.223	517.774
375.115	572.436
378.008	579.818
380.901	479.933
383.793	287.207
386.686	142.776
389.579	27.8152
392.471	16.2076
395.364	3.01856
398.257	36.3953
401.15	88.3639
404.042	126.191
406.935	113.166
409.828	123.212
412.72	97.6632
415.613	28.4954
418.506	26.0727
421.399	4.42481
424.291	7.67297
427.184	6.83643
430.077	20.3074
432.969	30.9186
435.862	0.060547
438.755	12.1659
441.647	21.3506
444.54	56.2856
447.433	68.6559
450.325	105.913
453.218	100.935
456.111	140.689
459.004	133.459
461.896	117.597
464.789	65.7311
467.682	76.9733
470.574	62.0227
473.467	41.1412
476.36	23.6077
479.252	21.743
482.145	28.2019
485.038	2.21558
487.93	20.793
490.823	10.2379
493.716	14.193
496.609	5.36914
499.501	23.2744
502.394	8.63916
505.287	16.7606
508.179	13.9546
511.072	12.5765
513.965	13.4668
516.857	8.4281
519.75	7.13843
522.643	40.3639
525.536	32.0324
528.428	16.2047
531.321	0.562744
534.214	40.1603
537.106	3.91675
539.999	9.08704
542.892	26.6747
545.784	14.9652
548.677	3.22217
551.57	14.7865
554.463	12.1238
557.355	24.9645
560.248	24.6316
563.141	34.9874
566.033	17.8782
568.926	29.8833
571.819	37.2097
574.712	15.8109
577.604	21.6837
580.497	46.1666
583.39	68.941
586.282	50.7235
589.175	66.8721
592.068	73.911
594.96	75.9524
597.853	78.6355
600.746	89.1602
603.639	106.266
606.531	110.683
609.424	128.964
612.317	103.522
615.209	121.408
618.102	164.835
620.995	167.482
623.887	170.349
626.78	190.931
629.673	177.885
632.565	168.252
635.458	167.232
638.351	154.252
641.244	166.848
644.136	151.077
647.029	133.355
649.922	161.662
652.814	177.934
655.707	184.632
658.6	188.557
661.492	247.566
664.385	219.085
667.278	235.232
670.17	247.993
673.063	238.9
675.956	245.585
678.849	252.103
681.741	227.221
684.634	231.959
687.527	235.648
690.419	211.918
693.312	180.495
696.205	180.657
699.097	178.54
701.99	141.933
704.883	135.249
707.776	100.622
710.668	82.0492
713.561	66.0963
716.454	43.6237
719.346	43.4044
722.239	13.4264
725.132	7.8844
728.024	10.7377
730.917	32.7913
733.81	1.95996
736.703	22.1177
739.595	10.4545
742.488	8.88794
745.381	14.2495
748.273	0.185303
751.166	46.5459
754.059	59.2471
756.952	92.896
759.844	97.5417
762.737	54.2073
765.63	7.24292
768.522	30.4556
771.415	67.1587
774.308	86.1843
777.2	127.91
780.093	179.954
782.986	219.282
785.878	339.227
788.771	510.507
791.664	699.629
794.557	974.786
797.449	1313.82
800.342	1796.81
803.235	2399.6
806.127	3112.55
809.02	3965.99
811.913	5084.55
814.805	6361.11
817.698	7762.22
820.591	8964.6
823.484	9916.93
826.376	10427.8
829.269	10317.5
832.162	9710.91
835.054	8681.22
837.947	7534.39
840.84	6353.24
843.732	5485.28
846.625	4627.47
849.518	3868.91
852.41	3286.71
855.303	2743.17
858.196	2364.72
861.089	2035.7
863.981	1737.45
866.874	1675.99
869.767	1604
872.659	1680.85
875.552	1857.73
878.445	2233.79
881.337	2957.7
884.23	4017.97
887.123	5530.26
890.016	7388.58
892.908	8855.51
895.801	8451.65
898.694	6184.65
901.586	3756.91
904.479	2098.21
907.372	1207.75
910.264	625.712
913.157	303.744
916.05	110.509
918.943	51.9885
921.835	30.8276
924.728	20.7727
927.621	74.4185
930.513	45.7197
933.406	41.6156
936.299	78.0006
939.192	61.3543
942.084	31.7435
944.977	0.357056
947.87	21.2304
950.762	22.4211
953.655	44.4786
956.548	94.3242
959.44	131.301
962.333	130.667
965.226	177.787
968.118	182.829
971.011	228.069
973.904	236.742
976.797	270.551
979.689	251.519
982.582	279.272
985.475	274.938
988.367	236.623
991.26	267.347
994.153	253.603
997.045	214.724
999.938	197.62
1002.83	161.243
1005.72	171.724
1008.62	151.835
1011.51	151.731
1014.4	120.836
1017.29	118.573
1020.19	127.385
1023.08	137.959
1025.97	139.136
1028.87	141.825
1031.76	134.147
1034.65	133.883
1037.54	131.364
1040.44	127.873
1043.33	128.515
1046.22	112.503
1049.11	76.5905
1052.01	90.1667
1054.9	109.393
1057.79	94.6486
1060.68	50.337
1063.58	68.0945
1066.47	53.2922
1069.36	60.3346
1072.26	33.4791
1075.15	28.488
1078.04	35.6596
1080.93	22.9757
1083.83	35.0651
1086.72	38.7803
1089.61	49.0153
1092.5	8.84485
1095.4	5.88269
1098.29	38.1146
1101.18	37.2279
1104.08	22.246
1106.97	19.5995
1109.86	37.0253
1112.75	6.573
1115.65	9.52844
1118.54	13.1937
1121.43	23.825
1124.32	17.5874
1127.22	19.1852
1130.11	26.4956
1133	23.3932
1135.89	6.29504
1138.79	9.27979
1141.68	11.8738
1144.57	13.233
1147.47	13.5604
1150.36	9.70081
1153.25	29.2059
1156.14	27.8748
1159.04	28.7902
1161.93	17.0588
1164.82	22.8915
1167.71	8.68738
1170.61	28.2474
1173.5	23.6121
1176.39	18.5798
1179.29	18.3765
1182.18	17.1537
1185.07	53.1918
1187.96	29.6494
1190.86	27.3779
1193.75	32.3345
1196.64	2.32483
1199.53	3.81738
1202.43	9.9707
1205.32	11.0846
1208.21	15.7905
1211.11	28.6211
1214	2.84692
1216.89	15.7075
1219.78	21.9683
1222.68	24.5734
1225.57	26.9076
1228.46	3.78894
1231.35	15.4879
1234.25	6.53662
1237.14	19.6572
1240.03	7.71399
1242.92	38.1215
1245.82	44.9236
1248.71	52.4926
1251.6	39.679
1254.49	44.8867
1257.39	17.7911
1260.28	17.2417
1263.17	12.3591
1266.07	25.8908
1268.96	27.517
1271.85	34.6783
1274.74	16.9729
1277.64	42.5789
1280.53	7.20288
1283.42	20.5881
1286.32	33.0931
1289.21	23.7566
1292.1	33.5012
1294.99	1.47998
