Measurement: Raman, 532 nm, unoriented, Raman Data Processed
Mineral: Molybdophyllite
Rruff sample: R070222
Ideal chemistry: Pb_8_Mg_9_[Si_10_O_30_(OH)_8_(CO_3_)_3_]H_2_O
Locality: Langban, Filipstad, Varmland, Sweden
Source: Michael Scott
Description: Colorless tabular crystals associated with hausmannite, with cell parameters that match the so-called molybdophyllite-18 phase (Kolitsch et al, 2012)
Raman shift (cm-1)	intensity
152.554	0
155.447	285.602
158.34	205.455
161.233	147.114
164.125	114.561
167.018	115.81
169.911	86.8125
172.803	21.75
175.696	25.0137
178.589	6.38672
181.482	12.8799
184.374	13.5156
187.267	40.7578
190.16	155.185
193.052	294.259
195.945	453.132
198.838	429.863
201.731	436.799
204.623	269.539
207.516	188.234
210.409	353.29
213.301	536.773
216.194	591.244
219.087	571.107
221.979	296.82
224.872	186.462
227.765	47.2598
230.657	26.3174
233.55	85.7959
236.443	73.7969
239.336	46.1367
242.228	204.815
245.121	344.7
248.014	603.1
250.906	730.32
253.799	800.392
256.692	649.246
259.584	553.754
262.477	521.276
265.37	517.186
268.263	533.263
271.155	532.725
274.048	545.091
276.941	550.816
279.833	568.134
282.726	676.754
285.619	837.89
288.512	1105.97
291.404	1327.44
294.297	1657.21
297.19	1993.72
300.082	2341.83
302.975	2670.41
305.868	2886.94
308.76	2774.18
311.653	2588.99
314.546	2327.21
317.438	1974.19
320.331	1747.67
323.224	1626.5
326.117	1428.63
329.009	1335.91
331.902	1109.07
334.795	1000.68
337.687	708.788
340.58	518.755
343.473	325.694
346.365	279.394
349.258	311.603
352.151	238.897
355.044	117.03
357.936	8.84375
360.829	66.2729
363.722	98.9761
366.614	67.5054
369.507	32.2661
372.4	8.62744
375.293	166.554
378.185	301.861
381.078	446.833
383.971	689.676
386.863	847.891
389.756	1098.28
392.649	1256.77
395.541	1505.7
398.434	1667.31
401.327	1982.67
404.219	2294.78
407.112	2487.28
410.005	2801.26
412.898	2903.66
415.79	3033.29
418.683	2852.65
421.576	2688.01
424.469	2465.34
427.361	2173.61
430.254	1992.77
433.147	1745.02
436.039	1548.63
438.932	1488.71
441.825	1387.56
444.717	1161.15
447.61	1025.32
450.503	899.161
453.396	739.6
456.288	605.404
459.181	465.609
462.074	349.688
464.966	262.571
467.859	171.909
470.752	64.5
473.644	78.9824
476.537	40.2593
479.43	35.3852
482.322	50.352
485.215	13.8267
488.108	12.729
491.001	27.2109
493.893	56.0825
496.786	8.97754
499.679	26.6377
502.571	33.7412
505.464	55.8027
508.357	2.21631
511.25	61.9673
514.142	97.249
517.035	111.356
519.928	117.572
522.82	90.2598
525.713	59.4375
528.606	63.6025
531.498	13.7705
534.391	41.1602
537.284	15.2705
540.177	43.2109
543.069	24.229
545.962	14.6982
548.855	8.55469
551.747	18.3804
554.64	99.8643
557.533	168.286
560.425	231.456
563.318	259.393
566.211	239.972
569.104	243.409
571.996	201.172
574.889	304.2
577.782	341.173
580.674	441.195
583.567	528.578
586.46	631.076
589.352	676.725
592.245	718.893
595.138	664.527
598.031	598.858
600.923	489.207
603.816	378.182
606.709	282.758
609.601	232.86
612.494	181.333
615.387	188.633
618.279	193.904
621.172	171.141
624.065	123.331
626.958	83.626
629.85	34.9805
632.743	15.1631
635.636	1.09766
638.528	42.2788
641.421	3.17188
644.314	17.2568
647.207	23.3975
650.099	79.6538
652.992	199.09
655.885	365.659
658.777	613.202
661.67	932.755
664.563	1167.71
667.455	1270.09
670.348	1095.02
673.241	865.115
676.134	669.79
679.026	707.941
681.919	752.445
684.812	870.106
687.704	970.357
690.597	1018.24
693.49	932.017
696.382	813.332
699.275	562.167
702.168	378.487
705.061	292.273
707.953	216.12
710.846	126.394
713.739	170.765
716.631	148.124
719.524	82.8311
722.417	49.6787
725.309	119.624
728.202	55.2607
731.095	115.443
733.987	74.9565
736.88	89.5908
739.773	44.8306
742.666	11.437
745.558	12.3154
748.451	40.8159
751.344	32.1167
754.236	35.3467
757.129	77.4976
760.022	97.5102
762.915	209.645
765.807	371.745
768.7	534.767
771.593	669.683
774.485	761.932
777.378	786.749
780.271	831.546
783.163	786.138
786.056	720.918
788.949	683.022
791.842	605.712
794.734	575.875
797.627	542.836
800.52	547.093
803.412	612.952
806.305	764.06
809.198	932.596
812.091	1101.37
814.983	1380.4
817.876	1560.06
820.769	1644.45
823.661	1590.47
826.554	1464.98
829.447	1117.56
832.339	829.727
835.232	582.715
838.125	475.982
841.018	540.419
843.91	553.432
846.803	549.142
849.696	402.443
852.588	165.683
855.481	83.2158
858.374	26.0488
861.266	10.3149
864.159	27.1372
867.052	15.7861
869.944	26.937
872.837	25.6523
875.73	33.6782
878.623	130.016
881.515	215.171
884.408	315.683
887.301	433.964
890.193	562.335
893.086	761.104
895.979	1008.93
898.871	1216.03
901.764	1383.9
904.657	1445.05
907.55	1286.2
910.442	1059.44
913.335	894.169
916.228	746.216
919.12	576.646
922.013	495.831
924.906	464.995
927.798	357.286
930.691	289.558
933.584	229.245
936.477	193.112
939.369	45.3145
942.262	22.9277
945.155	36.937
948.047	13.1284
950.94	18.5752
953.833	42.708
956.726	137.267
959.618	223.514
962.511	357.426
965.404	381.755
968.296	471.271
971.189	694.879
974.082	892.392
976.974	1281.88
979.867	1658.28
982.76	2277.91
985.653	2954.65
988.545	3748.59
991.438	4447.92
994.331	4409.56
997.223	3627.91
1000.12	2446.88
1003.01	1451.38
1005.9	782.499
1008.79	325.195
1011.69	121.947
1014.58	48.4551
1017.47	24.9722
1020.37	103.434
1023.26	512.841
1026.15	1302.93
1029.04	2886.8
1031.94	5392.36
1034.83	8449.22
1037.72	11155
1040.61	12837
1043.51	12622.3
1046.4	10567.3
1049.29	8042.66
1052.18	5055.75
1055.08	2261.73
1057.97	705.606
1060.86	237.149
1063.76	27.4473
1066.65	98.0884
1069.54	62.9077
1072.43	189.082
1075.33	294.716
1078.22	409.794
1081.11	500.369
1084	748.303
1086.9	853.319
1089.79	875.262
1092.68	990.235
1095.58	966.848
1098.47	884.903
1101.36	716.192
1104.25	504.125
1107.15	331.746
1110.04	170.827
1112.93	60.2476
1115.82	56.7905
1118.72	12.6162
1121.61	39.229
1124.5	2.48047
1127.39	20.666
1130.29	34.1006
1133.18	9.75879
1136.07	63.0171
1138.97	77.1235
1141.86	107.274
1144.75	173.724
1147.64	199.206
1150.54	238.694
1153.43	294.391
1156.32	354.354
1159.21	468.174
1162.11	533.96
1165	620.418
1167.89	767.385
1170.79	822.347
1173.68	979.104
1176.57	1080.69
1179.46	1148.49
1182.36	1287.72
1185.25	1285.95
1188.14	1297.34
1191.03	1267.34
1193.93	1307.59
1196.82	1209.56
1199.71	1204.63
1202.61	1121.07
1205.5	1006.74
1208.39	909.316
1211.28	923.518
1214.18	923.817
1217.07	889.56
1219.96	797.19
1222.85	899.965
1225.75	792.207
1228.64	736.42
1231.53	756.573
1234.42	706.865
1237.32	657.141
1240.21	600.421
1243.1	476.637
1246	441.543
1248.89	273.889
1251.78	289.284
1254.67	193.817
1257.57	97.1528
1260.46	118.779
1263.35	3.37402
1266.24	48.8315
1269.14	0.42041
1272.03	25.3452
1274.92	26.7114
1277.82	1.89111
1280.71	29.2988
1283.6	49.0034
1286.49	30.104
1289.39	72.8413
1292.28	138.04
1295.17	63.2793
1298.06	28.186
1300.96	58.9053
