Measurement: Raman, 532 nm, unoriented, Raman Data Processed
Mineral: Molybdofornacite
Rruff sample: R150122
Ideal chemistry: Cu^2+^Pb^2+^_2_Mo^6+^O_4_As^5+^O_4_(OH)
Locality: Dulcinea de Llampos Mine, Copiap√≥ Province, Chile
Source: Bob Jenkins
Description: Tabular olive-green crystals, associated with wulfenite and malachite. Note that the c-cell edge is half of what is usually reported.
Raman shift (cm-1)	intensity
135.102	48.0635
138.477	45.5229
141.852	51.3597
145.227	44.539
148.601	40.5271
151.976	37.584
155.351	36.166
158.726	34.5119
162.101	34.7522
165.476	29.8441
168.85	28.0854
172.225	22.9591
175.6	17.8912
178.975	18.1153
182.35	11.9015
185.724	8.78867
189.099	10.8487
192.474	9.71069
195.849	10.841
199.224	12.4866
202.599	14.6865
205.973	15.203
209.348	15.0122
212.723	16.9446
216.098	17.2523
219.473	13.4172
222.847	12.1421
226.222	7.92117
229.597	5.89743
232.972	3.00501
236.347	4.30936
239.721	4.48425
243.096	3.79111
246.471	0.327026
249.846	0.524384
253.221	2.1879
256.596	4.34741
259.97	4.56232
263.345	5.85132
266.72	8.07062
270.095	3.8627
273.47	0.719849
276.844	7.54797
280.219	18.6742
283.594	32.5998
286.969	57.1081
290.344	85.2826
293.719	112.434
297.093	139.777
300.468	166.069
303.843	196.278
307.218	222.04
310.593	251.269
313.967	286.681
317.342	337.386
320.717	399.753
324.092	503.163
327.467	627.894
330.842	733.383
334.216	745.312
337.591	699.304
340.966	677.201
344.341	679.795
347.716	673.975
351.091	620.999
354.465	495.333
357.84	351.536
361.215	249.528
364.59	202.02
367.964	191.431
371.339	203.058
374.714	232.488
378.089	244.555
381.464	208.72
384.839	132.087
388.213	69.348
391.588	37.0573
394.963	25.2809
398.338	28.6434
401.713	42.1989
405.087	51.9706
408.462	57.1122
411.837	53.1456
415.212	41.5907
418.587	29.2176
421.962	18.8553
425.336	6.89587
428.711	1.21991
432.086	6.81323
435.461	8.60083
438.836	8.38971
442.211	4.1333
445.585	0.541931
448.96	5.198
452.335	8.45447
455.71	14.4109
459.085	18.1969
462.459	16.6921
465.834	15.5026
469.209	12.4857
472.584	9.87921
475.959	3.50482
479.334	3.07611
482.708	5.68823
486.083	9.24451
489.458	7.02332
492.833	6.66833
496.208	2.17377
499.582	1.19952
502.957	0.496399
506.332	0.044128
509.707	0.437317
513.082	3.38495
516.457	1.26794
519.831	1.19415
523.206	0.069763
526.581	2.85431
529.956	1.19684
533.331	0.986328
536.705	0.165161
540.08	0.333252
543.455	2.29248
546.83	4.55939
550.205	3.03278
553.58	1.71002
556.954	1.92804
560.329	1.15198
563.704	1.2503
567.079	0.263916
570.454	3.13171
573.828	0.700256
577.203	3.76679
580.578	3.69415
583.953	2.4314
587.328	9.25684
590.702	4.43146
594.077	5.86353
597.452	7.04675
600.827	5.06451
604.202	4.68616
607.577	6.92828
610.951	8.49115
614.326	10.5441
617.701	9.57416
621.076	8.86499
624.451	12.0206
627.825	12.342
631.2	14.3938
634.575	12.2714
637.95	15.8325
641.325	18.0765
644.699	22.9999
648.074	24.3101
651.449	27.7985
654.824	31.3644
658.199	34.535
661.574	35.0579
664.948	39.5582
668.323	44.0358
671.698	44.6793
675.073	44.0208
678.448	47.1898
681.822	48.0086
685.197	51.0218
688.572	52.179
691.947	54.0793
695.322	54.6866
698.697	55.2624
702.071	59.2638
705.446	54.5873
708.821	52.8007
712.196	43.5059
715.571	39.0333
718.946	33.6132
722.32	28.7311
725.695	20.4647
729.07	19.1082
732.445	12.0242
735.82	7.12042
739.194	2.80005
742.569	1.43426
745.944	5.82434
749.319	11.1697
752.694	14.0408
756.068	17.9346
759.443	15.2246
762.818	8.83783
766.193	3.25012
769.568	1.25391
772.943	9.38983
776.317	18.0467
779.692	26.2199
783.067	39.0685
786.442	61.4744
789.817	94.1675
793.192	141.479
796.566	205.218
799.941	291.896
803.316	416.174
806.691	586.428
810.066	809.534
813.44	1090.96
816.815	1424.2
820.19	1788.55
823.565	2100.84
826.94	2298.49
830.314	2356.9
833.689	2255.82
837.064	2015.6
840.439	1724.4
843.814	1436.89
847.188	1197.9
850.563	1016.87
853.938	892.073
857.313	797.588
860.688	725.902
864.063	682.712
867.437	669.781
870.812	697.882
874.187	753.032
877.562	804.494
880.937	867.712
884.312	964.199
887.686	1104.95
891.061	1302.21
894.436	1389.01
897.811	1152.6
901.186	750.928
904.56	431.265
907.935	231.071
911.31	117.737
914.685	52.5304
918.06	19.4403
921.434	3.1709
924.809	3.42706
928.184	3.76227
931.559	10.0312
934.934	15.3931
938.309	15.6077
941.683	12.87
945.058	10.7052
948.433	7.79157
951.808	0.026062
955.183	5.9834
958.558	9.68689
961.932	22.8226
965.307	30.4072
968.682	39.2896
972.057	46.5983
975.432	50.9977
978.806	58.1134
982.181	63.3708
985.556	69.1741
988.931	72.7112
992.306	70.6882
995.681	69.8881
999.055	66.2452
1002.43	61.2734
1005.8	56.562
1009.18	50.7405
1012.55	49.3097
1015.93	45.2488
1019.3	42.4122
1022.68	39.7085
1026.05	38.557
1029.43	37.2961
1032.8	34.9584
1036.18	36.4228
1039.55	33.603
1042.93	30.6909
1046.3	29.6649
1049.68	27.947
1053.05	26.6459
1056.43	23.6797
1059.8	17.0609
1063.18	18.5941
1066.55	15.3889
1069.93	20.1311
1073.3	12.0832
1076.68	10.8989
1080.05	8.87854
1083.43	9.75555
1086.8	5.63654
1090.17	5.47199
1093.55	4.38879
1096.92	5.8031
1100.3	5.59631
1103.67	3.20837
1107.05	4.14258
1110.42	0.836365
1113.8	1.57727
1117.17	2.26141
1120.55	0.544373
1123.92	0.315613
1127.3	0.855164
1130.67	1.7038
1134.05	0.435791
1137.42	0.119751
1140.8	1.12091
1144.17	2.06897
1147.55	1.23999
1150.92	2.05237
1154.3	2.15063
1157.67	1.83215
1161.05	2.4707
1164.42	4.3432
1167.8	4.04797
1171.17	2.93091
1174.55	2.84979
1177.92	5.70923
1181.3	3.93994
1184.67	5.78058
1188.05	6.53558
1191.42	6.09808
1194.8	4.78119
1198.17	4.45996
1201.54	3.83874
1204.92	3.35309
1208.29	2.3335
1211.67	2.77008
1215.04	1.83429
1218.42	3.2392
1221.79	3.41516
1225.17	1.70935
1228.54	0.203186
1231.92	0.560364
1235.29	2.8822
1238.67	1.41168
1242.04	1.57367
1245.42	8.59222
1248.79	4.68243
1252.17	4.10553
1255.54	3.5083
1258.92	5.87964
1262.29	4.48895
1265.67	3.09723
1269.04	2.66785
1272.42	3.78046
1275.79	3.68689
1279.16	1.11743
1282.54	2.41766
1285.91	4.05725
1289.29	2.31323
1292.66	1.43225
1296.04	1.6875
1299.41	1.48187
