Measurement: Raman, 780 nm, unoriented, Raman Data Processed
Mineral: Molybdofornacite
Rruff sample: R150121
Ideal chemistry: Cu^2+^Pb^2+^_2_Mo^6+^O_4_As^5+^O_4_(OH)
Locality: San Pablo Mine, Inca de Oro, Cha√±aral Province, Chile
Source: Bob Jenkins
Description: Tabular grass-green crystals, associated with wulfenite, malachite, and quartz
Raman shift (cm-1)	intensity
131.094	0
133.986	2.12698
136.879	2.50751
139.772	7.4899
142.664	8.39487
145.557	4.47522
148.45	5.22998
151.342	2.62518
154.235	2.28982
157.128	4.09625
160.02	1.72531
162.913	5.28891
165.806	7.79643
168.698	10.5598
171.591	15.9726
174.484	18.9234
177.377	22.8355
180.269	26.0383
183.162	23.2712
186.055	21.2398
188.947	18.1055
191.84	14.3827
194.733	12.5178
197.625	8.83604
200.518	5.35655
203.411	4.25006
206.304	2.02991
209.196	0.899353
212.089	0.468811
214.982	1.38728
217.874	1.0983
220.767	1.15677
223.66	1.81789
226.553	2.48888
229.445	0.959076
232.338	0.490967
235.231	0.087616
238.123	0.537918
241.016	1.94427
243.909	1.90294
246.801	3.02753
249.694	3.00915
252.587	2.76868
255.48	3.53742
258.372	6.93832
261.265	6.02576
264.158	7.7316
267.05	8.60141
269.943	12.5268
272.836	15.5152
275.728	24.0591
278.621	33.1537
281.514	46.5425
284.406	65.7455
287.299	88.8312
290.192	124.407
293.085	157.252
295.977	195.081
298.87	228.937
301.763	252.071
304.655	272
307.548	288.773
310.441	301.952
313.334	316.034
316.226	331.897
319.119	355.335
322.012	379.614
324.904	398.827
327.797	405.02
330.69	397.547
333.582	372.238
336.475	337.269
339.368	292.231
342.26	245.185
345.153	197.424
348.046	160.503
350.938	127.532
353.831	98.6489
356.724	73.7463
359.617	54.0661
362.509	39.0353
365.402	27.0215
368.295	20.0124
371.187	15.3519
374.08	11.3483
376.973	7.41504
379.865	3.09527
382.758	0.723534
385.651	2.0863
388.544	2.64468
391.436	2.31514
394.329	1.23594
397.222	0.163658
400.114	3.33751
403.007	3.28708
405.9	4.93134
408.793	4.25884
411.685	3.76645
414.578	1.48823
417.471	0.167503
420.363	0.151276
423.256	0.98069
426.149	0.644249
429.041	0.457657
431.934	1.44967
434.827	1.87695
437.719	2.96681
440.612	3.74839
443.505	4.48044
446.398	5.23803
449.29	5.74625
452.183	5.7244
455.076	7.92352
457.968	5.94967
460.861	7.85696
463.754	6.88235
466.647	6.51988
469.539	5.50742
472.432	3.93753
475.325	2.77371
478.217	2.02404
481.11	1.83794
484.003	0.474545
486.895	0.053112
489.788	0.002895
492.681	0.079243
495.573	0.393055
498.466	0.389194
501.359	0.095913
504.252	0.116985
507.144	0.016365
510.037	0.021248
512.93	0.265339
515.822	0.351761
518.715	0.840309
521.608	0.535686
524.5	0.418495
527.393	0.115547
530.286	0.532089
533.178	0.286732
536.071	0.495831
538.964	0.560917
541.857	0.485367
544.749	0.735645
547.642	0.05582
550.535	1.0682
553.427	0.490768
556.32	0.548656
559.213	0.886654
562.106	0.197308
564.998	0.308746
567.891	0.950294
570.784	0.410488
573.676	0.840797
576.569	1.46059
579.462	1.63201
582.354	1.32578
585.247	1.2948
588.14	0.714767
591.033	1.51815
593.925	1.35124
596.818	1.37879
599.711	1.72799
602.603	2.28662
605.496	2.33777
608.389	2.17039
611.281	2.65624
614.174	2.73799
617.067	2.97107
619.96	3.23528
622.852	3.95668
625.745	3.72548
628.638	3.47145
631.53	4.29672
634.423	4.94832
637.316	4.99384
640.208	5.20597
643.101	5.96841
645.994	6.19093
648.886	6.60887
651.779	7.27924
654.672	8.23714
657.564	8.58496
660.457	9.22252
663.35	10.8581
666.243	11.029
669.135	11.0726
672.028	12.4926
674.921	12.2125
677.813	12.5426
680.706	11.4358
683.599	10.5955
686.491	9.34635
689.384	8.99832
692.277	7.86673
695.17	7.3502
698.062	6.03265
700.955	4.97636
703.848	3.94487
706.74	2.94764
709.633	1.67826
712.526	0.312954
715.418	0.070286
718.311	0.927654
721.204	1.86162
724.097	1.35275
726.989	2.22501
729.882	2.83195
732.775	2.18032
735.667	0.462242
738.56	0.53392
741.453	1.19984
744.346	3.1761
747.238	5.15076
750.131	8.22074
753.024	12.3289
755.916	16.7542
758.809	23.2053
761.702	31.4626
764.594	38.3428
767.487	48.8716
770.38	55.5595
773.273	59.1078
776.165	60.9749
779.058	60.6407
781.951	57.4285
784.843	55.0673
787.736	53.8112
790.629	54.1395
793.521	55.418
796.414	58.3391
799.307	66.672
802.199	74.9758
805.092	85.1316
807.985	96.2775
810.878	107.092
813.77	117.194
816.663	129.295
819.556	136.618
822.448	143.617
825.341	150.209
828.234	155.409
831.126	157.534
834.019	150.418
836.912	136.496
839.804	115.798
842.697	92.8825
845.59	70.5339
848.483	53.0754
851.375	36.9842
854.268	24.3109
857.161	15.2167
860.053	8.37935
862.946	3.67767
865.839	1.72891
868.731	3.17662
871.624	8.75023
874.517	18.6517
877.409	36.6788
880.302	66.0254
883.195	110.874
886.088	173.728
888.98	256.657
891.873	343.748
894.766	386.061
897.658	343.23
900.551	241.701
903.444	148.368
906.337	85.9252
909.229	46.5223
912.122	25.8611
915.015	12.1567
917.907	5.88212
920.8	1.474
923.693	0.533981
926.585	1.88293
929.478	1.19126
932.371	1.54262
935.264	3.0252
938.156	1.59629
941.049	1.65973
943.942	1.67291
946.834	0.376823
949.727	0.814995
952.62	1.56775
955.512	2.37423
958.405	2.82918
961.298	4.6516
964.191	5.03997
967.083	6.54063
969.976	7.11136
972.869	7.47123
975.761	9.13054
978.654	10.5607
981.547	10.204
984.439	10.9276
987.332	11.6705
990.225	11.3732
993.117	11.3868
996.01	10.6072
998.903	10.3796
1001.8	9.11941
1004.69	8.89617
1007.58	8.22965
1010.47	7.922
1013.37	8.18337
1016.26	6.93729
1019.15	6.96167
1022.04	7.54848
1024.94	7.18451
1027.83	6.19652
1030.72	6.8144
1033.62	6.58474
1036.51	6.26363
1039.4	6.24676
1042.29	6.41052
1045.19	5.64829
1048.08	5.35103
1050.97	4.4856
1053.86	4.9554
1056.76	4.55774
1059.65	3.63485
1062.54	3.40305
1065.43	3.73829
1068.33	2.90916
1071.22	2.77521
1074.11	2.69447
1077.01	2.40234
1079.9	2.59792
1082.79	1.60348
1085.68	2.19804
1088.58	1.36078
1091.47	0.939138
1094.36	1.29625
1097.26	1.48978
1100.15	1.01127
1103.04	1.17282
1105.93	0.56974
1108.83	0.940792
1111.72	0.580751
1114.61	0.289486
1117.5	0.545614
1120.4	0.499319
1123.29	0.532997
1126.18	0.007896
1129.07	0.123209
1131.97	0.252047
1134.86	0.101252
1137.75	0.180267
1140.64	0.019302
1143.54	0.011032
1146.43	0.13489
1149.32	0.05271
1152.22	0.05817
1155.11	0.379456
1158	0.130646
1160.89	0.044241
1163.79	0.256788
1166.68	0.145029
1169.57	1.4798
1172.46	0.458099
1175.36	0.373966
1178.25	0.213991
1181.14	0.434549
1184.04	0.451607
1186.93	0.720287
1189.82	1.01993
1192.71	0.696167
1195.61	0.425142
1198.5	0.662697
1201.39	0.226847
1204.28	0.617062
1207.18	0.220615
1210.07	0.367025
1212.96	0.561777
1215.86	0.267029
1218.75	0.685001
1221.64	0.587465
1224.53	0.209572
1227.43	0.50466
1230.32	0.258776
1233.21	0.960793
1236.1	3.21312
1239	1.30008
1241.89	0.525068
1244.78	0.321369
1247.67	0.242935
1250.57	0.172802
1253.46	0.205404
1256.35	0.382824
1259.25	0.41712
1262.14	0.77405
1265.03	0.660591
1267.92	0.726011
1270.82	0.198767
1273.71	0.019262
1276.6	0.097168
1279.49	0.210272
1282.39	0.11623
