Measurement: Raman, 532 nm, unoriented, Raman Data Processed
Mineral: Molybdenite
Rruff sample: R050209
Ideal chemistry: MoS_2_
Locality: Boss Mountain mine, Hendrix Lake, British Columbia, Canada
Source: Lloyd Twaites
Description: Foiliated gray colored, represents the 2H polytype
Measured chemistry: Mo_1.00_S_2.00_
Raman shift (cm-1)	intensity
170.432	4.89668
173.325	4.88461
176.217	4.8898
179.11	5.05839
182.003	5.00273
184.895	4.89568
187.788	5.09046
190.681	4.8993
193.573	4.64711
196.466	4.48185
199.359	4.58346
202.252	4.54968
205.144	4.4239
208.037	4.31435
210.93	4.4287
213.822	4.22728
216.715	4.11297
219.608	4.26267
222.5	4.20534
225.393	4.18626
228.286	4.02609
231.179	4.03882
234.071	3.99916
236.964	3.8296
239.857	3.83452
242.749	3.93741
245.642	3.72173
248.535	3.7543
251.428	3.83641
254.32	3.82439
257.213	3.79627
260.106	3.67602
262.998	3.78013
265.891	3.64617
268.784	3.78542
271.676	3.73185
274.569	3.76961
277.462	3.78166
280.354	3.74975
283.247	3.73764
286.14	3.91799
289.033	3.83596
291.925	3.67963
294.818	3.67409
297.711	3.69317
300.603	3.64648
303.496	3.68695
306.389	3.84372
309.281	3.75852
312.174	3.89939
315.067	3.89323
317.96	3.95252
320.852	4.08158
323.745	4.06423
326.638	4.0521
329.53	4.14779
332.423	4.2085
335.316	4.19893
338.209	4.21068
341.101	4.33521
343.994	4.39431
346.887	4.55271
349.779	4.57073
352.672	4.77537
355.565	5.06435
358.457	5.22371
361.35	5.66376
364.243	6.75824
367.135	11.486
370.028	13.5863
372.921	15.672
375.814	19.7527
378.706	27.3039
381.599	48.397
384.492	69.8678
387.384	17.3523
390.277	9.5707
393.17	15.2223
396.062	17.7116
398.955	21.4666
401.848	28.4581
404.741	48.322
407.633	82.8549
410.526	96.4084
413.419	19.8859
416.311	9.21082
419.204	7.72625
422.097	7.12768
424.99	7.05992
427.882	6.99454
430.775	7.17737
433.668	7.40167
436.56	7.82307
439.453	8.21877
442.346	9.0038
445.238	9.66169
448.131	10.2973
451.024	11.1426
453.916	10.9785
456.809	9.60763
459.702	8.52962
462.595	7.9802
465.487	7.35118
468.38	6.35429
471.273	4.97831
474.165	3.97225
477.058	3.38796
479.951	3.15686
482.844	3.2143
485.736	3.1773
488.629	3.28707
491.522	3.31084
494.414	3.3351
497.307	3.34216
500.2	3.35702
503.092	3.36052
505.985	3.34766
508.878	3.42502
511.771	3.40787
514.663	3.52958
517.556	3.56911
520.448	3.68983
523.341	3.68943
526.234	3.82406
529.127	3.94075
532.019	3.8518
534.912	3.76899
537.805	3.83569
540.697	3.80202
543.59	3.81941
546.483	3.85076
549.375	4.06609
552.268	4.34895
555.161	4.5124
558.054	4.75317
560.946	4.95661
563.839	5.2656
566.732	5.596
569.625	5.77806
572.517	5.81042
575.41	5.47013
578.303	5.36692
581.195	5.59979
584.088	5.76639
586.981	5.89216
589.873	6.19209
592.766	6.23886
595.659	6.1722
598.552	6.20545
601.444	5.65276
604.337	4.69689
607.23	4.16364
610.122	4.00503
613.015	4.06417
615.908	4.24247
618.8	4.23154
621.693	4.31686
624.586	4.40529
627.479	4.59039
630.371	4.46284
633.264	4.29641
636.157	4.09514
639.049	3.84984
641.942	3.63447
644.835	3.38978
647.727	3.01903
650.62	2.83362
653.513	2.74408
656.405	2.68736
659.298	2.65722
662.191	2.64579
665.084	2.7197
667.976	2.76656
670.869	2.85922
673.762	2.86111
676.654	2.85058
679.547	2.83856
682.44	2.77278
685.332	2.79636
688.225	2.7375
691.118	2.75007
694.011	2.84585
696.903	3.0554
699.796	3.2196
702.689	3.2786
705.581	3.34699
708.474	3.26762
711.367	3.22966
714.259	3.20959
717.152	3.23937
720.045	4.01699
722.938	3.7504
725.83	3.72831
728.723	3.63412
731.616	3.742
734.508	3.93432
737.401	4.33764
740.294	4.44834
743.186	4.7001
746.079	4.97536
748.972	5.2137
751.865	5.2265
754.757	5.11448
757.65	4.79704
760.543	4.69346
763.435	4.3463
766.328	4.09415
769.221	3.79666
772.113	3.65728
775.006	3.88375
777.899	4.05068
780.792	4.27636
783.684	4.20896
786.577	3.87843
789.47	3.76455
792.362	3.51943
795.255	3.39225
798.148	3.33841
801.04	3.40039
803.933	3.37764
806.826	3.47664
809.718	3.56355
812.611	3.81673
815.504	3.95513
818.397	4.08044
821.289	4.11765
824.182	3.91278
827.075	3.8042
829.967	3.56501
832.86	3.28418
835.753	3.19663
838.645	3.11229
841.538	3.05291
844.431	2.91448
847.324	3.08486
850.216	2.95217
853.109	2.93038
856.002	2.95886
858.894	2.99054
861.787	2.93526
864.68	2.85195
867.572	2.9058
870.465	2.86161
873.358	2.72551
876.251	2.57456
879.143	2.63315
882.036	2.54116
884.929	2.55252
887.821	2.42547
890.714	2.47638
893.607	2.41807
896.5	2.43109
899.392	2.39468
902.285	2.42795
905.178	2.3707
908.07	2.35792
910.963	2.32896
913.856	2.26695
916.748	2.27983
919.641	2.28358
922.534	2.20886
925.427	2.24389
928.319	2.25721
931.212	2.17708
934.105	2.24444
936.997	2.18168
939.89	2.15812
942.783	2.11886
945.675	2.16123
948.568	2.1084
951.461	2.10104
954.354	2.10687
957.246	2.11495
960.139	2.09675
963.032	2.08557
965.924	2.13478
968.817	2.14273
971.71	2.14721
974.602	2.18474
977.495	2.14887
980.388	2.1263
983.28	2.07377
986.173	2.12508
989.066	2.04634
991.959	2.02968
994.851	2.06455
997.744	2.05043
1000.64	2.17499
1003.53	2.11934
1006.42	2.09805
1009.32	2.66273
1012.21	2.1112
1015.1	2.07966
1017.99	2.0286
1020.89	2.03723
1023.78	2.02926
1026.67	1.96745
1029.56	1.9788
1032.46	2.01987
1035.35	2.00998
1038.24	1.97412
1041.13	2.00763
1044.03	1.96936
1046.92	1.95392
1049.81	1.89646
1052.7	1.88592
1055.6	1.85982
1058.49	1.79424
1061.38	1.83576
1064.28	1.7739
1067.17	1.82331
1070.06	1.73289
1072.95	1.68783
1075.85	1.71741
1078.74	1.66093
1081.63	1.7503
1084.53	1.77391
1087.42	1.78446
1090.31	1.67191
1093.2	1.64943
1096.1	1.62835
1098.99	1.60019
1101.88	1.59027
1104.77	1.55706
1107.67	1.57228
1110.56	1.56861
1113.45	1.56893
1116.35	1.53376
1119.24	1.5043
1122.13	1.60669
1125.02	1.54472
1127.91	1.49405
1130.81	1.54839
1133.7	1.45197
1136.59	1.49961
1139.49	1.48232
1142.38	1.46545
1145.27	1.40067
1148.16	1.46615
1151.06	1.5167
1153.95	1.45333
1156.84	1.46277
1159.73	1.47609
1162.63	1.46813
1165.52	1.46972
1168.41	1.44227
1171.31	1.43678
1174.2	1.3993
1177.09	1.40718
1179.98	1.42565
1182.88	1.42681
1185.77	1.37113
1188.66	1.39591
1191.56	1.35714
1194.45	1.455
1197.34	1.39424
1200.23	1.38684
1203.13	1.42651
1206.02	1.36674
1208.91	1.36498
1211.8	1.30623
1214.7	1.32298
1217.59	1.37705
1220.48	1.31984
1223.38	1.37926
1226.27	1.31716
1229.16	1.33346
1232.05	1.30785
1234.94	1.28378
1237.84	1.33548
1240.73	1.23476
1243.62	1.2278
1246.52	1.23566
1249.41	1.25723
1252.3	1.24528
1255.19	1.20634
1258.09	1.28545
1260.98	1.22102
1263.87	1.22942
1266.77	1.26232
1269.66	1.26756
1272.55	1.20452
1275.44	1.22584
1278.34	1.25979
1281.23	1.20232
1284.12	1.18898
1287.01	1.23537
1289.91	1.20741
1292.8	1.16511
1295.69	1.1946
1298.59	1.16246
