Measurement: Raman, 780 nm, unoriented, Raman Data Processed
Mineral: Molybdenite
Rruff sample: R060124
Ideal chemistry: MoS_2_
Locality: Crown Point mine, near Chelan, Washington, USA
Source: University of Arizona Mineral Museum
Description: Steel gray distorted hexagonal tablet on quartz
Measured chemistry: Mo_1.00_S_2.00_
Raman shift (cm-1)	intensity
144.576	0
147.469	0.135632
150.362	0.105093
153.254	0.250516
156.147	0.760742
159.04	0.398388
161.932	1.11078
164.825	2.22733
167.718	3.98048
170.61	6.14595
173.503	8.66422
176.396	11.0987
179.288	12.2482
182.181	12.037
185.074	12.2907
187.966	12.4668
190.859	11.7243
193.752	10.9612
196.645	10.6833
199.537	10.3161
202.43	10.7516
205.323	11.5012
208.215	12.5332
211.108	12.5365
214.001	13.0742
216.893	13.5884
219.786	13.5715
222.679	14.171
225.572	14.2339
228.464	12.3885
231.357	11.7869
234.25	10.1339
237.142	7.52385
240.035	5.93163
242.928	4.68485
245.821	2.86897
248.713	2.14838
251.606	0.853168
254.499	0.568855
257.391	0.200256
260.284	0.446409
263.177	0.077818
266.069	0.162052
268.962	0.389851
271.855	0.163376
274.748	0.105839
277.64	0.081522
280.533	0.274347
283.426	0.033003
286.318	0.37723
289.211	0.312027
292.104	0.196722
294.996	0.583216
297.889	0.71887
300.782	0.024368
303.675	0.512453
306.567	0.33066
309.46	0.342817
312.353	0.103125
315.245	0.678839
318.138	0.258734
321.031	0.219666
323.923	0.256205
326.816	0.541021
329.709	0.158548
332.601	0.156631
335.494	0.836981
338.387	0.224869
341.279	0.295925
344.172	0.254053
347.065	0.702637
349.958	0.71839
352.85	0.564322
355.743	1.40847
358.636	1.3495
361.528	1.57355
364.421	4.60194
367.314	10.4576
370.207	13.5611
373.099	19.6963
375.992	28.7123
378.885	40.5212
381.777	50.3279
384.67	33.8388
387.563	7.05586
390.455	9.83367
393.348	18.9829
396.241	24.2672
399.134	37.1983
402.026	58.33
404.919	86.1824
407.812	109.999
410.704	60.0002
413.597	15.9025
416.49	10.0844
419.382	9.6917
422.275	9.39725
425.168	10.5391
428.06	12.3217
430.953	14.3092
433.846	16.3287
436.739	20.5984
439.631	23.8813
442.524	27.5494
445.417	32.3402
448.309	36.1356
451.202	36.9393
454.095	34.7374
456.988	30.9962
459.88	27.1981
462.773	22.8335
465.666	18.1943
468.558	10.7044
471.451	4.17278
474.344	1.49626
477.236	0.271105
480.129	0.537895
483.022	0.901159
485.914	0.681778
488.807	0.448734
491.7	0.489962
494.592	0.110088
497.485	0.167191
500.378	0.785044
503.271	0.861223
506.163	1.01233
509.056	1.203
511.949	1.65306
514.841	1.50149
517.734	2.37021
520.627	1.85674
523.519	3.19277
526.412	2.94022
529.305	2.68333
532.198	3.22832
535.09	3.06216
537.983	3.56945
540.876	3.10619
543.768	3.56189
546.661	4.40791
549.554	4.66236
552.447	5.04512
555.339	5.07651
558.232	5.87038
561.125	6.05571
564.017	5.66425
566.91	5.40782
569.803	5.59633
572.695	3.71168
575.588	2.4581
578.481	2.09606
581.374	2.00369
584.266	2.06433
587.159	3.48253
590.052	3.82206
592.944	4.00523
595.837	4.92446
598.73	4.82516
601.622	4.02937
604.515	2.82507
607.408	3.35099
610.301	2.7331
613.193	2.54812
616.086	3.94429
618.979	4.72726
621.871	5.64942
624.764	6.71262
627.657	7.46238
630.549	7.86422
633.442	7.15869
636.335	6.74596
639.227	6.36721
642.12	5.03793
645.013	3.21965
647.905	1.04043
650.798	0.189201
653.691	0.002918
656.584	0.16633
659.476	0.315182
662.369	0.240088
665.262	0.240074
668.154	0.361927
671.047	0.169689
673.94	0.171011
676.832	0.308733
679.725	0.226992
682.618	0.301054
685.511	0.216829
688.403	0.635132
691.296	0.546461
694.189	0.573067
697.081	1.24432
699.974	1.01777
702.867	1.43015
705.76	1.39872
708.652	1.49204
711.545	0.910984
714.438	1.19853
717.33	1.46735
720.223	1.45571
723.116	0.714085
726.008	1.16299
728.901	0.996983
731.794	1.22711
734.687	2.61305
737.579	4.36006
740.472	4.49331
743.365	5.94782
746.257	6.22995
749.15	6.79446
752.043	6.04905
754.935	5.75836
757.828	4.72725
760.721	2.99662
763.614	2.14269
766.506	1.59617
769.399	1.36649
772.292	2.39475
775.184	3.09714
778.077	3.84188
780.97	3.18712
783.862	2.757
786.755	1.08759
789.648	0.264477
792.54	0.152376
795.433	0.876684
798.326	0.318119
801.218	1.276
804.111	1.23318
807.004	2.15809
809.897	2.30385
812.789	2.56439
815.682	3.02135
818.575	3.71623
821.467	2.53292
824.36	2.70819
827.253	1.75147
830.145	0.729109
833.038	0.664476
835.931	0.02475
838.824	0.06358
841.716	0.418373
844.609	0.595079
847.502	0.303295
850.394	0.524092
853.287	0.489456
856.18	0.300652
859.072	0.530386
861.965	0.159822
864.858	0.529991
867.751	0.38327
870.643	0.103901
873.536	0.316153
876.429	0.558092
879.321	0.438066
882.214	0.255863
885.107	0.111317
888	0.212296
890.892	0.608604
893.785	0.512287
896.678	0.512363
899.57	0.633341
902.463	0.716255
905.356	0.352728
908.248	0.146513
911.141	0.483713
914.034	0.348009
916.927	1.27886
919.819	0.537138
922.712	0.891058
925.605	0.404783
928.497	0.162554
931.39	0.437134
934.283	0.675859
937.175	0.639244
940.068	0.032869
942.961	0.084702
945.854	0.440954
948.746	0.474708
951.639	0.239923
954.532	0.599239
957.424	0.304308
960.317	1.09747
963.21	0.317401
966.102	0.11138
968.995	0.374617
971.888	0.676816
974.78	0.596563
977.673	0.816785
980.566	0.910466
983.458	0.156336
986.351	0.309862
989.244	0.337429
992.137	0.262121
995.029	0.213204
997.922	0.356245
1000.82	0.867033
1003.71	0.081631
1006.6	0.6853
1009.49	0.114774
1012.38	0.888101
1015.28	0.350567
1018.17	0.335155
1021.06	0.423351
1023.96	0.493361
1026.85	0.598416
1029.74	0.563092
1032.63	0.883816
1035.53	0.340766
1038.42	0.61813
1041.31	0.660652
1044.2	0.952874
1047.1	0.337873
1049.99	0.527847
1052.88	0.46891
1055.78	0.44178
1058.67	0.550129
1061.56	0.207823
1064.45	0.325354
1067.35	0.409925
1070.24	0.334351
1073.13	0.377806
1076.03	0.30074
1078.92	0.140621
1081.81	0.062331
1084.7	0.189523
1087.6	0.093199
1090.49	0.314285
1093.38	0.369949
1096.27	0.376911
1099.17	0.547844
1102.06	0.270383
1104.95	0.320106
1107.84	0.498799
1110.74	0.428654
1113.63	0.618244
1116.52	0.063876
1119.41	0.214751
1122.31	0.564928
1125.2	0.553916
1128.09	0.572939
1130.99	0.401659
1133.88	0.435181
1136.77	0.67791
1139.66	0.186395
1142.56	0.802553
1145.45	0.24849
1148.34	0.748561
1151.23	0.836776
1154.13	0.724433
1157.02	0.528372
1159.91	0.587831
1162.81	0.248153
1165.7	0.473849
1168.59	0.203285
1171.48	0.044336
1174.38	0.462007
1177.27	0.144312
1180.16	0.299466
1183.06	0.68751
1185.95	0.995601
1188.84	0.663303
1191.73	0.475103
1194.62	0.629997
1197.52	0.304016
1200.41	0.558838
1203.3	0.523205
1206.2	0.328023
1209.09	0.396472
1211.98	0.364173
1214.87	0.072948
1217.77	0.746428
1220.66	0.162071
1223.55	0.371848
1226.44	0.37261
1229.34	0.039291
1232.23	0.711046
1235.12	0.697147
1238.02	0.575352
1240.91	0.154243
1243.8	0.393531
1246.69	0.443765
1249.59	0.318588
1252.48	0.59395
1255.37	0.121582
1258.27	0.379595
1261.16	0.34535
1264.05	0.616607
1266.94	1.06818
1269.84	0.272655
1272.73	0.601671
1275.62	0.324743
1278.51	1.00082
1281.41	0.471632
1284.3	0.888248
