Measurement: Raman, 532 nm, unoriented, Raman Data Processed
Mineral: Molybdite
Rruff sample: R100217
Ideal chemistry: MoO_3_
Locality: Mining concentrate
Source: Mike Carducci, Climax Molybdenum Technology Center
Description: Gray unconsolidated powder
Raman shift (cm-1)	intensity
91.0352	0
94.41	17.8528
97.7848	30.1215
101.16	60.7949
104.534	94.6228
107.909	113.153
111.284	151.452
114.659	257.484
118.034	211.925
121.409	146.171
124.783	100.037
128.158	56.6866
131.533	0.663826
134.908	27.7373
138.283	15.592
141.657	192.375
145.032	578.369
148.407	1093
151.782	1660.42
155.157	3092.83
158.532	5958.44
161.906	3645.78
165.281	962.435
168.656	322.287
172.031	90.04
175.406	20.7995
178.78	43.4523
182.155	69.6753
185.53	80.7725
188.905	138.211
192.28	306.333
195.655	975.39
199.029	1516.53
202.404	139.014
205.779	39.8037
209.154	50.4539
212.529	313.53
215.904	1034.12
219.278	1334.3
222.653	397.709
226.028	225.013
229.403	484.025
232.778	861.67
236.152	1355.66
239.527	2044.04
242.902	3040.43
246.277	3404.82
249.652	1611.28
253.026	463.036
256.401	177.004
259.776	254.477
263.151	642.617
266.526	1659.43
269.901	3127.19
273.276	5098.35
276.65	8208.4
280.025	12180.9
283.4	16209.2
286.775	16127.2
290.15	15382.1
293.524	13097.5
296.899	4853.94
300.274	1598.48
303.649	606.182
307.024	192.822
310.399	15.2682
313.773	102.078
317.148	79.0097
320.523	198.096
323.898	849.307
327.273	1211.27
330.647	1894.5
334.022	3733.7
337.397	6336.01
340.772	4073.8
344.147	729.964
347.522	258.212
350.896	298.955
354.271	479.83
357.646	764.76
361.021	1179.89
364.396	1703.93
367.77	1949.67
371.145	2072.07
374.52	2684.41
377.895	3637.96
381.27	3114.29
384.644	1215.73
388.019	411.812
391.394	150.567
394.769	51.3456
398.144	12.2957
401.519	10.6896
404.894	10.0825
408.268	17.9541
411.643	6.8194
415.018	0.875977
418.393	1.29315
421.767	15.6705
425.142	24.0206
428.517	33.2708
431.892	48.4799
435.267	69.6845
438.642	89.114
442.017	116.633
445.391	155.033
448.766	220.452
452.141	310.08
455.516	453.521
458.891	641.721
462.265	853.462
465.64	1106.32
469.015	1323.11
472.39	1285.92
475.765	997.108
479.139	685.977
482.514	474.455
485.889	324.706
489.264	223.612
492.639	157.369
496.014	108.433
499.388	83.3645
502.763	57.0341
506.138	39.6338
509.513	30.7131
512.888	24.9303
516.263	19.6113
519.637	23.6761
523.012	22.0906
526.387	28.6014
529.762	33.2511
533.137	18.1334
536.511	13.3058
539.886	0.903931
543.261	2.26553
546.636	7.86798
550.011	7.64685
553.386	4.08484
556.76	2.41711
560.135	6.54086
563.51	0.759247
566.885	1.69397
570.26	8.80573
573.635	2.58279
577.009	0.877716
580.384	4.78143
583.759	0.825043
587.134	1.05322
590.509	7.42938
593.883	12.6191
597.258	31.8347
600.633	48.8124
604.008	56.22
607.383	80.513
610.758	108.592
614.132	158.403
617.507	158.896
620.882	188.54
624.257	228.216
627.632	278.417
631.006	332.226
634.381	424.959
637.756	490.764
641.131	630.698
644.506	861.2
647.881	1273.21
651.255	2015.5
654.63	3249.89
658.005	4926.57
661.38	7059.72
664.755	8670.35
668.13	8014.47
671.504	5076.14
674.879	2711.67
678.254	1472.31
681.629	858.118
685.004	532.767
688.378	342.857
691.753	225.75
695.128	146.45
698.503	92.2778
701.878	59.6465
705.253	28.0215
708.627	13.4913
712.002	1.18085
715.377	20.6478
718.752	31.8958
722.127	26.9846
725.501	31.967
728.876	27.8259
732.251	18.2985
735.626	4.87811
739.001	14.1832
742.375	45.0696
745.75	72.7306
749.125	104.809
752.5	142.632
755.875	188.319
759.25	247.965
762.625	323.344
765.999	401.418
769.374	515.736
772.749	642.755
776.124	768.221
779.499	931.184
782.873	1133.28
786.248	1452.92
789.623	1907.7
792.998	2600.59
796.373	3653.88
799.747	5403.39
803.122	8560.71
806.497	14626.4
809.872	24336.1
813.247	38133.7
816.621	55750.1
819.996	62250.9
823.371	40770.7
826.746	19052.9
830.121	9454.46
833.496	5328.7
836.87	3290.8
840.245	2179.86
843.62	1495.36
846.995	1040.98
850.37	742.72
853.745	536.242
857.119	382.942
860.494	277.785
863.869	196.072
867.244	131.808
870.619	80.0844
873.994	34.6201
877.368	2.15808
880.743	14.2903
884.118	17.5966
887.493	23.7501
890.868	24.8733
894.242	19.1379
897.617	21.1079
900.992	8.59354
904.367	6.64087
907.742	6.62118
911.116	22.5483
914.491	27.2195
917.866	39.4718
921.241	51.3011
924.616	63.5181
927.991	73.6436
931.365	79.1852
934.74	91.2683
938.115	93.3195
941.49	103.551
944.865	104.263
948.24	104.639
951.614	108.849
954.989	109.089
958.364	102.574
961.739	106.036
965.114	114.067
968.489	125.579
971.863	142.761
975.238	181.996
978.613	291.777
981.988	526.26
985.362	2572.37
988.737	4413.02
992.112	10277
995.487	23648
998.862	8877.08
1002.24	1029.68
1005.61	550.508
1008.99	193.681
1012.36	88.3229
1015.74	46.3981
1019.11	19.3419
1022.49	4.12283
1025.86	3.02821
1029.23	1.57021
1032.61	6.02942
1035.98	1.59224
1039.36	8.04674
1042.73	1.71532
1046.11	7.03079
1049.48	5.23637
1052.86	0.232742
1056.23	0.075333
1059.61	1.06899
1062.98	0.830933
1066.36	1.32927
1069.73	5.09132
1073.11	5.05635
1076.48	0.365875
1079.86	4.21727
1083.23	5.87996
1086.61	5.19161
1089.98	59.1612
1093.36	5.04625
1096.73	4.472
1100.11	1.81613
1103.48	5.53805
1106.86	4.02649
1110.23	4.78155
1113.61	3.6138
1116.98	4.19032
1120.36	5.09692
1123.73	6.54761
1127.11	9.92271
1130.48	11.5778
1133.86	26.7399
1137.23	15.7274
1140.6	19.2846
1143.98	13.3835
1147.35	5.50146
1150.73	16.9227
1154.1	14.3748
1157.48	18.8699
1160.85	17.6443
1164.23	19.1559
1167.6	15.2121
1170.98	8.21245
1174.35	11.7182
1177.73	13.0773
1181.1	7.05533
1184.48	8.92682
1187.85	5.39006
1191.23	0.38031
1194.6	3.5083
1197.98	0.48175
1201.35	0.074219
1204.73	5.06001
1208.1	5.74493
1211.48	6.29948
1214.85	5.77728
1218.22	10.8702
1221.6	11.2504
1224.97	13.3345
1228.35	10.2429
1231.72	11.0276
1235.1	13.3865
1238.47	10.8033
1241.85	14.4619
1245.22	8.51831
1248.6	10.8423
1251.97	5.87508
1255.35	2.87323
1258.72	0.134521
1262.1	6.89061
1265.47	3.4007
1268.85	11.2684
1272.22	12.3419
1275.6	15.527
1278.97	6.97032
1282.35	5.93907
1285.72	0.839279
1289.1	5.10349
1292.47	4.96573
1295.85	0.603683
1299.22	0.436234
1302.6	0
