Measurement: Raman, 532 nm, unoriented, Raman Data Processed
Mineral: Monazite-(Ce)
Rruff sample: R040106
Ideal chemistry: CePO_4_
Locality: Angola
Source: University of Arizona Mineral Museum
Description: Brown massive fragment
Measured chemistry: (Ce_0.41_La_0.17_Nd_0.17_Th_0.14_Ca_0.06_Y_0.04_)(P_0.95_Si_0.05_)O_4_
Raman shift (cm-1)	intensity
128.797	0
131.689	393.853
134.582	546.656
137.475	139.49
140.367	59.2578
143.26	275.859
146.153	559.299
149.045	673.066
151.938	567.662
154.831	518.506
157.724	395.721
160.616	451.559
163.509	687.953
166.402	783.51
169.294	825.617
172.187	974.475
175.08	780.279
177.972	546.721
180.865	339.258
183.758	280.844
186.65	319.57
189.543	389.203
192.436	109.117
195.329	43.7891
198.221	23.6504
201.114	14.0449
204.007	29.0469
206.899	169.893
209.792	115.322
212.685	176.471
215.577	269.797
218.47	423.277
221.363	466.156
224.256	511.469
227.148	628.309
230.041	751.354
232.934	737.854
235.826	547.299
238.719	635.465
241.612	609.357
244.505	826.832
247.397	858.211
250.29	1063.53
253.183	1367.52
256.075	1407.25
258.968	1492.24
261.861	1353.32
264.753	1178.15
267.646	1359.13
270.539	1337.15
273.431	1293.64
276.324	1564.53
279.217	1476.14
282.11	1524.75
285.002	1466.43
287.895	1273.88
290.788	993.402
293.68	886.902
296.573	838.877
299.466	688.479
302.358	619.268
305.251	420.793
308.144	368.31
311.036	309.484
313.929	214.19
316.822	144.473
319.715	186.5
322.607	313.631
325.5	214.801
328.393	201.518
331.285	50.3203
334.178	231.629
337.071	100.606
339.964	145.07
342.856	22.5098
345.749	48.8926
348.642	3.33594
351.534	9.31445
354.427	34.6836
357.32	118.106
360.212	270.107
363.105	283.644
365.998	325.732
368.89	580.859
371.783	700.037
374.676	974.068
377.569	1089.38
380.461	1640.78
383.354	2234.61
386.247	3029.89
389.139	3561.2
392.032	3933.64
394.925	4190.9
397.817	4296.06
400.71	4219.51
403.603	4548.72
406.495	5008.5
409.388	5551.83
412.281	6034.35
415.174	6298.18
418.066	5716.07
420.959	4693.44
423.852	3365.08
426.744	2181.07
429.637	1439.66
432.53	1066.63
435.423	909.084
438.315	838.283
441.208	956.812
444.101	1100.38
446.993	1317.39
449.886	1530.16
452.779	1904.94
455.671	2276.37
458.564	2459.31
461.457	2748.95
464.349	2845.66
467.242	2631.68
470.135	2154.5
473.028	1887.14
475.92	1548.45
478.813	1374.33
481.706	1211.49
484.598	940.572
487.491	738.346
490.384	581.344
493.276	471.666
496.169	260.32
499.062	261.537
501.955	130.641
504.847	154.555
507.74	60.8984
510.633	23.582
513.525	161.406
516.418	13.25
519.311	21.2344
522.203	32.1367
525.096	52.0117
527.989	33.9922
530.882	24.8887
533.774	6.60547
536.667	166.162
539.56	225.791
542.452	82.7129
545.345	40.5273
548.238	187.643
551.13	411.732
554.023	606.291
556.916	646.686
559.808	614.506
562.701	632.047
565.594	561.869
568.487	721.85
571.379	678.436
574.272	648.699
577.165	603.004
580.057	552.731
582.95	555.102
585.843	587
588.736	484.434
591.628	541.742
594.521	625.596
597.414	960.066
600.306	910.941
603.199	1112.36
606.092	1514.55
608.984	1899.49
611.877	2166.1
614.77	2615.62
617.663	2933.78
620.555	2920.85
623.448	2473.15
626.341	1809.66
629.233	1636.46
632.126	1199.21
635.019	665.092
637.911	39.125
640.804	60.5781
643.697	102.074
646.59	25.5957
649.482	16.6465
652.375	12.0391
655.268	7.54102
658.16	14.6914
661.053	101.41
663.946	208.537
666.838	209.018
669.731	391.643
672.624	283.568
675.516	368.475
678.409	561.33
681.302	462.402
684.195	336.402
687.087	528.484
689.98	383.777
692.873	587.068
695.765	666.664
698.658	477.756
701.551	767.746
704.443	649.652
707.336	570.914
710.229	381.805
713.121	369.596
716.014	178.148
718.907	104.211
721.8	128.66
724.692	297.531
727.585	211.125
730.478	153.414
733.37	3.10156
736.263	8.98438
739.156	84.3984
742.048	38.3203
744.941	248.305
747.834	399.059
750.727	492.512
753.619	523.137
756.512	434.637
759.405	485.871
762.297	708.746
765.19	589.305
768.083	655.996
770.976	595.84
773.868	555.426
776.761	533.273
779.654	620.359
782.546	356.121
785.439	266.902
788.332	184.082
791.224	340.445
794.117	316.602
797.01	222.457
799.903	71.9961
802.795	70.3945
805.688	1.85547
808.581	20.7344
811.473	44.9844
814.366	70.5859
817.259	11.0195
820.151	358.551
823.044	996.606
825.937	1125.17
828.83	1227.56
831.722	1330.94
834.615	1298.86
837.508	1284.57
840.4	1186.25
843.293	1281.63
846.186	1252.13
849.078	1063.14
851.971	1111.25
854.864	1270.57
857.756	1375.65
860.649	1343.83
863.542	1266.69
866.434	1175.06
869.327	895.402
872.22	902.203
875.113	707.856
878.005	666.125
880.898	517.867
883.791	520.246
886.683	331.371
889.576	366.82
892.469	186.461
895.361	196.867
898.254	48.9336
901.147	74.2227
904.04	5.16797
906.932	23.1133
909.825	67.7305
912.718	81.0547
915.61	62.3281
918.503	94.5117
921.396	119.172
924.288	325.91
927.181	430.715
930.074	681.414
932.967	785.996
935.859	1197.53
938.752	1667.24
941.645	2296.94
944.537	2881.82
947.43	3842.84
950.323	4707.62
953.216	6111.15
956.108	7730.98
959.001	9920.43
961.894	12490.5
964.786	15648.5
967.679	18664
970.572	20658
973.464	20589.4
976.357	17519.1
979.25	13339.2
982.143	9479.92
985.035	6484.2
987.928	4495.92
990.821	3431.14
993.713	2691.81
996.606	1835.09
999.499	1422.9
1002.39	765.394
1005.28	364.344
1008.18	291.328
1011.07	134.879
1013.96	204.277
1016.86	33.1172
1019.75	49.6836
1022.64	80.9492
1025.53	161.949
1028.43	259.41
1031.32	64.1172
1034.21	50.9219
1037.1	130.094
1040	424.633
1042.89	690.438
1045.78	1093.56
1048.67	1755.2
1051.57	2310.52
1054.46	2536.95
1057.35	3368.11
1060.24	3910.38
1063.14	4209.26
1066.03	4053.47
1068.92	3748.71
1071.82	3622.13
1074.71	3271.91
1077.6	2824.65
1080.49	2406.08
1083.39	2226.8
1086.28	1350.2
1089.17	995.68
1092.07	817.602
1094.96	590.379
1097.85	528.902
1100.74	241.688
1103.64	166.824
1106.53	139.805
1109.42	8.37891
1112.31	162.465
1115.21	360.629
1118.1	179.863
1120.99	108.102
1123.88	161.992
1126.78	45.0234
1129.67	66.7148
1132.56	22.1367
1135.45	391.121
1138.35	310.801
1141.24	222.019
1144.13	111.301
1147.03	67.2656
1149.92	261.012
1152.81	253.609
1155.7	129.559
1158.6	138.117
1161.49	228.938
1164.38	179.375
1167.28	293.156
1170.17	127.121
1173.06	428.883
1175.95	467.18
1178.85	82.9297
1181.74	127.074
1184.63	9.90625
1187.52	214.246
1190.42	224.723
1193.31	152.199
1196.2	225.656
1199.1	230.902
1201.99	328.609
1204.88	277.82
1207.77	80.3867
1210.67	249.891
1213.56	267.281
1216.45	145.996
1219.34	75.5312
1222.24	205.309
1225.13	184.195
1228.02	191.734
1230.91	376.086
1233.81	246.68
1236.7	296.031
1239.59	122.438
1242.48	315.066
1245.38	121.984
1248.27	45.4023
1251.16	47.8281
