Measurement: Raman, 785 nm, unoriented, Raman Data Processed
Mineral: Monazite-(Ce)
Rruff sample: R040106
Ideal chemistry: CePO_4_
Locality: Angola
Source: University of Arizona Mineral Museum
Description: Brown massive fragment
Measured chemistry: (Ce_0.41_La_0.17_Nd_0.17_Th_0.14_Ca_0.06_Y_0.04_)(P_0.95_Si_0.05_)O_4_
Raman shift (cm-1)	intensity
80.6495	0
84.0243	0
87.3991	144.09
90.7739	155.181
94.1487	167.051
97.5236	152.028
100.898	151.847
104.273	157.673
107.648	178.507
111.023	210.996
114.398	261.458
117.772	327.004
121.147	390.448
124.522	718.028
127.897	1365.23
131.272	2012.4
134.647	2272.39
138.021	2299.47
141.396	3064.46
144.771	4596.64
148.146	5371.33
151.521	5526.52
154.895	5378.24
158.27	5383.63
161.645	5457.03
165.02	5648.44
168.395	5814.68
171.769	5858.25
175.144	5873.56
178.519	5971.15
181.894	5942.61
185.269	5966.63
188.644	6018.62
192.018	6018.15
195.393	6127.62
198.768	6279.6
202.143	6397.1
205.518	6444.84
208.893	6630.26
212.267	6734.85
215.642	6815.89
219.017	7113.22
222.392	7366.66
225.767	7558.4
229.141	7790.72
232.516	7936.93
235.891	8095.43
239.266	8339.52
242.641	8452.87
246.015	8468.32
249.39	8377.16
252.765	8519.22
256.14	8544.04
259.515	8488.96
262.889	8492.01
266.264	8566.78
269.639	8454.58
273.014	8521.67
276.389	8479.76
279.764	8470
283.138	8637.86
286.513	8671.5
289.888	8780.17
293.263	8871.88
296.638	9010.47
300.012	9073.11
303.387	9170.98
306.762	9337.37
310.137	9354.03
313.512	9460.58
316.887	9596.15
320.261	9594.71
323.636	9599.88
327.011	9679.15
330.386	9711.78
333.761	9688.43
337.135	9636.84
340.51	9688.19
343.885	9640.86
347.26	9667.52
350.635	9624.08
354.01	9712.53
357.384	9595.17
360.759	9597.88
364.134	9579.84
367.509	9451.55
370.884	9466.4
374.258	9448.25
377.633	9434.37
381.008	9327.78
384.383	9327.39
387.758	9227.66
391.132	9266.86
394.507	9130.64
397.882	9180.66
401.257	9083.54
404.632	9080.3
408.007	9036.49
411.381	9022.17
414.756	8994.97
418.131	8981.75
421.506	8957.85
424.881	8900.11
428.255	8787.98
431.63	8795.38
435.005	8743.97
438.38	8756.07
441.755	8696.56
445.13	8645.64
448.504	8599.85
451.879	8607.9
455.254	8482.85
458.629	8479.76
462.004	8395.01
465.378	8328.51
468.753	8190.67
472.128	8179.99
475.503	8053.18
478.878	7941.64
482.252	7801.51
485.627	7710.94
489.002	7617.38
492.377	7499.91
495.752	7423.14
499.127	7285.57
502.501	7121.48
505.876	7027.33
509.251	6874.68
512.626	6764.11
516.001	6674.98
519.375	6532.69
522.75	6439.61
526.125	6371.02
529.5	6248.76
532.875	6109.02
536.25	6069.37
539.624	5983.9
542.999	5904.29
546.374	5849.98
549.749	5763.11
553.124	5677.96
556.499	5586.91
559.873	5518.79
563.248	5452.29
566.623	5389.53
569.998	5323.07
573.373	5255.6
576.747	5228.8
580.122	5137.74
583.497	5027.77
586.872	4971.15
590.247	4909.89
593.621	4867.89
596.996	4712.12
600.371	4647.15
603.746	4570.43
607.121	4545.91
610.495	4434.57
613.87	4383.23
617.245	4347.45
620.62	4264.58
623.995	4131.74
627.37	4065.76
630.744	4041.65
634.119	3917.31
637.494	3851.53
640.869	3786.03
644.244	3748.84
647.619	3652.57
650.993	3623.63
654.368	3569.02
657.743	3504.99
661.118	3444.04
664.493	3415
667.867	3359.84
671.242	3339.83
674.617	3278.79
677.992	3303.84
681.367	3269.77
684.741	3274.03
688.116	3233.89
691.491	3217.71
694.866	3193.45
698.241	3175.83
701.615	3137.35
704.99	3103.72
708.365	3074.83
711.74	3016.28
715.115	2990.38
718.49	2934.51
721.864	2882.69
725.239	2825.55
728.614	2714.66
731.989	2687.9
735.364	2616.74
738.739	2558.01
742.113	2530.43
745.488	2415.95
748.863	2383.5
752.238	2332.27
755.612	2266.39
758.987	2259.06
762.362	2207.47
765.737	2107.86
769.112	2082.69
772.487	2047.32
775.861	2040.43
779.236	2021.97
782.611	1964.8
785.986	1966.99
789.361	1940.92
792.736	1901.1
796.11	1881.09
799.485	1833.42
802.86	1852.56
806.235	1842.74
809.61	1811.04
812.984	1854.15
816.359	1820.92
819.734	1786.78
823.109	1825.77
826.484	1806.96
829.859	1827
833.233	1855.88
836.608	1850.89
839.983	1849.5
843.358	1883
846.733	1871.53
850.107	1900.42
853.482	1872.38
856.857	1941.49
860.232	1927.28
863.607	1953.06
866.981	1990.47
870.356	2010.83
873.731	2072.08
877.106	2062.64
880.481	2112.2
883.856	2127.36
887.23	2167.6
890.605	2199.78
893.98	2240.17
897.355	2294.46
900.73	2318.7
904.104	2329.21
907.479	2408.74
910.854	2435.26
914.229	2476.82
917.604	2565.25
920.979	2623.23
924.353	2690.85
927.728	2720.74
931.103	2851.65
934.478	2921.17
937.853	3022.26
941.227	3156.34
944.602	3228.84
947.977	3397.33
951.352	3483.71
954.727	3677.31
958.101	3808
961.476	4061.15
964.851	4279.36
968.226	4551.32
971.601	4853.43
974.976	5013.94
978.35	5251.5
981.725	5445.68
985.1	5696.04
988.475	6055.32
991.85	6287.24
995.225	6794.23
998.599	7178.4
1001.97	7600.57
1005.35	8137.5
1008.72	8637.12
1012.1	9215.6
1015.47	9825.48
1018.85	10455.5
1022.22	11069.1
1025.6	11721.2
1028.97	12514
1032.35	13221.5
1035.72	13954.6
1039.1	14946.5
1042.47	15721.5
1045.85	16729.4
1049.22	17729.7
1052.6	18765.5
1055.97	19934.4
1059.35	21262.9
1062.72	22713.4
1066.1	24235.3
1069.47	25843.7
1072.85	27837.2
1076.22	29872.7
1079.6	32166.6
1082.97	34613.2
1086.34	37320.8
1089.72	40036.9
1093.09	43054.4
1096.47	46383.8
1099.84	49805.7
1103.22	53336.6
1106.59	57291.3
1109.97	61126.9
1113.34	65119.4
1116.72	69202.4
1120.09	73483.9
1123.47	77681.5
1126.84	81626.9
1130.22	85280
1133.59	88796
1136.97	92150.5
1140.34	94209.9
1143.72	95996.6
1147.09	97071.3
1150.47	97614
1153.84	96682.1
1157.22	95666.6
1160.59	93574.9
1163.96	90965.6
1167.34	88139.4
1170.71	85016.3
1174.09	82163.5
1177.46	79483.8
1180.84	77144.3
1184.21	75308.6
1187.59	73702.8
1190.96	73029.8
1194.34	72586.6
1197.71	72936
1201.09	73650.5
1204.46	74387.1
1207.84	76116.4
1211.21	77455.7
1214.59	79314.6
1217.96	81971.3
1221.34	84868.6
1224.71	88626.2
1228.09	93231.4
1231.46	98307.6
1234.84	104893
1238.21	112788
1241.59	121559
1244.96	131138
1248.34	140739
1251.71	150148
1255.09	158175
1258.46	163985
1261.84	167754
1265.21	170252
