Measurement: Raman, 532 nm, unoriented, Raman Data Processed
Mineral: Monazite-(La)
Rruff sample: R070263
Ideal chemistry: LaPO_4_
Locality: Bear Lodge, Bear Creek placers, First Choice District (Garnet District), Granite County, Montana, USA
Source: Michael Scott
Description: Black polished surface
Raman shift (cm-1)	intensity
173.286	0
176.178	1.05103
179.071	35.1401
181.964	5.94019
184.856	79.1431
187.749	100.064
190.642	58.4373
193.535	72.5681
196.427	87.7024
199.32	101.641
202.213	174.154
205.105	154.949
207.998	111.466
210.891	121.392
213.783	76.0823
216.676	37.1645
219.569	100.988
222.462	85.9326
225.354	52.2002
228.247	36.6714
231.14	60.6519
234.032	3.76221
236.925	21.6719
239.818	24.2954
242.71	8.64258
245.603	25.4834
248.496	41.3149
251.388	27.9277
254.281	0.299805
257.174	6.22559
260.067	40.5796
262.959	60.9414
265.852	62.645
268.745	95.1367
271.637	133.317
274.53	70.4336
277.423	67.3745
280.315	74.5059
283.208	76.3901
286.101	119.798
288.994	29.6104
291.886	81.188
294.779	80.4981
297.672	89.2368
300.564	98.2104
303.457	117.444
306.35	69.3975
309.243	65.7026
312.135	89.8306
315.028	55.376
317.921	95.355
320.813	64.7178
323.706	58.3008
326.599	77.9175
329.491	115.202
332.384	76.3882
335.277	20.3477
338.17	44.083
341.062	59.6016
343.955	53.3335
346.848	18.1953
349.74	47.0557
352.633	19.0449
355.526	4.26465
358.418	11.5845
361.311	7.29346
364.204	79.2246
367.097	38.709
369.989	46.1611
372.882	42.4868
375.775	81.3369
378.667	44.1313
381.56	48.0161
384.453	75.3047
387.346	27.7456
390.238	12.3516
393.131	5.52295
396.024	0.851563
398.916	22.8677
401.809	121.578
404.702	80.4956
407.594	56.1675
410.487	104.009
413.38	85.5098
416.272	159.721
419.165	181.756
422.058	265.348
424.951	361.164
427.843	416.367
430.736	372.346
433.629	289.647
436.521	255.993
439.414	275.84
442.307	251.798
445.2	301.068
448.092	170.945
450.985	162.378
453.878	134.915
456.77	118.373
459.663	57.2266
462.556	88.5229
465.448	37.2744
468.341	22.1201
471.234	56.0312
474.127	15.229
477.019	55.0825
479.912	3.81836
482.805	35.6982
485.697	81.1401
488.59	92.9429
491.483	55.0347
494.375	83.7656
497.268	101.019
500.161	121.177
503.053	50.354
505.946	75.3652
508.839	34.352
511.732	40.2544
514.624	14.1348
517.517	5.7417
520.41	21.7075
523.302	44.7241
526.195	22.8457
529.088	3.59228
531.981	38.8784
534.873	125.741
537.766	78.668
540.659	73.8774
543.551	61.7495
546.444	85.2778
549.337	7.29932
552.229	6.23389
555.122	82.4712
558.015	69.8394
560.908	2.1875
563.8	86.3769
566.693	89.5742
569.586	101.287
572.478	148.928
575.371	147.429
578.264	266.413
581.156	443.416
584.049	391.863
586.942	429.489
589.835	566.533
592.727	294.638
595.62	163.389
598.513	157.4
601.405	203.904
604.298	264.864
607.191	162.049
610.083	89.6958
612.976	57.8423
615.869	63.7529
618.762	48.1665
621.654	17.1235
624.547	11.9277
627.44	23.5776
630.332	9.60156
633.225	62.835
636.118	92.7231
639.01	102.163
641.903	91.3486
644.796	114.707
647.689	95.3047
650.581	177.418
653.474	180.584
656.367	194.095
659.259	219.669
662.152	229.924
665.045	216.59
667.938	223.524
670.83	184.156
673.723	222.291
676.616	169.375
679.508	152.118
682.401	126.804
685.294	119.196
688.186	112.985
691.079	69.0225
693.972	100.945
696.865	47.7349
699.757	44.5776
702.65	92.1626
705.543	19.457
708.435	26.9424
711.328	18.5024
714.221	70.8359
717.113	1.13037
720.006	13.0962
722.899	71.1035
725.792	55.7852
728.684	83.5049
731.577	73.7188
734.47	53.3779
737.362	81.7353
740.255	120.534
743.148	63.6807
746.04	155.318
748.933	125.618
751.826	93.1079
754.719	120.777
757.611	107.763
760.504	99.1406
763.397	87.0088
766.289	18.1841
769.182	105.692
772.075	79.5107
774.967	53.9697
777.86	54.7036
780.753	8.63086
783.646	64.9019
786.538	69.0962
789.431	102.856
792.324	37.9487
795.216	97.4688
798.109	82.9487
801.002	118.643
803.894	30.2734
806.787	65.8882
809.68	43.0029
812.573	7.72803
815.465	63.3227
818.358	63.7085
821.251	93.2041
824.143	69.2104
827.036	35.0508
829.929	13.3037
832.822	31.269
835.714	0.254883
838.607	83.2153
841.5	7.05811
844.392	21.0596
847.285	87.3862
850.178	37.7656
853.07	97.9551
855.963	43.1382
858.856	4.48047
861.749	99.8799
864.641	38.0112
867.534	19.4268
870.427	88.0234
873.319	53.0049
876.212	16.7588
879.105	75.6914
881.997	41.3247
884.89	32.8906
887.783	67.0571
890.676	12.0249
893.568	67.8579
896.461	29.5381
899.354	1.66211
902.246	18.7417
905.139	78.7148
908.032	95.8521
910.924	105.019
913.817	75.7109
916.71	82.4751
919.602	20.6489
922.495	96.4522
925.388	38.353
928.281	8.90185
931.173	107.022
934.066	104.213
936.959	155.901
939.851	210.779
942.744	310.214
945.637	451.983
948.529	668.114
951.422	1313.53
954.315	2457.84
957.208	4063.67
960.1	5886.63
962.993	6163.85
965.886	3144.69
968.778	1204.04
971.671	557.658
974.564	265.635
977.457	75.021
980.349	61.3608
983.242	21.5278
986.135	47.5806
989.027	58.0435
991.92	47.9526
994.813	31.8506
997.705	87.6318
1000.6	31.2275
1003.49	1.6792
1006.38	66.1558
1009.28	53.3774
1012.17	29.5483
1015.06	85.1977
1017.95	39.9522
1020.85	82.8921
1023.74	167.685
1026.63	227.226
1029.53	260.195
1032.42	310.178
1035.31	310.557
1038.2	325.701
1041.1	373.597
1043.99	396.899
1046.88	574.68
1049.77	743.206
1052.67	547.939
1055.56	287.105
1058.45	191.22
1061.35	108.408
1064.24	111.963
1067.13	115.178
1070.02	173.185
1072.92	242.515
1075.81	279.886
1078.7	277.384
1081.59	186.655
1084.49	127.124
1087.38	111.018
1090.27	80.7153
1093.16	89.2095
1096.06	41.4502
1098.95	71.2398
1101.84	17.9053
1104.73	79.001
1107.63	38.2725
1110.52	18.7153
1113.41	29.6484
1116.31	58.1943
1119.2	55.8955
1122.09	38.0635
1124.98	32.6118
1127.88	0.067871
1130.77	106.39
1133.66	10.522
1136.56	29.9097
1139.45	85.1167
1142.34	1.66162
1145.23	222.331
1148.13	63.6655
1151.02	109.074
1153.91	99.8452
1156.8	54.5698
1159.7	74.2466
1162.59	98.5273
1165.48	85.5835
1168.38	38.2827
1171.27	35.438
1174.16	44.4961
1177.05	17.8208
1179.95	46.7368
1182.84	121.116
1185.73	10.8023
1188.62	73.9077
1191.52	89.4097
1194.41	72.3438
1197.3	73.019
1200.19	76.4341
1203.09	110.621
1205.98	7.01465
1208.87	15.356
1211.77	49.6055
1214.66	87.4399
1217.55	33.8726
1220.44	65.1948
1223.34	47.2617
1226.23	94.2656
1229.12	56.7915
1232.01	70.2598
1234.91	42.6606
1237.8	182.633
1240.69	13.5732
1243.59	89.6025
1246.48	77.356
1249.37	21.1099
1252.26	114.908
1255.16	44.8306
1258.05	77.1255
1260.94	93.9175
1263.83	52.0684
1266.73	54.4531
1269.62	19.1602
1272.51	22.1328
1275.4	72.8657
1278.3	143.673
1281.19	59.4829
1284.08	28.2622
1286.98	25.6714
1289.87	66.1943
1292.76	0.200684
1295.65	81.7519
1298.55	54.3648
1301.44	28.4585
1304.33	68.3218
1307.22	3.85352
1310.12	18.1929
1313.01	77.8696
