Measurement: Raman, 532 nm, unoriented, Raman Data Processed
Mineral: Monazite-(Ce)
Rruff sample: R060925
Ideal chemistry: CePO_4_
Locality: Siglo Veinte mine, Llallagua, Bustillos Province, Potosi Department, Bolivia
Source: Alfredo Petrov
Description: Pale peach semi-transparent crystals associated with quartz
Measured chemistry: light phase: (Ce_0.52_La_0.21_Nd_0.19_Y_0.06_Ca_0.01_Th_0.01_)_Σ=1_P_1.00_O_4_ ; dark phase: (Ce_0.49_La_0.21_Nd_0.20_Y_0.07_Ca_0.02_Th_0.02_)_Σ=1_P_1.00_O_4_
Raman shift (cm-1)	intensity
120.077	0
123.451	275.025
126.826	372.996
130.201	935.595
133.576	573.539
136.951	48.5283
140.326	48.8374
143.7	153.356
147.075	320.125
150.45	894.136
153.825	1288.23
157.2	1501.45
160.574	1301.05
163.949	889.84
167.324	960.431
170.699	1436.7
174.074	2108.01
177.448	1967.63
180.823	1307.33
184.198	1067.68
187.573	965.707
190.948	1006.87
194.323	895.655
197.697	775.583
201.072	676.138
204.447	725.917
207.822	1008.66
211.197	1458.76
214.571	2381
217.946	3613.23
221.321	4756.34
224.696	4876.36
228.071	4060
231.446	3185.72
234.82	1852.57
238.195	755.065
241.57	218.523
244.945	83.0532
248.32	122.108
251.694	69.5955
255.069	78.4751
258.444	332.787
261.819	573.98
265.194	775.635
268.568	1193.52
271.943	1857.58
275.318	2408.87
278.693	2475.47
282.068	2120.9
285.442	1576.13
288.817	1028.46
292.192	706.932
295.567	585.038
298.942	549.432
302.317	543.033
305.691	604.05
309.066	657.607
312.441	729.964
315.816	799.833
319.191	771.647
322.565	704.967
325.94	641.659
329.315	612.125
332.69	519.737
336.065	468.224
339.44	425.461
342.814	386.832
346.189	376.5
349.564	383.235
352.939	374.945
356.314	295.861
359.688	125.71
363.063	18.5032
366.438	98.4853
369.813	117.368
373.188	135.934
376.562	64.6682
379.937	165.087
383.312	594.033
386.687	1319.54
390.062	2453.34
393.437	3848.43
396.811	5262.52
400.186	4468.18
403.561	3085.24
406.936	2921.84
410.311	3531.89
413.685	4561.86
417.06	4993.79
420.435	3386.83
423.81	1927.67
427.185	1263.93
430.56	1046.93
433.934	1033
437.309	1314.19
440.684	1925.63
444.059	2886.75
447.434	4313.8
450.808	6661.24
454.183	10012.1
457.558	14628.9
460.933	20725.7
464.308	26699.8
467.683	28546
471.057	23100.5
474.432	15081.2
477.807	9226.47
481.182	5732.52
484.557	3775.06
487.931	2460.9
491.306	1571.49
494.681	1004.46
498.056	600.458
501.431	351.845
504.805	174.549
508.18	48.7668
511.555	37.4009
514.93	55.3167
518.305	118.893
521.679	128.617
525.054	73.6084
528.429	362.918
531.804	895.677
535.179	1967.4
538.554	2085.06
541.928	596.641
545.303	299.558
548.678	228.118
552.053	268.738
555.428	428.922
558.802	747.905
562.177	908.765
565.552	1008.22
568.927	1855.63
572.302	3143.51
575.677	856.342
579.051	241.88
582.426	268.675
585.801	450.014
589.176	796.83
592.551	1026.38
595.925	95.1199
599.3	94.0776
602.675	12.4163
606.05	159.824
609.425	513.411
612.799	1123.26
616.174	2267
619.549	4217.59
622.924	3834.5
626.299	1525.13
629.673	694.919
633.048	371.658
636.423	263.413
639.798	187.842
643.173	176.744
646.548	192.758
649.922	138.199
653.297	164.427
656.672	102.629
660.047	82.3462
663.422	59.452
666.797	51.7844
670.171	41.7671
673.546	66.5106
676.921	35.3062
680.296	57.9874
683.67	71.1111
687.045	48.3497
690.42	48.9733
693.795	33.7333
697.17	6.60095
700.545	13.3619
703.919	2.1698
707.294	0.824341
710.669	12.6223
714.044	5.35583
717.419	7.98853
720.793	9.38452
724.168	1.77026
727.543	35.7696
730.918	41.1813
734.293	51.1058
737.668	70.8709
741.042	51.6088
744.417	55.5821
747.792	75.776
751.167	49.2102
754.542	27.6455
757.916	14.5883
761.291	41.8223
764.666	22.8662
768.041	53.9362
771.416	39.0215
774.79	61.3585
778.165	83.3794
781.54	90.978
784.915	81.2596
788.29	110.561
791.665	138.102
795.039	154.034
798.414	171.36
801.789	156.832
805.164	190.792
808.539	184.089
811.913	178.611
815.288	215.412
818.663	214.326
822.038	192.236
825.413	220.486
828.788	213.816
832.162	202.997
835.537	390.834
838.912	586.033
842.287	533.339
845.662	359.613
849.036	85.296
852.411	63.4473
855.786	44.9663
859.161	32.1055
862.536	30.0422
865.91	16.5386
869.285	15.7174
872.66	11.9889
876.035	55.6483
879.41	7.80689
882.784	17.8547
886.159	48.0482
889.534	23.6068
892.909	5.13672
896.284	40.738
899.659	18.8019
903.033	69.0356
906.408	143.703
909.783	175.748
913.158	293.359
916.533	365.192
919.908	494.269
923.282	669.21
926.657	811.672
930.032	929.489
933.407	1062.92
936.782	1128.43
940.156	1273.03
943.531	1354.38
946.906	1642.64
950.281	2172.01
953.656	3133.7
957.03	5068.28
960.405	9352.92
963.78	16509
967.155	28671.7
970.53	52024.3
973.904	75377
977.279	22885
980.654	7417.31
984.029	5822.56
987.404	7481.79
990.779	11344.4
994.153	12088.5
997.528	5603.07
1000.9	2013.78
1004.28	747.61
1007.65	204.368
1011.03	3.4646
1014.4	77.7551
1017.78	72.8752
1021.15	374.987
1024.53	965.455
1027.9	1853.48
1031.28	940.311
1034.65	145.763
1038.03	33.9595
1041.4	86.1594
1044.78	94.5102
1048.15	497.399
1051.53	1365.64
1054.9	3030
1058.28	4648.67
1061.65	2543.65
1065.03	1851.51
1068.4	2468.35
1071.77	3105.79
1075.15	3759.51
1078.52	2745.89
1081.9	1466.16
1085.27	470.983
1088.65	188.306
1092.02	81.6633
1095.4	29.3549
1098.77	3.74731
1102.15	17.3479
1105.52	41.1644
1108.9	34.2631
1112.27	44.9531
1115.65	58.7126
1119.02	60.073
1122.4	87.6227
1125.77	99.6782
1129.15	105.606
1132.52	80.61
1135.9	69.019
1139.27	29.7577
1142.64	42.5588
1146.02	35.0491
1149.39	40.8015
1152.77	53.8973
1156.14	86.7283
1159.52	111.459
1162.89	79.9368
1166.27	76.4659
1169.64	63.0114
1173.02	16.4316
1176.39	3.8971
1179.77	7.62622
1183.14	21.2321
1186.52	6.13782
1189.89	5.40637
1193.27	10.8322
1196.64	37.3258
1200.02	42.8563
1203.39	68.6998
1206.77	77.0178
1210.14	129.699
1213.52	118.609
1216.89	169.003
1220.27	189.776
1223.64	218.415
1227.02	280.422
1230.39	303.466
1233.77	344.848
1237.14	356.322
1240.52	339.965
1243.89	354.554
1247.26	328.975
1250.64	308.873
1254.01	292.976
1257.39	282.308
1260.76	239.167
1264.14	246.859
1267.51	191.435
1270.89	177.431
1274.26	126.126
1277.64	90.1616
1281.01	45.3811
1284.39	2.19751
1287.76	0.710327
