Measurement: Raman, 532 nm, unoriented, Raman Data Processed
Mineral: Monazite-(Ce)
Rruff sample: R120146
Ideal chemistry: CePO_4_
Locality: Zagi Mountain, Hameed Abad Kafoor Dheri, Peshawar, Khyber Pakhtunkhwa, Pakistan
Source: Ikram Mineralogy
Description: Brown bladed crystals
Measured chemistry: (Ce_0.47_La_0.23_Nd_0.19_Pr_0.05_Sm_0.03_Gd_0.01_Y_0.01_Eu_0.01_Th_0.01_)_∑=1.00_(P_0.98_Si_0.01_)_∑=0.99_O_4_
Raman shift (cm-1)	intensity
206.516	0
209.409	3.63193
212.301	19.5605
215.194	43.2094
218.087	69.6469
220.98	90.7476
223.872	93.3615
226.765	88.3361
229.658	79.986
232.55	56.2806
235.443	35.3875
238.336	18.222
241.228	6.97541
244.121	0.919434
247.014	2.01197
249.906	0.107178
252.799	0.375038
255.692	2.47084
258.585	3.15855
261.477	0.200027
264.37	0.875587
267.263	1.15951
270.155	3.39268
273.048	7.92908
275.941	9.08016
278.834	9.49431
281.726	8.32751
284.619	5.42453
287.512	4.4793
290.404	2.34406
293.297	1.43035
296.19	1.13908
299.082	0.561264
301.975	0.96257
304.868	1.4953
307.76	1.78187
310.653	1.04973
313.546	2.36029
316.439	1.84339
319.331	2.14301
322.224	1.58186
325.117	1.53021
328.009	1.76308
330.902	0.793739
333.795	0.053802
336.688	1.40225
339.58	0.157066
342.473	0.105911
345.366	0.565701
348.258	0.581043
351.151	0.310978
354.044	0.468449
356.936	0.080322
359.829	0.264194
362.722	0.372101
365.615	0.059731
368.507	0.634609
371.4	1.58043
374.293	4.49852
377.185	9.52386
380.078	16.3384
382.971	27.8604
385.863	41.4872
388.756	64.1034
391.649	93.7954
394.541	121.663
397.434	125.634
400.327	95.9859
403.22	72.7583
406.112	66.8671
409.005	72.7787
411.898	86.7102
414.79	97.617
417.683	82.1572
420.576	49.6847
423.469	27.6517
426.361	16.0249
429.254	9.47933
432.147	6.18476
435.039	4.11893
437.932	5.486
440.825	5.27744
443.717	5.66567
446.61	6.95846
449.503	10.1468
452.396	15.1198
455.288	22.4018
458.181	28.3457
461.074	36.3984
463.966	44.2051
466.859	45.0938
469.752	38.3256
472.644	28.1735
475.537	19.3045
478.43	13.4603
481.322	8.4627
484.215	6.00307
487.108	3.92432
490.001	2.80259
492.893	2.0237
495.786	0.750275
498.679	0.646835
501.571	0.279823
504.464	0.030872
507.357	0.061508
510.25	0.557766
513.142	0.048615
516.035	0.678051
518.928	0.714581
521.82	0.347881
524.713	0.745754
527.606	2.40795
530.498	5.39623
533.391	10.5925
536.284	14.5173
539.177	8.41996
542.069	3.41786
544.962	1.74314
547.855	1.28889
550.747	1.76137
553.64	1.05543
556.533	2.12178
559.425	2.35621
562.318	2.91118
565.211	4.31206
568.104	7.17099
570.996	9.63314
573.889	5.60423
576.782	2.74338
579.674	2.67222
582.567	4.20812
585.46	6.5529
588.352	11.682
591.245	13.1533
594.138	6.35107
597.03	3.80452
599.923	4.14791
602.816	5.44926
605.709	8.622
608.601	14.6034
611.494	23.1228
614.387	38.7481
617.279	61.72
620.172	80.2516
623.065	61.8628
625.957	32.1719
628.85	16.2273
631.743	9.18727
634.636	5.75675
637.528	2.90558
640.421	1.66021
643.314	1.25975
646.206	0.706116
649.099	0.518478
651.992	0.373121
654.885	0.058981
657.777	0.001011
660.67	0.03665
663.563	0.298965
666.455	0.090668
669.348	0.36253
672.241	0.562586
675.133	0.724195
678.026	1.00697
680.919	1.26678
683.812	1.9453
686.704	2.40998
689.597	2.90057
692.49	3.02207
695.382	3.62069
698.275	2.91887
701.168	3.22642
704.06	3.14099
706.953	3.58953
709.846	3.00736
712.739	3.10512
715.631	2.51109
718.524	1.83419
721.417	1.31681
724.309	0.468369
727.202	0.298048
730.095	0.089504
732.987	0.021446
735.88	0.000708
738.773	0.063011
741.665	0.227999
744.558	0.364082
747.451	0.204685
750.344	0.151106
753.236	0.156
756.129	0.039211
759.022	0.206882
761.914	0.554419
764.807	0.472239
767.7	0.850218
770.592	1.55673
773.485	0.958912
776.378	1.35563
779.271	1.76238
782.163	1.41132
785.056	1.25216
787.949	1.62627
790.841	1.79347
793.734	1.57249
796.627	1.85243
799.519	2.19637
802.412	1.49744
805.305	2.12611
808.198	2.10187
811.09	1.44778
813.983	1.46204
816.876	1.80043
819.768	1.58306
822.661	1.14257
825.554	1.40745
828.447	1.47506
831.339	1.63069
834.232	1.76383
837.125	1.80693
840.017	1.95523
842.91	1.73579
845.803	2.09641
848.695	2.57479
851.588	2.71816
854.481	2.97651
857.374	3.27802
860.266	3.53231
863.159	4.01123
866.052	3.84901
868.944	2.40733
871.837	2.55023
874.73	1.88725
877.622	1.78564
880.515	1.39685
883.408	0.716196
886.301	0.991264
889.193	0.837282
892.086	0.561159
894.979	0.197506
897.871	0.132288
900.764	0.236179
903.657	0.220009
906.549	0.420076
909.442	0.032179
912.335	0.238876
915.227	0.5198
918.12	0.096497
921.013	0.579979
923.906	1.12469
926.798	1.52624
929.691	2.75978
932.584	3.62227
935.476	5.15249
938.369	7.03934
941.262	10.4379
944.154	14.384
947.047	21.6067
949.94	29.5841
952.833	40.7545
955.725	58.0199
958.618	86.4647
961.511	137.482
964.403	208.495
967.296	319.354
970.189	526.734
973.082	614.739
975.974	290.012
978.867	117.505
981.76	67.9976
984.652	53.1661
987.545	50.782
990.438	50.179
993.33	38.547
996.223	21.7058
999.116	8.89654
1002.01	2.50095
1004.9	0.010017
1007.79	0.514664
1010.69	0.589367
1013.58	0.288048
1016.47	3.66195
1019.37	9.02437
1022.26	17.4464
1025.15	27.6001
1028.04	31.314
1030.94	23.8357
1033.83	16.2151
1036.72	12.617
1039.61	12.2137
1042.51	14.9734
1045.4	24.3937
1048.29	42.5849
1051.18	72.2008
1054.08	121.429
1056.97	167.082
1059.86	141.027
1062.76	98.486
1065.65	79.9704
1068.54	79.2937
1071.43	80.5346
1074.33	77.2982
1077.22	61.5416
1080.11	37.655
1083	22.495
1085.9	12.735
1088.79	7.6719
1091.68	4.64385
1094.58	2.35339
1097.47	1.58661
1100.36	0.872387
1103.25	0.481754
1106.15	0.194706
1109.04	0.039871
1111.93	0.347273
1114.82	0.217323
1117.72	0.368402
1120.61	0.110323
1123.5	0.132927
1126.39	0.544237
1129.29	0.338003
1132.18	0.118687
1135.07	0.425465
1137.96	0.29373
1140.86	0.422379
1143.75	0.78105
1146.64	0.707315
1149.54	0.811953
1152.43	0.80076
1155.32	1.38203
1158.21	1.49792
1161.11	1.5873
1164	2.0069
1166.89	1.67359
1169.79	1.96141
1172.68	1.42769
1175.57	1.93848
1178.46	1.44721
1181.36	1.70059
1184.25	1.45247
1187.14	1.4405
1190.03	0.879206
1192.93	1.35035
1195.82	1.69806
1198.71	1.40548
1201.61	2.65735
1204.5	1.08998
1207.39	1.53777
1210.28	1.60804
1213.18	1.96538
1216.07	1.60362
1218.96	1.72871
1221.85	1.83486
1224.75	1.88993
1227.64	1.93586
1230.53	2.30875
1233.42	1.83367
1236.32	1.59658
1239.21	1.68104
1242.1	1.67563
1244.99	1.6664
1247.89	1.27977
1250.78	1.24144
1253.67	1.39501
1256.57	0.755638
1259.46	1.02342
1262.35	1.07836
1265.24	0.506262
1268.14	0.676674
1271.03	0.790199
1273.92	0.324274
1276.82	0.24786
1279.71	0.447792
1282.6	0.05937
1285.49	0.137976
1288.39	0.449684
1291.28	0.319902
1294.17	0.08354
1297.06	0.564903
1299.96	0.037415
