Measurement: Raman, 514 nm, unoriented, Raman Data Processed
Mineral: Monazite-(Ce)
Rruff sample: R040106
Ideal chemistry: CePO_4_
Locality: Angola
Source: University of Arizona Mineral Museum
Description: Brown massive fragment
Measured chemistry: (Ce_0.41_La_0.17_Nd_0.17_Th_0.14_Ca_0.06_Y_0.04_)(P_0.95_Si_0.05_)O_4_
Raman shift (cm-1)	intensity
82.218	0
86.404	556.645
90.587	1016.63
94.768	838.075
98.947	613.441
103.124	463.196
107.3	633.94
111.473	612.81
115.644	888.82
119.813	927.557
123.981	615.165
128.146	418.716
132.309	300.789
136.47	121.873
140.63	40.106
144.787	4.456
148.942	196.661
153.096	411.786
157.247	466.853
161.396	707.476
165.544	1092.48
169.689	1594.79
173.833	2240.38
177.974	2046.3
182.114	1568.49
186.251	881.825
190.387	463.272
194.52	172.631
198.652	14.552
202.782	45.331
206.909	50.571
211.035	180.583
215.159	101.779
219.281	5
223.4	15.762
227.518	113.743
231.634	30.422
235.748	54.121
239.86	28.251
243.97	120.393
248.079	188.36
252.185	429.159
256.289	436.307
260.391	734.221
264.492	895.245
268.59	1212.02
272.687	1636.46
276.781	1974.22
280.874	2428.99
284.964	2678.24
289.053	2722.04
293.14	2498.42
297.225	2123.43
301.308	1991.72
305.389	1983.85
309.468	1624.04
313.545	1595.4
317.62	1369.32
321.693	1188.98
325.765	1162.39
329.834	1006.56
333.902	1107.52
337.967	867.285
342.031	1048.84
346.093	1071.17
350.153	1338.27
354.21	1722.13
358.267	2105.75
362.321	2593.57
366.373	3310.9
370.423	3785.53
374.471	4308.29
378.518	4949.63
382.563	5632.35
386.605	6562.8
390.646	7515.31
394.685	8455.29
398.722	8719.24
402.757	8810.63
406.79	9424.14
410.821	10666.2
414.851	12237.1
418.878	12706.9
422.904	10845.5
426.927	7747.26
430.949	5456.05
434.969	4616
438.987	3658.25
443.003	3803.69
447.018	4090.26
451.03	4492.97
455.041	5492.71
459.049	6192.48
463.056	6680.08
467.061	6408.48
471.064	5728.65
475.065	4996.55
479.064	3882.14
483.062	3124.43
487.057	2478.41
491.051	1938.08
495.043	1575.42
499.032	1124.43
503.02	927.088
507.007	735.396
510.991	478.343
514.973	243.44
518.954	118.12
522.933	30.088
526.91	120.876
530.885	46.398
534.858	79.396
538.829	141.443
542.799	25.107
546.766	132.428
550.732	95.307
554.696	343.752
558.658	623.734
562.618	703.27
566.576	1320.35
570.533	2187.95
574.488	1850.7
578.44	1249.94
582.391	1038.16
586.341	753.92
590.288	948.156
594.233	865.092
598.177	1055.03
602.119	1167.79
606.059	1290.69
609.997	1710.76
613.933	2534.79
617.868	3413.17
621.801	3618.42
625.731	2976.38
629.66	2507.29
633.588	2103.42
637.513	1666.75
641.437	1564.27
645.358	1378.98
649.278	1320.88
653.196	1239.95
657.113	1258.19
661.027	1305.59
664.94	1185.15
668.851	1384.86
672.76	1364.72
676.667	1329.72
680.572	1342.76
684.476	1408.4
688.378	1375.07
692.278	1354.89
696.176	1453.57
700.072	1256.35
703.967	1126.28
707.86	1115.33
711.751	879.491
715.64	576.761
719.527	403.137
723.413	261.616
727.297	132.197
731.179	103.825
735.059	152.601
738.937	21.415
742.814	109.023
746.689	109.167
750.562	181.181
754.433	72.249
758.303	186.042
762.17	92.6
766.036	60.792
769.901	116.517
773.763	29.623
777.624	104.25
781.482	185.243
785.339	159.394
789.195	250.711
793.048	224.205
796.9	425.879
800.75	470.742
804.598	498.799
808.445	825.055
812.289	839.516
816.132	1047.19
819.973	1164.08
823.813	1295.19
827.65	1458.53
831.486	1748.1
835.32	1780.95
839.152	1903.23
842.983	2085.97
846.812	2076.01
850.639	1908.35
854.464	2107.22
858.288	2318.28
862.11	2260.95
865.93	2199.37
869.748	2056.25
873.564	1906.05
877.379	1761.34
881.192	1646.92
885.004	1375.99
888.813	1306.57
892.621	1202.52
896.427	882.42
900.232	757.383
904.034	514.453
907.835	556.195
911.634	434.114
915.432	344.091
919.227	358.325
923.021	567.461
926.813	792.625
930.604	1113.19
934.393	1504.42
938.18	2262.54
941.965	3302.3
945.749	4620.68
949.53	6455.66
953.311	8775.26
957.089	11959.4
960.866	16092.1
964.641	21975.3
968.414	29941
972.185	37565.3
975.955	37780
979.723	28961.2
983.49	19594.9
987.254	13119.1
991.017	9297.66
994.779	6922.7
998.538	5654.17
1002.3	4843.06
1006.05	4170.36
1009.81	3647.05
1013.56	3388.14
1017.31	3283.68
1021.06	3168.62
1024.81	3316.16
1028.55	3510.77
1032.3	3712.54
1036.04	4014.82
1039.78	4292.44
1043.52	4742.77
1047.26	5537.8
1050.99	6676.69
1054.73	8136.3
1058.46	9831.64
1062.19	10815.5
1065.92	11176.3
1069.65	10565
1073.37	9700.5
1077.1	8464.35
1080.82	7265.92
1084.54	5853.67
1088.26	4849.36
1091.97	3891.64
1095.69	3088.64
1099.4	2472.3
1103.12	1967.56
1106.83	1704.96
1110.54	1303.71
1114.24	1028.6
1117.95	913.639
1121.65	950.049
1125.35	848.507
1129.06	521.458
1132.75	364.1
1136.45	254.073
1140.15	214.378
1143.84	172.229
1147.53	174.44
1151.22	170.205
1154.91	113.602
1158.6	75.54
1162.28	35.31
1165.97	50.439
1169.65	76.365
1173.33	4.915
1177.01	36.047
1180.69	25.697
1184.36	38.715
1188.04	108.97
1191.71	50.633
1195.38	62.213
1199.05	48.729
1202.71	116.166
1206.38	55.67
1210.04	48.99
1213.71	14.625
1217.37	65.268
1221.03	36.928
1224.68	32.648
1228.34	42.734
1231.99	18.215
1235.65	29.75
1239.3	4.777
1242.95	86.906
1246.59	91.079
1250.24	78.746
1253.88	164.446
1257.53	203.5
1261.17	205.848
1264.81	239.837
1268.45	265.275
1272.08	269.954
1275.72	311.848
1279.35	300.941
1282.98	404.189
1286.61	424.575
1290.24	409.139
1293.87	463.875
1297.49	449.843
1301.11	521.25
1304.73	523.007
1308.36	617.059
1311.97	566.381
1315.59	517.829
1319.2	502.885
1322.82	511.78
1326.43	552.394
1330.04	593.687
1333.65	578.782
1337.26	494.766
1340.86	512.45
1344.47	501.396
1348.07	440.161
1351.67	345.527
1355.27	559.162
1358.87	409.562
1362.46	381.992
1366.06	296.502
1369.65	345.676
1373.24	291.767
1376.83	219.915
1380.42	222.08
1384	184.29
1387.59	162.87
1391.17	235.719
1394.75	536.695
1398.33	323.907
1401.91	132.427
1405.49	205.701
1409.06	155.999
1412.64	142.387
1416.21	151.975
1419.78	96.259
1423.35	197.24
1426.91	225.066
1430.48	147.378
1434.05	147.79
1437.61	253.344
1441.17	104.021
1444.73	120.492
1448.29	111.721
1451.84	77.218
1455.4	119.7
1458.95	93.664
1462.5	161.407
1466.05	139.503
1469.6	24.654
1473.15	121.109
1476.69	37.895
1480.24	92.894
1483.78	19.195
1487.32	24.707
1490.86	74.641
1494.39	78.723
1497.93	79.326
1501.46	5.964
1505	5.275
1508.53	54.005
1512.06	39.172
1515.59	57.135
1519.11	29.781
1522.64	0.953
