Measurement: Raman, 532 nm, unoriented, Raman Data Processed
Mineral: Montebrasite
Rruff sample: R040060
Ideal chemistry: LiAlPO_4_(OH)
Locality: Oxford County, Maine, USA
Source: University of Arizona Mineral Museum
Description: White massive
Measured chemistry: LiAl(PO_4_)((OH)_0.79_F_0.21_)
Raman shift (cm-1)	intensity
114.772	0
118.147	0.701996
121.522	15.6726
124.897	48.5842
128.272	108.314
131.647	176.973
135.022	200.707
138.396	171.756
141.771	80.3141
145.146	53.3565
148.521	40.4377
151.895	37.2001
155.27	36.465
158.645	46.3452
162.02	86.3251
165.395	115.846
168.77	125.263
172.144	100.233
175.519	94.0477
178.894	79.4265
182.269	68.3378
185.644	68.964
189.019	89.3282
192.393	81.7113
195.768	75.1433
199.143	43.3851
202.518	23.7828
205.893	14.1593
209.268	17.6587
212.642	23.3884
216.017	45.5382
219.392	49.8808
222.767	52.5859
226.142	41.2133
229.516	41.3628
232.891	32.1963
236.266	16.6561
239.641	4.73477
243.016	4.42874
246.391	1.66159
249.765	1.68115
253.14	7.65439
256.515	8.96884
259.89	24.9541
263.265	73.2994
266.639	115.607
270.014	208.007
273.389	266.91
276.764	322.002
280.139	235.77
283.514	207.211
286.888	336.435
290.263	601.565
293.638	865.496
297.013	1147.98
300.388	996.96
303.762	591.153
307.137	422.696
310.512	359.755
313.887	293.424
317.262	223.325
320.637	201.844
324.011	162.782
327.386	93.8444
330.761	51.7337
334.136	38.6227
337.511	20.6006
340.885	16.1754
344.26	10.195
347.635	12.951
351.01	4.15445
354.385	3.29596
357.76	3.26776
361.134	0.094757
364.509	3.6879
367.884	16.1981
371.259	18.9977
374.634	38.5825
378.008	39.8797
381.383	41.9355
384.758	36.0153
388.133	52.081
391.508	53.1739
394.882	49.3073
398.257	61.9227
401.632	52.0784
405.007	50.2352
408.382	78.1823
411.757	108.078
415.131	204.677
418.506	306.152
421.881	467.92
425.256	665.19
428.631	552.484
432.005	151.702
435.38	68.9666
438.755	15.4937
442.13	16.822
445.505	8.16116
448.88	2.49478
452.254	11.8839
455.629	0.599884
459.004	17.0449
462.379	16.4194
465.754	50.7828
469.128	79.1427
472.503	129.725
475.878	176.655
479.253	249.005
482.628	261.839
486.003	219.006
489.377	196.261
492.752	169.989
496.127	146.421
499.502	100.292
502.877	65.3631
506.252	39.5903
509.626	39.1254
513.001	20.7605
516.376	17.0981
519.751	9.20819
523.126	1.78812
526.5	2.9891
529.875	0.592926
533.25	6.31323
536.625	1.08978
540	0.539734
543.375	14.6402
546.749	13.5138
550.124	10.6048
553.499	1.85263
556.874	16.0128
560.249	14.2716
563.623	1.21625
566.998	8.34753
570.373	9.24915
573.748	13.9192
577.123	19.2196
580.498	24.9175
583.872	43.5613
587.247	56.9146
590.622	104.201
593.997	159.585
597.372	222.06
600.746	273.108
604.121	207.396
607.496	149.936
610.871	135.102
614.246	182.874
617.62	236.389
620.995	344.261
624.37	489.445
627.745	562.616
631.12	551.677
634.495	523.18
637.869	635.38
641.244	873.803
644.619	1036.05
647.994	735.208
651.369	315.276
654.744	150.142
658.118	74.5721
661.493	59.1114
664.868	32.6445
668.243	31.5854
671.618	18.9629
674.992	2.03375
678.367	11.059
681.742	7.31616
685.117	2.30481
688.492	8.2785
691.867	13.4016
695.241	8.72607
698.616	6.70096
701.991	2.06705
705.366	8.09244
708.741	18.4153
712.115	19.5935
715.49	11.8738
718.865	1.49789
722.24	9.71338
725.615	19.5347
728.99	9.45981
732.364	6.41281
735.739	9.28616
739.114	1.16571
742.489	3.36844
745.864	1.8219
749.239	17.121
752.613	9.30658
755.988	13.8676
759.363	16.3846
762.738	27.0199
766.112	23.9831
769.487	6.27725
772.862	12.2856
776.237	37.391
779.612	50.4702
782.987	76.6068
786.361	115.962
789.736	135.784
793.111	188.602
796.486	255.672
799.861	238.927
803.236	225.832
806.61	186.671
809.985	152.86
813.36	115.308
816.735	101.537
820.11	84.3038
823.485	55.6932
826.859	47.1203
830.234	47.4051
833.609	21.6157
836.984	23.2848
840.359	35.6075
843.733	26.4558
847.108	15.228
850.483	29.4304
853.858	22.6057
857.233	6.92743
860.607	11.0374
863.982	15.203
867.357	9.20474
870.732	8.39682
874.107	14.4846
877.482	9.46201
880.856	21.3751
884.231	7.11258
887.606	24.9961
890.981	19.7975
894.356	16.5782
897.731	26.6481
901.105	13.747
904.48	1.76175
907.855	18.0318
911.23	6.60114
914.605	15.0309
917.979	16.3418
921.354	13.0766
924.729	13.61
928.104	5.33978
931.479	2.93903
934.854	10.6846
938.228	1.01187
941.603	13.0065
944.978	4.36221
948.353	13.5511
951.728	0.051392
955.102	7.02689
958.477	5.30133
961.852	4.30658
965.227	6.57919
968.602	9.22263
971.976	25.7588
975.351	21.9944
978.726	42.6347
982.101	44.0885
985.476	86.1443
988.851	140.639
992.225	202.181
995.6	336.98
998.975	557.331
1002.35	811.056
1005.73	1065.14
1009.1	1263.74
1012.47	1166.4
1015.85	795.729
1019.22	486.901
1022.6	316.805
1025.97	282.007
1029.35	320.057
1032.72	449.381
1036.1	646.588
1039.47	883.753
1042.85	1105.67
1046.22	1116.96
1049.6	959.989
1052.97	885.124
1056.35	914.576
1059.72	817.552
1063.1	506.739
1066.47	254.734
1069.85	135.579
1073.22	55.4545
1076.6	23.4302
1079.97	3.39179
1083.35	5.45734
1086.72	7.39148
1090.1	23.5333
1093.47	27.813
1096.85	102.283
1100.22	157.37
1103.59	266.592
1106.97	356.349
1110.34	334.342
1113.72	253.925
1117.09	179.429
1120.47	133.286
1123.84	102.709
1127.22	68.8123
1130.59	44.0143
1133.97	23.2702
1137.34	34.8531
1140.72	5.35156
1144.09	23.3491
1147.47	9.3562
1150.84	7.44278
1154.22	5.40445
1157.59	11.4665
1160.97	18.6125
1164.34	30.7804
1167.72	16.3093
1171.09	37.133
1174.47	33.2765
1177.84	30.4309
1181.21	72.5272
1184.59	70.8964
1187.96	95.2194
1191.34	80.0924
1194.71	77.5878
1198.09	60.9161
1201.46	59.2042
1204.84	43.1155
1208.21	30.2905
1211.59	20.8112
1214.96	17.2082
1218.34	20.0167
1221.71	14.6605
1225.09	24.1624
1228.46	9.70547
1231.84	0.010315
1235.21	15.8473
1238.59	20.1758
1241.96	16.5777
1245.34	16.7767
1248.71	18.433
1252.09	13.9481
1255.46	16.1713
1258.84	10.5107
1262.21	9.46112
1265.59	8.35672
1268.96	3.39645
1272.34	21.3131
1275.71	24.2525
1279.09	2.15631
1282.46	13.2424
1285.84	1.68658
1289.21	8.57739
