Measurement: Raman, 532 nm, unoriented, Raman Data Processed
Mineral: Montebrasite
Rruff sample: R040062
Ideal chemistry: LiAlPO_4_(OH)
Locality: Hebron, Maine, USA
Source: University of Arizona Mineral Museum
Description: White massive
Measured chemistry: LiAl(PO_4_)((OH)_0.62_F_0.38_)
Raman shift (cm-1)	intensity
157.681	0
160.573	207.562
163.466	366.391
166.359	549.758
169.252	297.912
172.144	254.736
175.037	225.928
177.93	330.81
180.822	385.414
183.715	454.861
186.608	485.902
189.5	469.584
192.393	398.523
195.286	150.375
198.179	114.971
201.071	157.375
203.964	29.6211
206.857	180.035
209.749	115.029
212.642	127.508
215.535	139.516
218.428	251.301
221.32	169.623
224.213	99.5957
227.106	150.242
229.998	183.172
232.891	128.586
235.784	64.2734
238.676	7.66016
241.569	3.16797
244.462	48.7422
247.355	91.1816
250.247	11.334
253.14	115.947
256.033	30.1641
258.925	169.721
261.818	376.559
264.711	586.49
267.603	798.621
270.496	998.182
273.389	1199.6
276.281	1268.56
279.174	1228.29
282.067	1416.02
284.96	1499.04
287.852	2424.7
290.745	3940.39
293.638	5604.51
296.53	7446.48
299.423	9104.11
302.316	8022.86
305.209	5408.82
308.101	4054.36
310.994	3271.63
313.887	2475.7
316.779	2111.29
319.672	1728.97
322.565	1474.93
325.457	1134.99
328.35	721.732
331.243	507.022
334.135	346.818
337.028	251.115
339.921	182.336
342.813	95.8965
345.706	43.498
348.599	127.996
351.492	70.2676
354.384	143.264
357.277	26.0391
360.17	71.0938
363.062	16.8594
365.955	20.1211
368.848	90.707
371.74	87.125
374.633	221.434
377.526	188.59
380.419	149.918
383.311	103.438
386.204	298.889
389.097	210.482
391.989	232.137
394.882	256.443
397.775	363.152
400.668	244.981
403.56	183.877
406.453	422.371
409.346	571.799
412.238	952.996
415.131	1858.66
418.024	3086.5
420.916	4439.26
423.809	6077.12
426.702	6881.29
429.594	3774.33
432.487	1557.79
435.38	825.041
438.273	427.844
441.165	287.084
444.058	171.264
446.951	98.1914
449.843	51.5547
452.736	437.422
455.629	31.4941
458.522	60.4805
461.414	43.0977
464.307	226.344
467.2	450.812
470.092	758.299
472.985	1035.32
475.878	1225.77
478.77	1535.99
481.663	1716.06
484.556	1956.88
487.448	1943.06
490.341	1612.54
493.234	1352.54
496.127	1253.25
499.019	794.762
501.912	637.316
504.805	381.137
507.697	190.688
510.59	5.59375
513.483	58.4141
516.375	100.223
519.268	15.0117
522.161	86.2227
525.053	27.8711
527.946	90.3281
530.839	316.594
533.732	230.027
536.624	95.7656
539.517	16.2578
542.41	21.2031
545.302	287.367
548.195	351.555
551.088	290.008
553.981	248.926
556.873	346.055
559.766	439.043
562.659	512.25
565.551	724.656
568.444	822.039
571.337	840.543
574.229	893.457
577.122	916.578
580.015	1145.56
582.908	1492.4
585.8	1578.99
588.693	1840.78
591.586	2260.09
594.478	2509.96
597.371	2879.99
600.264	3283.7
603.156	3625.76
606.049	3417.76
608.942	3467.33
611.835	3682.45
614.727	3896.7
617.62	4477.23
620.513	5302.77
623.405	6112.23
626.298	7198.27
629.191	8217.75
632.083	8861.63
634.976	8760.46
637.869	8938.52
640.761	10447.2
643.654	12012.1
646.547	11790.5
649.439	7561.15
652.332	3942.9
655.225	2290.43
658.118	1314.93
661.01	779.008
663.903	771.633
666.796	357.398
669.688	431.062
672.581	4.69531
675.474	155.215
678.366	177.453
681.259	25.5391
684.152	49.2383
687.045	162.422
689.937	2.63672
692.83	177.93
695.723	89.2734
698.615	67.2812
701.508	99.0078
704.401	179.484
707.293	163.141
710.186	186.676
713.079	134.25
715.972	238.141
718.864	264.949
721.757	215.418
724.65	484.832
727.542	332.5
730.435	435.957
733.328	266.356
736.221	287.32
739.113	84.3008
742.006	166.445
744.899	153.648
747.791	202.191
750.684	112.449
753.577	131.309
756.469	105.508
759.362	290.281
762.255	159.707
765.148	139.523
768.04	191.688
770.933	110.312
773.826	35.3672
776.718	194.184
779.611	104.965
782.504	241.633
785.396	365.738
788.289	550.547
791.182	1005.39
794.074	1209.39
796.967	1224.88
799.86	1418.48
802.753	1502.7
805.645	1653.63
808.538	2009.56
811.431	2213.94
814.323	2647.54
817.216	2909.19
820.109	3692.03
823.001	3801.75
825.894	3900.38
828.787	3799.3
831.679	3645.48
834.572	3263.29
837.465	3086.83
840.358	2856.53
843.25	2533.12
846.143	2061.01
849.036	1524.32
851.928	1627.23
854.821	1348.9
857.714	1295.57
860.606	1380.68
863.499	1057.81
866.392	1068.55
869.284	824.168
872.177	942.793
875.07	793.922
877.963	871.957
880.855	848.461
883.748	758.285
886.641	865.852
889.533	890.297
892.426	1139.32
895.319	1154.88
898.212	959.727
901.104	736.106
903.997	536.859
906.89	438.207
909.782	307.738
912.675	237.519
915.568	82.3633
918.46	60.793
921.353	209.934
924.246	113.125
927.139	348.328
930.031	267.102
932.924	76.9531
935.817	79.4375
938.709	83.0117
941.602	29.8477
944.495	229.766
947.388	55.6094
950.28	96.2891
953.173	217.746
956.066	575.988
958.958	1322.88
961.851	2327.89
964.744	3084.59
967.636	1873.57
970.529	453.723
973.422	118.297
976.314	257.629
979.207	150.832
982.1	316.957
984.992	497.273
987.885	930.512
990.778	1692.34
993.671	2599.33
996.563	4117.05
999.456	5904.21
1002.35	7972.15
1005.24	9801.27
1008.13	11175.7
1011.03	11028.6
1013.92	9428.31
1016.81	6828.62
1019.71	4809.61
1022.6	3605.04
1025.49	3098.63
1028.38	3021.66
1031.28	3698.52
1034.17	4505.04
1037.06	5743.34
1039.95	6878.81
1042.85	7694.12
1045.74	8063.79
1048.63	8028.44
1051.53	8159.53
1054.42	8355.03
1057.31	8640.65
1060.2	8235.66
1063.1	6209.62
1065.99	3856.92
1068.88	2109.78
1071.77	1267.63
1074.67	541.547
1077.56	77.9102
1080.45	205.301
1083.34	121.711
1086.24	69.7734
1089.13	3.58594
1092.02	123.914
1094.91	351.988
1097.81	424.152
1100.7	617.793
1103.59	821.434
1106.49	1062.62
1109.38	1182.46
1112.27	1101.85
1115.16	1035.75
1118.06	946.586
1120.95	680.945
1123.84	646.539
1126.73	651.047
1129.63	900.773
1132.52	716.625
1135.41	482.059
1138.31	327.918
1141.2	341.008
1144.09	75.2461
1146.98	220.629
1149.88	66.6406
1152.77	192.891
1155.66	360.648
1158.55	361.062
1161.45	186.359
1164.34	85.3281
1167.23	137.203
1170.12	311.731
1173.02	495.793
1175.91	447.117
1178.8	700.539
1181.7	802.164
1184.59	555.438
1187.48	458.508
1190.37	405.445
1193.27	532.578
1196.16	554.637
1199.05	442.031
1201.94	286.949
1204.84	245.234
1207.73	535.555
1210.62	450.492
1213.52	357.551
1216.41	319.016
1219.3	158.527
1222.19	339.871
1225.09	268.453
1227.98	233.586
1230.87	399.941
1233.77	399.191
1236.66	505.231
1239.55	357.769
1242.44	307.449
1245.34	537.785
1248.23	654.598
1251.12	373.848
1254.01	166.324
1256.91	405.769
1259.8	255.344
1262.69	54.2969
1265.58	48.0859
1268.48	348.285
1271.37	605.055
1274.26	648.019
1277.15	505.25
1280.05	362.992
1282.94	304.449
1285.83	303.812
1288.73	353.344
1291.62	89.1211
1294.51	370.93
