Measurement: Raman, 532 nm, unoriented, Raman Data Processed
Mineral: Montebrasite
Rruff sample: R060890
Ideal chemistry: LiAlPO_4_(OH)
Locality: Mount Marie, Paris, Maine, USA
Source: Bob Jenkins
Description: Colorless massive
Measured chemistry: Li_1.00_Al_1.00_(P_1.00_O_4_)(OH)_0.63_F_0.37_)_Î£=1_ ; Li not measured but estimated by stoichiometry
Raman shift (cm-1)	intensity
149.968	0
152.861	32.9102
155.753	116.423
158.646	337.407
161.539	627.685
164.431	1011.87
167.324	1092.98
170.217	983.055
173.109	831.456
176.002	665.476
178.895	646.117
181.788	662.943
184.68	585.855
187.573	577.554
190.466	447.647
193.358	376.036
196.251	176.829
199.144	101.311
202.036	35.2969
204.929	71.0986
207.822	71.5234
210.714	75.959
213.607	78.1196
216.5	167.685
219.393	170.751
222.285	123.647
225.178	129.9
228.071	141.375
230.963	138.821
233.856	48.7647
236.749	57.3154
239.642	1.44043
242.534	4.84082
245.427	38.6191
248.32	32.6768
251.212	23.9512
254.105	2.04004
256.998	21.2656
259.89	267.041
262.783	424.185
265.676	784.259
268.568	1051.9
271.461	1289.76
274.354	1384.16
277.247	1388.62
280.139	1371.74
283.032	1685.7
285.925	2155.85
288.817	3135.34
291.71	5015.36
294.603	7701.51
297.495	11318.9
300.388	15279.5
303.281	16494.3
306.174	12605.3
309.066	8665.4
311.959	6420.02
314.852	5049.73
317.744	3863.22
320.637	2949.09
323.53	2235.55
326.422	1589.34
329.315	1177.34
332.208	846.871
335.101	544.707
337.993	298.769
340.886	264.89
343.779	127.449
346.671	2.47266
349.564	43.8506
352.457	47.2695
355.349	4.56738
358.242	24.2402
361.135	45.2383
364.027	98.7051
366.92	37.3789
369.813	143.427
372.706	208.66
375.598	187.79
378.491	195.432
381.384	78.2383
384.276	28.2793
387.169	57.3389
390.062	24.5889
392.954	24.5947
395.847	19.4893
398.74	33.6338
401.633	58.8486
404.525	146.69
407.418	403.168
410.311	774.69
413.203	1722.14
416.096	3594.75
418.989	6421.32
421.881	10656.8
424.774	16530.4
427.667	16070.3
430.56	7396.66
433.452	3077.82
436.345	1538.31
439.238	889.216
442.13	493.978
445.023	252.11
447.916	137.227
450.808	102.356
453.701	75.9522
456.594	92.0986
459.486	153.835
462.379	253.587
465.272	426.154
468.165	618.012
471.057	1037.17
473.95	1385.58
476.843	1983.19
479.735	2425.72
482.628	2983.04
485.521	3097.2
488.413	2970.51
491.306	2706.38
494.199	2363.53
497.092	1987.34
499.984	1678.86
502.877	1259.6
505.77	914.221
508.662	704.968
511.555	487.193
514.448	301.684
517.341	245.513
520.233	153.421
523.126	122.033
526.019	60.5605
528.911	20.8291
531.804	130.757
534.697	58.0059
537.589	41.1445
540.482	7.87012
543.375	42.292
546.268	1.85352
549.16	29.4277
552.053	36.1182
554.946	60.8584
557.838	105.23
560.731	5.95996
563.624	88.8379
566.516	49.1484
569.409	89.9297
572.302	122.399
575.194	173.061
578.087	216.873
580.98	248.405
583.872	372.014
586.765	497.63
589.658	762.96
592.551	1119.28
595.443	1645.81
598.336	2463.92
601.229	3271.91
604.121	3452.86
607.014	2383.73
609.907	1690.48
612.799	1479.99
615.692	1674.22
618.585	2187.14
621.477	2914.35
624.37	3931.68
627.263	5322.75
630.156	7219.59
633.048	8521.99
635.941	9032.35
638.834	10413.7
641.726	13705.6
644.619	18573.4
647.512	18465.4
650.404	11293.8
653.297	5829.47
656.19	3281.63
659.083	2060.04
661.975	1361.47
664.868	905.304
667.761	630.55
670.653	478.407
673.546	399.028
676.439	201.527
679.332	102.764
682.224	156.964
685.117	125.273
688.01	2.375
690.902	55.7783
693.795	89.6631
696.688	30.9297
699.58	16.5557
702.473	6.1875
705.366	34.9746
708.259	44.165
711.151	41.291
714.044	27.0488
716.937	75.8369
719.829	9.36816
722.722	66.249
725.615	106.486
728.507	8.11328
731.4	52.9844
734.293	21.0498
737.185	26.6396
740.078	129.914
742.971	69.3731
745.864	142.92
748.756	197.557
751.649	14.5361
754.542	37.5264
757.434	81.7793
760.327	38.9678
763.22	24.8887
766.112	44.5742
769.005	179.44
771.898	91.5537
774.79	75.7324
777.683	130.786
780.576	179.959
783.469	324.408
786.361	427.397
789.254	544.368
792.147	803.688
795.039	945.606
797.932	1146.14
800.825	1200.35
803.717	1272.43
806.61	1326.28
809.503	1356.07
812.396	1228.24
815.288	1094.04
818.181	968.812
821.074	826.767
823.966	678.296
826.859	605.492
829.752	492.97
832.644	329.14
835.537	214.671
838.43	124.898
841.323	82.8144
844.215	58.8926
847.108	63.502
850.001	13.4277
852.893	42.7471
855.786	23.4551
858.679	43.7793
861.571	111.251
864.464	64.2109
867.357	110.881
870.25	14.3105
873.142	58.459
876.035	43.3984
878.928	81.5215
881.82	25.3164
884.713	66.3272
887.606	129.528
890.498	133.772
893.391	218.301
896.284	233.057
899.177	250.843
902.069	156.619
904.962	243.155
907.855	217.785
910.747	136.407
913.64	96.6914
916.533	150.727
919.425	66.8603
922.318	162.296
925.211	210.983
928.104	166.933
930.996	109.628
933.889	148.901
936.782	0.162109
939.674	68.3906
942.567	26.1719
945.46	38.6299
948.352	156.45
951.245	20.2969
954.138	105.625
957.03	33.8857
959.923	16.082
962.816	18.8652
965.709	21.7285
968.601	47.9805
971.494	101.674
974.387	230.401
977.279	446.842
980.172	651.665
983.065	1018.88
985.957	1514.25
988.85	2326.69
991.743	3549.44
994.635	5437.44
997.528	7718.27
1000.42	10622.8
1003.31	13885.7
1006.21	17028.8
1009.1	18863
1011.99	18200.2
1014.88	15170.2
1017.78	11433.9
1020.67	8312.64
1023.56	6217.94
1026.45	5192.98
1029.35	4953.01
1032.24	5450.83
1035.13	6588.5
1038.03	8089.85
1040.92	9345.1
1043.81	10356.4
1046.7	10861.7
1049.6	11001.1
1052.49	11495.3
1055.38	12649
1058.28	14427.7
1061.17	15796.3
1064.06	14572.9
1066.95	10354.8
1069.85	5954.28
1072.74	3395.45
1075.63	1923.79
1078.52	1102.24
1081.42	534.835
1084.31	220.913
1087.2	58.3672
1090.09	43.1875
1092.99	108.394
1095.88	78.1309
1098.77	61.2725
1101.66	164.951
1104.56	426.809
1107.45	698.794
1110.34	893.747
1113.24	980.107
1116.13	1146.88
1119.02	1175.52
1121.91	1177.41
1124.81	1072.77
1127.7	1074.73
1130.59	954.25
1133.48	809.258
1136.38	552.551
1139.27	389.707
1142.16	301.587
1145.06	11.7607
1147.95	25.1035
1150.84	8.47852
1153.73	5.1416
1156.63	61.96
1159.52	84.1231
1162.41	15.5967
1165.31	74.7158
1168.2	32.376
1171.09	34.5488
1173.98	152.85
1176.88	193.944
1179.77	221.929
1182.66	263.002
1185.55	239.726
1188.45	288.265
1191.34	290.65
1194.23	410.881
1197.12	310.526
1200.02	411.909
1202.91	445.196
1205.8	389.33
1208.69	390.378
1211.59	400.983
1214.48	350.175
1217.37	300.885
1220.27	276.984
1223.16	200.279
1226.05	167.185
1228.94	109.946
1231.84	138.59
1234.73	89.7188
1237.62	194.795
1240.52	185.654
1243.41	101.138
1246.3	91.1397
1249.19	147.994
1252.09	117.492
1254.98	69.792
1257.87	91.5029
1260.76	71.6445
1263.66	38.6728
1266.55	24.6719
1269.44	97.6279
1272.33	209.784
1275.23	241.106
1278.12	139.105
1281.01	111.569
1283.9	85.4346
1286.8	132.471
1289.69	83.5859
1292.58	91.7422
