Measurement: Raman, 514 nm, unoriented, Raman Data Processed
Mineral: Montebrasite
Rruff sample: R040060
Ideal chemistry: LiAlPO_4_(OH)
Locality: Oxford County, Maine, USA
Source: University of Arizona Mineral Museum
Description: White massive
Measured chemistry: LiAl(PO_4_)((OH)_0.79_F_0.21_)
Raman shift (cm-1)	intensity
121.203	0
125.369	134.948
129.534	1642.59
133.696	3663.82
137.857	4680.64
142.016	2017.19
146.172	483.262
150.327	31.656
154.48	128.775
158.63	278.976
162.779	954.549
166.926	1554.19
171.07	1621.59
175.213	1323.53
179.354	1012.8
183.493	1248.03
187.63	1519.21
191.765	1988.58
195.898	2214.47
200.029	2364.28
204.158	1488.99
208.285	845.493
212.41	107.103
216.533	82.548
220.654	255.513
224.773	283.829
228.891	279.419
233.006	103.782
237.119	16.24
241.231	32.99
245.34	40.068
249.448	75.519
253.553	62.536
257.657	26.164
261.758	194.619
265.858	661.26
269.956	1441.57
274.052	2336.89
278.146	2786.12
282.237	2234.37
286.327	2222.35
290.416	4634.08
294.502	10255.3
298.586	16363.9
302.668	13641
306.749	8128.31
310.827	6069.08
314.903	4324.28
318.978	3663.25
323.051	3486.72
327.121	2272.45
331.19	1136.53
335.257	711.197
339.322	524.222
343.385	404.702
347.446	142.88
351.505	36.341
355.563	20.372
359.618	71.091
363.672	250.791
367.723	442.879
371.773	314.771
375.821	411.607
379.866	986.647
383.91	910.979
387.952	755.39
391.992	1111.82
396.031	1118.67
400.067	1155.36
404.101	1019.22
408.134	1083.26
412.165	1319.88
416.193	2047.5
420.22	4730.06
424.245	10601
428.268	14113.7
432.289	6115.22
436.309	2311.69
440.326	1080.1
444.342	650.395
448.355	490.586
452.367	380.533
456.377	252.178
460.385	318.658
464.391	531.809
468.395	961.615
472.398	1436.06
476.398	2173.15
480.397	3324.94
484.394	3722.38
488.389	3377.46
492.382	3024.19
496.373	2688.58
500.362	2080.62
504.349	1407.87
508.335	857.945
512.319	328.041
516.3	418.914
520.28	184.562
524.259	57.879
528.235	148.561
532.209	60.795
536.182	29.232
540.152	85.918
544.121	275.188
548.088	543.752
552.053	357.971
556.017	241.154
559.978	298.125
563.938	333.514
567.895	424.293
571.851	741.859
575.805	793.652
579.758	644.506
583.708	681.191
587.657	870.938
591.603	1689.21
595.548	2743.42
599.491	4841
603.432	5030.34
607.372	3133.88
611.309	2286.55
615.245	1797.13
619.179	2325.68
623.111	3366.3
627.041	5546.53
630.97	5826.11
634.896	5667.1
638.821	9059.5
642.744	18959.3
646.665	23815.5
650.584	12857.2
654.502	5840.19
658.418	2544.61
662.331	1630.42
666.244	1199.65
670.154	663.195
674.062	561.662
677.969	370.859
681.874	255.076
685.777	390.301
689.678	31.139
693.577	316.162
697.475	223.121
701.371	154.768
705.265	29.592
709.157	113.617
713.047	135.643
716.936	309.139
720.823	309.631
724.708	106.369
728.591	292.439
732.472	259.016
736.352	186.152
740.23	68.127
744.106	153.314
747.98	286.791
751.853	105.656
755.723	311.635
759.592	336.502
763.459	74.512
767.325	54.217
771.188	347.496
775.05	349.447
778.91	529.836
782.768	741.781
786.625	856.025
790.479	1759.66
794.332	2306.22
798.183	3145.73
802.033	3169.68
805.88	2979.08
809.726	2283.95
813.57	1776.3
817.413	1434.13
821.253	1001.45
825.092	847.277
828.929	570.619
832.764	595.533
836.598	170.137
840.429	437.811
844.259	212.943
848.088	106.824
851.914	43.605
855.739	190.059
859.562	1.449
863.383	206.115
867.203	16.322
871.02	241.242
874.836	155.031
878.65	20.887
882.463	142.363
886.274	186.039
890.083	225.957
893.89	201.566
897.695	45.504
901.499	114.752
905.301	221.982
909.102	155.752
912.9	47.244
916.697	310.488
920.492	384.127
924.285	28.25
928.077	131.541
931.867	194.686
935.655	205.971
939.442	508.223
943.226	306.4
947.009	263.523
950.791	274.572
954.57	249.602
958.348	486.873
962.124	870.199
965.899	1445.69
969.671	910.334
973.442	684.992
977.211	1534.6
980.979	1718.2
984.745	2414.9
988.509	2994.45
992.271	3788.05
996.032	5755.36
999.791	9073.02
1003.55	13524.5
1007.3	21283.1
1011.06	27575.5
1014.81	24580.6
1018.56	17055.2
1022.31	11397.7
1026.06	8933.59
1029.8	7677.68
1033.55	8597.73
1037.29	11594.1
1041.03	17166.4
1044.77	23386.1
1048.5	22923.4
1052.24	20359.6
1055.97	23511.4
1059.7	28030.3
1063.43	22625.7
1067.16	12746.6
1070.89	6878.86
1074.61	4459.31
1078.34	3302.72
1082.06	2739.94
1085.78	2862.95
1089.5	1944.77
1093.21	1364.03
1096.93	1718.47
1100.64	2072.03
1104.35	2992.72
1108.06	4368.44
1111.77	4519.35
1115.48	3353.43
1119.18	2816.62
1122.89	3104.49
1126.59	1891.98
1130.29	949.039
1133.99	813.574
1137.68	791.355
1141.38	145.57
1145.07	44.316
1148.76	132.957
1152.45	30.766
1156.14	83.73
1159.83	264.395
1163.51	90.59
1167.19	336.723
1170.88	356.754
1174.56	293.988
1178.23	788.051
1181.91	1047.21
1185.59	1908.54
1189.26	2235.94
1192.93	2343.23
1196.6	2079.7
1200.27	1455.25
1203.94	1516.13
1207.6	924.891
1211.27	639.848
1214.93	354.953
1218.59	294.676
1222.25	293.648
1225.9	225.586
1229.56	202.852
1233.21	1268.94
1236.86	405.973
1240.51	128.406
1244.16	120.457
1247.81	180.414
1251.45	353.785
1255.1	216.461
1258.74	204.484
1262.38	131.105
1266.02	995.266
1269.66	694.711
1273.29	92.379
1276.93	5.344
1280.56	136.512
1284.19	129.371
1287.82	26.836
1291.45	199.465
1295.07	21.586
1298.7	226.762
1302.32	12.156
1305.94	108.305
1309.56	109.422
1313.18	191.375
1316.8	62.73
1320.41	18.52
1324.02	156.637
1327.63	504.02
1331.24	28.586
1334.85	87.012
1338.46	135.504
1342.06	80.402
1345.67	320.039
1349.27	471.305
1352.87	741.109
1356.47	655.262
1360.07	450.938
1363.66	245.84
1367.25	393.078
1370.85	551.09
1374.44	471.289
1378.03	671.801
1381.61	473.371
1385.2	594.285
1388.78	373.648
1392.37	812.152
1395.95	775.539
1399.53	661.73
1403.1	756.992
1406.68	410.68
1410.26	554.746
1413.83	629.523
1417.4	442.383
1420.97	734.844
1424.54	112.273
1428.1	575.719
1431.67	283.148
1435.23	669.422
1438.8	894.617
1442.36	889.539
1445.91	889.898
1449.47	528.906
1453.03	988.164
1456.58	1044.38
1460.13	962.195
1463.68	545.195
1467.23	400.773
1470.78	334.805
1474.33	327.375
1477.87	391.641
1481.42	451.781
1484.96	505.492
1488.5	267.797
1492.04	305.996
1495.57	531.504
1499.11	152.27
1502.64	352.02
