Measurement: Raman, 532 nm, unoriented, Raman Data Processed
Mineral: Montroydite
Rruff sample: R140877
Ideal chemistry: HgO
Locality: Terlingua, Texas, USA
Source: Tom Loomis
Description: Red crystals with good cleavage, associated with yellow terlinguaite (R130878).
Raman shift (cm-1)	intensity
89.7832	0
93.158	2.22265
96.5328	0.011925
99.9077	0.926155
103.282	3.34194
106.657	8.76961
110.032	13.9271
113.407	18.4203
116.782	23.1363
120.157	28.6539
123.531	31.1926
126.906	28.9805
130.281	20.0262
133.656	15.0435
137.031	10.2922
140.405	7.7363
143.78	5.57368
147.155	5.10394
150.53	5.70895
153.905	5.4685
157.28	5.20308
160.654	6.25147
164.029	7.32064
167.404	10.1142
170.779	6.55814
174.154	5.41432
177.528	5.4286
180.903	5.45871
184.278	6.09428
187.653	5.73164
191.028	5.97627
194.403	4.77574
197.777	3.94209
201.152	4.35701
204.527	2.46945
207.902	2.16325
211.277	2.77417
214.651	4.58748
218.026	2.94253
221.401	0.543228
224.776	0.997833
228.151	0.631073
231.525	0.913269
234.9	1.44189
238.275	1.09949
241.65	0.821045
245.025	0.111038
248.4	0.024124
251.774	0.021423
255.149	2.64636
258.524	3.17406
261.899	4.47601
265.274	4.93652
268.649	5.77466
272.023	4.48776
275.398	4.01387
278.773	2.96726
282.148	1.62428
285.523	1.59099
288.897	9.51688
292.272	19.1131
295.647	35.3816
299.022	66.0364
302.397	115.692
305.772	207.815
309.146	369.333
312.521	621.154
315.896	941.466
319.271	1334.13
322.646	1850.83
326.02	2385.18
329.395	2477.22
332.77	1894.82
336.145	1206.33
339.52	756.505
342.894	493.885
346.269	343.803
349.644	248.74
353.019	189.876
356.394	147.255
359.769	117.908
363.143	94.7124
366.518	74.3489
369.893	57.0051
373.268	42.4534
376.643	31.0288
380.017	22.0215
383.392	12.4024
386.767	6.82532
390.142	6.88678
393.517	0.653076
396.892	1.83069
400.266	0.589325
403.641	0.467438
407.016	0.374023
410.391	0.604462
413.766	0.300964
417.14	1.01193
420.515	0.548279
423.89	0.472565
427.265	0.983276
430.64	0.441467
434.014	0.761902
437.389	0.3685
440.764	1.66327
444.139	2.54706
447.514	0.551819
450.889	1.21979
454.263	1.6766
457.638	3.13248
461.013	4.06085
464.388	5.12946
467.763	4.6904
471.137	5.17438
474.512	2.92453
477.887	1.90756
481.262	3.03964
484.637	3.73117
488.012	3.62918
491.386	3.77628
494.761	3.74533
498.136	1.00436
501.511	2.64429
504.886	2.88525
508.26	2.83701
511.635	2.30234
515.01	3.92456
518.385	3.72897
521.76	3.21243
525.135	4.68973
528.509	5.46027
531.884	7.27975
535.259	6.27701
538.634	10.8846
542.009	12.3517
545.384	17.6907
548.758	31.489
552.133	51.9428
555.508	77.155
558.883	113.458
562.258	185.383
565.632	216.319
569.007	130.1
572.382	50.0677
575.757	23.0744
579.132	9.31326
582.506	5.62402
585.881	5.52799
589.256	1.84552
592.631	0.414825
596.006	0.528137
599.381	0.602631
602.755	0.373474
606.13	0.051392
609.505	3.52508
612.88	5.40527
616.255	4.68359
619.63	12.7492
623.004	4.3418
626.379	5.96521
629.754	6.69922
633.129	4.73724
636.504	4.84473
639.878	3.61517
643.253	3.5473
646.628	3.72943
650.003	2.45905
653.378	2.03003
656.752	0.187317
660.127	0.89679
663.502	0.277283
666.877	0.294617
670.252	0.827026
673.626	0.987488
677.001	1.91028
680.376	0.030396
683.751	2.09283
687.126	0.080566
690.501	2.34784
693.875	0.482178
697.25	1.90253
700.625	2.02618
704	5.57367
707.375	5.02759
710.75	6.20239
714.124	5.32458
717.499	4.42609
720.874	5.66644
724.249	7.85925
727.624	6.62494
730.998	5.3971
734.373	5.61432
737.748	6.85638
741.123	6.34216
744.498	6.76538
747.872	6.7251
751.247	7.09796
754.622	9.86285
757.997	5.29419
761.372	2.40222
764.747	1.45782
768.121	2.23688
771.496	3.27576
774.871	3.48755
778.246	3.51062
781.621	3.2807
784.995	4.46722
788.37	3.51727
791.745	3.60449
795.12	1.47424
798.495	3.53693
801.87	0.370972
805.244	3.55017
808.619	5.52838
811.994	3.38489
815.369	4.69305
818.744	6.47675
822.119	4.62634
825.493	3.01746
828.868	0.515808
832.243	4.83032
835.618	2.47107
838.993	0.100037
842.367	1.39502
845.742	3.85022
849.117	2.20917
852.492	2.35626
855.867	4.28772
859.241	3.35498
862.616	1.10205
865.991	1.25977
869.366	1.20343
872.741	1.42291
876.115	1.00757
879.49	0.386902
882.865	2.5462
886.24	0.784302
889.615	2.59912
892.99	3.03821
896.364	2.38354
899.739	3.82312
903.114	5.41315
906.489	3.56915
909.864	3.34241
913.239	0.457153
916.613	2.22156
919.988	1.07141
923.363	1.01422
926.738	0.25061
930.113	0.903992
933.487	2.74725
936.862	2.49023
940.237	3.11371
943.612	4.69836
946.987	4.29736
950.361	4.97949
953.736	6.29846
957.111	0.42395
960.486	1.90417
963.861	4.64661
967.236	6.73035
970.61	5.39478
973.985	7.05432
977.36	8.15515
980.735	6.02014
984.11	9.25647
987.485	8.65747
990.859	7.97974
994.234	7.4563
997.609	5.61499
1000.98	8.34082
1004.36	6.81616
1007.73	6.70606
1011.11	7.98181
1014.48	6.32519
1017.86	0.851074
1021.23	5.37817
1024.61	3.87305
1027.98	7.37903
1031.36	4.20508
1034.73	5.92029
1038.11	4.47156
1041.48	5.47339
1044.86	7.55872
1048.23	12.307
1051.61	1.90308
1054.98	4.04065
1058.36	0.590698
1061.73	0.363525
1065.11	1.14294
1068.48	2.03967
1071.86	0.857666
1075.23	0.786133
1078.6	0.387207
1081.98	0.694458
1085.35	4.27942
1088.73	10.4769
1092.1	6.8949
1095.48	0.167114
1098.85	1.42139
1102.23	3.20996
1105.6	2.45459
1108.98	4.52893
1112.35	3.45312
1115.73	4.04651
1119.1	4.64758
1122.48	8.5863
1125.85	0.885742
1129.23	0.309937
1132.6	0.219849
1135.98	4.84265
1139.35	4.5614
1142.73	8.96277
1146.1	4.24793
1149.48	2.07959
1152.85	6.55591
1156.22	8.35303
1159.6	5.98083
1162.97	7.36743
1166.35	0.273315
1169.72	5.54919
1173.1	2.08203
1176.47	5.53357
1179.85	4.83008
1183.22	3.79529
1186.6	8.45276
1189.97	6.58789
1193.35	8.52429
1196.72	5.26245
1200.1	6.38586
1203.47	4.79346
1206.85	5.16821
1210.22	2.74146
1213.6	4.43115
1216.97	1.75891
1220.35	4.36011
1223.72	1.03479
1227.1	0.120728
1230.47	3.35828
1233.85	4.19385
1237.22	4.45239
1240.6	1.87671
1243.97	6.26318
1247.35	4.51367
1250.72	6.41174
1254.1	8.99219
1257.47	11.2711
1260.85	2.90588
1264.22	3.29248
1267.59	0.592041
1270.97	4.37305
1274.34	3.67261
1277.72	3.50915
1281.09	5.48254
1284.47	0.78772
1287.84	1.08191
1291.22	2.11133
1294.59	4.24609
1297.97	2.2456
1301.34	0.414307
