Measurement: Raman, 780 nm, unoriented, Raman Data Processed
Mineral: Monticellite
Rruff sample: R100108
Ideal chemistry: CaMgSiO_4_
Locality: Oka, Deux-montagnes County, Quebec, Canada
Source: American Museum of Natural History
Description: Pale brown transparent fragment
Measured chemistry: (Ca_0.959_Mg_0.474_Mn^+2^_0.305_Fe^+2^_0.268_Zn_0.002_)_Î£=2.008_Si_0.996_O_4_
Raman shift (cm-1)	intensity
128.174	0
131.549	0.881592
134.924	4.19812
138.298	7.14697
141.673	8.85153
145.048	5.11429
148.423	3.26602
151.798	5.49301
155.173	8.07864
158.547	14.4688
161.922	25.305
165.297	18.9137
168.672	14.822
172.047	7.0733
175.422	1.92017
178.796	2.10974
182.171	1.22232
185.546	0.497253
188.921	3.19498
192.296	2.34503
195.67	1.23703
199.045	3.41473
202.42	5.49399
205.795	4.48761
209.17	9.0903
212.544	3.75833
215.919	8.41855
219.294	7.06702
222.669	7.93085
226.044	6.06006
229.419	7.48373
232.793	12.5805
236.168	14.1971
239.543	15.415
242.918	15.1396
246.293	24.3668
249.667	27.8287
253.042	36.0664
256.417	34.418
259.792	21.1291
263.167	12.6145
266.542	4.70132
269.916	3.64935
273.291	1.78003
276.666	2.5397
280.041	0.228027
283.416	1.94626
286.791	2.09747
290.165	6.73029
293.54	10.3425
296.915	16.0112
300.29	13.8559
303.665	13.3003
307.039	14.0518
310.414	15.8139
313.789	23.1528
317.164	25.6866
320.539	35.1204
323.913	41.7225
327.288	43.4407
330.663	44.7672
334.038	39.5394
337.413	37.2571
340.788	30.1452
344.162	30.0823
347.537	27.7538
350.912	23.2298
354.287	22.815
357.662	19.2268
361.036	17.8606
364.411	13.093
367.786	14.4683
371.161	10.8296
374.536	13.8668
377.911	13.6173
381.285	18.6536
384.66	24.0712
388.035	37.4555
391.41	46.9703
394.785	53.7114
398.159	57.2784
401.534	53.4412
404.909	45.6576
408.284	29.4458
411.659	16.9867
415.034	5.80905
418.408	2.53641
421.783	0.403656
425.158	1.60175
428.533	0.070557
431.908	0.908783
435.282	0.289764
438.657	2.05695
442.032	2.12213
445.407	4.51517
448.782	4.16068
452.156	6.8331
455.531	6.23697
458.906	9.50992
462.281	7.64865
465.656	8.94162
469.031	9.33881
472.405	4.31088
475.78	5.35919
479.155	5.737
482.53	5.41907
485.905	3.8562
489.279	0.251221
492.654	4.43805
496.029	2.01187
499.404	2.63347
502.779	0.982941
506.154	0.696533
509.528	1.63866
512.903	3.31885
516.278	0.414291
519.653	0.308624
523.028	2.09534
526.403	7.23447
529.777	7.81227
533.152	2.65845
536.527	2.84737
539.902	2.50087
543.277	2.93504
546.651	1.68321
550.026	4.3333
553.401	5.60661
556.776	6.96361
560.151	8.80632
563.525	8.88716
566.9	11.7475
570.275	13.2076
573.65	12.5404
577.025	10.8965
580.399	9.05815
583.774	7.68204
587.149	5.077
590.524	3.39714
593.899	1.79044
597.274	3.37863
600.649	1.2628
604.023	2.13001
607.398	2.48415
610.773	2.9323
614.148	1.01239
617.523	1.2252
620.897	0.958298
624.272	1.71553
627.647	2.68758
631.022	1.01238
634.397	1.95587
637.771	2.72008
641.146	1.88895
644.521	2.83415
647.896	2.79305
651.271	5.87442
654.646	3.5697
658.02	4.17354
661.395	4.01537
664.77	2.37541
668.145	4.44319
671.52	4.16742
674.894	3.86969
678.269	2.50336
681.644	2.86214
685.019	1.79246
688.394	0.758026
691.769	2.66538
695.143	0.067535
698.518	1.37575
701.893	0.990921
705.268	1.23457
708.643	1.09959
712.018	1.31578
715.392	1.55525
718.767	1.04346
722.142	1.13585
725.517	0.912552
728.891	0.256348
732.266	0.090424
735.641	0.757813
739.016	1.37459
742.391	2.16513
745.766	3.41765
749.14	1.03349
752.515	0.36499
755.89	1.46945
759.265	0.999908
762.64	2.9265
766.014	2.31963
769.389	2.58101
772.764	1.4023
776.139	3.01399
779.514	3.30327
782.889	3.66856
786.263	6.31297
789.638	11.2397
793.013	17.2036
796.388	29.9074
799.763	50.6263
803.138	84.2789
806.512	138.411
809.887	218.579
813.262	311.244
816.637	331.114
820.012	249.635
823.386	144.609
826.761	86.7408
830.136	62.2564
833.511	52.4575
836.886	54.3087
840.26	73.2536
843.635	103.384
847.01	127.446
850.385	117.218
853.76	81.145
857.135	43.2413
860.509	22.6691
863.884	10.4568
867.259	4.009
870.634	1.00301
874.009	0.092896
877.384	1.23181
880.758	2.11977
884.133	3.80385
887.508	7.80077
890.883	14.6496
894.258	24.4847
897.632	38.5922
901.007	34.81
904.382	13.8982
907.757	3.03765
911.132	0.978462
914.506	1.36269
917.881	1.07806
921.256	1.00715
924.631	2.30912
928.006	6.35908
931.381	11.4625
934.755	18.3883
938.13	26.0107
941.505	28.0494
944.88	16.9833
948.255	10.2331
951.63	5.65885
955.004	4.4707
958.379	6.89675
961.754	7.9457
965.129	5.12366
968.504	3.13528
971.878	2.07099
975.253	0.059853
978.628	0.674355
982.003	1.43784
985.378	0.319916
988.752	0.871773
992.127	1.64214
995.502	0.278969
998.877	0.884804
1002.25	1.65234
1005.63	1.03658
1009	0.464928
1012.38	2.97511
1015.75	0.341171
1019.13	0.471535
1022.5	1.01341
1025.88	1.87457
1029.25	0.599701
1032.62	3.03616
1036	0.567902
1039.38	0.547951
1042.75	1.04917
1046.12	0.516083
1049.5	1.80904
1052.87	0.602333
1056.25	1.04588
1059.62	2.5402
1063	2.94419
1066.37	3.70196
1069.75	2.64301
1073.12	3.06452
1076.5	4.09197
1079.87	4.82195
1083.25	4.2749
1086.62	6.49981
1090	6.28793
1093.37	7.95685
1096.75	7.84289
1100.12	9.93944
1103.5	9.22377
1106.87	12.4237
1110.25	11.7498
1113.62	14.0595
1116.99	15.5659
1120.37	16.7294
1123.74	18.62
1127.12	18.6212
1130.49	19.1098
1133.87	20.6334
1137.24	21.4588
1140.62	22.7409
1143.99	24.6222
1147.37	25.4407
1150.74	29.4752
1154.12	30.3625
1157.49	31.3141
1160.87	32.22
1164.24	33.36
1167.62	28.6684
1170.99	28.0559
1174.37	24.7525
1177.74	20.715
1181.12	19.13
1184.49	14.0939
1187.87	10.5383
1191.24	9.3911
1194.62	4.66693
1197.99	2.93573
1201.37	1.6427
1204.74	3.29416
1208.12	4.14499
1211.49	4.53278
1214.87	5.35611
1218.24	0.841309
1221.62	0.705841
1224.99	4.72153
1228.37	13.0565
1231.74	27.6721
1235.11	36.9105
1238.49	45.9861
1241.86	60.33
1245.24	73.6032
1248.61	76.8712
1251.99	85.1902
1255.36	97.7065
1258.74	108.217
1262.11	114.19
1265.49	112.299
1268.86	108.978
1272.24	96.7551
1275.61	73.2563
1278.99	44.2414
1282.36	14.5401
1285.74	0
