Measurement: Raman, 780 nm, unoriented, Raman Data Processed
Mineral: Montroydite
Rruff sample: R140877
Ideal chemistry: HgO
Locality: Terlingua, Texas, USA
Source: Tom Loomis
Description: Red crystals with good cleavage, associated with yellow terlinguaite (R130878).
Raman shift (cm-1)	intensity
91.5599	0
94.9347	0.501051
98.3096	0.464555
101.684	0.737038
105.059	2.75152
108.434	4.46389
111.809	6.47052
115.184	9.55137
118.558	12.9063
121.933	16.4582
125.308	20.428
128.683	22.5512
132.058	19.7975
135.433	13.2229
138.807	6.42628
142.182	2.99742
145.557	1.32912
148.932	0.611894
152.307	0.128123
155.681	0.216383
159.056	0.192888
162.431	0.951494
165.806	2.64387
169.181	1.34779
172.555	0.558221
175.93	0.298048
179.305	0.356574
182.68	0.444805
186.055	0.365634
189.43	0.631805
192.804	0.673488
196.179	0.384623
199.554	0.555572
202.929	0.512617
206.304	0.405597
209.678	0.865848
213.053	0.317488
216.428	0.082355
219.803	0.034649
223.178	0.14045
226.553	0.134279
229.927	0.217819
233.302	0.125337
236.677	0.256778
240.052	0.075388
243.427	0.371644
246.801	0.329938
250.176	0.179393
253.551	0.400641
256.926	0.715789
260.301	0.500073
263.675	0.838596
267.05	0.607589
270.425	0.912803
273.8	0.600322
277.175	0.134936
280.55	0.686719
283.924	0.410143
287.299	1.47351
290.674	3.46609
294.049	6.25879
297.424	12.7951
300.798	21.9695
304.173	39.8526
307.548	69.6795
310.923	114.049
314.298	169.463
317.673	239.917
321.047	341.875
324.422	468.639
327.797	556.791
331.172	485.956
334.547	321.876
337.921	197.853
341.296	126.687
344.671	85.1978
348.046	60.7176
351.421	45.0137
354.796	34.9344
358.17	27.3189
361.545	22.3516
364.92	17.3972
368.295	14.1154
371.67	10.8293
375.044	7.89153
378.419	5.92894
381.794	3.80857
385.169	2.4902
388.544	1.59314
391.918	1.01977
395.293	0.573122
398.668	0.413744
402.043	0.09819
405.418	0.264087
408.793	0.053181
412.167	0.023002
415.542	0.347077
418.917	0.271791
422.292	0.215172
425.667	0.08312
429.041	0.165624
432.416	0.179248
435.791	0.329408
439.166	0.257716
442.541	0.435417
445.915	0.335005
449.29	0.850352
452.665	0.681395
456.04	1.13905
459.415	1.07508
462.789	1.53258
466.164	1.70279
469.539	1.58347
472.914	1.04482
476.289	1.11504
479.664	0.647689
483.038	0.584403
486.413	0.40303
489.788	0.134382
493.163	0.361908
496.538	0.246264
499.913	0.122818
503.287	0.225276
506.662	0.190604
510.037	0.074587
513.412	0.449447
516.787	0.679809
520.161	0.743742
523.536	0.94457
526.911	1.03088
530.286	1.3626
533.661	1.93754
537.035	2.39181
540.41	3.06098
543.785	5.13571
547.16	8.81505
550.535	16.4558
553.909	22.6106
557.284	33.0519
560.659	52.7187
564.034	83.3761
567.409	71.7935
570.784	27.5952
574.158	11.0859
577.533	5.14863
580.908	2.71081
584.283	1.41106
587.658	0.653346
591.033	0.296137
594.407	0.004928
597.782	0.089669
601.157	0.055755
604.532	0.018937
607.907	0.003556
611.281	0.122144
614.656	0.117617
618.031	0.114371
621.406	0.140084
624.781	0.001213
628.155	0.289652
631.53	0.15783
634.905	0.156707
638.28	0.220562
641.655	0.038591
645.029	0.058128
648.404	0.053806
651.779	0.218984
655.154	0.128536
658.529	0.11374
661.904	0.029899
665.278	0.102844
668.653	0.012432
672.028	0.00803
675.403	0.013676
678.778	0.082218
682.153	0.146017
685.527	0.110631
688.902	0.158737
692.277	0.265858
695.652	0.239366
699.027	0.136658
702.401	0.362757
705.776	0.339908
709.151	0.327344
712.526	0.373279
715.901	0.223558
719.275	0.396426
722.65	0.383689
726.025	0.03196
729.4	0.265921
732.775	0.25905
736.149	0.24715
739.524	0.23531
742.899	0.225405
746.274	0.172226
749.649	0.248279
753.024	0.243202
756.398	0.210111
759.773	0.257148
763.148	0.185459
766.523	0.079954
769.898	0.180793
773.273	0.18541
776.647	0.277386
780.022	0.150848
783.397	0.057132
786.772	0.145361
790.146	0.161473
793.521	0.119278
796.896	0.128732
800.271	0.117145
803.646	0.052291
807.021	0.149232
810.395	0.069814
813.77	0.117719
817.145	0.17363
820.52	0.191374
823.895	0.082375
827.269	0.193503
830.644	0.25163
834.019	0.276857
837.394	0.151262
840.769	0.17948
844.144	0.193434
847.518	0.363201
850.893	0.05027
854.268	0.064998
857.643	0.352028
861.018	0.130704
864.393	0.150072
867.767	0.104318
871.142	0.348172
874.517	0.208801
877.892	0.13579
881.266	0.144801
884.641	0.153063
888.016	0.142486
891.391	0.216522
894.766	0.075279
898.141	0.077497
901.515	0.132997
904.89	0.25791
908.265	0.011598
911.64	0.101345
915.015	0.260825
918.389	0.00048
921.764	0.246738
925.139	0.116793
928.514	0.079628
931.889	0.009294
935.264	0.010355
938.638	0.155288
942.013	0.071978
945.388	0.055789
948.763	0.1061
952.138	0.317996
955.512	0.132159
958.887	0.122062
962.262	0.278092
965.637	0.225315
969.012	0.223828
972.386	0.179838
975.761	0.084236
979.136	0.218697
982.511	0.236269
985.886	0.116656
989.261	0.191227
992.635	0.270791
996.01	0.196992
999.385	0.188487
1002.76	0.195573
1006.13	0.102907
1009.51	0.347515
1012.88	0.29444
1016.26	0.366725
1019.63	0.201511
1023.01	0.062205
1026.38	0.089722
1029.76	0.066948
1033.13	0.083598
1036.51	0.138205
1039.88	0.199361
1043.26	0.078391
1046.63	0.215588
1050.01	0.085499
1053.38	0.070166
1056.76	0.033632
1060.13	0.042938
1063.51	0.111573
1066.88	0.01127
1070.26	0.119842
1073.63	0.043636
1077.01	0.2256
1080.38	0.099295
1083.76	0.106675
1087.13	0.362738
1090.51	0.106117
1093.88	0.143682
1097.26	0.157078
1100.63	0.062945
1104	0.285987
1107.38	0.266496
1110.75	0.127809
1114.13	0.252427
1117.5	0.145829
1120.88	0.188975
1124.25	0.187743
1127.63	0.107894
1131	0.021443
1134.38	0.2222
1137.75	0.366674
1141.13	0.304655
1144.5	0.271215
1147.88	0.128489
1151.25	0.029031
1154.63	0.156292
1158	0.128559
1161.38	0.184997
1164.75	0.205841
1168.13	0.050639
1171.5	0.042136
1174.88	0.234502
1178.25	0.173265
1181.62	0.164682
1185	0.022629
1188.38	0.180229
1191.75	0.183542
1195.12	0.034164
1198.5	0.24653
1201.87	0.121915
1205.25	0.083461
1208.62	0.153646
1212	0.15813
1215.37	0.031006
1218.75	0.206399
1222.12	0.144419
1225.5	0.173939
1228.87	0.134789
1232.25	0.176006
1235.62	0.129352
1239	0.339712
1242.37	0.318224
1245.75	0.079816
1249.12	0.188621
1252.5	0.272368
1255.87	0.330921
1259.25	0.16389
1262.62	0.239272
1265.99	0.146905
1269.37	0.463561
1272.74	0.464004
1276.12	0.414549
1279.49	0.334625
1282.87	0.558546
