Measurement: Raman, 780 nm, unoriented, Raman Data Processed
Mineral: Monticellite
Rruff sample: R100107
Ideal chemistry: CaMgSiO_4_
Locality: Crestmore, Riverside County, California, USA
Source: American Museum of Natural History
Description: White to dirty-white massive
Measured chemistry: (Ca_1.021_Mg_0.896_Fe^+2^_0.086_Mn^+2^_0.003_)_Î£=2.006_Si_0.996_O_4_
Raman shift (cm-1)	intensity
91.5332	0
94.908	20.2466
98.2828	10.2255
101.658	3.59592
105.032	8.83377
108.407	10.9395
111.782	0.183899
115.157	1.55456
118.532	1.35097
121.907	0.476563
125.281	3.50229
128.656	6.55429
132.031	4.83441
135.406	8.32097
138.781	26.1733
142.155	73.64
145.53	24.6773
148.905	11.1163
152.28	20.5939
155.655	34.309
159.03	53.3619
162.404	107.944
165.779	136.134
169.154	88.9085
172.529	139.575
175.904	42.7257
179.278	8.08257
182.653	1.94524
186.028	0.157654
189.403	0.449295
192.778	2.59671
196.153	0.736206
199.527	1.0724
202.902	1.25847
206.277	1.96312
209.652	5.13693
213.027	8.79781
216.401	22.8335
219.776	11.5535
223.151	10.797
226.526	6.98824
229.901	17.2458
233.275	27.6702
236.65	38.8185
240.025	62.4362
243.4	81.7947
246.775	107.193
250.15	145.782
253.524	245.527
256.899	502.188
260.274	423.25
263.649	149.24
267.024	87.5621
270.399	55.1594
273.773	45.2989
277.148	40.876
280.523	21.8205
283.898	9.19806
287.273	6.50047
290.647	7.56724
294.022	15.6915
297.397	25.4346
300.772	58.0218
304.147	92.6759
307.522	112.089
310.896	47.1461
314.271	12.5628
317.646	4.29486
321.021	4.92569
324.396	6.75772
327.77	14.7911
331.145	23.9106
334.52	22.5018
337.895	12.8525
341.27	4.09666
344.644	0.421097
348.019	0.362656
351.394	0.094284
354.769	0.670807
358.144	1.15558
361.519	1.293
364.893	1.09053
368.268	5.10642
371.643	5.78662
375.018	9.55861
378.393	13.4118
381.767	24.3418
385.142	42.6743
388.517	66.4495
391.892	104.809
395.267	160.289
398.642	250.173
402.016	356.634
405.391	455.306
408.766	485.357
412.141	404.665
415.516	242.876
418.89	122.595
422.265	66.7179
425.64	40.2489
429.015	27.9633
432.39	22.4585
435.765	12.4957
439.139	9.65015
442.514	7.54071
445.889	7.96066
449.264	4.9567
452.639	4.93498
456.014	5.0706
459.388	2.42217
462.763	1.03667
466.138	0.471405
469.513	1.99744
472.887	0.478912
476.262	1.83923
479.637	0.768829
483.012	1.48827
486.387	2.5759
489.762	0.904739
493.136	0.160904
496.511	0.278519
499.886	1.45233
503.261	1.15562
506.636	1.14247
510.01	4.25131
513.385	9.40573
516.76	13.8109
520.135	22.804
523.51	32.5436
526.885	64.6765
530.259	129.063
533.634	189.373
537.009	120.891
540.384	54.7832
543.759	31.9962
547.134	18.1952
550.508	18.4727
553.883	20.6827
557.258	25.9713
560.633	29.4638
564.008	31.0703
567.382	40.51
570.757	50.4773
574.132	66.4788
577.507	76.979
580.882	87.0569
584.256	97.5662
587.631	99.0497
591.006	85.9887
594.381	56.3352
597.756	31.4196
601.131	20.1828
604.505	10.3428
607.88	8.93324
611.255	5.38345
614.63	1.99507
618.005	6.74716
621.38	1.59096
624.754	0.410706
628.129	2.28731
631.504	1.39557
634.879	2.24448
638.254	1.19556
641.628	0.404114
645.003	0.768784
648.378	1.99568
651.753	4.41109
655.128	4.75079
658.503	4.86768
661.877	5.37825
665.252	3.12752
668.627	7.28871
672.002	5.50748
675.377	9.6786
678.751	7.90926
682.126	6.40726
685.501	8.10384
688.876	9.61592
692.251	10.2767
695.625	5.33357
699	7.78192
702.375	8.58934
705.75	4.47572
709.125	7.96995
712.5	7.36882
715.874	7.90898
719.249	5.89796
722.624	4.38983
725.999	5.39735
729.374	5.10918
732.749	3.90437
736.123	4.46535
739.498	1.1617
742.873	1.94151
746.248	1.5723
749.623	0.562988
752.997	2.40857
756.372	2.32568
759.747	3.90817
763.122	2.94003
766.497	2.17825
769.871	1.22965
773.246	2.65439
776.621	3.07785
779.996	1.6507
783.371	7.84845
786.745	8.25836
790.12	19.1833
793.495	34.2287
796.87	55.974
800.245	100.282
803.62	181.892
806.994	304.418
810.369	510.834
813.744	945.315
817.119	1660.9
820.494	1569.58
823.869	822.465
827.243	449.871
830.618	302.344
833.993	261.953
837.368	311.358
840.743	449.698
844.117	796.635
847.492	1628.51
850.867	2435.7
854.242	1366.57
857.617	572.631
860.991	275.012
864.366	160.423
867.741	95.6227
871.116	62.7784
874.491	46.5543
877.866	37.5791
881.24	37.3242
884.615	25.9337
887.99	23.9107
891.365	35.065
894.74	75.2336
898.115	164.972
901.489	133.556
904.864	37.283
908.239	8.23978
911.614	1.9295
914.989	5.48663
918.363	2.11966
921.738	3.6095
925.113	2.48813
928.488	1.6853
931.863	10.9172
935.237	22.6018
938.612	43.56
941.987	90.8578
945.362	206.263
948.737	348.784
952.112	176.595
955.486	73.2565
958.861	33.8374
962.236	20.7513
965.611	11.8261
968.986	10.2074
972.361	7.23935
975.735	5.96454
979.11	3.53784
982.485	0.399139
985.86	0.183258
989.235	3.48495
992.609	5.84988
995.984	0.548309
999.359	1.01608
1002.73	3.44833
1006.11	3.13477
1009.48	4.84427
1012.86	8.47229
1016.23	6.28571
1019.61	6.11523
1022.98	5.88803
1026.36	8.08652
1029.73	4.81854
1033.11	6.54822
1036.48	6.45572
1039.86	4.09112
1043.23	6.78488
1046.61	1.19354
1049.98	1.41473
1053.36	2.4183
1056.73	0.787384
1060.11	0.63916
1063.48	1.89389
1066.86	3.24594
1070.23	1.36142
1073.61	0.867706
1076.98	4.31509
1080.36	1.42108
1083.73	6.75772
1087.1	10.6781
1090.48	3.86484
1093.85	1.02414
1097.23	1.59909
1100.6	1.50806
1103.98	2.72211
1107.35	1.69061
1110.73	0.446625
1114.1	0.996307
1117.48	0.582092
1120.85	1.92129
1124.23	3.65546
1127.6	2.29977
1130.98	1.0611
1134.35	2.25446
1137.73	1.42117
1141.1	3.23251
1144.48	1.27426
1147.85	2.76239
1151.23	4.53891
1154.6	3.36179
1157.97	1.39035
1161.35	2.2356
1164.72	1.7605
1168.1	4.73413
1171.47	6.48935
1174.85	7.74146
1178.22	8.31961
1181.6	5.3472
1184.97	4.85654
1188.35	6.98621
1191.72	6.47809
1195.1	5.84033
1198.47	9.95782
1201.85	4.06436
1205.22	2.51746
1208.6	3.16763
1211.97	3.83597
1215.35	0.686035
1218.72	1.56497
1222.1	5.92407
1225.47	1.60904
1228.85	2.39362
1232.22	3.27216
1235.6	3.72562
1238.97	2.57819
1242.35	1.36407
1245.72	6.14844
1249.1	1.08249
1252.47	3.91244
1255.85	3.76724
1259.22	3.20905
1262.6	3.08518
1265.97	3.47818
1269.34	2.57401
1272.72	0.542847
1276.09	2.46881
1279.47	3.25241
1282.84	1.8641
