Measurement: Raman, 780 nm, unoriented, Raman Data Processed
Mineral: Monticellite
Rruff sample: R100106
Ideal chemistry: CaMgSiO_4_
Locality: Crestmore, Riverside County, California, USA
Source: American Museum of Natural History
Description: Colorless to light gray translucent crystals associated with pale yellow vesuvianite
Measured chemistry: (Ca_1.017_Mg_0.916_Fe^+2^_0.070_Mn^+2^_0.006_Zn_0.001_)_Î£=2.010_Si_0.995_O_4_
Raman shift (cm-1)	intensity
115.157	0
118.532	0.290939
121.907	1.84119
125.281	3.73039
128.656	13.3121
132.031	12.3595
135.406	6.78326
138.781	8.41278
142.155	18.1566
145.53	26.3431
148.905	16.7446
152.28	10.264
155.655	13.9037
159.03	22.6622
162.404	32.3355
165.779	44.7702
169.154	28.8211
172.529	38.5313
175.904	18.5215
179.278	0.487762
182.653	1.17732
186.028	0.092941
189.403	6.12444
192.778	0.070099
196.153	1.60426
199.527	3.02664
202.902	8.7205
206.277	9.69264
209.652	12.8849
213.027	15.827
216.401	25.8838
219.776	23.1858
223.151	16.076
226.526	20.1194
229.901	25.667
233.275	30.386
236.65	29.6028
240.025	38.7518
243.4	42.7821
246.775	50.2578
250.15	53.3706
253.524	65.2538
256.899	91.0173
260.274	92.6252
263.649	34.9162
267.024	21.1017
270.399	15.3047
273.773	10.7576
277.148	9.63549
280.523	7.08658
283.898	4.06396
287.273	3.24696
290.647	5.88292
294.022	7.31879
297.397	13.0899
300.772	16.9347
304.147	27.1889
307.522	31.2521
310.896	17.5934
314.271	7.5336
317.646	3.93766
321.021	4.35937
324.396	7.68612
327.77	11.1453
331.145	19.1578
334.52	20.7547
337.895	7.95841
341.27	1.33084
344.644	1.10467
348.019	0.738976
351.394	2.62415
354.769	1.96803
358.144	0.815063
361.519	0.85585
364.893	4.14167
368.268	3.19971
371.643	8.56184
375.018	12.7402
378.393	17.8408
381.767	26.484
385.142	43.5702
388.517	62.6624
391.892	84.0105
395.267	103.999
398.642	136.773
402.016	165.647
405.391	173.773
408.766	165.701
412.141	117.692
415.516	73.5572
418.89	36.2472
422.265	19.4758
425.64	13.1065
429.015	6.39138
432.39	4.54443
435.765	7.03815
439.139	3.29839
442.514	1.98849
445.889	1.54196
449.264	4.7791
452.639	0.763046
456.014	4.12595
459.388	3.02777
462.763	2.7325
466.138	3.69773
469.513	4.54884
472.887	2.65593
476.262	1.91618
479.637	0.310097
483.012	0.526421
486.387	3.5128
489.762	3.30814
493.136	4.38286
496.511	1.56452
499.886	2.76159
503.261	0.899712
506.636	1.05065
510.01	3.48574
513.385	4.98726
516.76	9.87887
520.135	15.2604
523.51	18.5173
526.885	27.0597
530.259	40.9686
533.634	57.8376
537.009	41.7568
540.384	15.1851
543.759	9.29653
547.134	2.22326
550.508	5.57472
553.883	7.21936
557.258	7.68111
560.633	8.2349
564.008	11.7324
567.382	11.1837
570.757	17.058
574.132	20.8261
577.507	22.5329
580.882	18.3365
584.256	18.6141
587.631	12.681
591.006	11.8258
594.381	8.67544
597.756	8.93406
601.131	2.14955
604.505	7.7393
607.88	1.07167
611.255	0.407127
614.63	0.816963
618.005	5.10611
621.38	7.68801
624.754	2.6314
628.129	2.37121
631.504	1.39204
634.879	2.32394
638.254	2.83189
641.628	4.61608
645.003	2.47933
648.378	1.27289
651.753	0.58371
655.128	3.62202
658.503	3.81899
661.877	3.37071
665.252	4.75269
668.627	4.61575
672.002	5.97818
675.377	7.8902
678.751	6.01215
682.126	12.223
685.501	14.1126
688.876	18.3151
692.251	18.2209
695.625	12.5558
699	12.4567
702.375	9.829
705.75	7.45558
709.125	4.26839
712.5	2.70503
715.874	5.5313
719.249	0.419609
722.624	3.46097
725.999	2.51065
729.374	1.48902
732.749	2.36496
736.123	3.50222
739.498	3.13193
742.873	0.544533
746.248	1.41305
749.623	1.04696
752.997	1.78744
756.372	2.52727
759.747	1.26525
763.122	1.52361
766.497	0.514992
769.871	1.01508
773.246	0.400917
776.621	0.591316
779.996	0.031868
783.371	4.63898
786.745	6.1134
790.12	7.18343
793.495	9.14952
796.87	25.7616
800.245	42.6554
803.62	86.6438
806.994	150.912
810.369	214.002
813.744	321.094
817.119	456
820.494	429.97
823.869	238.704
827.243	135.17
830.618	91.854
833.993	88.019
837.368	131.673
840.743	197.407
844.117	278.89
847.492	426.947
850.867	569.817
854.242	354.773
857.617	149.368
860.991	71.7754
864.366	43.5185
867.741	28.9621
871.116	14.6831
874.491	15.8764
877.866	13.0631
881.24	15.0343
884.615	16.2981
887.99	31.1158
891.365	37.9458
894.74	66.424
898.115	104.925
901.489	81.1373
904.864	21.4683
908.239	3.02873
911.614	1.41084
914.989	0.038315
918.363	0.866539
921.738	0.10601
925.113	0.500954
928.488	4.47475
931.863	7.51599
935.237	14.0425
938.612	26.2294
941.987	40.7618
945.362	65.0038
948.737	100.034
952.112	62.7904
955.486	25.4801
958.861	13.8773
962.236	8.13364
965.611	8.04318
968.986	4.50727
972.361	6.56686
975.735	7.40335
979.11	3.13073
982.485	0.638828
985.86	0.359467
989.235	0.885921
992.609	1.47607
995.984	1.23891
999.359	2.71609
1002.73	4.47718
1006.11	5.28702
1009.48	2.3694
1012.86	3.35496
1016.23	3.98341
1019.61	5.08153
1022.98	6.55406
1026.36	7.89138
1029.73	9.441
1033.11	2.58334
1036.48	3.40002
1039.86	4.42754
1043.23	5.01683
1046.61	3.66569
1049.98	4.79229
1053.36	1.35796
1056.73	1.08819
1060.11	1.4618
1063.48	3.6885
1066.86	0.751339
1070.23	3.46062
1073.61	0.592579
1076.98	3.4887
1080.36	7.27287
1083.73	4.48801
1087.1	7.45161
1090.48	3.32544
1093.85	3.21983
1097.23	3.07641
1100.6	7.62904
1103.98	7.06324
1107.35	4.80964
1110.73	5.64904
1114.1	2.42789
1117.48	1.61002
1120.85	0.674873
1124.23	1.13592
1127.6	5.01395
1130.98	3.42394
1134.35	0.630035
1137.73	1.13005
1141.1	0.825569
1144.48	3.73123
1147.85	1.12334
1151.23	3.61762
1154.6	1.26116
1157.97	2.30331
1161.35	2.34649
1164.72	4.8604
1168.1	3.76119
1171.47	1.30349
1174.85	2.98832
1178.22	6.5305
1181.6	2.45694
1184.97	5.93927
1188.35	6.11631
1191.72	7.99852
1195.1	6.39142
1198.47	8.04242
1201.85	6.28933
1205.22	2.35308
1208.6	5.27616
1211.97	0.802231
1215.35	5.70601
1218.72	1.0783
1222.1	0.617863
1225.47	4.99233
1228.85	2.44245
1232.22	2.58482
1235.6	4.48819
1238.97	2.85349
1242.35	1.03913
1245.72	2.65844
1249.1	3.91214
1252.47	6.88379
1255.85	4.8814
1259.22	4.10924
1262.6	6.06202
1265.97	3.56979
1269.34	3.95883
1272.72	1.50686
1276.09	1.6551
1279.47	0.457638
1282.84	7.2713
