Measurement: Raman, 532 nm, unoriented, Raman Data Processed
Mineral: Montgomeryite
Rruff sample: R080094
Ideal chemistry: Ca_4_MgAl_4_(PO_4_)_6_(OH)_4_12H_2_O
Locality: Tur√≥ de Montcada, Montcada i Reixac, Barcelona, Catalonia, Spain
Source: Joan Abella i Creus
Description: Lime green clusters of flattened laths
Raman shift (cm-1)	intensity
150.69	0
153.582	6.87003
156.475	22.6212
159.368	27.7582
162.26	24.2325
165.153	11.6266
168.046	7.40204
170.939	5.41956
173.831	3.75919
176.724	5.05786
179.617	4.12476
182.509	9.3295
185.402	16.5505
188.295	19.1304
191.187	22.8145
194.08	25.7833
196.973	27.237
199.865	25.564
202.758	18.9071
205.651	9.49078
208.544	3.01584
211.436	2.96426
214.329	1.28461
217.222	2.78082
220.114	0.80484
223.007	1.5755
225.9	4.62051
228.792	10.5085
231.685	15.1771
234.578	18.0041
237.471	22.1578
240.363	22.9825
243.256	27.3939
246.149	31.1084
249.041	33.1477
251.934	40.3279
254.827	46.2944
257.719	52.8518
260.612	57.334
263.505	63.7478
266.398	65.7546
269.29	67.4777
272.183	62.2144
275.076	59.7855
277.968	59.344
280.861	61.4336
283.754	58.3029
286.647	57.239
289.539	55.9066
292.432	54.5506
295.325	52.7935
298.217	49.6859
301.11	46.57
304.003	45.1659
306.895	42.4333
309.788	40.5402
312.681	34.4023
315.574	31.2069
318.466	24.2483
321.359	15.9124
324.252	11.4493
327.144	6.34656
330.037	3.49942
332.93	2.23645
335.822	2.34198
338.715	0.239594
341.608	1.59573
344.5	1.10797
347.393	0.925293
350.286	2.26807
353.179	0.358978
356.071	0.132294
358.964	0.885803
361.857	2.25088
364.75	6.30746
367.642	9.16757
370.535	12.6386
373.428	20.2391
376.32	26.1599
379.213	32.7511
382.106	41.6848
384.998	49.1145
387.891	52.4672
390.784	50.1823
393.676	39.6211
396.569	30.0646
399.462	20.2739
402.355	14.0809
405.247	8.33575
408.14	0.864929
411.033	1.0112
413.925	0.902313
416.818	1.18912
419.711	3.23456
422.603	0.939697
425.496	0.005493
428.389	4.08746
431.282	6.51123
434.174	12.0548
437.067	19.9791
439.96	28.7847
442.852	40.0757
445.745	52.637
448.638	66.8353
451.531	80.9167
454.423	91.956
457.316	96.6661
460.209	91.6878
463.101	78.9615
465.994	67.9528
468.887	55.0863
471.779	46.6934
474.672	35.3898
477.565	29.7581
480.457	22.2293
483.35	20.2113
486.243	21.8505
489.136	26.4366
492.028	35.8285
494.921	48.3316
497.814	67.3208
500.706	83.8897
503.599	99.177
506.492	109.872
509.385	106.291
512.277	90.1288
515.17	65.4865
518.063	46.31
520.955	28.6457
523.848	18.3418
526.741	10.559
529.633	8.56339
532.526	6.76419
535.419	4.54074
538.312	0.620178
541.204	0.310669
544.097	0.765533
546.99	1.59961
549.882	0.078094
552.775	1.84427
555.668	2.22437
558.56	4.36676
561.453	6.66736
564.346	9.33377
567.239	13.4883
570.131	19.4255
573.024	26.5682
575.917	37.4683
578.809	45.2809
581.702	56.4524
584.595	63.7513
587.487	67.6862
590.38	67.405
593.273	68.8261
596.165	65.068
599.058	57.9994
601.951	50.9939
604.844	42.8102
607.736	36.2137
610.629	27.1339
613.522	19.3074
616.414	13.0671
619.307	8.63028
622.2	3.49274
625.092	1.85989
627.985	0.669708
630.878	0.566956
633.771	3.01944
636.663	2.82822
639.556	2.30762
642.449	0.562866
645.341	1.64609
648.234	0.57074
651.127	0.37796
654.019	0.76474
656.912	1.1701
659.805	3.01547
662.698	2.21561
665.59	0.436584
668.483	0.490143
671.376	1.11542
674.268	0.328766
677.161	0.126984
680.054	0.03363
682.947	0.758392
685.839	1.0542
688.732	0.212006
691.625	0.720551
694.517	0.504517
697.41	1.6911
700.303	3.8403
703.195	3.9736
706.088	4.36023
708.981	3.51196
711.874	4.34644
714.766	4.88138
717.659	4.5899
720.552	7.58664
723.444	7.90121
726.337	8.62872
729.23	9.27679
732.122	9.49646
735.015	7.789
737.908	9.76666
740.801	10.0046
743.693	7.86939
746.586	8.74228
749.479	9.79227
752.371	8.83597
755.264	9.6832
758.157	9.98193
761.049	9.65094
763.942	8.78494
766.835	8.00446
769.727	8.47986
772.62	8.86514
775.513	7.45593
778.406	5.54721
781.298	5.20184
784.191	5.88419
787.084	4.03766
789.976	5.17136
792.869	4.5628
795.762	5.48895
798.654	4.88959
801.547	3.49573
804.44	4.14356
807.333	5.31192
810.225	4.6387
813.118	4.37219
816.011	4.21469
818.903	6.00195
821.796	5.74054
824.689	4.99695
827.582	5.77994
830.474	6.13879
833.367	4.78934
836.26	7.10672
839.152	6.08704
842.045	7.72046
844.938	6.20371
847.83	5.55838
850.723	4.64569
853.616	5.51529
856.509	2.54486
859.401	1.61716
862.294	1.40875
865.187	2.01724
868.079	0.624481
870.972	0.384644
873.865	0.378387
876.757	0.247437
879.65	0.117493
882.543	0.736053
885.436	3.12872
888.328	0.228241
891.221	0.02243
894.114	0.933441
897.006	0.331024
899.899	0.624969
902.792	0.99231
905.684	0.324829
908.577	1.21771
911.47	3.23331
914.362	4.01486
917.255	6.31519
920.148	6.53009
923.041	7.64993
925.933	9.2963
928.826	9.66748
931.719	11.0979
934.611	8.93927
937.504	11.0535
940.397	10.7065
943.289	13.4053
946.182	17.0538
949.075	22.9275
951.968	28.9886
954.86	39.8415
957.753	50.0355
960.646	61.6918
963.538	78.0496
966.431	99.6923
969.324	121.221
972.216	142
975.109	159.64
978.002	168.869
980.895	164.449
983.787	157.605
986.68	157.284
989.573	174.16
992.465	202.556
995.358	244.863
998.251	298.415
1001.14	350.026
1004.04	397.664
1006.93	424.021
1009.82	416.287
1012.71	398.334
1015.61	364.507
1018.5	299.66
1021.39	217.797
1024.29	133.242
1027.18	86.0318
1030.07	55.1597
1032.96	35.7288
1035.86	22.0841
1038.75	13.1739
1041.64	6.64481
1044.53	1.67984
1047.43	1.67706
1050.32	3.34189
1053.21	5.56457
1056.11	2.20685
1059	0.852936
1061.89	2.90353
1064.78	8.02335
1067.68	12.5749
1070.57	20.4475
1073.46	26.8841
1076.35	30.6498
1079.25	34.5564
1082.14	35.8068
1085.03	34.2525
1087.92	33.4081
1090.82	32.4572
1093.71	31.7326
1096.6	30.806
1099.49	26.24
1102.39	25.9075
1105.28	21.5964
1108.17	21.9556
1111.07	17.2985
1113.96	17.6598
1116.85	16.0443
1119.74	18.6339
1122.64	20.0808
1125.53	24.8068
1128.42	29.7573
1131.32	37.2673
1134.21	41.7434
1137.1	46.4468
1139.99	48.4149
1142.89	53.0351
1145.78	52.3336
1148.67	52.3244
1151.56	49.2575
1154.46	40.6137
1157.35	32.0601
1160.24	22.4682
1163.13	14.5254
1166.03	9.86569
1168.92	5.69308
1171.81	2.04575
1174.71	1.30426
1177.6	0.416504
1180.49	0.272858
1183.38	0.576691
1186.28	0.840271
1189.17	0.628265
1192.06	0.009064
1194.95	0.828735
1197.85	0.656647
1200.74	0.300293
1203.63	0.254669
1206.53	0.750854
1209.42	0.119293
1212.31	2.33148
1215.2	2.98331
1218.1	3.81369
1220.99	2.37003
1223.88	3.03473
1226.77	4.69748
1229.67	6.11957
1232.56	5.55005
1235.45	5.76141
1238.35	2.76584
1241.24	2.96741
1244.13	3.75369
1247.02	2.95038
1249.92	3.20996
1252.81	3.60168
1255.7	1.17566
1258.59	2.758
1261.49	0.926025
1264.38	2.95895
1267.27	2.1311
1270.16	2.01172
1273.06	1.05038
1275.95	1.46283
1278.84	1.5834
1281.73	1.13965
1284.63	1.24719
1287.52	2.67978
1290.41	3.4765
1293.31	0.487732
1296.2	0.942413
1299.09	1.83121
1301.98	0.566498
