Measurement: Raman, 785 nm, unoriented, Raman Data Processed
Mineral: Monticellite
Rruff sample: R040115
Ideal chemistry: CaMgSiO_4_
Locality: Magnet Cove, Arkansas, USA
Source: University of Arizona Mineral Museum
Description: Brown blebs in matrix
Measured chemistry: Ca_0.99_(Mg_0.85_ Fe_0.12_Mn_0.03_)Si_1.00_O_4_
Raman shift (cm-1)	intensity
166.338	0
169.231	171.734
172.124	291.023
175.017	180.576
177.909	77.835
180.802	23.3574
183.695	63.1709
186.587	88.2022
189.48	94.5264
192.373	98.6934
195.265	178.84
198.158	195.294
201.051	313.607
203.944	285.556
206.836	233.358
209.729	202.28
212.622	211.67
215.514	179.161
218.407	239.39
221.3	292.568
224.192	293.586
227.085	270.19
229.978	296.603
232.87	300.8
235.763	281.223
238.656	508.627
241.549	600.174
244.441	753.795
247.334	806.905
250.227	1144.99
253.119	1516.23
256.012	2363.02
258.905	2692.33
261.798	1627.5
264.69	887.985
267.583	575.343
270.476	407.278
273.368	240.086
276.261	175.746
279.154	110.587
282.046	37.7266
284.939	162.178
287.832	184.262
290.724	156.558
293.617	194.486
296.51	175.393
299.403	251.472
302.295	342.585
305.188	433.755
308.081	279.7
310.973	180.762
313.866	52.957
316.759	19.0117
319.651	15.1533
322.544	43.999
325.437	110.37
328.33	103.947
331.222	129.015
334.115	83.7822
337.008	29.0889
339.9	48.3496
342.793	64.4131
345.686	38.6504
348.579	5.4834
351.471	40.4668
354.364	75.2949
357.257	39.3975
360.149	17.7139
363.042	16.3809
365.935	50.8291
368.827	84.7793
371.72	133.698
374.613	179.671
377.505	248.395
380.398	339.518
383.291	312.308
386.184	417.481
389.076	595.681
391.969	857.185
394.862	1228.23
397.754	1653.71
400.647	2186
403.54	2811
406.433	3125.68
409.325	3058.53
412.218	2532.89
415.111	1624.5
418.003	1051.2
420.896	640.554
423.789	457.349
426.681	325.49
429.574	158.696
432.467	206.731
435.36	135.198
438.252	150.239
441.145	111.202
444.038	128.58
446.93	149.565
449.823	162.614
452.716	138.895
455.608	147.532
458.501	109.796
461.394	193.71
464.286	189.666
467.179	244.277
470.072	239.772
472.965	219.539
475.857	151.06
478.75	129.956
481.643	142.835
484.535	79.0772
487.428	82.6963
490.321	63.7022
493.214	72.4092
496.106	31.7988
498.999	10.8115
501.892	33.125
504.784	1.41602
507.677	31.0166
510.57	23.877
513.462	9.16309
516.355	80.2236
519.248	116.457
522.14	181.035
525.033	322.018
527.926	570.085
530.819	901.38
533.711	1004.77
536.604	633.102
539.497	299.083
542.389	147.973
545.282	102.753
548.175	129.48
551.067	130.331
553.96	79.1592
556.853	97.7393
559.745	198.329
562.638	185.091
565.531	317.625
568.424	343.267
571.316	559.253
574.209	613.144
577.102	785.613
579.994	947.961
582.887	1120.48
585.78	1253.42
588.673	1065.42
591.565	925.019
594.458	618.964
597.351	389.038
600.243	272.104
603.136	167.776
606.029	119.272
608.921	88.5019
611.814	87.6992
614.707	7.87988
617.6	27.6055
620.492	67.9287
623.385	24.6113
626.278	14.9346
629.17	30.9512
632.063	22.2598
634.956	15.4824
637.848	9.84424
640.741	29.8486
643.634	26.4932
646.527	19.1836
649.419	15.9033
652.312	44.8408
655.205	26.1035
658.097	70.644
660.99	79.4482
663.883	53.2808
666.775	35.3003
669.668	78.2334
672.561	53.5859
675.454	25.3145
678.346	111.841
681.239	130.7
684.132	38.1943
687.024	115.63
689.917	90.3213
692.81	97.3276
695.702	88.1304
698.595	132.911
701.488	95.1738
704.381	116.314
707.273	102.543
710.166	113.633
713.059	82.354
715.951	82.6812
718.844	80.5903
721.737	2.91846
724.63	75.4165
727.522	18.4243
730.415	86.1987
733.308	23.2041
736.2	21.979
739.093	24.9717
741.986	37.0415
744.878	11.5337
747.771	38.916
750.664	2.42725
753.557	1.34912
756.449	15.8286
759.342	0.73584
762.235	22.8398
765.127	9.85205
768.02	29.106
770.913	12.4863
773.805	26.7417
776.698	28.8857
779.591	1.2124
782.484	46.3726
785.376	152.976
788.269	163.544
791.162	302.554
794.054	411.647
796.947	625.578
799.84	1010.42
802.732	1561.78
805.625	2735.19
808.518	4712.44
811.41	7636.48
814.303	11882.2
817.196	15051.4
820.089	13076.5
822.981	8172.22
825.874	4758.99
828.767	3017.85
831.659	2263.12
834.552	2067.27
837.445	2350.48
840.337	3467.99
843.23	5702.17
846.123	8914.69
849.016	12057
851.908	10559.2
854.801	5999.79
857.694	3118.73
860.586	1657.1
863.479	981.332
866.372	565.228
869.264	416.008
872.157	328.108
875.05	244.252
877.943	229.984
880.835	177.09
883.728	81.2295
886.621	44.9639
889.513	66.9551
892.406	141.684
895.299	271.979
898.192	339.243
901.084	292.05
903.977	89.8984
906.87	17.8535
909.762	8.6416
912.655	59.0903
915.548	22.5337
918.44	18.7251
921.333	4.97656
924.226	9.18262
927.119	32.5825
930.011	52.0679
932.904	149.981
935.797	302.944
938.689	607.767
941.582	1082.59
944.475	1893.95
947.367	2279.05
950.26	1633.33
953.153	864.068
956.045	437.875
958.938	329.026
961.831	246.504
964.724	157.852
967.616	170.433
970.509	109.887
973.402	51.2266
976.294	41.1352
979.187	52.0957
982.08	58.4941
984.972	42.0181
987.865	79.3984
990.758	49.6963
993.651	39.5366
996.543	38.3281
999.436	50.0532
1002.33	83.9292
1005.22	12.3652
1008.11	91.2647
1011.01	60.9346
1013.9	110.03
1016.79	101.158
1019.68	91.7353
1022.58	61.9663
1025.47	83.2612
1028.36	10.4053
1031.26	73.7681
1034.15	57.3682
1037.04	82.2017
1039.93	23.1079
1042.83	58.6973
1045.72	58.1475
1048.61	18.8984
1051.51	59.1787
1054.4	28.2471
1057.29	35.8687
1060.18	10.8027
1063.08	67.0693
1065.97	56.0571
1068.86	60.6621
1071.75	60.9697
1074.65	85.0889
1077.54	43.3413
1080.43	7.23438
1083.32	28.0864
1086.22	20.9077
1089.11	75.1191
1092	53.9268
1094.89	44.3594
1097.79	39.8565
1100.68	6.47266
1103.57	51.1011
1106.47	40.3008
1109.36	15.5366
1112.25	17.4204
1115.14	15.0181
1118.04	32.0752
1120.93	20.3467
1123.82	35.7876
1126.71	17.5371
1129.61	16.7417
1132.5	31.3682
1135.39	24.7407
1138.29	41.8765
1141.18	33.4985
1144.07	48.8613
1146.96	38.5078
1149.86	11.3525
1152.75	43.6392
1155.64	98.1553
1158.53	45.8579
1161.43	64.1211
1164.32	79.8926
1167.21	133.103
1170.11	175.546
1173	157.662
1175.89	248.292
1178.78	299.924
1181.68	313.106
1184.57	353.81
1187.46	434.443
1190.35	392.132
1193.25	491.463
1196.14	521.962
1199.03	509.841
1201.92	487.382
1204.82	465.26
1207.71	420.148
1210.6	360.522
1213.5	332.188
1216.39	327.523
1219.28	205.873
1222.17	209.66
1225.07	159.59
1227.96	85.6138
1230.85	86.9248
1233.74	41.4795
1236.64	16.2856
1239.53	22.0278
