Measurement: Raman, 532 nm, unoriented, Raman Data Processed
Mineral: Monticellite
Rruff sample: R100106
Ideal chemistry: CaMgSiO_4_
Locality: Crestmore, Riverside County, California, USA
Source: American Museum of Natural History
Description: Colorless to light gray translucent crystals associated with pale yellow vesuvianite
Measured chemistry: (Ca_1.017_Mg_0.916_Fe^+2^_0.070_Mn^+2^_0.006_Zn_0.001_)_Î£=2.010_Si_0.995_O_4_
Raman shift (cm-1)	intensity
152.685	0
155.578	6.77672
158.471	17.1849
161.363	27.5198
164.256	51.3154
167.149	50.4626
170.041	49.4406
172.934	66.8305
175.827	33.3407
178.72	13.4202
181.612	8.43991
184.505	7.65508
187.398	7.62415
190.29	3.92496
193.183	4.01283
196.076	9.1712
198.968	0.953781
201.861	2.00516
204.754	2.04324
207.647	3.21611
210.539	4.72935
213.432	6.70219
216.325	9.94458
219.217	11.791
222.11	1.61153
225.003	3.3974
227.895	7.50619
230.788	12.9279
233.681	14.1959
236.573	12.0707
239.466	16.8232
242.359	34.2427
245.252	46.9892
248.144	56.2551
251.037	78.1796
253.93	101.148
256.822	151.9
259.715	186.821
262.608	82.3243
265.5	31.8003
268.393	21.0118
271.286	15.5747
274.179	11.823
277.071	11.6606
279.964	7.07779
282.857	1.97253
285.75	5.14417
288.642	1.00342
291.535	2.55978
294.428	8.61649
297.32	11.37
300.213	19.9259
303.106	32.6313
305.998	45.8451
308.891	48.9442
311.784	22.422
314.676	6.96777
317.569	0.446014
320.462	4.53888
323.355	5.2399
326.247	9.38919
329.14	12.1169
332.033	19.1887
334.925	19.4925
337.818	10.2388
340.711	5.29736
343.603	1.85312
346.496	0.134247
349.389	1.03482
352.281	0.626923
355.174	0.381836
358.067	1.1124
360.96	2.85028
363.852	5.87305
366.745	7.87872
369.638	10.1893
372.53	9.5
375.423	14.6126
378.316	17.7331
381.209	27.8373
384.101	35.5268
386.994	51.1478
389.887	63.1492
392.779	78.6277
395.672	97.2637
398.565	128.396
401.457	165.557
404.35	182.45
407.243	193.596
410.135	180.08
413.028	142.459
415.921	95.1029
418.814	55.4373
421.706	33.1628
424.599	22.1643
427.492	13.705
430.384	8.1821
433.277	6.9378
436.17	6.09918
439.062	7.31091
441.955	2.95941
444.848	0.804657
447.741	0.70163
450.633	4.02966
453.526	0.349152
456.419	0.740448
459.311	4.07358
462.204	2.87897
465.097	2.1926
467.99	4.7117
470.882	2.70441
473.775	1.8493
476.668	0.749176
479.56	0.898163
482.453	2.4892
485.346	0.546295
488.238	0.937439
491.131	3.48453
494.024	0.900452
496.916	2.18542
499.809	0.55542
502.702	0.788025
505.595	2.44665
508.487	1.25503
511.38	3.51022
514.273	3.86685
517.165	5.45978
520.058	10.0145
522.951	11.9665
525.844	19.1134
528.736	30.8068
531.629	48.2199
534.522	55.4912
537.414	38.3573
540.307	16.8173
543.2	8.59061
546.092	1.96051
548.985	2.61517
551.878	1.46704
554.771	3.04089
557.663	2.12552
560.556	2.74857
563.449	6.51254
566.341	8.02679
569.234	12.325
572.127	15.0443
575.019	15.7996
577.912	18.8729
580.805	20.1952
583.697	16.0957
586.59	14.2726
589.483	13.6049
592.376	9.10269
595.268	5.84412
598.161	4.82953
601.054	3.45465
603.946	3.32956
606.839	1.60767
609.732	4.2959
612.625	2.29453
615.517	3.26202
618.41	6.46887
621.303	10.402
624.195	10.9944
627.088	12.8036
629.981	11.1438
632.873	13.2687
635.766	11.0117
638.659	9.06302
641.552	6.92664
644.444	4.00854
647.337	0.673187
650.23	1.12033
653.122	1.0531
656.015	0.858063
658.908	1.05716
661.8	0.751404
664.693	2.67441
667.586	2.74777
670.479	2.33896
673.371	4.48407
676.264	5.57346
679.157	7.33426
682.049	12.2321
684.942	15.3142
687.835	18.7251
690.727	23.4906
693.62	20.3622
696.513	15.9294
699.405	13.3845
702.298	8.38672
705.191	8.64215
708.084	6.30689
710.976	4.66382
713.869	6.35275
716.762	3.33224
719.654	3.37787
722.547	0.851227
725.44	2.66089
728.332	0.830994
731.225	2.67954
734.118	0.264587
737.011	1.13751
739.903	0.50589
742.796	2.62711
745.689	1.83575
748.581	1.3338
751.474	1.94141
754.367	0.538666
757.26	0.27597
760.152	2.69424
763.045	0.973694
765.938	1.08389
768.83	2.70065
771.723	0.9216
774.616	1.39221
777.508	1.97519
780.401	0.485962
783.294	1.46213
786.187	5.37552
789.079	7.5369
791.972	13.1513
794.865	22.0655
797.757	34.3847
800.65	61.4588
803.543	110.048
806.435	190.202
809.328	287.52
812.221	427.196
815.114	639.238
818.006	847.575
820.899	772.881
823.792	456.652
826.684	264.036
829.577	178.834
832.47	143.681
835.362	162.78
838.255	246.989
841.148	366.247
844.04	525.824
846.933	793.817
849.826	1129.1
852.719	1080.68
855.611	557.262
858.504	263.638
861.397	142.007
864.289	86.8106
867.182	53.2041
870.075	37.1182
872.967	26.641
875.86	21.5797
878.753	20.585
881.646	19.8183
884.538	16.239
887.431	24.1738
890.324	38.9942
893.216	55.9553
896.109	98.0231
899.002	142.099
901.894	108.537
904.787	36.6023
907.68	11.3606
910.573	4.491
913.465	0.690979
916.358	3.76114
919.251	1.00812
922.143	2.15488
925.036	1.54633
927.929	1.02057
930.822	2.58212
933.714	3.83426
936.607	13.3116
939.5	23.4081
942.392	38.1473
945.285	61.3514
948.178	95.0567
951.07	89.5488
953.963	42.9737
956.856	19.9713
959.749	10.9019
962.641	5.5303
965.534	6.85873
968.427	2.81894
971.319	2.78732
974.212	4.71747
977.105	4.50617
979.997	4.10223
982.89	2.82523
985.783	0.32074
988.676	2.15985
991.568	2.03915
994.461	0.71405
997.354	1.06589
1000.25	0.130768
1003.14	1.76404
1006.03	2.78223
1008.92	3.93808
1011.82	7.39542
1014.71	7.63147
1017.6	7.62073
1020.5	7.01419
1023.39	8.43231
1026.28	7.51953
1029.17	5.74106
1032.07	4.58047
1034.96	5.71582
1037.85	5.97485
1040.74	3.42902
1043.64	2.60226
1046.53	1.61044
1049.42	1.49118
1052.32	2.9129
1055.21	2.16156
1058.1	0.336578
1060.99	1.48459
1063.89	0.576141
1066.78	0.743317
1069.67	1.04474
1072.56	2.42511
1075.46	3.70364
1078.35	2.21701
1081.24	5.70071
1084.13	4.70322
1087.03	4.9924
1089.92	4.64426
1092.81	4.83197
1095.7	2.63113
1098.6	4.7446
1101.49	6.21469
1104.38	5.09427
1107.28	6.20923
1110.17	3.90457
1113.06	4.12174
1115.95	4.35367
1118.85	4.14099
1121.74	4.34265
1124.63	2.88251
1127.53	3.40735
1130.42	1.37991
1133.31	2.08667
1136.2	3.8287
1139.1	1.72821
1141.99	0.357605
1144.88	2.62427
1147.77	0.937897
1150.67	0.205139
1153.56	4.2432
1156.45	4.6973
1159.35	1.48279
1162.24	0.313049
1165.13	2.40888
1168.02	2.76556
1170.92	3.19968
1173.81	2.34213
1176.7	1.97949
1179.59	2.97549
1182.49	1.76202
1185.38	3.44428
1188.27	2.80716
1191.16	3.79996
1194.06	1.45764
1196.95	1.4263
1199.84	4.5571
1202.73	2.91305
1205.63	0.016418
1208.52	3.08688
1211.41	1.4541
1214.31	3.09021
1217.2	4.19824
1220.09	1.56723
1222.98	3.16733
1225.88	2.19894
1228.77	4.59628
1231.66	0.839111
1234.56	0.173706
1237.45	2.78757
1240.34	1.29233
1243.23	1.3996
1246.13	1.00006
1249.02	3.87302
1251.91	3.883
1254.8	3.82053
1257.7	2.35507
1260.59	2.54141
1263.48	2.16974
1266.38	0.58197
1269.27	7.85342
1272.16	6.94339
1275.05	3.52094
1277.95	2.33389
1280.84	1.30408
1283.73	0.322113
1286.62	2.0676
1289.52	1.93478
1292.41	3.85223
1295.3	1.62582
1298.19	4.75131
1301.09	6.06815
