Measurement: Raman, 532 nm, unoriented, Raman Data Processed
Mineral: Monticellite
Rruff sample: R100108
Ideal chemistry: CaMgSiO_4_
Locality: Oka, Deux-montagnes County, Quebec, Canada
Source: American Museum of Natural History
Description: Pale brown transparent fragment
Measured chemistry: (Ca_0.959_Mg_0.474_Mn^+2^_0.305_Fe^+2^_0.268_Zn_0.002_)_Î£=2.008_Si_0.996_O_4_
Raman shift (cm-1)	intensity
127.615	0
130.99	4.3816
134.365	0.388527
137.74	0.910934
141.114	12.0441
144.489	26.3186
147.864	32.5799
151.239	55.0776
154.614	85.7216
157.988	108.873
161.363	126.442
164.738	130.959
168.113	101.598
171.488	86.9704
174.863	64.0031
178.237	53.1258
181.612	47.2546
184.987	41.8509
188.362	38.7125
191.737	34.0113
195.112	30.5281
198.486	27.3792
201.861	23.4065
205.236	19.9491
208.611	19.8594
211.986	16.7906
215.36	13.4194
218.735	10.6465
222.11	11.1353
225.485	9.23207
228.86	14.5388
232.234	22.1866
235.609	34.5952
238.984	47.2902
242.359	63.7947
245.734	91.9291
249.109	116.896
252.483	150.021
255.858	157.89
259.233	105.808
262.608	52.9082
265.983	28.7004
269.358	15.3427
272.732	4.05701
276.107	1.38222
279.482	0.501633
282.857	3.19687
286.232	9.9102
289.606	20.98
292.981	28.7778
296.356	38.9872
299.731	39.8277
303.106	20.8436
306.481	6.11585
309.855	0.524857
313.23	1.04921
316.605	1.52718
319.98	4.26269
323.355	5.16196
326.729	6.82295
330.104	6.95799
333.479	1.94019
336.854	0.563721
340.229	0.801544
343.603	0.100433
346.978	0.506378
350.353	0.436691
353.728	1.5152
357.103	2.94694
360.478	5.22078
363.852	7.82271
367.227	11.716
370.602	16.9033
373.977	27.1242
377.352	38.8431
380.726	59.8399
384.101	88.7782
387.476	127.151
390.851	169.199
394.226	212.519
397.601	245.5
400.975	253.721
404.35	223.085
407.725	155.944
411.1	98.2835
414.475	62.4399
417.849	41.2134
421.224	28.9579
424.599	20.3088
427.974	17.4883
431.349	14.1843
434.724	12.7473
438.098	7.81
441.473	7.62814
444.848	6.94984
448.223	4.21442
451.598	6.11752
454.972	3.31103
458.347	2.70619
461.722	3.26248
465.097	0.494797
468.472	1.58807
471.846	0.477264
475.221	0.165588
478.596	0.042542
481.971	0.59111
485.346	1.4122
488.721	1.50418
492.095	0.349991
495.47	1.02777
498.845	0.841599
502.22	2.17764
505.595	6.82341
508.969	5.4314
512.344	9.62695
515.719	12.7433
519.094	17.0924
522.469	27.7186
525.844	38.5746
529.218	38.0179
532.593	29.4226
535.968	16.8714
539.343	13.8946
542.718	14.8736
546.092	15.6556
549.467	19.9598
552.842	24.5947
556.217	30.0881
559.592	36.0503
562.967	48.1723
566.341	60.4888
569.716	74.0923
573.091	86.91
576.466	91.6752
579.841	92.8165
583.216	82.2994
586.59	62.9786
589.965	46.899
593.34	30.2127
596.715	20.7947
600.09	13.5659
603.464	8.59447
606.839	3.97798
610.214	1.84068
613.589	3.18356
616.964	0.451263
620.338	2.34433
623.713	0.206787
627.088	1.48348
630.463	0.069916
633.838	0.560333
637.212	1.27457
640.587	1.16423
643.962	0.327591
647.337	0.508057
650.712	0.186325
654.087	3.52428
657.461	5.666
660.836	2.14027
664.211	3.56979
667.586	2.38916
670.961	3.89297
674.335	4.11427
677.71	6.56728
681.085	4.09134
684.46	5.20505
687.835	3.02797
691.21	3.4463
694.584	5.63109
697.959	2.09602
701.334	3.9492
704.709	5.1848
708.084	3.87283
711.458	4.67448
714.833	4.89061
718.208	1.84619
721.583	0.586502
724.958	4.25926
728.332	2.51212
731.707	0.323303
735.082	0.850601
738.457	0.200424
741.832	1.29109
745.207	0.206573
748.581	0.88652
751.956	1.2645
755.331	0.24794
758.706	0.674591
762.081	2.23949
765.456	1.43201
768.83	0.371536
772.205	3.29536
775.58	7.69072
778.955	12.8492
782.33	17.0903
785.704	29.2235
789.079	47.2011
792.454	72.8665
795.829	126.203
799.204	222.857
802.578	389.71
805.953	638.047
809.328	968.602
812.703	1327.86
816.078	1464.21
819.453	1187.66
822.827	733.227
826.202	456.338
829.577	340.278
832.952	318.609
836.327	366.057
839.702	492.081
843.076	678.82
846.451	835.361
849.826	807.991
853.201	576.736
856.576	330.535
859.95	175.447
863.325	92.3926
866.7	50.4979
870.075	27.5454
873.45	12.7909
876.824	6.69382
880.199	2.19595
883.574	1.32352
886.949	4.85178
890.324	12.9819
893.698	25.6429
897.073	37.9315
900.448	36.6894
903.823	13.6406
907.198	0.844498
910.573	3.49702
913.947	5.3752
917.322	3.0957
920.697	3.93132
924.072	18.1477
927.447	37.2883
930.822	73.1633
934.196	120.02
937.571	182.037
940.946	199.667
944.321	140.843
947.696	78.2352
951.07	41.8275
954.445	30.1387
957.82	20.586
961.195	15.8705
964.57	12.2279
967.944	4.98329
971.319	5.6705
974.694	0.765747
978.069	1.16042
981.444	0.676941
984.819	1.90717
988.193	0.359299
991.568	1.68478
994.943	0.299271
998.318	2.18886
1001.69	3.4485
1005.07	3.26856
1008.44	2.66237
1011.82	3.40849
1015.19	3.0036
1018.57	4.24915
1021.94	3.76471
1025.32	2.2572
1028.69	2.82268
1032.07	3.18018
1035.44	4.67525
1038.82	1.97768
1042.19	3.66899
1045.57	0.654175
1048.94	2.60649
1052.32	1.38229
1055.69	2.67618
1059.07	0.970398
1062.44	0.186996
1065.81	1.6579
1069.19	0.176727
1072.56	0.51062
1075.94	1.72505
1079.31	0.850723
1082.69	1.65125
1086.06	2.03795
1089.44	1.72537
1092.81	0.745682
1096.19	2.34578
1099.56	2.22119
1102.94	1.0256
1106.31	1.88792
1109.69	2.93637
1113.06	1.99983
1116.44	1.48117
1119.81	3.03406
1123.19	1.45474
1126.56	0.891312
1129.94	2.73695
1133.31	2.16119
1136.68	3.03381
1140.06	1.77045
1143.43	3.57497
1146.81	2.74428
1150.18	3.89886
1153.56	4.87389
1156.93	4.5022
1160.31	2.93945
1163.68	3.06541
1167.06	3.01442
1170.43	2.65082
1173.81	3.2813
1177.18	4.65549
1180.56	3.68834
1183.93	2.47817
1187.31	1.79938
1190.68	2.64357
1194.06	4.55406
1197.43	0.903198
1200.81	2.14331
1204.18	0.908661
1207.56	2.57652
1210.93	3.54176
1214.31	1.91013
1217.68	1.19708
1221.06	0.111557
1224.43	0.961777
1227.81	1.61891
1231.18	2.21474
1234.56	2.51909
1237.93	3.72394
1241.31	1.6799
1244.68	0.842056
1248.05	1.34071
1251.43	1.50272
1254.8	2.44357
1258.18	2.12364
1261.55	3.49313
1264.93	2.18959
1268.3	2.62405
1271.68	1.41538
1275.05	2.08316
1278.43	1.47055
1281.8	0.459412
1285.18	0.638931
1288.55	1.29804
1291.93	1.495
1295.3	1.57346
1298.68	2.65747
1302.05	0.922409
