Measurement: Raman, 532 nm, unoriented, Raman Data Processed
Mineral: Montroseite
Rruff sample: R060576
Ideal chemistry: (V^3+^,Fe^2+^,V^4+^)O(OH)
Locality: Number Mesa 5 mine, Temple Mountain, Emery County, Utah, USA
Source: Michael Scott
Description: Steel gray, submetallic, massive
Raman shift (cm-1)	intensity
118.63	0
122.005	625.515
125.38	3813.1
128.755	9783.07
132.13	18843.8
135.504	29392.8
138.879	34766.5
142.254	29178.4
145.629	17902.8
149.004	9567.02
152.378	4852.51
155.753	2057.72
159.128	684.043
162.503	114.48
165.878	192.622
169.253	12.791
172.627	22.697
176.002	38.432
179.377	176.322
182.752	151.504
186.127	720.654
189.501	993.19
192.876	906.475
196.251	502.513
199.626	239.405
203.001	10.903
206.376	13.091
209.75	27.61
213.125	11.978
216.5	4.46
219.875	132.434
223.25	206.791
226.624	125.893
229.999	84.711
233.374	186.131
236.749	193.972
240.124	219.851
243.499	363.061
246.873	536.376
250.248	794.406
253.623	904.768
256.998	1274.61
260.373	1862.02
263.747	2661.15
267.122	3935.24
270.497	5686.29
273.872	7858.42
277.247	9990.99
280.621	10965.2
283.996	9652.6
287.371	7879.17
290.746	6668.17
294.121	5845.55
297.496	5456.73
300.87	4816.31
304.245	4222.76
307.62	3460.82
310.995	2768.06
314.37	2020.22
317.744	1560
321.119	1166.65
324.494	935.45
327.869	709.717
331.244	626.682
334.618	445.307
337.993	253.659
341.368	17.95
344.743	37.971
348.118	49.122
351.493	14.486
354.867	14.039
358.242	39.717
361.617	13.881
364.992	26.192
368.367	23.764
371.741	76.709
375.116	77.63
378.491	210.942
381.866	450.813
385.241	776.23
388.616	1308.61
391.99	2008.98
395.365	2815.78
398.74	3521.23
402.115	4090
405.49	4048.4
408.865	3360.46
412.239	2446.19
415.614	1557.05
418.989	860.239
422.364	413.442
425.738	107.824
429.113	41.861
432.488	14.734
435.863	57.062
439.238	74.575
442.613	129.523
445.987	258.036
449.362	394.867
452.737	581.182
456.112	597.332
459.487	773.32
462.862	917.463
466.236	1145.01
469.611	1083.83
472.986	1077.05
476.361	1104.92
479.736	912.095
483.11	1004.11
486.485	870.087
489.86	855.157
493.235	839.936
496.61	732.834
499.984	1001.75
503.359	1045.83
506.734	1158.06
510.109	1397.33
513.484	1504.98
516.859	1652.52
520.233	1730.16
523.608	1827.59
526.983	1815.72
530.358	1565.63
533.733	1408.95
537.107	1100.04
540.482	1006.79
543.857	1005.29
547.232	869.754
550.607	659.69
553.982	480.192
557.356	291.915
560.731	249.486
564.106	202.623
567.481	106.445
570.856	107.303
574.23	70.647
577.605	27.32
580.98	34.003
584.355	100.86
587.73	12.959
591.104	7.08
594.479	37.202
597.854	72.665
601.229	75.917
604.604	34.949
607.979	49.023
611.353	24.201
614.728	8.345
618.103	108.724
621.478	164.57
624.853	376.028
628.227	206.388
631.602	357.502
634.977	353.161
638.352	441.44
641.727	432.435
645.102	525.377
648.476	547.815
651.851	780.628
655.226	833.852
658.601	1011.68
661.976	1123.84
665.35	1394.51
668.725	1658.86
672.1	1945.7
675.475	2105.98
678.85	2529.33
682.224	2728.54
685.599	3091.77
688.974	3104.96
692.349	2977.84
695.724	2860.45
699.099	2413.25
702.473	2044.65
705.848	1703.38
709.223	1462.23
712.598	1189.09
715.973	1002.08
719.347	951.117
722.722	876.69
726.097	803.202
729.472	726.517
732.847	643.247
736.222	541.014
739.596	446.249
742.971	405.851
746.346	343.236
749.721	310.121
753.096	144.77
756.471	146.195
759.845	305.648
763.22	109.336
766.595	66.836
769.97	19.995
773.344	49.019
776.719	103.463
780.094	2.828
783.469	11.296
786.844	36.778
790.219	51.106
793.593	156.734
796.968	332.818
800.343	445.682
803.718	576.339
807.093	657.094
810.468	855.198
813.842	979.223
817.217	1089.6
820.592	1119.86
823.967	1056.05
827.342	1034.53
830.716	1016.26
834.091	762.137
837.466	680.78
840.841	487.564
844.216	401.741
847.591	337.323
850.965	162.834
854.34	14.492
857.715	18.26
861.09	14.998
864.464	39.454
867.839	33.764
871.214	0.191
874.589	9.374
877.964	195.898
881.339	426.431
884.713	732.087
888.088	593.076
891.463	708.767
894.838	852.741
898.213	754.014
901.588	649.134
904.962	636.902
908.337	526.091
911.712	595.531
915.087	679.49
918.461	628.906
921.836	679.602
925.211	732.538
928.586	610.345
931.961	518.526
935.336	262.582
938.71	213.541
942.085	263.229
945.46	10.637
948.835	145.511
952.21	117.452
955.584	218.605
958.959	178.593
962.334	53.872
965.709	225.091
969.084	223.55
972.459	504.688
975.833	1113.34
979.208	2291.12
982.583	3913.31
985.958	5970.81
989.333	7863.77
992.708	7177.65
996.082	4016.7
999.457	2116.44
1002.83	1563.63
1006.21	724.278
1009.58	498.542
1012.96	424.722
1016.33	271.597
1019.71	195.418
1023.08	23.905
1026.46	85.743
1029.83	18.177
1033.2	26.666
1036.58	23.733
1039.95	31.662
1043.33	23.251
1046.7	10.629
1050.08	26.718
1053.45	72.505
1056.83	64.284
1060.2	109.613
1063.58	18.633
1066.95	62.339
1070.33	30.398
1073.7	113.354
1077.08	143.036
1080.45	36.457
1083.83	32.88
1087.2	113.03
1090.58	66.875
1093.95	171.665
1097.33	183.857
1100.7	171.626
1104.08	237.233
1107.45	164.218
1110.83	144.252
1114.2	139.925
1117.58	92.369
1120.95	84.815
1124.33	124.911
1127.7	135.404
1131.08	204.958
1134.45	145.824
1137.83	91.303
1141.2	118.259
1144.57	50.168
1147.95	24.298
1151.32	3.95
1154.7	132.328
1158.07	75.201
1161.45	64.315
1164.82	106.403
1168.2	37.958
1171.57	85.794
1174.95	188.088
1178.32	159.878
1181.7	185.729
1185.07	156.276
1188.45	183.327
1191.82	128.456
1195.2	73.844
1198.57	13.29
1201.95	36.189
1205.32	43.594
1208.7	87.217
1212.07	101.378
1215.44	105.109
1218.82	91
1222.19	26.155
1225.57	23.474
1228.94	4.234
1232.32	136.489
1235.69	143.895
1239.07	194.852
1242.44	124.21
1245.82	228.459
1249.19	180.785
1252.57	133.645
1255.94	82.947
1259.32	141.401
1262.69	115.628
1266.07	19.778
1269.44	112.897
1272.82	171.776
1276.19	219.397
1279.57	57.315
1282.94	110.147
1286.32	26.892
