Measurement: Raman, 532 nm, unoriented, Raman Data Processed
Mineral: Montebrasite
Rruff sample: R050500
Ideal chemistry: LiAlPO_4_(OH)
Locality: Pala, San Diego County, California, USA
Source: California Institute of Technology
Description: White fragment
Measured chemistry: LiAl(PO_4_)((OH)_0.52_F_0.48_)
Raman shift (cm-1)	intensity
136.245	0
139.62	1.14123
142.995	34.8732
146.369	51.7839
149.744	61.3168
153.119	73.2633
156.494	84.6636
159.869	100.301
163.244	129.829
166.618	130.149
169.993	115.633
173.368	96.0782
176.743	76.3235
180.118	76.2727
183.493	69.9876
186.867	58.1458
190.242	46.3039
193.617	39.0284
196.992	26.6838
200.367	13.945
203.741	10.4934
207.116	8.26679
210.491	7.45471
213.866	12.6528
217.241	14.7172
220.615	15.6191
223.99	8.04578
227.365	6.79144
230.74	1.42212
234.115	6.09906
237.489	0.477112
240.864	0.446716
244.239	1.3689
247.614	1.50452
250.989	4.83234
254.364	15.9543
257.738	30.2097
261.113	45.3577
264.488	64.3337
267.863	89.0349
271.238	109.627
274.613	115.079
277.987	124.128
281.362	155.892
284.737	218.435
288.112	304.906
291.487	418.18
294.861	581.757
298.236	827.764
301.611	980.152
304.986	774.793
308.361	478.893
311.736	318.873
315.11	231.654
318.485	168.827
321.86	109.524
325.235	72.8233
328.61	49.2385
331.984	37.9674
335.359	28.3221
338.734	16.9281
342.109	11.5576
345.484	0.335449
348.858	4.63905
352.233	0.74646
355.608	2.23236
358.983	1.07379
362.358	2.61786
365.733	1.07086
369.107	1.05475
372.482	3.86853
375.857	0.213257
379.232	2.39716
382.607	1.95001
385.981	2.4198
389.356	5.20874
392.731	6.4043
396.106	5.66742
399.481	18.1049
402.856	37.5083
406.23	86.464
409.605	191.575
412.98	311.453
416.355	453.811
419.73	719.716
423.104	1140.6
426.479	1222.25
429.854	564.227
433.229	214.018
436.604	100.93
439.978	54.3174
443.353	33.9352
446.728	18.9758
450.103	20.9177
453.478	21.7304
456.853	24.8324
460.227	31.9479
463.602	52.511
466.977	75.9347
470.352	116.384
473.727	161.47
477.101	214.118
480.476	256.496
483.851	266.51
487.226	247.995
490.601	220.771
493.976	188.49
497.35	155.028
500.725	114.175
504.1	87.2314
507.475	57.9816
510.85	34.29
514.224	22.4329
517.599	10.7586
520.974	7.96655
524.349	1.4328
527.724	4.57117
531.098	6.90155
534.473	0.899597
537.848	2.20697
541.223	0.301086
544.598	0.456787
547.973	0.365112
551.347	0.575623
554.722	3.00305
558.097	1.04254
561.472	0.032898
564.847	3.84308
568.221	7.85199
571.596	7.73334
574.971	8.4494
578.346	5.21143
581.721	12.7295
585.096	17.5041
588.47	31.8113
591.845	44.6155
595.22	67.1871
598.595	94.3724
601.97	109.414
605.344	88.5167
608.719	63.7343
612.094	64.6163
615.469	79.9321
618.844	106.778
622.218	151.124
625.593	213.105
628.968	325.464
632.343	470.432
635.718	606.902
639.093	855.835
642.467	1201.91
645.842	1341.85
649.217	842.788
652.592	398.768
655.967	207.082
659.341	122.101
662.716	79.1783
666.091	49.7321
669.466	35.335
672.841	19.8629
676.216	14.5687
679.59	1.47827
682.965	5.05591
686.34	6.53162
689.715	1.92481
693.09	2.28113
696.465	0.481445
699.839	0.282715
703.214	1.92053
706.589	4.54468
709.964	0.827881
713.339	4.63379
716.713	3.14978
720.088	1.88281
723.463	3.40686
726.838	4.73389
730.213	2.76221
733.587	0.44873
736.962	0.691895
740.337	3.94665
743.712	0.320801
747.087	0.135864
750.462	0.874023
753.836	6.7439
757.211	4.44983
760.586	4.43213
763.961	3.90735
767.336	5.66309
770.71	9.96777
774.085	10.2727
777.46	11.6021
780.835	15.5485
784.21	13.0958
787.585	19.988
790.959	27.3401
794.334	36.5272
797.709	49.806
801.084	50.5422
804.459	50.7203
807.833	51.0317
811.208	52.9352
814.583	45.8614
817.958	36.4591
821.333	34.4686
824.707	28.5935
828.082	26.03
831.457	22.7307
834.832	12.1862
838.207	3.47754
841.582	4.11047
844.956	3.13501
848.331	2.32532
851.706	1.86023
855.081	9.7207
858.456	4.50464
861.83	0.19043
865.205	8.20081
868.58	6.3728
871.955	4.41064
875.33	3.97827
878.705	6.73157
882.079	7.55432
885.454	12.7607
888.829	8.82837
892.204	9.04871
895.579	14.4005
898.953	11.7133
902.328	9.57361
905.703	11.1398
909.078	9.80335
912.453	8.54993
915.827	5.53955
919.202	7.29907
922.577	5.54358
925.952	3.698
929.327	1.98474
932.702	1.71741
936.076	2.56458
939.451	0.916748
942.826	3.83057
946.201	1.47314
949.576	1.5509
952.951	2.9115
956.325	6.7395
959.7	1.10486
963.075	3.32056
966.45	1.95984
969.825	5.19836
973.199	8.91089
976.574	17.4446
979.949	38.4343
983.324	65.985
986.699	105.457
990.073	173.883
993.448	273.976
996.823	417.128
1000.2	588.463
1003.57	773.235
1006.95	935.1
1010.32	968.794
1013.7	832.449
1017.07	622.452
1020.45	442.841
1023.82	327.75
1027.2	290.021
1030.57	313.844
1033.95	387.515
1037.32	488.217
1040.7	564.257
1044.07	627.232
1047.44	649.213
1050.82	669.894
1054.19	710.914
1057.57	793.221
1060.94	854.94
1064.32	738.872
1067.69	463.543
1071.07	250.517
1074.44	137.033
1077.82	83.2263
1081.19	39.9714
1084.57	22.3632
1087.94	8.39868
1091.32	7.94653
1094.69	5.70081
1098.07	4.90173
1101.44	5.05579
1104.82	9.76868
1108.19	22.2023
1111.57	32.4598
1114.94	31.2958
1118.32	35.8008
1121.69	38.6322
1125.07	32.757
1128.44	27.5531
1131.82	27.39
1135.19	20.8702
1138.57	12.864
1141.94	6.42554
1145.32	2.297
1148.69	2.00647
1152.07	1.08154
1155.44	1.82471
1158.81	0.796064
1162.19	1.04895
1165.56	8.01318
1168.94	5.96558
1172.31	8.97229
1175.69	8.89258
1179.06	13.0845
1182.44	22.226
1185.81	27.623
1189.19	29.0939
1192.56	34.8884
1195.94	40.6005
1199.31	41.0106
1202.69	40.9425
1206.06	33.9066
1209.44	29.3245
1212.81	23.63
1216.19	25.3196
1219.56	15.8496
1222.94	12.4119
1226.31	8.60107
1229.68	4.03796
1233.06	0.302002
1236.43	3.09412
1239.81	0.182861
1243.18	8.58179
1246.56	4.63232
1249.93	4.24439
1253.31	2.74683
1256.68	5.22559
1260.06	9.53918
1263.43	4.19177
1266.81	4.17712
1270.18	7.45606
1273.56	0.995239
1276.93	1.39221
1280.31	1.55579
1283.68	1.33289
1287.06	2.74963
1290.43	0.953613
1293.81	4.79431
1297.18	4.13098
1300.56	4.10339
