Measurement: Raman, 785 nm, unoriented, Raman Data Processed
Mineral: Montebrasite
Rruff sample: R040060
Ideal chemistry: LiAlPO_4_(OH)
Locality: Oxford County, Maine, USA
Source: University of Arizona Mineral Museum
Description: White massive
Measured chemistry: LiAl(PO_4_)((OH)_0.79_F_0.21_)
Raman shift (cm-1)	intensity
116.225	0
119.118	4.26979
122.01	0.5513
124.903	18.3464
127.796	43.4406
130.688	78.9539
133.581	90.1053
136.474	61.8872
139.367	45.1866
142.259	44.8135
145.152	49.0701
148.045	77.6304
150.937	56.5536
153.83	38.396
156.723	39.7602
159.615	43.9049
162.508	42.7304
165.401	54.2216
168.293	62.0498
171.186	60.7594
174.079	43.7274
176.971	44.0717
179.864	37.6776
182.757	29.5816
185.65	36.1108
188.542	30.0939
191.435	32.9912
194.328	43.9411
197.22	48.3712
200.113	33.0906
203.006	17.1549
205.899	0.942307
208.791	12.2312
211.684	9.45679
214.577	7.94128
217.469	13.7758
220.362	30.5808
223.255	20.4699
226.147	14.2429
229.04	27.6003
231.933	26.3181
234.826	14.5837
237.718	0.032623
240.611	11.0302
243.504	0.197754
246.396	4.03775
249.289	0.953918
252.182	1.32561
255.074	8.1716
257.967	4.74036
260.86	0.689255
263.752	8.01885
266.645	16.2737
269.538	38.8441
272.431	54.8442
275.323	78.5519
278.216	69.9483
281.109	53.3019
284.001	54.388
286.894	88.2881
289.787	165.909
292.68	300.673
295.572	471.112
298.465	515.803
301.358	340.973
304.25	194.572
307.143	124.11
310.036	108.615
312.928	99.0903
315.821	94.2834
318.714	92.0171
321.606	77.0412
324.499	63.904
327.392	47.9221
330.285	27.7318
333.177	22.7205
336.07	5.42944
338.963	2.74791
341.855	6.65073
344.748	6.20009
347.641	6.74194
350.534	2.24864
353.426	1.92404
356.319	1.48737
359.212	5.27219
362.104	0.214233
364.997	6.7475
367.89	2.89002
370.782	2.04071
373.675	5.7453
376.568	14.4797
379.461	14.2707
382.353	17.0235
385.246	14.7335
388.139	14.6571
391.031	18.4793
393.924	22.0347
396.817	20.7714
399.709	26.152
402.602	25.6391
405.495	14.1962
408.387	39.9036
411.28	46.819
414.173	65.9554
417.066	128.937
419.958	253.076
422.851	434.505
425.744	628.54
428.636	456.695
431.529	150.663
434.422	64.3053
437.315	36.1018
440.207	22.8641
443.1	5.53706
445.993	6.98789
448.885	2.43327
451.778	4.05795
454.671	0.310822
457.563	1.51222
460.456	22.0743
463.349	17.7975
466.241	14.4811
469.134	37.1957
472.027	37.7627
474.92	59.2717
477.812	90.6586
480.705	99.3362
483.598	102.032
486.49	108.501
489.383	102.986
492.276	79.3706
495.168	85.5962
498.061	51.7561
500.954	41.4542
503.847	29.5481
506.739	14.7941
509.632	7.37213
512.525	16.1405
515.417	14.6837
518.31	10.2625
521.203	4.92886
524.096	5.41222
526.988	6.63708
529.881	7.32974
532.774	2.11571
535.666	5.34872
538.559	14.155
541.452	0.912689
544.344	11.5128
547.237	3.07587
550.13	19.2366
553.023	4.83831
555.915	8.98154
558.808	12.5899
561.701	8.77271
564.593	5.36505
567.486	0.118469
570.379	4.63506
573.271	5.61793
576.164	9.79614
579.057	7.42529
581.949	10.3722
584.842	9.54304
587.735	23.1238
590.628	25.5773
593.52	30.8894
596.413	49.9743
599.306	53.5157
602.198	65.4125
605.091	44.4245
607.984	30.968
610.876	28.5544
613.769	40.4635
616.662	43.8403
619.555	78.0501
622.447	110.899
625.34	141.026
628.233	167.498
631.125	156.384
634.018	164.297
636.911	236.039
639.803	424.872
642.696	630.097
645.589	650.346
648.482	419.941
651.374	194.951
654.267	108.808
657.16	50.3316
660.052	43.8575
662.945	17.9337
665.838	21.1327
668.731	15.7986
671.623	8.42451
674.516	8.81228
677.409	14.6913
680.301	13.8592
683.194	4.15387
686.087	11.9467
688.979	2.39484
691.872	5.99855
694.765	3.40789
697.658	2.98944
700.55	0.083092
703.443	0.619186
706.336	8.30186
709.228	0.774757
712.121	0.501839
715.014	2.65058
717.906	5.97559
720.799	3.90807
723.692	7.99614
726.585	9.5613
729.477	1.0833
732.37	14.6681
735.263	7.64648
738.155	6.61979
741.048	10.3464
743.941	6.2065
746.833	10.8164
749.726	6.25921
752.619	4.37834
755.511	9.25033
758.404	3.39768
761.297	4.47173
764.19	2.70559
767.082	2.31438
769.975	6.05734
772.868	16.1916
775.76	5.28289
778.653	10.5841
781.546	11.6863
784.438	14.0877
787.331	27.8799
790.224	18.7865
793.117	27.9971
796.009	31.1493
798.902	27.1607
801.795	25.266
804.687	31.1201
807.58	38.2193
810.473	20.4763
813.365	28.0822
816.258	18.6767
819.151	6.91363
822.044	19.8135
824.936	11.567
827.829	8.59729
830.722	10.9376
833.614	8.88178
836.507	17.0769
839.4	1.76984
842.293	5.997
845.185	13.714
848.078	0.81356
850.971	4.02344
853.863	7.54879
856.756	9.36938
859.649	5.27283
862.541	12.0532
865.434	6.74358
868.327	2.83319
871.22	7.67528
874.112	9.62443
877.005	1.05611
879.898	18.9015
882.79	13.1719
885.683	4.81471
888.576	8.07027
891.468	4.62543
894.361	5.34414
897.254	8.73582
900.146	9.56771
903.039	12.8399
905.932	4.43894
908.825	15.0759
911.717	12.944
914.61	5.19507
917.503	14.3239
920.395	8.27446
923.288	12.2177
926.181	10.7886
929.073	4.38135
931.966	10.3639
934.859	0.768326
937.752	4.73365
940.644	6.32143
943.537	2.26297
946.43	4.07341
949.322	2.70589
952.215	3.49163
955.108	4.67753
958	3.90101
960.893	14.0902
963.786	25.8815
966.679	6.65303
969.571	6.66323
972.464	1.42416
975.357	5.85281
978.249	19.34
981.142	13.2324
984.035	18.3636
986.928	30.9611
989.82	35.6602
992.713	39.1007
995.606	68.7811
998.498	122.65
1001.39	184.25
1004.28	271.954
1007.18	330.298
1010.07	407.628
1012.96	353.737
1015.85	255.651
1018.75	156.239
1021.64	102.597
1024.53	69.3208
1027.42	65.6163
1030.32	86.8434
1033.21	115.911
1036.1	170.182
1039	249.34
1041.89	351.855
1044.78	382.937
1047.67	332.891
1050.57	249.993
1053.46	233.856
1056.35	260.854
1059.24	237.647
1062.14	180.48
1065.03	102.58
1067.92	52.2567
1070.82	22.2245
1073.71	11.4743
1076.6	14.2536
1079.49	14.4126
1082.39	0.710655
1085.28	2.32355
1088.17	1.06559
1091.07	2.32767
1093.96	5.26302
1096.85	2.01267
1099.74	6.47492
1102.63	21.2375
1105.53	25.4004
1108.42	43.6941
1111.31	27.9013
1114.21	16.8925
1117.1	18.9176
1119.99	12.3954
1122.88	16.0343
1125.78	6.61121
1128.67	3.46343
1131.56	5.88305
1134.45	17.429
1137.35	2.37642
1140.24	17.0115
1143.13	10.8377
1146.03	2.65074
1148.92	2.79828
1151.81	11.3412
1154.7	7.92334
1157.6	6.91496
1160.49	5.74246
1163.38	9.70061
1166.28	1.32924
1169.17	1.94934
1172.06	0.239265
1174.95	12.1489
1177.85	17.0551
1180.74	16.7641
1183.63	18.4257
1186.52	26.9491
1189.42	22.7879
1192.31	24.977
1195.2	17.0935
1198.1	19.8889
1200.99	15.826
1203.88	14.6819
1206.77	9.16817
1209.66	18.1127
1212.56	3.74782
1215.45	12.2873
1218.34	0.221115
1221.24	10.3247
1224.13	0.092102
1227.02	10.0218
1229.91	14.1135
1232.81	10.716
1235.7	2.78343
1238.59	15.3239
1241.48	10.7027
1244.38	5.72909
1247.27	13.4269
1250.16	14.9134
1253.06	1.61955
1255.95	8.10715
1258.84	4.51874
