Measurement: Raman, 780 nm, unoriented, Raman Data Processed
Mineral: Montgomeryite
Rruff sample: R080094
Ideal chemistry: Ca_4_MgAl_4_(PO_4_)_6_(OH)_4_12H_2_O
Locality: Tur√≥ de Montcada, Montcada i Reixac, Barcelona, Catalonia, Spain
Source: Joan Abella i Creus
Description: Lime green clusters of flattened laths
Raman shift (cm-1)	intensity
151.824	0
154.716	3.44015
157.609	6.0283
160.502	6.9539
163.395	6.81339
166.287	5.13902
169.18	2.59469
172.073	2.29972
174.965	2.19495
177.858	2.35739
180.751	2.51852
183.643	3.49719
186.536	4.72068
189.429	4.9499
192.322	4.64442
195.214	4.96865
198.107	5.62114
201	4.91946
203.892	3.6758
206.785	1.34919
209.678	0.970833
212.571	0.015289
215.463	1.24733
218.356	0.498825
221.249	0.337143
224.141	1.08161
227.034	2.22176
229.927	4.40296
232.819	5.82744
235.712	7.29416
238.605	7.1298
241.498	7.92604
244.39	7.28678
247.283	7.99934
250.176	8.01349
253.068	8.89155
255.961	9.30557
258.854	9.97346
261.746	11.8259
264.639	11.3386
267.532	11.9533
270.425	12.467
273.317	12.6695
276.21	12.0356
279.103	12.4988
281.995	13.2875
284.888	14.1531
287.781	15.1422
290.673	15.5509
293.566	14.5406
296.459	14.2363
299.351	13.3133
302.244	11.6592
305.137	9.78746
308.03	9.52249
310.922	8.15401
313.815	7.17205
316.708	6.75166
319.6	5.83184
322.493	3.873
325.386	1.91137
328.279	0.964642
331.171	0.517399
334.064	0.141197
336.957	0.518948
339.849	0.290722
342.742	0.083416
345.635	0.131046
348.527	0.113071
351.42	0.615536
354.313	0.869598
357.205	0.649666
360.098	1.18762
362.991	1.80034
365.884	4.07263
368.776	4.93765
371.669	7.16419
374.562	9.08734
377.454	11.6147
380.347	14.1701
383.24	17.1581
386.132	19.4373
389.025	20.2647
391.918	19.0768
394.81	16.1481
397.703	12.283
400.596	9.28868
403.489	6.03698
406.381	3.02853
409.274	1.46657
412.167	1.05732
415.059	0.110546
417.952	0.082378
420.845	0.813099
423.738	0.256424
426.63	0.367054
429.523	0.148697
432.416	0.354687
435.308	1.47763
438.201	2.28788
441.094	4.17246
443.986	6.09871
446.879	7.1097
449.772	8.51345
452.665	11.3127
455.557	13.2235
458.45	14.9558
461.343	16.0329
464.235	15.4403
467.128	16.2067
470.021	15.2362
472.913	14.1087
475.806	12.5929
478.699	10.7011
481.592	8.98249
484.484	8.15591
487.377	8.69143
490.27	9.22912
493.162	11.7308
496.055	14.8835
498.948	19.1457
501.841	22.0336
504.733	26.2337
507.626	28.5905
510.519	28.6799
513.411	24.5891
516.304	19.4074
519.197	13.7763
522.089	10.7981
524.982	7.74596
527.875	6.38264
530.768	4.92191
533.66	3.86749
536.553	2.11955
539.446	2.24024
542.338	0.850971
545.231	0.604362
548.124	0.704105
551.016	0.298767
553.909	0.586597
556.802	0.26627
559.694	0.217083
562.587	0.778679
565.48	1.50711
568.373	3.49326
571.265	5.29975
574.158	6.48413
577.051	9.07053
579.943	10.8921
582.836	14.7334
585.729	15.3834
588.621	15.6219
591.514	14.9427
594.407	14.8407
597.299	12.7861
600.192	12.4863
603.085	10.9576
605.978	9.23571
608.87	7.52979
611.763	7.42426
614.656	4.44644
617.548	4.13291
620.441	2.71499
623.334	1.4977
626.226	0.143055
629.119	0.000149
632.012	0.17289
634.905	0.013397
637.797	0.317749
640.69	0.315975
643.583	0.00058
646.475	0.151321
649.368	0.836525
652.261	0.704617
655.154	0.092144
658.046	0.540951
660.939	0.286518
663.832	0.281784
666.724	0.00238
669.617	0.187065
672.51	0.336428
675.402	0.422915
678.295	0.490131
681.188	0.470137
684.081	0.082373
686.973	0.242437
689.866	0.400793
692.759	0.771126
695.651	1.37967
698.544	0.82177
701.437	0.143404
704.329	0.291262
707.222	0.674746
710.115	1.30732
713.008	0.98399
715.9	0.697357
718.793	1.14488
721.686	1.36905
724.578	1.33696
727.471	1.26128
730.364	1.79708
733.256	1.04665
736.149	1.5868
739.042	1.23386
741.934	1.0471
744.827	0.750959
747.72	1.07308
750.613	0.662001
753.505	0.963924
756.398	0.927055
759.291	0.467628
762.183	0.395428
765.076	0.733826
767.969	1.03635
770.861	0.369373
773.754	0.66577
776.647	0.860189
779.54	0.207939
782.432	0.388391
785.325	0.38607
788.218	0.36619
791.11	0.46516
794.003	1.27053
796.896	0.267012
799.788	0.744116
802.681	0.64469
805.574	0.037817
808.467	0.704483
811.359	0.586283
814.252	0.627172
817.145	1.30464
820.037	1.16281
822.93	0.92392
825.823	1.36708
828.716	1.30198
831.608	1.78965
834.501	1.02024
837.394	1.72519
840.286	1.48313
843.179	1.63157
846.072	1.32075
848.964	1.41765
851.857	1.37754
854.75	1.16376
857.643	1.43772
860.535	1.10899
863.428	0.701054
866.321	1.00771
869.213	0.991156
872.106	0.473835
874.999	0.58292
877.891	0.229467
880.784	0.516085
883.677	0.638817
886.569	0.258358
889.462	0.170427
892.355	0.131035
895.248	0.065638
898.14	0.017439
901.033	0.421843
903.926	0.123949
906.818	0.036724
909.711	0.127567
912.604	0.36598
915.496	0.401272
918.389	0.186373
921.282	1.05542
924.175	0.897528
927.067	0.875353
929.96	0.93996
932.853	1.90003
935.745	1.67804
938.638	1.79475
941.531	3.04444
944.423	3.61478
947.316	4.17648
950.209	5.24338
953.102	6.52215
955.994	8.85966
958.887	10.3448
961.78	13.2305
964.672	16.1045
967.565	18.8741
970.458	23.5168
973.351	25.533
976.243	28.155
979.136	29.2544
982.029	28.1021
984.921	26.6744
987.814	26.7035
990.707	29.5556
993.599	34.5695
996.492	43.086
999.385	52.1889
1002.28	63.1291
1005.17	72.1481
1008.06	78.0922
1010.96	77.6515
1013.85	74.9443
1016.74	68.2604
1019.63	56.6985
1022.53	39.0583
1025.42	25.1973
1028.31	15.0703
1031.2	9.30001
1034.1	5.7587
1036.99	2.82828
1039.88	2.55185
1042.78	1.00934
1045.67	0.470228
1048.56	0.058756
1051.45	0.596115
1054.35	0.631277
1057.24	0.615057
1060.13	0.280655
1063.02	0.443001
1065.92	2.49983
1068.81	3.67508
1071.7	5.76417
1074.6	7.71677
1077.49	10.1195
1080.38	9.13209
1083.27	9.99322
1086.17	9.7742
1089.06	8.93418
1091.95	8.95778
1094.84	7.21771
1097.74	6.47229
1100.63	5.29752
1103.52	3.69045
1106.41	2.63599
1109.31	1.71613
1112.2	1.5768
1115.09	1.51763
1117.98	0.732887
1120.88	1.97835
1123.77	3.025
1126.66	4.77359
1129.56	6.08527
1132.45	8.06457
1135.34	8.55115
1138.23	8.84085
1141.13	8.6684
1144.02	8.73569
1146.91	8.74897
1149.81	8.27717
1152.7	7.37441
1155.59	5.72177
1158.48	4.09148
1161.38	3.16911
1164.27	1.90668
1167.16	1.91558
1170.05	0.619612
1172.95	0.346527
1175.84	0.344915
1178.73	0.197269
1181.62	0.394209
1184.52	0.468321
1187.41	0.083681
1190.3	0.281425
1193.2	0.306908
1196.09	0.139902
1198.98	0.248634
1201.87	0.140123
1204.77	0.289318
1207.66	0.474329
1210.55	0.702188
1213.44	1.4155
1216.34	0.343075
1219.23	0.952686
1222.12	1.33246
1225.02	1.74673
1227.91	1.61379
1230.8	1.33933
1233.69	0.738382
1236.59	0.513487
1239.48	0.652357
1242.37	0.428007
1245.26	0.380344
1248.16	0.088871
1251.05	0.681099
1253.94	0.696474
1256.84	0.869247
1259.73	0.184195
1262.62	1.04197
1265.51	0.393387
1268.41	0.383904
1271.3	0.017145
1274.19	0.964191
1277.08	0.147665
1279.98	0.37281
1282.87	0.485205
1285.76	0.03422
