Measurement: Raman, 532 nm, unoriented, Raman Data Processed
Mineral: Monticellite
Rruff sample: R100107
Ideal chemistry: CaMgSiO_4_
Locality: Crestmore, Riverside County, California, USA
Source: American Museum of Natural History
Description: White to dirty-white massive
Measured chemistry: (Ca_1.021_Mg_0.896_Fe^+2^_0.086_Mn^+2^_0.003_)_Î£=2.006_Si_0.996_O_4_
Raman shift (cm-1)	intensity
128.097	0
131.472	3.3512
134.847	0.07284
138.222	0.862747
141.597	17.1834
144.971	19.7798
148.346	25.1222
151.721	43.5908
155.096	89.7145
158.471	122.156
161.845	164.909
165.22	235.316
168.595	191.712
171.97	262.498
175.345	146.313
178.72	31.2732
182.094	13.5536
185.469	7.44515
188.844	4.77524
192.219	1.57064
195.594	2.34077
198.968	0.19738
202.343	0.320045
205.718	1.11177
209.093	7.41161
212.468	14.5271
215.843	40.1944
219.217	30.2931
222.592	0.321869
225.967	5.0584
229.342	8.79106
232.717	23.6502
236.091	46.9521
239.466	104.711
242.841	194.123
246.216	271.174
249.591	371.94
252.965	515.351
256.34	780.902
259.715	891.321
263.09	332.539
266.465	169.992
269.84	131.514
273.214	117.639
276.589	128.43
279.964	74.2301
283.339	23.4047
286.714	13.7956
290.089	35.5384
293.463	68.7958
296.838	102.12
300.213	165.03
303.588	242.927
306.963	327.928
310.337	196.499
313.712	51.3793
317.087	21.4402
320.462	23.6878
323.837	30.9779
327.212	54.874
330.586	85.7703
333.961	95.1563
337.336	47.9417
340.711	16.182
344.086	5.80393
347.46	0.181374
350.835	3.28531
354.21	1.66287
357.585	1.8894
360.96	1.1039
364.334	4.48314
367.709	7.39399
371.084	8.57314
374.459	21.17
377.834	29.8216
381.209	55.5086
384.583	102.562
387.958	159.471
391.333	244.975
394.708	369.117
398.083	534.581
401.457	681.856
404.832	748.435
408.207	737.883
411.582	605.218
414.957	394.015
418.332	212.161
421.706	117.163
425.081	70.5941
428.456	51.0198
431.831	38.8883
435.206	24.6843
438.58	18.1168
441.955	12.716
445.33	13.358
448.705	9.34557
452.08	10.6776
455.454	5.28593
458.829	4.67648
462.204	0.76088
465.579	0.502319
468.954	2.72177
472.329	0.240089
475.703	0.416756
479.078	3.81509
482.453	4.02172
485.828	1.04606
489.203	0.233475
492.577	1.17371
495.952	0.181671
499.327	0.554222
502.702	3.58301
506.077	8.52474
509.452	13.189
512.826	24.8081
516.201	42.665
519.576	83.7182
522.951	134.616
526.326	202.268
529.701	305.705
533.075	413.776
536.45	319.91
539.825	143.349
543.2	77.1174
546.575	52.7625
549.949	44.6359
553.324	41.4042
556.699	48.6615
560.074	59.0848
563.449	70.6277
566.823	82.3283
570.198	103.787
573.573	134.631
576.948	151.525
580.323	152.603
583.697	137.655
587.072	124.735
590.447	102.113
593.822	70.1794
597.197	39.9064
600.572	23.0114
603.946	12.6196
607.321	6.84521
610.696	3.10883
614.071	1.51417
617.446	1.82912
620.821	0.01545
624.195	0.025597
627.57	0.033913
630.945	2.22444
634.32	2.48785
637.695	3.89037
641.069	0.195351
644.444	1.08971
647.819	2.45689
651.194	3.33691
654.569	10.0753
657.943	15.0809
661.318	11.9954
664.693	13.4851
668.068	14.4549
671.443	14.4026
674.818	14.7657
678.192	17.9441
681.567	14.1786
684.942	14.8513
688.317	12.4459
691.692	13.8146
695.067	15.5132
698.441	10.1573
701.816	12.2081
705.191	14.2331
708.566	13.6985
711.941	16.1553
715.315	16.7936
718.69	14.1834
722.065	10.7124
725.44	14.9121
728.815	13.494
732.189	13.1382
735.564	11.2142
738.939	10.8946
742.314	8.06582
745.689	4.81585
749.063	3.79879
752.438	0.753288
755.813	1.589
759.188	1.82102
762.563	3.61272
765.938	2.7414
769.312	6.74083
772.687	4.94592
776.062	3.84871
779.437	0.496368
782.812	6.57375
786.187	18.9466
789.561	32.9746
792.936	56.9281
796.311	111.068
799.686	190.18
803.061	383.264
806.435	722.169
809.81	1201.33
813.185	1948.64
816.56	2994.48
819.935	3240.61
823.309	1921.98
826.684	1043.61
830.059	718.239
833.434	682.367
836.809	1005.02
840.184	1685.03
843.558	2666.76
846.933	4304.49
850.308	6050.41
853.683	4181.18
857.058	1770.73
860.433	844.474
863.807	462.93
867.182	275.974
870.557	179.268
873.932	122.688
877.307	97.0423
880.681	88.6617
884.056	77.3101
887.431	123.553
890.806	210.271
894.181	356.42
897.556	618.296
900.93	658.709
904.305	218.048
907.68	55.612
911.055	9.79935
914.43	8.62067
917.804	13.8955
921.179	12.9359
924.554	5.25682
927.929	7.27914
931.304	36.3989
934.678	108.292
938.053	251.151
941.428	426.209
944.803	724.247
948.178	1073.27
951.553	664.036
954.927	256.049
958.302	107.469
961.677	51.2706
965.052	30.8649
968.427	18.3546
971.802	18.9777
975.176	10.5774
978.551	5.70568
981.926	0.470619
985.301	1.62138
988.676	0.828255
992.05	2.94509
995.425	4.42897
998.8	6.44536
1002.17	11.5784
1005.55	9.95377
1008.92	10.5476
1012.3	16.0443
1015.67	17.7474
1019.05	22.2647
1022.42	24.0741
1025.8	20.3086
1029.17	19.245
1032.55	17.8813
1035.92	15.6687
1039.3	9.88074
1042.67	9.25918
1046.05	4.35524
1049.42	2.64714
1052.8	3.39465
1056.17	0.331276
1059.55	0.00066
1062.92	2.05807
1066.3	1.13913
1069.67	0.353889
1073.05	1.15564
1076.42	1.82739
1079.8	2.77466
1083.17	7.0799
1086.55	18.405
1089.92	5.25573
1093.3	1.02697
1096.67	2.29425
1100.04	1.14201
1103.42	3.14267
1106.79	1.88561
1110.17	2.01202
1113.54	1.94064
1116.92	3.21337
1120.29	1.87403
1123.67	0.183949
1127.04	0.468647
1130.42	3.51299
1133.79	4.61214
1137.17	6.45987
1140.54	5.47701
1143.92	3.54111
1147.29	2.66591
1150.67	1.26849
1154.04	2.96705
1157.42	2.08872
1160.79	2.02468
1164.17	5.16762
1167.54	4.3708
1170.92	3.77777
1174.29	5.73983
1177.66	6.73495
1181.04	7.04857
1184.41	7.48889
1187.79	5.93702
1191.16	7.39541
1194.54	8.27126
1197.91	4.25557
1201.29	3.7268
1204.66	3.44788
1208.04	1.097
1211.41	1.38049
1214.79	1.80449
1218.16	1.41332
1221.54	0.422333
1224.91	3.26301
1228.29	1.77996
1231.66	2.28267
1235.04	2.39089
1238.41	2.82328
1241.79	0.296879
1245.16	2.2068
1248.54	0.350338
1251.91	1.54722
1255.29	3.34146
1258.66	1.84698
1262.04	6.10728
1265.41	2.38014
1268.79	4.3662
1272.16	2.15895
1275.54	2.18287
1278.91	2.65162
1282.29	0.880768
1285.66	3.02684
1289.03	1.7532
1292.41	1.94349
1295.78	1.42733
1299.16	1.61164
1302.53	0.0145
