Measurement: Raman, 785 nm, unoriented, Raman Data Processed
Mineral: Montroydite
Rruff sample: R070235
Ideal chemistry: HgO
Locality: Clear Creek claim, southern San Benito County, California, USA
Source: Michael Scott
Description: Red prismatic crystal with quartz, cinnabar and greenish yellow edgarbaileyite, R060500
Measured chemistry: Hg_1.00_O
Raman shift (cm-1)	intensity
67.0223	0
70.3972	4.49197
73.772	3.80245
77.1468	6.47982
80.5216	13.6012
83.8964	17.3699
87.2712	25.8041
90.6461	38.3273
94.0209	37.6743
97.3957	30.8629
100.77	15.5371
104.145	18.1576
107.52	3.88239
110.895	3.98019
114.27	3.19982
117.645	20.5543
121.019	33.76
124.394	84.8523
127.769	169.349
131.144	218.468
134.519	214.125
137.893	142.724
141.268	140.556
144.643	173.045
148.018	217.488
151.393	207.169
154.768	203.375
158.142	189.081
161.517	198.35
164.892	214.645
168.267	228.407
171.642	219.971
175.017	220.453
178.391	210.984
181.766	228.596
185.141	227.17
188.516	230.318
191.891	219.868
195.265	213.511
198.64	212.189
202.015	192.592
205.39	165.203
208.765	112.87
212.139	97.7088
215.514	64.3774
218.889	38.9329
222.264	24.0033
225.639	8.92572
229.013	17.4472
232.388	67.7758
235.763	46.748
239.138	53.6852
242.513	28.9755
245.888	11.9595
249.262	26.8628
252.637	83.0261
256.012	136.096
259.387	158.552
262.762	145.974
266.137	162.082
269.511	182.547
272.886	115.649
276.261	64.9092
279.636	35.9239
283.011	13.1287
286.385	49.6255
289.76	201.28
293.135	555.061
296.51	1082.91
299.885	1965.15
303.26	3434.12
306.634	6183.78
310.009	11114.2
313.384	19486.2
316.759	31957.8
320.134	48109.2
323.508	69734.5
326.883	89925.7
330.258	85678.5
333.633	58955.1
337.008	35859.4
340.382	22314.6
343.757	14989
347.132	10601.6
350.507	7804.52
353.882	6078.21
357.257	4781.53
360.631	3863.45
364.006	3088.86
367.381	2439.84
370.756	1948.35
374.131	1494.03
377.505	1102.35
380.88	780.07
384.255	520.59
387.63	332.505
391.005	169.001
394.38	112.054
397.754	53.1324
401.129	21.3033
404.504	17.4341
407.879	12.6098
411.254	50.6108
414.628	41.681
418.003	38.096
421.378	33.0552
424.753	21.2551
428.128	2.53687
431.502	6.18072
434.877	10.4102
438.252	36.2019
441.627	38.9569
445.002	57.5538
448.377	98.5576
451.751	107.3
455.126	133.791
458.501	171.425
461.876	195.148
465.251	210.753
468.625	210.526
472	160.57
475.375	132.095
478.75	112.637
482.125	92.1213
485.5	77.9582
488.874	64.3344
492.249	48.1468
495.624	31.2709
498.999	43.7311
502.374	43.6295
505.748	48.3436
509.123	50.9155
512.498	51.3824
515.873	62.8129
519.248	79.7279
522.623	110.637
525.997	153.904
529.372	195.225
532.747	266.209
536.122	310.018
539.497	404.182
542.871	547.112
546.246	785.013
549.621	1378.6
552.996	2655.79
556.371	4468.52
559.745	7308.82
563.12	11216.1
566.495	11861
569.87	5579.16
573.245	2069.16
576.62	942.176
579.994	463.508
583.369	251.908
586.744	135.802
590.119	48.2129
593.494	18.3562
596.869	8.14536
600.243	19.6891
603.618	0.735291
606.993	1.74631
610.368	15.9123
613.743	33.1602
617.117	39.7694
620.492	45.587
623.867	44.8406
627.242	35.3534
630.617	41.532
633.991	39.111
637.366	31.0124
640.741	26.9869
644.116	35.3238
647.491	30.5552
650.866	40.2274
654.24	40.0937
657.615	22.4636
660.99	20.2454
664.365	12.878
667.74	10.9541
671.115	4.07547
674.489	13.2548
677.864	3.1613
681.239	6.20105
684.614	10.0513
687.989	1.53581
691.363	11.2918
694.738	15.4555
698.113	9.33576
701.488	15.6861
704.863	18.3064
708.237	31.4575
711.612	31.7218
714.987	33.3908
718.362	27.2471
721.737	24.2522
725.112	28.7662
728.486	28.2924
731.861	27.2944
735.236	18.7928
738.611	16.497
741.986	10.2462
745.361	13.8159
748.735	8.65527
752.11	6.87533
755.485	2.57672
758.86	7.39493
762.235	9.77872
765.609	2.75877
768.984	10.1787
772.359	8.97242
775.734	2.74662
779.109	10.9116
782.484	12.7266
785.858	2.74436
789.233	11.2864
792.608	5.74843
795.983	15.4858
799.357	10.1305
802.732	16.4435
806.107	3.5218
809.482	2.02871
812.857	1.61395
816.232	12.9238
819.606	0.601143
822.981	10.4093
826.356	9.39115
829.731	18.1648
833.106	20.9193
836.481	18.0656
839.855	13.4911
843.23	15.2113
846.605	13.0966
849.98	12.9375
853.355	7.18722
856.729	7.14563
860.104	8.27786
863.479	5.18377
866.854	9.52867
870.229	2.8147
873.604	2.1152
876.978	2.09411
880.353	1.69699
883.728	4.65465
887.103	0.463249
890.478	3.40537
893.852	8.66276
897.227	8.03583
900.602	5.29571
903.977	2.89092
907.352	5.58997
910.726	3.70007
914.101	3.73808
917.476	0.233589
920.851	2.3287
924.226	15.1302
927.601	9.81497
930.975	3.79444
934.35	12.5676
937.725	6.10342
941.1	11.7052
944.475	10.1908
947.85	13.9654
951.224	11.4401
954.599	10.3589
957.974	14.173
961.349	15.432
964.724	18.7395
968.098	18.2506
971.473	26.2723
974.848	29.2143
978.223	37.1348
981.598	42.3265
984.972	48.1672
988.347	50.373
991.722	54.7223
995.097	59.3744
998.472	57.5388
1001.85	59.8675
1005.22	51.258
1008.6	46.8062
1011.97	44.8862
1015.35	36.9277
1018.72	27.4283
1022.1	27.9031
1025.47	20.5934
1028.85	20.6728
1032.22	13.8777
1035.6	10.7235
1038.97	2.59572
1042.34	0.987411
1045.72	3.2152
1049.09	0.826508
1052.47	6.13248
1055.84	9.68465
1059.22	6.81784
1062.59	3.58977
1065.97	3.40938
1069.34	4.58776
1072.72	1.95005
1076.09	5.08179
1079.47	5.43837
1082.84	17.1399
1086.22	4.1957
1089.59	3.83947
1092.97	13.9258
1096.34	21.4344
1099.72	9.67971
1103.09	15.542
1106.47	18.7426
1109.84	9.92897
1113.21	14.5819
1116.59	24.4689
1119.96	20.9362
1123.34	25.1434
1126.71	18.0386
1130.09	17.7479
1133.46	15.9412
1136.84	11.2797
1140.21	4.39099
1143.59	15.2243
1146.96	11.5483
1150.34	11.4933
1153.71	15.9891
1157.09	14.0169
1160.46	10.1288
1163.84	10.2704
1167.21	8.99812
1170.59	7.30102
1173.96	6.32814
1177.34	5.94283
1180.71	0.728516
1184.09	9.80865
1187.46	0.03157
1190.84	3.55867
1194.21	5.30943
1197.59	4.56503
1200.96	8.79668
1204.34	13.6557
1207.71	2.65696
1211.09	5.26711
1214.46	0.023674
1217.84	9.66104
1221.21	14.6707
1224.58	12.5593
1227.96	2.40431
