Measurement: Raman, 532 nm, unoriented, Raman Data Processed
Mineral: Montgomeryite
Rruff sample: R070631
Ideal chemistry: Ca_4_MgAl_4_(PO_4_)_6_(OH)_4_12H_2_O
Locality: Tip Top mine, Custer County, South Dakota, USA
Source: Dakota Matrix Minerals
Description: Translucent reddish orange tabular crystals associated with orthoclase.
Raman shift (cm-1)	intensity
144.602	0
147.495	37.8989
150.388	63.5215
153.28	120.041
156.173	233.587
159.066	334.576
161.958	317.571
164.851	190.176
167.744	54.0132
170.637	46.7783
173.529	61.2539
176.422	55.0024
179.315	67.249
182.207	173.805
185.1	149.442
187.993	224.566
190.885	214.398
193.778	282.248
196.671	266.046
199.563	178.717
202.456	165.028
205.349	77.3672
208.242	66.9966
211.134	65.7258
214.027	73.4587
216.92	11.3948
219.812	40.9863
222.705	48.0608
225.598	103.552
228.49	63.3694
231.383	134.501
234.276	179.054
237.168	226.01
240.061	226.976
242.954	238.707
245.847	213.065
248.739	364.223
251.632	320.904
254.525	446.143
257.417	502.419
260.31	588.191
263.203	654.691
266.096	719.088
268.988	677.693
271.881	716.213
274.774	702.826
277.666	690.466
280.559	766.365
283.452	779.922
286.344	864.444
289.237	973.39
292.13	1011.58
295.022	976.296
297.915	927.756
300.808	744.027
303.701	650.413
306.593	587.149
309.486	601.189
312.379	602.409
315.271	580.509
318.164	454.382
321.057	372.027
323.95	271.424
326.842	207.667
329.735	186.927
332.628	114.887
335.52	117.02
338.413	94.1079
341.306	58.2427
344.198	48.939
347.091	12.6523
349.984	2.32617
352.877	40.2886
355.769	30.2993
358.662	22.8418
361.555	36.791
364.447	50.8999
367.34	71.1894
370.233	29.6572
373.125	166.104
376.018	241.484
378.911	288.572
381.803	370.537
384.696	382.371
387.589	425.762
390.481	507.453
393.374	451.555
396.267	456.091
399.16	223.968
402.052	173.653
404.945	135.104
407.838	13.5137
410.73	21.3148
413.623	12.8501
416.516	43.772
419.409	32.5928
422.301	90.9751
425.194	35.1172
428.087	106.401
430.979	197.875
433.872	255.98
436.765	434.503
439.657	655.064
442.55	730.867
445.443	1000.54
448.336	1235.86
451.228	1444.36
454.121	1563.57
457.014	1532.03
459.906	1416.95
462.799	1141.86
465.692	922.046
468.584	737.598
471.477	555.791
474.37	474.022
477.262	361.931
480.155	325.152
483.048	162.062
485.941	129.033
488.833	80.1011
491.726	114.885
494.619	121.703
497.511	205.352
500.404	263.282
503.297	426.165
506.19	419.084
509.082	512.235
511.975	500.315
514.868	423.408
517.76	358.493
520.653	206.264
523.546	167.314
526.438	111.45
529.331	105.806
532.224	83.98
535.116	69.7031
538.009	37.3877
540.902	57.6401
543.795	54.4346
546.687	7.52588
549.58	32.0259
552.473	46.3257
555.365	1.82178
558.258	35.2367
561.151	46.1226
564.043	43.544
566.936	75.9912
569.829	199.751
572.721	171.815
575.614	358.41
578.507	387.259
581.4	526.763
584.292	628.282
587.185	660.235
590.078	802.132
592.97	793.751
595.863	854.593
598.756	786.645
601.649	844.932
604.541	651.348
607.434	595.246
610.327	504.262
613.219	410.949
616.112	323.596
619.005	270.078
621.897	279.294
624.79	176.192
627.683	208.271
630.576	191.721
633.468	202.992
636.361	247.952
639.254	316.618
642.146	318.555
645.039	213.769
647.932	209.58
650.824	163.636
653.717	194.281
656.61	135.382
659.502	175.326
662.395	85.6621
665.288	140.189
668.181	48.7842
671.073	37.7315
673.966	9.91016
676.859	28.6909
679.751	24.5674
682.644	47.0112
685.537	16.4971
688.429	47.5498
691.322	20.895
694.215	8.04004
697.107	48.6431
700	70.7061
702.893	48.0102
705.786	28.1982
708.678	11.1943
711.571	74.4839
714.464	44.1445
717.356	56.999
720.249	84.0562
723.142	71.4258
726.034	77.3813
728.927	81.3691
731.82	75.0635
734.713	39.7007
737.605	31.0034
740.498	105.368
743.391	63.9038
746.283	86.7036
749.176	53.2441
752.069	87.5444
754.962	99.1787
757.854	76.6992
760.747	73.5181
763.64	65.793
766.532	75.5776
769.425	45.6553
772.318	104.446
775.21	19.564
778.103	23.9233
780.996	76.4097
783.889	105.394
786.781	68.1851
789.674	70.6001
792.567	22.6382
795.459	34.812
798.352	69.5147
801.245	58.2051
804.137	39.6841
807.03	53.7188
809.923	63.9517
812.816	56.6069
815.708	65.6968
818.601	79.4497
821.494	66.8159
824.386	32.1958
827.279	98.6558
830.172	27.6973
833.064	84.1099
835.957	79.3193
838.85	74.9946
841.742	76.2622
844.635	51.2978
847.528	59.0098
850.42	67.2515
853.313	122.482
856.206	40.1533
859.099	0.067871
861.991	62.6387
864.884	41.4043
867.777	2.58545
870.669	20.1606
873.562	21.459
876.455	19.2803
879.347	29.8916
882.24	36.939
885.133	46.6934
888.026	56.8164
890.918	4.396
893.811	1.61133
896.704	23.1973
899.596	11.0557
902.489	6.73438
905.382	69.3374
908.274	38.4062
911.167	79.2803
914.06	86.9604
916.953	66.0693
919.845	80.9136
922.738	115.249
925.631	129.349
928.523	277.958
931.416	118.758
934.309	107.008
937.202	123.895
940.094	73.625
942.987	33.0856
945.88	69.1382
948.772	70.0825
951.665	75.542
954.558	100.737
957.45	208.268
960.343	313.385
963.236	446.779
966.129	627.851
969.021	777.792
971.914	998.962
974.807	1055.41
977.699	1102.78
980.592	1032.35
983.485	961.501
986.377	1029.62
989.27	1167.51
992.163	1523.93
995.056	1952.51
997.948	2501.28
1000.84	3085.73
1003.73	3523.05
1006.63	3763.33
1009.52	3720.25
1012.41	3606.2
1015.3	3284.59
1018.2	2532.95
1021.09	1753.29
1023.98	1202.16
1026.88	759.888
1029.77	521.239
1032.66	338.772
1035.55	263.194
1038.45	149.978
1041.34	79.2427
1044.23	63.206
1047.12	36.2593
1050.02	2.77441
1052.91	62.8057
1055.8	69.5039
1058.69	42.0918
1061.59	10.2354
1064.48	30.6094
1067.37	47.376
1070.27	47.1597
1073.16	160.073
1076.05	188.322
1078.94	215.864
1081.84	253.225
1084.73	227.648
1087.62	180.988
1090.52	173.669
1093.41	245.741
1096.3	121.165
1099.19	140.117
1102.09	236.718
1104.98	114.067
1107.87	102.093
1110.76	47.2358
1113.66	9.2002
1116.55	14.064
1119.44	107.821
1122.33	139.207
1125.23	90.9116
1128.12	241.699
1131.01	281.154
1133.9	385.161
1136.8	359.038
1139.69	535.578
1142.58	630.186
1145.48	601.266
1148.37	556.795
1151.26	492.096
1154.15	419.899
1157.05	261.541
1159.94	218.581
1162.83	165.64
1165.72	100.772
1168.62	34.2588
1171.51	121.704
1174.4	18.3247
1177.3	1.79346
1180.19	25.0171
1183.08	43.418
1185.97	24.585
1188.87	48.1011
1191.76	6.50293
1194.65	24.8145
1197.54	54.8076
1200.44	75.9228
1203.33	0.031738
1206.22	16.7398
1209.12	6.79932
1212.01	30.3281
1214.9	55.0415
1217.79	54.9497
1220.69	24.1719
1223.58	9.44531
1226.47	28.4893
1229.36	73.6562
1232.26	19.0317
1235.15	83.3569
1238.04	44.4712
1240.93	41.3218
1243.83	96.2202
1246.72	12.9688
1249.61	1.55713
1252.51	111.772
1255.4	54.6567
1258.29	2.29541
1261.18	18.689
1264.08	67.7671
1266.97	10.0288
1269.86	97.2915
1272.76	60.499
1275.65	96.2925
