Measurement: Raman, 532 nm, unoriented, Raman Data Processed
Mineral: Montroydite
Rruff sample: R070235
Ideal chemistry: HgO
Locality: Clear Creek claim, southern San Benito County, California, USA
Source: Michael Scott
Description: Red prismatic crystal with quartz, cinnabar and greenish yellow edgarbaileyite, R060500
Measured chemistry: Hg_1.00_O
Raman shift (cm-1)	intensity
143.394	0
146.287	3.23291
149.18	95.6836
152.072	257.388
154.965	414.168
157.858	482.973
160.75	475.658
163.643	441.74
166.536	473.978
169.429	470.687
172.321	535.476
175.214	497.673
178.107	416.05
180.999	400.904
183.892	371.608
186.785	385.975
189.678	371.225
192.57	368.517
195.463	381.67
198.356	366.46
201.248	292.799
204.141	232.302
207.034	225.752
209.926	216.068
212.819	134.789
215.712	147.557
218.605	97.5786
221.497	105.912
224.39	52.7349
227.283	31.7974
230.175	66.6343
233.068	13.8711
235.961	46.52
238.853	30.0488
241.746	6.24365
244.639	2.58252
247.532	39.2075
250.424	36.311
253.317	11.6621
256.21	54.4853
259.102	0.408203
261.995	67.4248
264.888	89.7891
267.781	73.5977
270.673	32.4932
273.566	55.168
276.459	88.6387
279.351	88.8525
282.244	120.912
285.137	159.906
288.029	385.19
290.922	607.543
293.815	931.512
296.707	1393.04
299.6	2164.59
302.493	3107.74
305.386	4695.01
308.278	6718.96
311.171	9377.1
314.064	12566.4
316.956	15772.5
319.849	18402.7
322.742	19261.6
325.635	17945
328.527	14697.8
331.42	11440.1
334.313	8520.69
337.205	6434.92
340.098	5040.51
342.991	3855.86
345.883	2985.48
348.776	2463.12
351.669	2048.01
354.562	1661.77
357.454	1380.22
360.347	1189.05
363.24	952.331
366.132	770.701
369.025	648.046
371.918	498.94
374.81	385.728
377.703	365.434
380.596	254.096
383.488	152.656
386.381	120.117
389.274	130.067
392.167	85.1416
395.059	22.1904
397.952	4.29492
400.845	26.5527
403.737	32.7598
406.63	8.38477
409.523	9.6875
412.416	31.6592
415.308	64.2695
418.201	20.8545
421.094	69.2812
423.986	61.0225
426.879	34.3272
429.772	25.2109
432.664	6.17188
435.557	145.683
438.45	109.276
441.343	114.058
444.235	108.936
447.128	75.2402
450.021	92.0811
452.913	77.1904
455.806	132.511
458.699	80.9238
461.591	158.483
464.484	118.814
467.377	73.7666
470.27	135.097
473.162	31.8643
476.055	161.001
478.948	115.203
481.84	115.272
484.733	68.9043
487.626	108.795
490.519	70.9394
493.411	91.71
496.304	78.4434
499.197	90.7353
502.089	18.4961
504.982	22.3574
507.875	7.23828
510.767	96.6465
513.66	91.0469
516.553	20.6797
519.446	26.9395
522.338	179.523
525.231	125.938
528.124	87.8398
531.016	54.373
533.909	27.2246
536.802	193.34
539.694	269.397
542.587	260.193
545.48	451.199
548.372	609.229
551.265	789.65
554.158	1170.07
557.051	1389.38
559.943	1657.84
562.836	1657.43
565.729	1171.69
568.621	624.021
571.514	428.315
574.407	340.305
577.299	64.7109
580.192	52.9062
583.085	55.9707
585.978	56.668
588.87	48.9824
591.763	122.836
594.656	49.4023
597.548	76.4766
600.441	3.24414
603.334	4.25
606.227	204.617
609.119	48.6504
612.012	86
614.905	153.188
617.797	110.439
620.69	35.2422
623.583	224.529
626.476	91.084
629.368	177.344
632.261	178.857
635.154	74.6621
638.046	250.176
640.939	126.615
643.832	107.447
646.724	191.877
649.617	206.982
652.51	203.266
655.403	180.309
658.295	139.897
661.188	156.381
664.081	68.7051
666.973	130.815
669.866	126.748
672.759	151.861
675.651	169.992
678.544	201.777
681.437	65.0703
684.33	60.7246
687.222	105.525
690.115	31.0059
693.008	169.584
695.9	63.1406
698.793	141.723
701.686	112.654
704.578	121.43
707.471	15.8887
710.364	57.9395
713.256	185.082
716.149	80.3008
719.042	123.33
721.935	82.7422
724.827	97.1426
727.72	247.781
730.613	131.799
733.505	153.504
736.398	56.4688
739.291	107.416
742.183	142.57
745.076	85.0918
747.969	23.416
750.862	53.2227
753.754	55.1582
756.647	138.701
759.54	73.0273
762.432	152.287
765.325	128.672
768.218	113.496
771.111	96.7227
774.003	97.7852
776.896	2.76562
779.789	107.789
782.681	34.7422
785.574	184.957
788.467	27.1641
791.359	53.457
794.252	66.5469
797.145	161.699
800.038	136.992
802.93	127.992
805.823	64.1289
808.716	144.789
811.608	35.6836
814.501	29.1602
817.394	249.781
820.286	156.668
823.179	301.832
826.072	40.5273
828.965	70.8086
831.857	12.4453
834.75	254.199
837.643	95.043
840.535	13.6016
843.428	147.871
846.321	1.88672
849.213	7.37891
852.106	34.8398
854.999	135.535
857.891	1.20312
860.784	90.1875
863.677	113.648
866.57	93.6641
869.462	90.0469
872.355	58.6758
875.248	71.1406
878.14	100.602
881.033	0.511719
883.926	91.8125
886.819	153.106
889.711	234.691
892.604	138.492
895.497	149.258
898.389	67.3281
901.282	181.519
904.175	129.484
907.067	184.746
909.96	23.6992
912.853	241.648
915.746	177.477
918.638	97.3398
921.531	247.676
924.424	127.019
927.316	142.664
930.209	81.0195
933.102	75.3281
935.995	99.0273
938.887	358.356
941.78	229.875
944.673	166.992
947.565	195.641
950.458	199.867
953.351	155.312
956.243	143.707
959.136	147.051
962.029	110.602
964.922	126.336
967.814	180.82
970.707	333.637
973.6	171.562
976.492	119.027
979.385	125.281
982.278	223.949
985.17	130.578
988.063	173.496
990.956	102.93
993.848	136.379
996.741	248.414
999.634	306.973
1002.53	45.7305
1005.42	206.852
1008.31	219.965
1011.21	283.731
1014.1	81.9062
1016.99	171.824
1019.88	108.445
1022.78	67.3555
1025.67	159.062
1028.56	173.418
1031.45	184.898
1034.35	33.0938
1037.24	217.445
1040.13	200.438
1043.02	198.648
1045.92	217.719
1048.81	195.195
1051.7	123.82
1054.6	24.5078
1057.49	1.32812
1060.38	93.8945
1063.27	289.066
1066.17	65.0898
1069.06	166.863
1071.95	284.019
1074.84	248.422
1077.74	328.824
1080.63	266.008
1083.52	294.75
1086.41	263.953
1089.31	92.375
1092.2	369.836
1095.09	215.984
1097.99	149.898
1100.88	60.7734
1103.77	57.4141
1106.66	45.3672
1109.56	47.2969
1112.45	18
1115.34	337.18
1118.23	288.844
1121.13	203.32
1124.02	11.2422
1126.91	124.703
1129.81	153.039
1132.7	300.07
1135.59	168.781
1138.48	202.164
1141.38	384.109
1144.27	37.9062
1147.16	259.203
1150.05	418.695
1152.95	248.375
1155.84	338.961
1158.73	147.648
1161.62	128.805
1164.52	255.914
1167.41	253.43
1170.3	403.594
1173.2	280.695
1176.09	89.1016
1178.98	396.961
1181.87	385.281
1184.77	250.992
1187.66	84.1406
1190.55	351.148
1193.44	263.531
1196.34	231.438
1199.23	263.805
1202.12	91.7969
1205.02	82.3906
1207.91	103.461
1210.8	502.82
1213.69	186.336
1216.59	171.938
1219.48	288.227
1222.37	232.156
1225.27	42.8906
1228.16	167.648
1231.05	327.523
1233.94	223.383
1236.84	423.672
1239.73	138.984
1242.62	597.539
1245.51	210.445
1248.41	256.555
1251.3	137.609
1254.19	41.5781
1257.08	259.859
1259.98	334.039
1262.87	473.023
1265.76	172.586
1268.65	268.016
1271.55	220.32
