Measurement: Raman, 780 nm, unoriented, Raman Data Processed
Mineral: Montebrasite
Rruff sample: R050500
Ideal chemistry: LiAlPO_4_(OH)
Locality: Pala, San Diego County, California, USA
Source: California Institute of Technology
Description: White fragment
Measured chemistry: LiAl(PO_4_)((OH)_0.52_F_0.48_)
Raman shift (cm-1)	intensity
102.019	0
105.394	0.440552
108.769	0.423187
112.144	6.57108
115.519	13.3586
118.893	22.5737
122.268	33.3716
125.643	40.0033
129.018	46.0043
132.393	31.0207
135.767	12.8785
139.142	1.31274
142.517	3.07639
145.892	13.3427
149.267	25.3686
152.642	39.632
156.016	54.4832
159.391	72.7293
162.766	84.2528
166.141	82.6802
169.516	68.855
172.89	53.66
176.265	40.039
179.64	30.8577
183.015	21.3764
186.39	14.7316
189.764	10.6349
193.139	5.82945
196.514	2.29559
199.889	1.34778
203.264	0.214859
206.639	1.68051
210.013	1.46936
213.388	1.50203
216.763	0.54187
220.138	1.26794
223.513	1.60204
226.887	0.088989
230.262	2.08401
233.637	2.27264
237.012	0.818985
240.387	3.01022
243.762	1.31979
247.136	5.4267
250.511	11.6999
253.886	20.258
257.261	26.9028
260.636	37.3267
264.01	47.7741
267.385	57.0859
270.76	63.505
274.135	68.5869
277.51	71.0233
280.885	88.1513
284.259	113.494
287.634	140.164
291.009	176.189
294.384	213.747
297.759	259.496
301.134	273.844
304.508	209.413
307.883	136.066
311.258	88.3772
314.633	64.2135
318.007	48.279
321.382	34.955
324.757	24.1981
328.132	14.2099
331.507	10.4121
334.882	5.9281
338.256	3.73895
341.631	3.57086
345.006	0.039673
348.381	0.316803
351.756	2.64809
355.13	0.67775
358.505	3.13516
361.88	3.90785
365.255	3.23216
368.63	4.25555
372.005	2.61726
375.379	2.38856
378.754	0.708786
382.129	0.658646
385.504	0.934219
388.879	0.945694
392.253	0.332962
395.628	2.02655
399.003	3.30534
402.378	7.53508
405.753	22.2792
409.128	47.3465
412.502	61.523
415.877	91.3337
419.252	130.441
422.627	189.428
426.002	185.909
429.377	87.0763
432.751	35.5148
436.126	16.6091
439.501	10.236
442.876	9.03664
446.25	8.75742
449.625	6.10236
453	8.47913
456.375	12.6812
459.75	16.6237
463.125	20.0985
466.5	31.2727
469.874	41.9135
473.249	55.1189
476.624	67.2173
479.999	73.1505
483.373	71.2763
486.748	64.7632
490.123	58.1955
493.498	48.5256
496.873	38.474
500.248	27.3092
503.622	21.4277
506.997	15.6198
510.372	10.2354
513.747	7.31451
517.122	2.46115
520.496	0.74649
523.871	0.292953
527.246	0.754105
530.621	1.34047
533.996	0.943939
537.371	0.618408
540.745	0.753998
544.12	0.28273
547.495	1.59943
550.87	0.052567
554.245	0.5755
557.62	0.957901
560.994	0.81456
564.369	1.81136
567.744	1.78188
571.119	3.41905
574.494	0.569504
577.868	3.26401
581.243	7.84495
584.618	11.6077
587.993	22.4788
591.368	25.8038
594.742	32.0269
598.117	43.9772
601.492	51.2553
604.867	38.5029
608.242	26.8207
611.616	21.5877
614.991	27.8669
618.366	34.9155
621.741	43.7939
625.116	58.4251
628.491	85.0651
631.865	110.264
635.24	123.499
638.615	145.554
641.99	189.083
645.365	197.653
648.74	123.201
652.114	60.7666
655.489	34.8889
658.864	18.1075
662.239	12.8206
665.614	7.97687
668.988	5.86026
672.363	7.54591
675.738	3.26175
679.113	1.35641
682.488	0.497421
685.862	2.95593
689.237	2.1436
692.612	1.13296
695.987	1.04723
699.362	1.78235
702.737	0.544342
706.111	1.1575
709.486	0.168488
712.861	3.08513
716.236	0.102097
719.611	3.68047
722.986	1.82959
726.36	0.223785
729.735	0.669144
733.11	0.92215
736.485	2.40132
739.86	0.320007
743.234	1.66995
746.609	0.791611
749.984	2.43303
753.359	2.34727
756.734	2.51077
760.109	1.57423
763.483	0.378647
766.858	3.4747
770.233	3.00197
773.608	4.40843
776.982	4.83658
780.357	5.14186
783.732	6.54636
787.107	10.0172
790.482	15.1536
793.857	17.5727
797.231	22.3899
800.606	25.5543
803.981	23.9431
807.356	23.0641
810.731	22.7911
814.106	20.7989
817.48	18.8083
820.855	16.8398
824.23	10.8835
827.605	9.67793
830.98	6.17722
834.354	4.24277
837.729	5.01495
841.104	6.18163
844.479	5.06876
847.854	4.11118
851.229	2.19081
854.603	3.67781
857.978	1.06038
861.353	4.93773
864.728	5.10262
868.103	1.80145
871.477	2.83334
874.852	3.66441
878.227	1.37605
881.602	2.12616
884.977	1.50426
888.351	4.19535
891.726	4.31191
895.101	3.71147
898.476	3.95164
901.851	2.56038
905.226	0.9338
908.6	1.74136
911.975	4.59167
915.35	0.113281
918.725	2.94777
922.1	1.23027
925.474	1.01305
928.849	0.953728
932.224	1.41197
935.599	0.251801
938.974	1.53894
942.348	0.86779
945.723	0.336296
949.098	0.124184
952.473	1.57581
955.848	0.033669
959.223	2.37984
962.597	1.38819
965.972	0.770386
969.347	2.91039
972.722	1.4722
976.097	3.92906
979.471	8.33463
982.846	16.2205
986.221	23.1361
989.596	36.1685
992.971	55.9901
996.346	80.8213
999.72	110.566
1003.1	138.204
1006.47	159.889
1009.85	161.511
1013.22	135.686
1016.59	101.937
1019.97	71.9961
1023.34	55.5804
1026.72	50.3631
1030.09	61.3476
1033.47	72.4844
1036.84	88.3742
1040.22	106.537
1043.59	119.042
1046.97	127.953
1050.34	144.929
1053.72	162.49
1057.09	178.739
1060.47	188.056
1063.84	149.223
1067.22	92.1691
1070.59	45.8837
1073.97	25.7801
1077.34	10.6329
1080.72	3.45104
1084.09	0.501709
1087.47	1.09555
1090.84	0.610916
1094.21	1.62916
1097.59	0.335388
1100.96	4.78961
1104.34	6.39163
1107.71	11.3264
1111.09	16.5709
1114.46	17.2056
1117.84	18.3629
1121.21	19.8783
1124.59	15.1239
1127.96	13.0453
1131.34	10.3053
1134.71	6.37296
1138.09	3.35557
1141.46	3.14689
1144.84	1.82912
1148.21	1.63471
1151.59	1.15499
1154.96	1.44575
1158.34	0.636841
1161.71	1.73362
1165.09	1.49274
1168.46	1.62784
1171.84	3.54471
1175.21	4.22406
1178.59	2.59949
1181.96	5.04523
1185.34	6.93636
1188.71	9.9565
1192.09	11.6039
1195.46	9.18223
1198.84	12.1878
1202.21	12.3292
1205.58	10.7294
1208.96	6.75628
1212.33	6.96997
1215.71	6.99528
1219.08	3.38195
1222.46	2.02876
1225.83	3.21643
1229.21	3.37371
1232.58	2.37641
1235.96	2.26573
1239.33	0.541481
1242.71	1.86673
1246.08	2.2625
1249.46	1.77135
1252.83	0.819618
1256.21	1.95996
1259.58	0.645172
1262.96	1.85015
1266.33	1.08656
1269.71	0.279694
1273.08	2.84858
1276.45	1.91753
1279.83	2.40487
1283.2	3.57474
