Measurement: Raman, 785 nm, unoriented, Raman Data Processed
Mineral: Montebrasite
Rruff sample: R040062
Ideal chemistry: LiAlPO_4_(OH)
Locality: Hebron, Maine, USA
Source: University of Arizona Mineral Museum
Description: White massive
Measured chemistry: LiAl(PO_4_)((OH)_0.62_F_0.38_)
Raman shift (cm-1)	intensity
163.954	0
166.847	22.1059
169.74	47.0001
172.632	27.5001
175.525	28.677
178.418	40.5891
181.311	37.1863
184.203	29.5518
187.096	42.9701
189.989	29.5036
192.881	6.52365
195.774	9.83963
198.667	7.24512
201.56	5.54065
204.452	6.28104
207.345	10.7968
210.238	17.7313
213.13	11.837
216.023	19.5523
218.916	3.6171
221.808	28.2147
224.701	26.6782
227.594	21.7277
230.487	13.744
233.379	33.6841
236.272	3.92276
239.165	4.83856
242.057	0.300598
244.95	5.25223
247.843	7.59631
250.735	4.42456
253.628	5.57584
256.521	18.6399
259.413	29.0664
262.306	47.1851
265.199	60.4523
268.092	97.9299
270.984	118.767
273.877	148.643
276.77	148.65
279.662	146.19
282.555	147.593
285.448	175.852
288.341	231.017
291.233	453.704
294.126	746.224
297.019	1014.7
299.911	1134.04
302.804	898.536
305.697	650.305
308.589	566.702
311.482	444.735
314.375	344.557
317.267	286.421
320.16	226.734
323.053	208.172
325.946	148.992
328.838	98.5825
331.731	67.2408
334.624	47.4458
337.516	17.0412
340.409	0.930298
343.302	8.58157
346.195	6.38254
349.087	4.36401
351.98	9.96372
354.873	8.4722
357.765	12.9568
360.658	14.3198
363.551	7.19119
366.443	15.1855
369.336	15.6137
372.229	23.4551
375.122	40.2595
378.014	40.4688
380.907	28.2777
383.8	22.0042
386.692	27.6458
389.585	3.52234
392.478	26.9838
395.37	24.3525
398.263	4.26953
401.156	16.2587
404.048	2.80682
406.941	10.4663
409.834	10.9997
412.727	18.8653
415.619	17.4237
418.512	64.9871
421.405	159.175
424.297	239.38
427.19	283.438
430.083	158.892
432.976	82.9832
435.868	43.7138
438.761	47.5135
441.654	23.2886
444.546	28.5173
447.439	21.3911
450.332	16.2745
453.224	2.1369
456.117	10.3894
459.01	19.8421
461.902	0.322723
464.795	0.671021
467.688	8.13898
470.581	19.0389
473.473	62.8353
476.366	95.6778
479.259	122.673
482.151	115.914
485.044	141.858
487.937	108.217
490.829	109.954
493.722	114.346
496.615	82.1179
499.508	69.8859
502.4	40.2723
505.293	30.2603
508.186	12.2819
511.078	12.0216
513.971	13.9173
516.864	7.51132
519.756	14.4341
522.649	9.50531
525.542	1.20032
528.435	6.00708
531.327	11.3278
534.22	4.21579
537.113	9.03308
540.005	15.9929
542.898	11.0095
545.791	24.7291
548.683	14.4408
551.576	15.4265
554.469	4.75742
557.362	18.9785
560.254	16.2682
563.147	1.15881
566.04	2.2941
568.932	3.16776
571.825	1.71097
574.718	51.4958
577.611	53.2536
580.503	68.1985
583.396	73.2729
586.289	78.1049
589.181	117.794
592.074	120.559
594.967	115.799
597.859	192.385
600.752	277.146
603.645	253.395
606.538	163.858
609.43	121.038
612.323	102.827
615.216	119.309
618.108	147.046
621.001	191.318
623.894	311.925
626.786	384.874
629.679	484.483
632.572	393.954
635.465	345.53
638.357	346.08
641.25	480.551
644.143	668.202
647.035	588.873
649.928	314.411
652.821	240.447
655.713	104.322
658.606	70.9285
661.499	44.049
664.391	47.1124
667.284	25.9705
670.177	18.1905
673.07	19.8356
675.962	2.37747
678.855	14.7166
681.748	5.53177
684.64	4.79303
687.533	2.30212
690.426	3.8107
693.318	14.7171
696.211	11.4111
699.104	8.16208
701.997	9.39954
704.889	4.53305
707.782	11.3974
710.675	1.47455
713.567	9.57025
716.46	10.1841
719.353	3.84699
722.245	6.28738
725.138	2.36005
728.031	3.60959
730.924	19.5399
733.816	21.1528
736.709	13.5483
739.602	19.0131
742.494	13.1517
745.387	4.04144
748.28	15.9015
751.173	1.7471
754.065	23.7979
756.958	15.0955
759.851	23.4522
762.743	13.33
765.636	5.04675
768.529	0.147675
771.421	27.8779
774.314	22.0456
777.207	21.7667
780.1	48.3878
782.992	43.2423
785.885	74.2468
788.778	91.7903
791.67	105.286
794.563	111.175
797.456	127.61
800.348	134.215
803.241	153.147
806.134	135.443
809.027	141.041
811.919	120.048
814.812	88.5018
817.705	84.7376
820.597	83.0518
823.49	68.2268
826.383	38.8707
829.275	27.1492
832.168	21.0081
835.061	20.9925
837.953	8.28449
840.846	11.2433
843.739	15.5005
846.631	16.9547
849.524	10.4015
852.417	22.2394
855.31	14.1606
858.202	1.23483
861.095	18.695
863.988	3.26157
866.88	8.95547
869.773	1.66092
872.666	29.1761
875.558	14.8612
878.451	19.4407
881.344	27.3459
884.237	36.2904
887.129	16.9064
890.022	39.9097
892.915	37.0232
895.807	20.5686
898.7	23.2051
901.593	32.7304
904.486	21.1142
907.378	5.67783
910.271	23.1157
913.164	2.33176
916.056	13.4262
918.949	0.391937
921.842	5.54803
924.734	14.4522
927.627	8.90045
930.52	23.8041
933.413	5.48929
936.305	7.55106
939.198	8.52438
942.091	5.86954
944.983	0.048462
947.876	11.9126
950.769	9.06213
953.661	29.8263
956.554	87.6958
959.447	194.853
962.34	389.871
965.232	506.783
968.125	190.552
971.018	54.2617
973.91	1.1861
976.803	0.862366
979.696	11.6707
982.588	25.2281
985.481	38.7769
988.374	65.7081
991.266	80.8029
994.159	153.449
997.052	230.403
999.945	309.488
1002.84	458.297
1005.73	578.707
1008.62	672.532
1011.51	688.628
1014.41	548.625
1017.3	373.173
1020.19	240.138
1023.09	150.657
1025.98	107.105
1028.87	115.223
1031.76	154.973
1034.66	211.649
1037.55	270.854
1040.44	314.844
1043.34	404.592
1046.23	429.337
1049.12	397.154
1052.01	436.588
1054.91	480.427
1057.8	545.093
1060.69	527.503
1063.58	377.587
1066.48	202.709
1069.37	106.897
1072.26	63.0593
1075.15	22.3028
1078.05	13.7178
1080.94	7.03775
1083.83	1.73868
1086.73	6.32129
1089.62	6.4726
1092.51	4.58786
1095.4	1.70471
1098.3	7.22211
1101.19	32.5034
1104.08	49.175
1106.97	82.9028
1109.87	103.847
1112.76	98.6415
1115.65	88.0149
1118.55	78.7679
1121.44	73.8648
1124.33	46.8413
1127.22	41.4155
1130.12	39.3696
1133.01	32.8119
1135.9	21.9942
1138.79	8.42047
1141.69	7.54874
1144.58	7.48016
1147.47	9.58173
1150.37	8.36252
1153.26	7.17041
1156.15	12.0322
1159.04	16.1389
1161.94	7.77811
1164.83	1.60126
1167.72	12.8087
1170.61	1.20111
1173.51	20.327
1176.4	12.7487
1179.29	16.4599
1182.18	16.1923
1185.08	22.5666
1187.97	23.7327
1190.86	33.8611
1193.76	24.8775
1196.65	31.8247
1199.54	39.9024
1202.43	26.6212
1205.33	19.6477
1208.22	24.135
1211.11	19.7996
1214	27.0604
1216.9	28.4593
1219.79	25.1037
1222.68	9.56029
1225.58	21.3251
1228.47	27.4387
1231.36	13.9231
1234.25	15.909
1237.15	5.08662
1240.04	23.5547
1242.93	33.572
1245.82	39.913
1248.72	21.6812
1251.61	25.2878
1254.5	16.5416
1257.39	2.64568
1260.29	12.8446
1263.18	11.8964
1266.07	0
