Measurement: Raman, 532 nm, unoriented, Raman Data Processed
Mineral: Monticellite
Rruff sample: R040115
Ideal chemistry: CaMgSiO_4_
Locality: Magnet Cove, Arkansas, USA
Source: University of Arizona Mineral Museum
Description: Brown blebs in matrix
Measured chemistry: Ca_0.99_(Mg_0.85_ Fe_0.12_Mn_0.03_)Si_1.00_O_4_
Raman shift (cm-1)	intensity
155.929	0
158.822	15.7358
161.715	88.2739
164.607	227.496
167.5	300.544
170.393	462.993
173.286	410.625
176.178	195.257
179.071	50.6006
181.964	27.3599
184.856	92.8657
187.749	122.724
190.642	104.475
193.535	115.707
196.427	95.4678
199.32	149.118
202.213	127.912
205.105	170.001
207.998	104.193
210.891	118.536
213.783	162.772
216.676	73.6582
219.569	99.2568
222.462	96.6494
225.354	85.3721
228.247	168.621
231.14	154.678
234.032	206.049
236.925	231.56
239.818	316.957
242.71	430.09
245.603	633.11
248.496	863.315
251.388	1270.31
254.281	1884.8
257.174	2565.03
260.067	1638.78
262.959	763.178
265.852	457.976
268.745	294.74
271.637	290.861
274.53	248.264
277.423	130.042
280.315	71.6309
283.208	10.9619
286.101	10.4736
288.994	53.0635
291.886	35.4258
294.779	251.122
297.672	306.21
300.564	385.57
303.457	607.76
306.35	644.01
309.243	300.349
312.135	123.312
315.028	72.9072
317.921	60.166
320.813	56.0674
323.706	76.3652
326.599	37.4824
329.491	79.8203
332.384	87.0107
335.277	56.543
338.17	42.8877
341.062	0.913086
343.955	19.2656
346.848	42.706
349.74	30.6582
352.633	2.68457
355.526	10.084
358.418	60.8086
361.311	57.3838
364.204	89.7988
367.097	82.709
369.989	75.9297
372.882	41.9775
375.775	176.727
378.667	53.3438
381.56	251.304
384.453	273.425
387.346	347.934
390.238	490.159
393.131	765.452
396.024	1160.64
398.916	1483.54
401.809	1788.39
404.702	2070.72
407.594	2178.49
410.487	1876.14
413.38	1473.42
416.272	836.202
419.165	467.253
422.058	331.233
424.951	230.609
427.843	188.764
430.736	148.517
433.629	151.004
436.521	136.759
439.414	132.934
442.307	67.2441
445.2	99.0791
448.092	71.0537
450.985	24.5498
453.878	112.65
456.77	6.85938
459.663	41.0381
462.556	65.1748
465.448	38.5
468.341	62.7998
471.234	7.18262
474.127	96.8389
477.019	99.1572
479.912	28.71
482.805	72.7715
485.697	47.4228
488.59	23.457
491.483	35.2695
494.375	31.1729
497.268	50.4414
500.161	62.7227
503.053	28.6943
505.946	48.7647
508.839	96.8662
511.732	82.0156
514.624	88.0879
517.517	177.769
520.41	320.505
523.302	475.834
526.195	753.216
529.088	1108.28
531.981	1372.26
534.873	1027.63
537.766	506.786
540.659	298.418
543.551	183.262
546.444	113.762
549.337	100.755
552.229	153.292
555.122	226.171
558.015	236.642
560.908	214.727
563.8	306.685
566.693	429.211
569.586	369.878
572.478	489.802
575.371	562.257
578.264	547.465
581.156	617.482
584.049	647.98
586.942	626.8
589.835	514.679
592.727	321.585
595.62	243.56
598.513	122.539
601.405	116.171
604.298	46.7539
607.191	42.5557
610.083	82.1279
612.976	30.6855
615.869	10.1133
618.762	29.5479
621.654	13.5381
624.547	122.341
627.44	57.5059
630.332	2.75781
633.225	121.774
636.118	44.3467
639.01	52.6357
641.903	108.511
644.796	86.6445
647.689	162.574
650.581	141.837
653.474	174.549
656.367	190.126
659.259	108.518
662.152	72.9668
665.045	161.658
667.938	174.463
670.83	203.762
673.723	189.681
676.616	231.049
679.508	139.842
682.401	173.273
685.294	82.2969
688.186	234.312
691.079	115.4
693.972	117.981
696.865	199.779
699.757	108.744
702.65	221.502
705.543	193.713
708.435	147.658
711.328	88.5312
714.221	174.068
717.113	8.48047
720.006	34.3516
722.899	65.1875
725.792	22.7852
728.684	1.29297
731.577	54.082
734.47	14.5117
737.362	54.4141
740.255	60.8828
743.148	52.6094
746.04	68.5391
748.933	67.9492
751.826	19.959
754.719	23.8047
757.611	35.3867
760.504	29.3672
763.397	10.9062
766.289	20.4941
769.182	105.598
772.075	2.09766
774.967	4.69336
777.86	5.74023
780.753	0.394531
783.646	155.959
786.538	133.269
789.431	167.397
792.324	222.654
795.216	487.379
798.109	626.488
801.002	1053.61
803.894	1847.17
806.787	3159.63
809.68	5190.78
812.573	8041.17
815.465	10875.1
818.358	11001.3
821.251	7572.28
824.143	4328.15
827.036	2945.97
829.929	2310.55
832.822	2320.9
835.714	2696.69
838.607	4410.52
841.5	7489.91
844.392	11833.2
847.285	16575.6
850.178	17905.1
853.07	11297.8
855.963	5786.4
858.856	3048.82
861.749	1770.35
864.641	1036.67
867.534	790.994
870.427	495.113
873.319	436.891
876.212	322.58
879.105	312.32
881.997	251.693
884.89	133.072
887.783	115.275
890.676	281.299
893.568	403.506
896.461	547.352
899.354	566.717
902.246	291.791
905.139	77.5918
908.032	61.875
910.924	29.7109
913.817	87.5859
916.71	19.5508
919.602	9.29883
922.495	62.9023
925.388	18.5508
928.281	27.8242
931.173	149.779
934.066	410.801
936.959	761.385
939.851	1236.36
942.744	2191.78
945.637	3131.33
948.529	2721.49
951.422	1404.88
954.315	768.531
957.208	375.941
960.1	281.211
962.993	287.088
965.886	139.147
968.778	157.42
971.671	118.766
974.564	80.7793
977.457	40.8672
980.349	56.4375
983.242	105.367
986.135	28.5078
989.027	144.582
991.92	38.7441
994.813	36.8164
997.705	161.111
1000.6	136.84
1003.49	140.666
1006.38	28.9941
1009.28	171.756
1012.17	121.988
1015.06	181.828
1017.95	98.8769
1020.85	11.0664
1023.74	118.447
1026.63	94.6641
1029.53	23.4785
1032.42	87.9668
1035.31	145.916
1038.2	5.22266
1041.1	125.053
1043.99	74.2207
1046.88	11.4824
1049.77	52.2773
1052.67	75.832
1055.56	50.4707
1058.45	33.9102
1061.35	74.0488
1064.24	8.32227
1067.13	49.666
1070.02	98.1582
1072.92	100.477
1075.81	104.244
1078.7	151.721
1081.59	113.07
1084.49	13.6582
1087.38	34.4688
1090.27	38.7422
1093.16	133.264
1096.06	5.46289
1098.95	116.316
1101.84	71.8144
1104.73	85.6719
1107.63	69.1406
1110.52	139.596
1113.41	133.478
1116.31	128.9
1119.2	105.981
1122.09	54.4121
1124.98	31.3418
1127.88	91.4785
1130.77	58.541
1133.66	127.988
1136.56	65.7441
1139.45	150.893
1142.34	65.0781
1145.23	58.3711
1148.13	50.3457
1151.02	89.5879
1153.91	68.459
1156.8	194.281
1159.7	201.035
1162.59	122.277
1165.48	110.385
1168.38	85.3633
1171.27	16.5898
1174.16	61.9316
1177.05	33.5762
1179.95	105.408
1182.84	167.301
1185.73	150.203
1188.62	112.764
1191.52	57.7363
1194.41	2.79883
1197.3	160.023
1200.19	99.3848
1203.09	9.85352
1205.98	121.051
1208.87	65.5215
1211.77	67.0547
1214.66	75.2598
1217.55	23.6758
1220.44	14.6602
1223.34	126.115
1226.23	9.14062
1229.12	106.764
1232.01	46.6133
1234.91	56.5078
1237.8	143.65
1240.69	45.082
1243.59	146.19
1246.48	60.9395
1249.37	184.236
1252.26	81.4805
1255.16	178.676
1258.05	113.443
1260.94	87.7461
1263.83	116.469
1266.73	29.4863
1269.62	113.641
1272.51	121.314
1275.4	129.082
1278.3	121.603
1281.19	75.6113
1284.08	82.2031
1286.98	40.332
1289.87	50.0195
1292.76	14.3086
1295.65	26.459
1298.55	88.7344
1301.44	162.381
1304.33	102.986
1307.22	7.66211
