Measurement: Raman, 780 nm, unoriented, Raman Data Processed
Mineral: Montgomeryite
Rruff sample: R070631
Ideal chemistry: Ca_4_MgAl_4_(PO_4_)_6_(OH)_4_12H_2_O
Locality: Tip Top mine, Custer County, South Dakota, USA
Source: Dakota Matrix Minerals
Description: Translucent reddish orange tabular crystals associated with orthoclase.
Raman shift (cm-1)	intensity
109.827	0
113.202	88.5923
116.577	116.795
119.952	31.7886
123.326	57.602
126.701	71.1045
130.076	16.6768
133.451	151.455
136.826	203.833
140.201	448.242
143.575	550.95
146.95	685.727
150.325	723.558
153.7	818.225
157.075	1035.59
160.449	1282.03
163.824	1091.76
167.199	822.557
170.574	693.842
173.949	652.361
177.323	641.871
180.698	533.958
184.073	356.33
187.448	219.453
190.823	176.669
194.198	171.187
197.572	312.135
200.947	403.263
204.322	380.504
207.697	261.817
211.072	39.4707
214.446	26.147
217.821	72.2947
221.196	22.8757
224.571	9.10596
227.946	150.639
231.321	29.9641
234.695	165.491
238.07	247.161
241.445	175.492
244.82	220.75
248.195	294.55
251.57	247.577
254.944	344.321
258.319	359.384
261.694	318.567
265.069	519.958
268.444	551.042
271.818	536.949
275.193	468.714
278.568	536.761
281.943	708.527
285.318	828.919
288.692	807.967
292.067	875.158
295.442	804.975
298.817	744.073
302.192	593.189
305.567	477.719
308.941	459.821
312.316	385.447
315.691	408.615
319.066	327.58
322.441	270.329
325.815	181.3
329.19	117.269
332.565	41.1128
335.94	27.0149
339.315	17.6943
342.69	32.6821
346.064	36.5039
349.439	47.0178
352.814	5.4458
356.189	9.57153
359.564	5.99463
362.938	13.9661
366.313	32.5159
369.688	120.726
373.063	164.566
376.438	242.898
379.813	298.456
383.187	480.473
386.562	612.669
389.937	666.541
393.312	711.208
396.687	556.518
400.062	445.757
403.436	286.67
406.811	160.736
410.186	64.0254
413.561	56.7825
416.936	3.9375
420.31	12.6401
423.685	19.1035
427.06	29.7253
430.435	11.429
433.81	92.2978
437.185	116.353
440.559	259.231
443.934	369.697
447.309	479.443
450.684	712.512
454.059	921.475
457.433	988.74
460.808	952.417
464.183	848.379
467.558	653.933
470.933	690.814
474.308	770.864
477.682	591.947
481.057	422.766
484.432	331.204
487.807	258.874
491.182	212.842
494.556	321.017
497.931	394.511
501.306	595.154
504.681	887.629
508.056	1217.32
511.43	1444.58
514.805	1188.24
518.18	789.567
521.555	529.706
524.93	376.596
528.305	299.046
531.679	276.457
535.054	178.611
538.429	185.278
541.804	128.761
545.179	63.6467
548.553	28.9995
551.928	15.8704
555.303	6.02979
558.678	11.4695
562.053	16.1423
565.428	28.1946
568.802	49.0542
572.177	124.322
575.552	193.418
578.927	280.701
582.302	408.14
585.677	507.268
589.051	530.654
592.426	578.314
595.801	632.571
599.176	583.857
602.551	545.402
605.925	516.283
609.3	464.893
612.675	345.295
616.05	314.661
619.425	227.565
622.799	156.282
626.174	83.6856
629.549	61.4629
632.924	81.991
636.299	81.8572
639.674	50.9626
643.048	87.7656
646.423	71.8157
649.798	69.2068
653.173	108.242
656.548	128.364
659.923	110.051
663.297	43.8801
666.672	96.5523
670.047	52.0286
673.422	80.4502
676.797	59.7737
680.171	15.8572
683.546	4.12183
686.921	25.5178
690.296	32.6797
693.671	43.3237
697.045	2.00366
700.42	4.11328
703.795	32.7144
707.17	64.8127
710.545	16.6362
713.92	61.9092
717.294	69.1462
720.669	73.6265
724.044	79.251
727.419	55.2085
730.794	124.263
734.168	102.888
737.543	86.9788
740.918	137.22
744.293	126.484
747.668	124.155
751.043	93.2485
754.417	83.6248
757.792	137.263
761.167	7.02759
764.542	38.583
767.917	55.749
771.292	52.4214
774.666	62.6812
778.041	57.8145
781.416	40.8247
784.791	60.877
788.166	127.476
791.54	55.606
794.915	85.3267
798.29	100.797
801.665	63.6435
805.04	63.6709
808.414	51.6484
811.789	68.8452
815.164	61.1929
818.539	78.5044
821.914	4.42383
825.289	68.4805
828.663	59.1807
832.038	22.7876
835.413	55.8047
838.788	77.6494
842.163	33.9976
845.538	59.6865
848.912	13.9585
852.287	47.5684
855.662	46.0435
859.037	116.066
862.412	30.103
865.786	13.4282
869.161	55.7456
872.536	70.4541
875.911	16.1406
879.286	76.8027
882.66	49.5513
886.035	7.04443
889.41	9.44922
892.785	10.2539
896.16	47.3623
899.535	17.1401
902.909	48.6123
906.284	39.4922
909.659	5.68555
913.034	11.2681
916.409	34.1187
919.784	46.5947
923.158	47.9893
926.533	50.127
929.908	132.39
933.283	64.5762
936.658	71.5239
940.032	78.3877
943.407	104.714
946.782	64.8989
950.157	82.5454
953.532	76.6426
956.907	122.863
960.281	215.574
963.656	315.481
967.031	417.002
970.406	696.568
973.781	893.09
977.155	1028.27
980.53	997.268
983.905	927.37
987.28	864.384
990.655	934.786
994.029	1178.2
997.404	1694.36
1000.78	2244.52
1004.15	2822.11
1007.53	3185.23
1010.9	3307.46
1014.28	3364.91
1017.65	3010.79
1021.03	2048.06
1024.4	1279.01
1027.78	795.331
1031.15	511.491
1034.53	305.381
1037.9	258.423
1041.28	148.866
1044.65	119.709
1048.03	82.8672
1051.4	19.3975
1054.78	26.0561
1058.15	42.2022
1061.53	8.71582
1064.9	39.729
1068.28	8.5415
1071.65	23.1401
1075.03	107.91
1078.4	247.546
1081.78	262.972
1085.15	275.483
1088.52	263.563
1091.9	243.61
1095.27	234.368
1098.65	211.806
1102.02	52.3643
1105.4	43.353
1108.77	43.5181
1112.15	69.8857
1115.52	20.7798
1118.9	4.99072
1122.27	23.731
1125.65	162.802
1129.02	192.886
1132.4	245.5
1135.77	317.182
1139.15	251.913
1142.52	274.518
1145.9	333.013
1149.27	321.898
1152.65	323.728
1156.02	157.083
1159.4	160.937
1162.77	107.719
1166.14	42.894
1169.52	32.148
1172.89	13.0684
1176.27	6.93408
1179.64	10.6724
1183.02	35.0742
1186.39	7.25928
1189.77	70.7568
1193.14	65.3682
1196.52	59.8999
1199.89	4.11572
1203.27	43.5259
1206.64	26.8594
1210.02	28.7568
1213.39	82.2427
1216.77	54.6548
1220.14	39.7275
1223.52	76.2905
1226.89	27.5605
1230.27	38.0366
1233.64	77.0903
1237.02	48.4482
1240.39	78.4941
1243.77	22.3169
1247.14	70.0234
1250.52	43.6714
1253.89	54.2373
1257.27	53.7534
1260.64	118.878
1264.02	59.0908
1267.39	13.458
1270.77	0
