Measurement: Raman, 514 nm, unoriented, Raman Data Processed
Mineral: Monticellite
Rruff sample: R040115
Ideal chemistry: CaMgSiO_4_
Locality: Magnet Cove, Arkansas, USA
Source: University of Arizona Mineral Museum
Description: Brown blebs in matrix
Measured chemistry: Ca_0.99_(Mg_0.85_ Fe_0.12_Mn_0.03_)Si_1.00_O_4_
Raman shift (cm-1)	intensity
107.3	0
111.473	77.07
115.644	206.984
119.813	156.415
123.981	100.118
128.146	119.683
132.309	285.69
136.47	277.669
140.63	470.022
144.787	345.136
148.942	216.705
153.096	167.226
157.247	452.941
161.396	898.316
165.544	1027.74
169.689	799.176
173.833	471.161
177.974	192.365
182.114	209.264
186.251	73.82
190.387	140.046
194.52	207.687
198.652	381.813
202.782	360.535
206.909	355.548
211.035	165.341
215.159	190.341
219.281	26.945
223.4	55.892
227.518	27.967
231.634	18.959
235.748	100.995
239.86	608.689
243.97	939.854
248.079	814.657
252.185	2066.98
256.289	2797.99
260.391	1710.77
264.492	722.311
268.59	732.181
272.687	305.359
276.781	140.465
280.874	9.405
284.964	197.363
289.053	234.318
293.14	333.946
297.225	419.837
301.308	646.291
305.389	694.097
309.468	239.037
313.545	154.533
317.62	30.572
321.693	88.086
325.765	350.744
329.834	367.437
333.902	341.292
337.967	116.17
342.031	61.801
346.093	106.939
350.153	15.199
354.21	63.239
358.267	145.729
362.321	34.305
366.373	89.295
370.423	151.052
374.471	30.615
378.518	230.953
382.563	358.213
386.605	560.438
390.646	910.818
394.685	1791.83
398.722	3221.07
402.757	4202.01
406.79	4391.78
410.821	3174.31
414.851	1632.6
418.878	817.643
422.904	566.44
426.927	502.998
430.949	205.36
434.969	483.496
438.987	148.354
443.003	94.6
447.018	134.535
451.03	124.396
455.041	149.686
459.049	226.254
463.056	68.92
467.061	72.076
471.064	19.786
475.065	211.146
479.064	84.543
483.062	244.496
487.057	204.738
491.051	148.099
495.043	137.861
499.032	4.661
503.02	2.377
507.007	83.816
510.991	81.807
514.973	178.948
518.954	382.147
522.933	472.502
526.91	893.884
530.885	1524.72
534.858	993.204
538.829	684.503
542.799	452.379
546.766	343.779
550.732	545.178
554.696	376.921
558.658	531.744
562.618	399.324
566.576	544.398
570.533	771.797
574.488	788.785
578.44	1002.5
582.391	1248.34
586.341	1108.29
590.288	1015.96
594.233	652.011
598.177	599.352
602.119	444.852
606.059	428.617
609.997	100.671
613.933	359.233
617.868	270.143
621.801	286.561
625.731	114.823
629.66	288.875
633.588	383.471
637.513	53.807
641.437	169.424
645.358	4.477
649.278	110.896
653.196	39.443
657.113	209.225
661.027	356.621
664.94	130.758
668.851	114.352
672.76	100.393
676.667	114.842
680.572	15.512
684.476	98.701
688.378	32.988
692.278	105.977
696.176	330.611
700.072	17.209
703.967	35.289
707.86	238.695
711.751	405.984
715.64	82
719.527	33.262
723.413	130.111
727.297	292.324
731.179	253.391
735.059	155.314
738.937	257.098
742.814	107.258
746.689	212.1
750.562	57.338
754.433	284.469
758.303	90.502
762.17	206.064
766.036	391.1
769.901	203.023
773.763	313.312
777.624	543.145
781.482	402.428
785.339	564.572
789.195	617.654
793.048	1582.34
796.9	1314.71
800.75	1749.24
804.598	2906.91
808.445	5931.39
812.289	12938.2
816.132	23691.3
819.973	21377.6
823.813	11484.6
827.65	6277.39
831.486	4598.11
835.32	3690.62
839.152	4567.33
842.983	8708.02
846.812	20173.1
850.639	24271.6
854.464	12317.8
858.288	6170.45
862.11	3017.11
865.93	1953.61
869.748	1506.44
873.564	1162.81
877.379	824.465
881.192	785.086
885.004	705.672
888.813	760.855
892.621	1408.63
896.427	3240.06
900.232	3680.27
904.034	1511.6
907.835	703.211
911.634	466.869
915.432	338.625
919.227	346.061
923.021	271.604
926.813	416.605
930.604	385.418
934.393	296.1
938.18	531.324
941.965	1776.99
945.749	4179.23
949.53	3724.91
953.311	1786.95
957.089	769.756
960.866	361.572
964.641	318.904
968.414	165.627
972.185	209.867
975.955	13.861
979.723	15.164
983.49	101.412
987.254	206.176
991.017	351.709
994.779	243.924
998.538	230.979
1002.3	446.545
1006.05	46.4
1009.81	439.256
1013.56	342.51
1017.31	288.049
1021.06	207.838
1024.81	175.584
1028.55	581.736
1032.3	557.91
1036.04	529.492
1039.78	473.049
1043.52	440.074
1047.26	424.523
1050.99	652.271
1054.73	479.037
1058.46	225.131
1062.19	320.453
1065.92	351.412
1069.65	474.324
1073.37	579.125
1077.1	351.979
1080.82	96.178
1084.54	291.961
1088.26	168.107
1091.97	189.473
1095.69	42.1
1099.4	77.455
1103.12	112.582
1106.83	310.43
1110.54	0.562
1114.24	192.408
1117.95	45.514
1121.65	105.396
1125.35	292.223
1129.06	233.225
1132.75	159.676
1136.45	181.221
1140.15	108.479
1143.84	9.957
1147.53	211.604
1151.22	56.244
1154.91	255.857
1158.6	176.418
1162.28	321.182
1165.97	175.268
1169.65	301.807
1173.33	23.914
1177.01	53.477
1180.69	312.316
1184.36	351.201
1188.04	705.848
1191.71	141.453
1195.38	444.955
1199.05	51.086
1202.71	166.818
1206.38	186.516
1210.04	594.562
1213.71	438.398
1217.37	311.699
1221.03	366.086
1224.68	123.059
1228.34	34.553
1231.99	381.59
1235.65	235.383
1239.3	278.676
1242.95	329.332
1246.59	288.082
1250.24	31.887
1253.88	276.615
1257.53	162.752
1261.17	175.926
1264.81	78.977
1268.45	63.881
1272.08	80
1275.72	57.215
1279.35	14.738
1282.98	17.551
1286.61	15.047
1290.24	57.738
1293.87	71.41
1297.49	321.617
1301.11	397.797
1304.73	269.203
1308.36	342.598
1311.97	341.102
1315.59	186.008
1319.2	314.828
1322.82	105.523
1326.43	2.559
1330.04	145.699
1333.65	340.445
1337.26	171.586
1340.86	221.879
1344.47	171.23
1348.07	671.609
1351.67	42.637
1355.27	473.574
1358.87	333.289
1362.46	465.945
1366.06	614.461
1369.65	488.656
1373.24	389.492
1376.83	649.406
1380.42	569.219
1384	391.543
1387.59	130.379
1391.17	241.996
1394.75	292.984
1398.33	263.598
1401.91	195.641
1405.49	456.805
1409.06	341.938
1412.64	486.73
1416.21	790.754
1419.78	398.188
1423.35	576.57
1426.91	617.512
1430.48	580.289
1434.05	491.293
1437.61	732.906
1441.17	385.07
1444.73	529.809
1448.29	681.598
1451.84	440.469
1455.4	583.152
1458.95	802.152
1462.5	940.348
1466.05	681.398
1469.6	449.5
1473.15	617.547
1476.69	509.113
1480.24	259.344
1483.78	330.379
1487.32	341.453
1490.86	286.148
1494.39	520.934
1497.93	453.18
1501.46	23.652
1505	62.547
1508.53	2.605
1512.06	122.352
1515.59	462.062
1519.11	0
