Measurement: Raman, 785 nm, unoriented, Raman Data Processed
Mineral: Montebrasite
Rruff sample: R060890
Ideal chemistry: LiAlPO_4_(OH)
Locality: Mount Marie, Paris, Maine, USA
Source: Bob Jenkins
Description: Colorless massive
Measured chemistry: Li_1.00_Al_1.00_(P_1.00_O_4_)(OH)_0.63_F_0.37_)_Î£=1_ ; Li not measured but estimated by stoichiometry
Raman shift (cm-1)	intensity
155.758	0
158.65	73.6603
161.543	288.67
164.436	592.574
167.328	772.541
170.221	794.659
173.114	580.794
176.007	470.481
178.899	355.32
181.792	242.664
184.685	175.271
187.577	114.142
190.47	49.9556
193.363	6.52185
196.256	15.5715
199.148	6.79065
202.041	35.2222
204.934	55.2242
207.826	76.8508
210.719	110.177
213.612	83.9851
216.504	85.5686
219.397	65.4008
222.29	82.3098
225.183	64.1254
228.075	51.9122
230.968	34.3195
233.861	36.2299
236.753	19.9781
239.646	24.7286
242.539	7.19263
245.431	20.4889
248.324	13.9645
251.217	3.64453
254.109	10.8804
257.002	42.9246
259.895	175.386
262.788	269.83
265.68	439.737
268.573	615.027
271.466	786.635
274.358	806.08
277.251	839.151
280.144	879.576
283.036	1013.01
285.929	1235.95
288.822	1629.57
291.715	2454.8
294.607	3709.95
297.5	5291.57
300.393	6814.62
303.285	6661.21
306.178	4987.32
309.071	3695.13
311.964	2838.43
314.856	2100.79
317.749	1576.13
320.642	1244.26
323.534	1029.5
326.427	811.821
329.32	631.778
332.212	461.525
335.105	302.137
337.998	192.731
340.891	111.763
343.783	97.2996
346.676	55.7201
349.569	110.46
352.461	125.797
355.354	132.964
358.247	138.525
361.139	165.169
364.032	217.456
366.925	255.429
369.818	290.996
372.71	287.348
375.603	272.343
378.496	216.769
381.388	155.395
384.281	94.3885
387.174	41.1002
390.067	3.99512
392.959	12.2897
395.852	3.24365
398.745	6.80933
401.637	16.01
404.53	18.7626
407.423	28.0397
410.315	4.31287
413.208	79.1554
416.101	264.669
418.993	622.399
421.886	1177.14
424.779	1759.81
427.672	1578.51
430.564	706.924
433.457	300.584
436.35	141.361
439.242	87.1401
442.135	79.6503
445.028	59.5819
447.921	22.2502
450.813	51.3534
453.706	3.41223
456.599	27.675
459.491	46.6741
462.384	45.6398
465.277	79.3084
468.169	117.057
471.062	189.139
473.955	244.406
476.848	331.81
479.74	425.742
482.633	435.95
485.526	470.198
488.418	455.417
491.311	420.128
494.204	367.178
497.096	289.311
499.989	220.541
502.882	178.845
505.774	122.686
508.667	93.0244
511.56	49.7283
514.453	50.8517
517.345	27.6322
520.238	19.1116
523.131	32.0426
526.023	21.191
528.916	14.2213
531.809	14.8737
534.702	4.40222
537.594	24.1603
540.487	20.7906
543.38	1.09912
546.272	6.34363
549.165	12.0201
552.058	12.661
554.95	8.83899
557.843	16.9177
560.736	3.92883
563.629	15.7899
566.521	4.84229
569.414	11.9332
572.307	48.4707
575.199	51.4292
578.092	66.3738
580.985	92.4142
583.877	134.9
586.77	209.186
589.663	334.318
592.556	551.436
595.448	949.865
598.341	1567.32
601.234	2181.83
604.126	2167.27
607.019	1329.61
609.912	821.068
612.804	613.569
615.697	588.445
618.59	655.538
621.482	834.906
624.375	1170.56
627.268	1640.91
630.161	2084.21
633.053	2294.06
635.946	2093.9
638.839	2189.05
641.731	2722.8
644.624	3521.15
647.517	3329.64
650.409	1948.64
653.302	1091.42
656.195	615.7
659.088	413.224
661.98	237.681
664.873	195.782
667.766	97.4766
670.658	79.1573
673.551	52.0492
676.444	65.6514
679.337	64.4065
682.229	27.5625
685.122	26.0151
688.015	0.736694
690.907	5.61462
693.8	10.1307
696.693	10.6901
699.585	5.07422
702.478	4.47498
705.371	15.597
708.264	11.397
711.156	14.0503
714.049	6.96124
716.942	20.3924
719.834	12.717
722.727	10.6821
725.62	4.12787
728.513	0.193542
731.405	50.3316
734.298	10.8849
737.191	18.4924
740.083	29.9198
742.976	0.602966
745.869	6.4906
748.761	24.1178
751.654	12.7993
754.547	21.0239
757.439	23.4351
760.332	23.1348
763.225	32.8773
766.118	19.0847
769.01	5.53839
771.903	34.7296
774.796	74.8248
777.688	55.1429
780.581	110.735
783.474	155.099
786.366	225.421
789.259	273.916
792.152	377.947
795.045	461.799
797.937	574.243
800.83	653.04
803.723	711.028
806.615	725.274
809.508	756.837
812.401	742.123
815.293	651.477
818.186	577.928
821.079	516.811
823.972	407.87
826.864	316.702
829.757	230.814
832.65	169.74
835.542	141.3
838.435	90.234
841.328	67.5975
844.221	51.6768
847.113	45.8851
850.006	37.4566
852.899	2.86121
855.791	10.486
858.684	7.23639
861.577	8.43561
864.469	9.02039
867.362	10.7165
870.255	0.53009
873.148	8.62158
876.04	13.9647
878.933	3.21136
881.826	25.4211
884.718	34.7441
887.611	7.11353
890.504	51.108
893.396	29.9531
896.289	20.6314
899.182	41.8922
902.074	28.8199
904.967	42.5176
907.86	52.602
910.753	40.4483
913.645	36.0626
916.538	39.2807
919.431	40.0589
922.323	37.8808
925.216	30.9132
928.109	41.6556
931.001	22.1474
933.894	10.5271
936.787	12.2403
939.68	19.7337
942.572	15.8158
945.465	20.7133
948.358	10.6901
951.25	1.56616
954.143	6.82544
957.036	11.8135
959.928	7.88263
962.821	3.13263
965.714	10.9975
968.607	6.38239
971.499	25.8021
974.392	17.5046
977.285	71.0304
980.177	107.645
983.07	151.513
985.963	253.998
988.856	391.113
991.748	609.347
994.641	910.072
997.534	1388.38
1000.43	1913
1003.32	2577.39
1006.21	3194.67
1009.1	3528.74
1012	3320.03
1014.89	2720.78
1017.78	2035.93
1020.67	1390.5
1023.57	1064.51
1026.46	878.892
1029.35	919.129
1032.25	1108.36
1035.14	1366.37
1038.03	1658.01
1040.92	1983.55
1043.82	2211.36
1046.71	2302.41
1049.6	2439.28
1052.49	2611.98
1055.39	3050.49
1058.28	3647.8
1061.17	4200.51
1064.07	3798.77
1066.96	2601
1069.85	1479.28
1072.74	821.312
1075.64	430.884
1078.53	249.981
1081.42	101.466
1084.32	16.4877
1087.21	25.0148
1090.1	32.6195
1092.99	28.7053
1095.88	5.52649
1098.78	39.6504
1101.67	110.468
1104.56	200.363
1107.46	293.625
1110.35	424.729
1113.24	493.701
1116.13	595.917
1119.03	597.182
1121.92	595.581
1124.81	564.954
1127.7	512.824
1130.6	471.9
1133.49	389.356
1136.38	302.459
1139.28	235.47
1142.17	119.407
1145.06	78.4055
1147.95	49.6965
1150.85	29.0558
1153.74	16.2892
1156.63	16.7056
1159.53	0.423401
1162.42	8.0965
1165.31	11.7914
1168.2	2.57623
1171.1	7.21912
1173.99	0.775085
1176.88	5.43713
1179.77	20.5508
1182.67	1.50427
1185.56	25.5628
1188.45	39.0466
1191.35	41.0966
1194.24	54.968
1197.13	72.6963
1200.02	72.2285
1202.91	52.1193
1205.81	76.9088
1208.7	80.1089
1211.59	74.0345
1214.49	86.3549
1217.38	60.1907
1220.27	47.709
1223.16	54.7906
1226.06	34.1916
1228.95	26.8394
1231.84	34.4407
1234.73	27.3644
1237.63	23.081
1240.52	10.0824
1243.41	26.6173
1246.31	34.8466
1249.2	24.6801
1252.09	2.27588
1254.98	11.8978
1257.88	39.2717
1260.77	16.5092
