Measurement: Raman, 514 nm, unoriented, Raman Data Processed
Mineral: Montebrasite
Rruff sample: R040062
Ideal chemistry: LiAlPO_4_(OH)
Locality: Hebron, Maine, USA
Source: University of Arizona Mineral Museum
Description: White massive
Measured chemistry: LiAl(PO_4_)((OH)_0.62_F_0.38_)
Raman shift (cm-1)	intensity
151.711	0
155.863	73.034
160.013	179.386
164.161	429.943
168.308	757.98
172.452	831.605
176.594	813.97
180.734	685.616
184.872	593.561
189.008	623.828
193.143	482.579
197.275	420.341
201.405	419.125
205.534	364.92
209.66	284.503
213.784	236.854
217.907	230.136
222.027	242.122
226.146	296.696
230.263	225.549
234.377	99.676
238.49	112.447
242.601	134.007
246.709	8.161
250.816	82.839
254.921	123.295
259.024	150.222
263.125	386.841
267.224	864.68
271.321	1213.62
275.416	1800.6
279.51	1731.4
283.601	1461.49
287.69	1743.8
291.778	3313.94
295.863	6655.16
299.947	10244.4
304.029	9224.34
308.108	6378.1
312.186	4412.4
316.262	3125.05
320.336	2654.69
324.408	1980.72
328.478	1405.6
332.546	776.107
336.612	679.145
340.677	383.655
344.739	249.439
348.799	209.552
352.858	278.146
356.915	343.465
360.969	227.585
365.022	286.584
369.073	332.191
373.122	607.303
377.169	566.013
381.215	524.434
385.258	523.291
389.299	521.283
393.339	452.326
397.376	329.188
401.412	287.572
405.446	473.627
409.478	437.949
413.508	589.164
417.536	1119.08
421.562	2649.79
425.586	5192.37
429.609	4371.48
433.629	1817.89
437.648	798.217
441.665	562.518
445.68	315.789
449.693	270.078
453.704	103.283
457.713	150.395
461.721	328.396
465.726	390.281
469.73	381.027
473.731	660.633
477.731	1237.09
481.729	1659.33
485.725	1829.32
489.72	1818.08
493.712	1612.57
497.703	1201.82
501.691	1024.82
505.678	642.578
509.663	288.053
513.646	218.791
517.627	124.809
521.607	59.912
525.584	74.912
529.56	39.809
533.534	12.734
537.506	34.361
541.476	75.619
545.444	92.102
549.41	139.676
553.375	273.088
557.337	193.98
561.298	151.211
565.257	9.268
569.214	58.311
573.17	149.273
577.123	143.832
581.075	173.678
585.024	191.604
588.972	556.533
592.918	871.355
596.863	1742.84
600.805	3228.71
604.746	3043.49
608.685	1949.89
612.621	1152.28
616.557	1281.53
620.49	1627.31
624.421	2681.06
628.351	4126.63
632.279	4971.73
636.205	4272.48
640.129	5131.86
644.051	8927.85
647.972	9344.45
651.89	5183.65
655.807	2460.46
659.722	1312.88
663.636	781.896
667.547	388.521
671.457	304.744
675.365	543.998
679.271	391.088
683.175	319.541
687.077	159.254
690.978	209.236
694.877	212.324
698.774	141.471
702.669	258.662
706.562	161.064
710.454	402.336
714.344	252.139
718.232	334.078
722.118	139.234
726.002	64.309
729.885	82.416
733.766	82.266
737.645	122.539
741.522	106.865
745.397	92.389
749.271	140.494
753.143	245.154
757.013	223.316
760.881	24.895
764.748	211.959
768.613	359.637
772.476	283.238
776.337	123.217
780.196	461.863
784.054	449.176
787.91	938.182
791.764	964.693
795.616	1383.1
799.467	1891.21
803.316	2734.04
807.163	1572.58
811.008	1838.85
814.851	1231.85
818.693	1087.59
822.533	880.072
826.371	587.012
830.208	472.258
834.042	369.33
837.875	201.322
841.706	112.932
845.536	8.051
849.363	181.141
853.189	20.945
857.013	33.131
860.836	83.236
864.656	125.812
868.475	96.781
872.292	49.178
876.108	298.613
879.922	284.102
883.733	165.734
887.544	65.518
891.352	175.68
895.159	157.133
898.964	272.186
902.767	282.219
906.568	157.441
910.368	262.375
914.166	206.424
917.962	238.822
921.757	84.992
925.55	241.166
929.341	131.223
933.13	134.926
936.918	266.795
940.703	129.186
944.488	326.748
948.27	128.73
952.051	164.768
955.83	196.711
959.607	260.992
963.383	194.189
967.156	409.566
970.928	529.109
974.699	794.717
978.468	859.41
982.234	1209.18
986	880.064
989.763	1579.89
993.525	2764.32
997.285	4178.95
1001.04	5774.59
1004.8	9141.73
1008.55	12577.9
1012.31	13902.1
1016.06	11425.9
1019.81	8204.34
1023.56	5944.27
1027.31	4371.31
1031.05	4775.89
1034.79	5286.78
1038.53	6832.15
1042.27	9103.98
1046.01	10287.6
1049.75	10655.8
1053.48	11021.8
1057.22	12160.8
1060.95	14280.6
1064.68	11616.8
1068.4	6654.32
1072.13	4005.8
1075.86	2512
1079.58	1723.12
1083.3	1540.28
1087.02	1351
1090.74	1091.79
1094.45	921.418
1098.17	857.195
1101.88	1539.19
1105.59	1833.39
1109.3	2673.67
1113.01	2876.89
1116.71	2613.73
1120.42	2950.3
1124.12	3287.82
1127.82	1638.36
1131.52	1320.13
1135.22	553.926
1138.91	303.918
1142.61	157.352
1146.3	334.266
1149.99	202.363
1153.68	129.457
1157.37	347.816
1161.06	45.41
1164.74	308.25
1168.42	118.164
1172.1	442.5
1175.78	182.344
1179.46	54.844
1183.14	257.727
1186.81	416.59
1190.48	538.566
1194.15	822.426
1197.83	610.34
1201.49	652.391
1205.16	342.191
1208.82	783.363
1212.49	467.406
1216.15	223.074
1219.81	536.711
1223.46	377.793
1227.12	502.188
1230.78	16.711
1234.43	77.637
1238.08	232.66
1241.73	223.66
1245.38	234.402
1249.03	387.594
1252.67	158.086
1256.31	296.691
1259.95	12.688
1263.6	250.59
1267.23	77.078
1270.87	199.348
1274.51	170.707
1278.14	101.824
1281.77	284.199
1285.4	94.594
1289.03	187.672
1292.66	347.945
1296.28	28.832
1299.91	41.844
1303.53	10.578
1307.15	96.129
1310.77	111.496
1314.38	89.719
1318	198.504
1321.61	80.348
1325.23	50.727
1328.84	125.207
1332.45	209.43
1336.06	1.684
1339.66	238.906
1343.27	211.297
1346.87	301.734
1350.47	531.75
1354.07	469.707
1357.67	520.012
1361.26	213.496
1364.86	391
1368.45	328.117
1372.04	274.922
1375.63	437.559
1379.22	441.434
1382.81	568.316
1386.39	668.43
1389.98	685.938
1393.56	487.348
1397.14	486.57
1400.72	642.27
1404.3	472.047
1407.87	583.156
1411.45	592.688
1415.02	226.414
1418.59	225.523
1422.16	374.086
1425.73	453.406
1429.29	532.293
1432.86	345.027
1436.42	223.281
1439.98	510.023
1443.54	519.148
1447.1	207.227
1450.66	428.258
1454.21	288.871
1457.77	204.461
1461.32	332.395
1464.87	416.09
1468.42	698.82
1471.96	564.922
1475.51	642.656
1479.06	281.398
1482.6	781.008
1486.14	424.285
1489.68	11.789
1493.22	118.344
1496.75	167.773
1500.29	544.488
